MODEL 1
REMARK minimizedAffinity 7.54860878
REMARK minimizedRMSD -1
REMARK  1 active torsions:
REMARK  status: ('A' for Active; 'I' for Inactive)
REMARK    1  A    between atoms: C3_4  and  O_7 
ROOT
ATOM      1  C   UNL d   1      -2.556  -1.050   1.108  0.00  0.00    -0.033 A 
ATOM      2  C1  UNL d   1      -3.634  -0.163   1.073  0.00  0.00     0.039 A 
ATOM      3  C2  UNL d   1      -3.678   0.921   1.951  0.00  0.00    -0.080 A 
ATOM      4  C3  UNL d   1      -2.638   1.108   2.858  0.00  0.00     0.150 A 
ATOM      5  C4  UNL d   1      -1.559   0.231   2.895  0.00  0.00    -0.007 A 
ATOM      6  C5  UNL d   1      -1.518  -0.851   2.018  0.00  0.00     0.039 A 
ENDROOT
BRANCH   4   7
ATOM      7  O   UNL d   1      -2.639   2.149   3.738  0.00  0.00    -0.526 OA
ATOM      8  H5  UNL d   1      -3.460   2.654   3.617  0.00  0.00     0.418 HD
ENDBRANCH   4   7
TORSDOF 1
ENDMDL
