MODEL 1
REMARK minimizedAffinity 8.03634548
REMARK minimizedRMSD -1
REMARK  1 active torsions:
REMARK  status: ('A' for Active; 'I' for Inactive)
REMARK    1  A    between atoms: C3_4  and  O_7 
ROOT
ATOM      1  C   UNL d   1       5.770   4.108  -3.692  0.00  0.00    -0.033 A 
ATOM      2  C1  UNL d   1       5.054   3.430  -4.681  0.00  0.00     0.039 A 
ATOM      3  C2  UNL d   1       3.730   3.049  -4.449  0.00  0.00    -0.080 A 
ATOM      4  C3  UNL d   1       3.136   3.353  -3.227  0.00  0.00     0.150 A 
ATOM      5  C4  UNL d   1       3.843   4.031  -2.240  0.00  0.00    -0.007 A 
ATOM      6  C5  UNL d   1       5.164   4.409  -2.472  0.00  0.00     0.039 A 
ENDROOT
BRANCH   4   7
ATOM      7  O   UNL d   1       1.849   2.997  -2.953  0.00  0.00    -0.526 OA
ATOM      8  H5  UNL d   1       1.495   2.510  -3.716  0.00  0.00     0.418 HD
ENDBRANCH   4   7
TORSDOF 1
ENDMDL
