MODEL 1
REMARK minimizedAffinity 11.337389
REMARK minimizedRMSD -1
REMARK  1 active torsions:
REMARK  status: ('A' for Active; 'I' for Inactive)
REMARK    1  A    between atoms: C3_4  and  O_7 
ROOT
ATOM      1  C   UNL d   1       5.916   4.760  -3.701  0.00  0.00    -0.033 A 
ATOM      2  C1  UNL d   1       5.300   3.997  -4.695  0.00  0.00     0.039 A 
ATOM      3  C2  UNL d   1       4.019   3.481  -4.488  0.00  0.00    -0.080 A 
ATOM      4  C3  UNL d   1       3.366   3.735  -3.285  0.00  0.00     0.150 A 
ATOM      5  C4  UNL d   1       3.972   4.498  -2.292  0.00  0.00    -0.007 A 
ATOM      6  C5  UNL d   1       5.251   5.012  -2.500  0.00  0.00     0.039 A 
ENDROOT
BRANCH   4   7
ATOM      7  O   UNL d   1       2.117   3.248  -3.036  0.00  0.00    -0.526 OA
ATOM      8  H5  UNL d   1       1.836   2.716  -3.799  0.00  0.00     0.418 HD
ENDBRANCH   4   7
TORSDOF 1
ENDMDL
