MODEL 1
REMARK minimizedAffinity -4.47144175
REMARK minimizedRMSD -1
REMARK  1 active torsions:
REMARK  status: ('A' for Active; 'I' for Inactive)
REMARK    1  A    between atoms: C1_2  and  C2_3 
ROOT
ATOM      1  C2  UNL d   1      -0.406   0.011   0.162  0.00  0.00    -0.077 A 
ATOM      2  C3  UNL d   1       0.577   0.871  -0.348  0.00  0.00     0.002 A 
ATOM      3  C4  UNL d   1       1.794   0.360  -0.805  0.00  0.00     0.002 A 
ATOM      4  C5  UNL d   1       2.037  -1.011  -0.760  0.00  0.00    -0.004 A 
ATOM      5  C6  UNL d   1       1.067  -1.874  -0.252  0.00  0.00     0.002 A 
ATOM      6  C7  UNL d   1      -0.149  -1.365   0.206  0.00  0.00     0.002 A 
ENDROOT
BRANCH   1   7
ATOM      7  C1  UNL d   1      -1.737   0.555   0.610  0.00  0.00     0.055 C 
ATOM      8  C   UNL d   1      -1.748   0.831   2.107  0.00  0.00     0.019 C 
ENDBRANCH   1   7
TORSDOF 1
ENDMDL
