MODEL 1
REMARK minimizedAffinity -5.50368071
REMARK minimizedRMSD -1
REMARK  1 active torsions:
REMARK  status: ('A' for Active; 'I' for Inactive)
REMARK    1  A    between atoms: C1_2  and  C2_3 
ROOT
ATOM      1  C2  UNL d   1       0.896   0.568  -1.260  0.00  0.00    -0.077 A 
ATOM      2  C3  UNL d   1       1.079   1.694  -2.074  0.00  0.00     0.002 A 
ATOM      3  C4  UNL d   1       2.167   1.765  -2.946  0.00  0.00     0.002 A 
ATOM      4  C5  UNL d   1       3.077   0.713  -3.014  0.00  0.00    -0.004 A 
ATOM      5  C6  UNL d   1       2.905  -0.411  -2.207  0.00  0.00     0.002 A 
ATOM      6  C7  UNL d   1       1.818  -0.483  -1.334  0.00  0.00     0.002 A 
ENDROOT
BRANCH   1   7
ATOM      7  C1  UNL d   1      -0.305   0.468  -0.355  0.00  0.00     0.055 C 
ATOM      8  C   UNL d   1      -0.767  -0.974  -0.205  0.00  0.00     0.019 C 
ENDBRANCH   1   7
TORSDOF 1
ENDMDL
