MODEL 1
REMARK minimizedAffinity -3.23437476
REMARK minimizedRMSD -1
REMARK  1 active torsions:
REMARK  status: ('A' for Active; 'I' for Inactive)
REMARK    1  A    between atoms: C1_2  and  C2_3 
ROOT
ATOM      1  C2  UNL d   1       0.996  -0.108  -0.914  0.00  0.00    -0.077 A 
ATOM      2  C3  UNL d   1       0.033  -0.777  -0.145  0.00  0.00     0.002 A 
ATOM      3  C4  UNL d   1      -1.174  -0.153   0.175  0.00  0.00     0.002 A 
ATOM      4  C5  UNL d   1      -1.432   1.141  -0.273  0.00  0.00    -0.004 A 
ATOM      5  C6  UNL d   1      -0.480   1.816  -1.037  0.00  0.00     0.002 A 
ATOM      6  C7  UNL d   1       0.728   1.194  -1.357  0.00  0.00     0.002 A 
ENDROOT
BRANCH   1   7
ATOM      7  C1  UNL d   1       2.277  -0.798  -1.302  0.00  0.00     0.055 C 
ATOM      8  C   UNL d   1       2.786  -0.305  -2.649  0.00  0.00     0.019 C 
ENDBRANCH   1   7
TORSDOF 1
ENDMDL
