MODEL 1
REMARK minimizedAffinity -4.95306015
REMARK minimizedRMSD -1
REMARK  1 active torsions:
REMARK  status: ('A' for Active; 'I' for Inactive)
REMARK    1  A    between atoms: C1_2  and  C2_3 
ROOT
ATOM      1  C2  UNL d   1      -0.299  -0.028   0.091  0.00  0.00    -0.077 A 
ATOM      2  C3  UNL d   1      -0.101  -1.388  -0.187  0.00  0.00     0.002 A 
ATOM      3  C4  UNL d   1       1.111  -1.831  -0.719  0.00  0.00     0.002 A 
ATOM      4  C5  UNL d   1       2.136  -0.922  -0.974  0.00  0.00    -0.004 A 
ATOM      5  C6  UNL d   1       1.949   0.432  -0.702  0.00  0.00     0.002 A 
ATOM      6  C7  UNL d   1       0.737   0.877  -0.172  0.00  0.00     0.002 A 
ENDROOT
BRANCH   1   7
ATOM      7  C1  UNL d   1      -1.587   0.445   0.711  0.00  0.00     0.055 C 
ATOM      8  C   UNL d   1      -1.381   0.878   2.155  0.00  0.00     0.019 C 
ENDBRANCH   1   7
TORSDOF 1
ENDMDL
