MODEL 1
REMARK minimizedAffinity -5.80265188
REMARK minimizedRMSD -1
REMARK  1 active torsions:
REMARK  status: ('A' for Active; 'I' for Inactive)
REMARK    1  A    between atoms: C1_2  and  C2_3 
ROOT
ATOM      1  C2  UNL d   1       0.300   0.767  -0.776  0.00  0.00    -0.077 A 
ATOM      2  C3  UNL d   1       0.879   1.502  -1.820  0.00  0.00     0.002 A 
ATOM      3  C4  UNL d   1       2.039   1.043  -2.449  0.00  0.00     0.002 A 
ATOM      4  C5  UNL d   1       2.626  -0.154  -2.043  0.00  0.00    -0.004 A 
ATOM      5  C6  UNL d   1       2.059  -0.890  -1.004  0.00  0.00     0.002 A 
ATOM      6  C7  UNL d   1       0.901  -0.433  -0.374  0.00  0.00     0.002 A 
ENDROOT
BRANCH   1   7
ATOM      7  C1  UNL d   1      -0.977   1.236  -0.130  0.00  0.00     0.055 C 
ATOM      8  C   UNL d   1      -1.253   0.481   1.162  0.00  0.00     0.019 C 
ENDBRANCH   1   7
TORSDOF 1
ENDMDL
