MODEL 1
REMARK minimizedAffinity -5.3877511
REMARK minimizedRMSD -1
REMARK  1 active torsions:
REMARK  status: ('A' for Active; 'I' for Inactive)
REMARK    1  A    between atoms: C1_2  and  C2_3 
ROOT
ATOM      1  C2  UNL d   1       1.001  -0.049  -0.653  0.00  0.00    -0.077 A 
ATOM      2  C3  UNL d   1       0.748   1.084  -1.440  0.00  0.00     0.002 A 
ATOM      3  C4  UNL d   1       1.648   1.467  -2.436  0.00  0.00     0.002 A 
ATOM      4  C5  UNL d   1       2.803   0.720  -2.658  0.00  0.00    -0.004 A 
ATOM      5  C6  UNL d   1       3.064  -0.407  -1.880  0.00  0.00     0.002 A 
ATOM      6  C7  UNL d   1       2.167  -0.790  -0.882  0.00  0.00     0.002 A 
ENDROOT
BRANCH   1   7
ATOM      7  C1  UNL d   1       0.007  -0.491   0.389  0.00  0.00     0.055 C 
ATOM      8  C   UNL d   1      -1.335   0.202   0.205  0.00  0.00     0.019 C 
ENDBRANCH   1   7
TORSDOF 1
ENDMDL
