MODEL 1
REMARK minimizedAffinity -5.18782711
REMARK minimizedRMSD -1
REMARK  1 active torsions:
REMARK  status: ('A' for Active; 'I' for Inactive)
REMARK    1  A    between atoms: C1_2  and  C2_3 
ROOT
ATOM      1  C2  UNL d   1       0.855   0.555  -0.368  0.00  0.00    -0.077 A 
ATOM      2  C3  UNL d   1       0.739   1.079  -1.663  0.00  0.00     0.002 A 
ATOM      3  C4  UNL d   1       1.806   0.990  -2.559  0.00  0.00     0.002 A 
ATOM      4  C5  UNL d   1       2.994   0.375  -2.171  0.00  0.00    -0.004 A 
ATOM      5  C6  UNL d   1       3.121  -0.147  -0.885  0.00  0.00     0.002 A 
ATOM      6  C7  UNL d   1       2.056  -0.058   0.013  0.00  0.00     0.002 A 
ENDROOT
BRANCH   1   7
ATOM      7  C1  UNL d   1      -0.311   0.606   0.584  0.00  0.00     0.055 C 
ATOM      8  C   UNL d   1      -1.503  -0.170   0.041  0.00  0.00     0.019 C 
ENDBRANCH   1   7
TORSDOF 1
ENDMDL
