MODEL 1
REMARK minimizedAffinity -3.42345953
REMARK minimizedRMSD -1
REMARK  1 active torsions:
REMARK  status: ('A' for Active; 'I' for Inactive)
REMARK    1  A    between atoms: C1_2  and  C2_3 
ROOT
ATOM      1  C2  UNL d   1      -0.156  -0.458  -0.147  0.00  0.00    -0.077 A 
ATOM      2  C3  UNL d   1       0.767  -0.121  -1.147  0.00  0.00     0.002 A 
ATOM      3  C4  UNL d   1       1.920  -0.886  -1.331  0.00  0.00     0.002 A 
ATOM      4  C5  UNL d   1       2.159  -1.995  -0.521  0.00  0.00    -0.004 A 
ATOM      5  C6  UNL d   1       1.248  -2.337   0.477  0.00  0.00     0.002 A 
ATOM      6  C7  UNL d   1       0.095  -1.572   0.663  0.00  0.00     0.002 A 
ENDROOT
BRANCH   1   7
ATOM      7  C1  UNL d   1      -1.425   0.337   0.020  0.00  0.00     0.055 C 
ATOM      8  C   UNL d   1      -1.796   0.485   1.488  0.00  0.00     0.019 C 
ENDBRANCH   1   7
TORSDOF 1
ENDMDL
