MODEL 1
REMARK minimizedAffinity -4.09390879
REMARK minimizedRMSD -1
REMARK  1 active torsions:
REMARK  status: ('A' for Active; 'I' for Inactive)
REMARK    1  A    between atoms: C1_2  and  C2_3 
ROOT
ATOM      1  C2  UNL d   1       1.015  -0.621  -0.256  0.00  0.00    -0.077 A 
ATOM      2  C3  UNL d   1       1.816   0.061   0.671  0.00  0.00     0.002 A 
ATOM      3  C4  UNL d   1       3.159   0.318   0.389  0.00  0.00     0.002 A 
ATOM      4  C5  UNL d   1       3.711  -0.099  -0.820  0.00  0.00    -0.004 A 
ATOM      5  C6  UNL d   1       2.923  -0.780  -1.748  0.00  0.00     0.002 A 
ATOM      6  C7  UNL d   1       1.581  -1.039  -1.467  0.00  0.00     0.002 A 
ENDROOT
BRANCH   1   7
ATOM      7  C1  UNL d   1      -0.446  -0.857   0.025  0.00  0.00     0.055 C 
ATOM      8  C   UNL d   1      -1.145   0.431   0.437  0.00  0.00     0.019 C 
ENDBRANCH   1   7
TORSDOF 1
ENDMDL
