MODEL 1
REMARK minimizedAffinity -6.45349026
REMARK minimizedRMSD -1
REMARK  1 active torsions:
REMARK  status: ('A' for Active; 'I' for Inactive)
REMARK    1  A    between atoms: C1_2  and  C2_3 
ROOT
ATOM      1  C2  UNL d   1       0.530   0.105  -0.460  0.00  0.00    -0.077 A 
ATOM      2  C3  UNL d   1       1.186   1.135  -1.149  0.00  0.00     0.002 A 
ATOM      3  C4  UNL d   1       2.370   0.877  -1.843  0.00  0.00     0.002 A 
ATOM      4  C5  UNL d   1       2.906  -0.409  -1.858  0.00  0.00    -0.004 A 
ATOM      5  C6  UNL d   1       2.262  -1.439  -1.173  0.00  0.00     0.002 A 
ATOM      6  C7  UNL d   1       1.079  -1.184  -0.478  0.00  0.00     0.002 A 
ENDROOT
BRANCH   1   7
ATOM      7  C1  UNL d   1      -0.773   0.370   0.248  0.00  0.00     0.055 C 
ATOM      8  C   UNL d   1      -1.719   1.187  -0.620  0.00  0.00     0.019 C 
ENDBRANCH   1   7
TORSDOF 1
ENDMDL
