MODEL 1
REMARK minimizedAffinity -5.19583464
REMARK minimizedRMSD -1
REMARK  1 active torsions:
REMARK  status: ('A' for Active; 'I' for Inactive)
REMARK    1  A    between atoms: C1_2  and  C2_3 
ROOT
ATOM      1  C2  UNL d   1      -0.141   0.564  -0.622  0.00  0.00    -0.077 A 
ATOM      2  C3  UNL d   1       0.414  -0.710  -0.434  0.00  0.00     0.002 A 
ATOM      3  C4  UNL d   1       1.675  -1.014  -0.950  0.00  0.00     0.002 A 
ATOM      4  C5  UNL d   1       2.393  -0.050  -1.654  0.00  0.00    -0.004 A 
ATOM      5  C6  UNL d   1       1.849   1.219  -1.848  0.00  0.00     0.002 A 
ATOM      6  C7  UNL d   1       0.588   1.525  -1.334  0.00  0.00     0.002 A 
ENDROOT
BRANCH   1   7
ATOM      7  C1  UNL d   1      -1.480   0.909  -0.024  0.00  0.00     0.055 C 
ATOM      8  C   UNL d   1      -1.573   0.453   1.424  0.00  0.00     0.019 C 
ENDBRANCH   1   7
TORSDOF 1
ENDMDL
