MODEL 1
REMARK minimizedAffinity -4.84079361
REMARK minimizedRMSD -1
REMARK  1 active torsions:
REMARK  status: ('A' for Active; 'I' for Inactive)
REMARK    1  A    between atoms: C1_2  and  C2_3 
ROOT
ATOM      1  C2  UNL d   1      -0.644   0.286   0.985  0.00  0.00    -0.077 A 
ATOM      2  C3  UNL d   1      -0.334   0.963   2.173  0.00  0.00     0.002 A 
ATOM      3  C4  UNL d   1      -1.330   1.230   3.114  0.00  0.00     0.002 A 
ATOM      4  C5  UNL d   1      -2.641   0.819   2.880  0.00  0.00    -0.004 A 
ATOM      5  C6  UNL d   1      -2.960   0.146   1.702  0.00  0.00     0.002 A 
ATOM      6  C7  UNL d   1      -1.966  -0.120   0.759  0.00  0.00     0.002 A 
ENDROOT
BRANCH   1   7
ATOM      7  C1  UNL d   1       0.438  -0.046  -0.009  0.00  0.00     0.055 C 
ATOM      8  C   UNL d   1       0.849  -1.508   0.088  0.00  0.00     0.019 C 
ENDBRANCH   1   7
TORSDOF 1
ENDMDL
