MODEL 1
REMARK minimizedAffinity -5.7676425
REMARK minimizedRMSD -1
REMARK  1 active torsions:
REMARK  status: ('A' for Active; 'I' for Inactive)
REMARK    1  A    between atoms: C1_2  and  C2_3 
ROOT
ATOM      1  C2  UNL d   1       1.022   1.074  -1.341  0.00  0.00    -0.077 A 
ATOM      2  C3  UNL d   1       2.135   0.804  -2.150  0.00  0.00     0.002 A 
ATOM      3  C4  UNL d   1       2.671  -0.484  -2.207  0.00  0.00     0.002 A 
ATOM      4  C5  UNL d   1       2.098  -1.512  -1.462  0.00  0.00    -0.004 A 
ATOM      5  C6  UNL d   1       0.993  -1.253  -0.652  0.00  0.00     0.002 A 
ATOM      6  C7  UNL d   1       0.457   0.034  -0.593  0.00  0.00     0.002 A 
ENDROOT
BRANCH   1   7
ATOM      7  C1  UNL d   1       0.413   2.451  -1.316  0.00  0.00     0.055 C 
ATOM      8  C   UNL d   1       1.194   3.418  -2.194  0.00  0.00     0.019 C 
ENDBRANCH   1   7
TORSDOF 1
ENDMDL
