MODEL 1
REMARK minimizedAffinity -4.22403479
REMARK minimizedRMSD -1
REMARK  1 active torsions:
REMARK  status: ('A' for Active; 'I' for Inactive)
REMARK    1  A    between atoms: C1_2  and  C2_3 
ROOT
ATOM      1  C2  UNL d   1       0.120   0.113   0.947  0.00  0.00    -0.076 A 
ATOM      2  C3  UNL d   1      -0.897   0.007   1.911  0.00  0.00     0.004 A 
ATOM      3  C4  UNL d   1      -0.865  -0.994   2.881  0.00  0.00    -0.003 A 
ATOM      4  C5  UNL d   1       0.186  -1.905   2.902  0.00  0.00     0.000 A 
ATOM      5  C6  UNL d   1       1.213  -1.804   1.964  0.00  0.00     0.000 A 
ATOM      6  C7  UNL d   1       1.204  -0.791   0.990  0.00  0.00    -0.073 A 
ATOM      7  C8  UNL d   1       2.334  -0.733  -0.001  0.00  0.00     0.078 C 
ENDROOT
BRANCH   1   8
ATOM      8  C1  UNL d   1       0.018   1.202  -0.097  0.00  0.00     0.053 C 
ATOM      9  C   UNL d   1      -0.862   0.802  -1.271  0.00  0.00     0.018 C 
ENDBRANCH   1   8
TORSDOF 1
ENDMDL
