MODEL 1
REMARK minimizedAffinity -2.61847162
REMARK minimizedRMSD -1
REMARK  1 active torsions:
REMARK  status: ('A' for Active; 'I' for Inactive)
REMARK    1  A    between atoms: C1_2  and  C2_3 
ROOT
ATOM      1  C2  UNL d   1       0.239   0.675   0.101  0.00  0.00    -0.076 A 
ATOM      2  C3  UNL d   1       1.311   0.767  -0.804  0.00  0.00     0.004 A 
ATOM      3  C4  UNL d   1       2.319  -0.196  -0.822  0.00  0.00    -0.003 A 
ATOM      4  C5  UNL d   1       2.270  -1.267   0.064  0.00  0.00     0.000 A 
ATOM      5  C6  UNL d   1       1.205  -1.384   0.956  0.00  0.00     0.000 A 
ATOM      6  C7  UNL d   1       0.172  -0.430   0.976  0.00  0.00    -0.073 A 
ATOM      7  C8  UNL d   1      -0.950  -0.602   1.963  0.00  0.00     0.078 C 
ENDROOT
BRANCH   1   8
ATOM      8  C1  UNL d   1      -0.811   1.763   0.093  0.00  0.00     0.053 C 
ATOM      9  C   UNL d   1      -1.342   2.050  -1.303  0.00  0.00     0.018 C 
ENDBRANCH   1   8
TORSDOF 1
ENDMDL
