MODEL 1
REMARK minimizedAffinity -1.66536367
REMARK minimizedRMSD -1
REMARK  1 active torsions:
REMARK  status: ('A' for Active; 'I' for Inactive)
REMARK    1  A    between atoms: C1_2  and  C2_3 
ROOT
ATOM      1  C2  UNL d   1       0.137  -1.086   1.562  0.00  0.00    -0.076 A 
ATOM      2  C3  UNL d   1      -0.570   0.050   1.131  0.00  0.00     0.004 A 
ATOM      3  C4  UNL d   1      -0.237   0.693  -0.060  0.00  0.00    -0.003 A 
ATOM      4  C5  UNL d   1       0.808   0.210  -0.840  0.00  0.00     0.000 A 
ATOM      5  C6  UNL d   1       1.508  -0.927  -0.437  0.00  0.00     0.000 A 
ATOM      6  C7  UNL d   1       1.175  -1.596   0.753  0.00  0.00    -0.073 A 
ATOM      7  C8  UNL d   1       1.968  -2.814   1.143  0.00  0.00     0.078 C 
ENDROOT
BRANCH   1   8
ATOM      8  C1  UNL d   1      -0.251  -1.725   2.876  0.00  0.00     0.053 C 
ATOM      9  C   UNL d   1      -1.717  -1.511   3.218  0.00  0.00     0.018 C 
ENDBRANCH   1   8
TORSDOF 1
ENDMDL
