MODEL 1
REMARK minimizedAffinity 0.351368964
REMARK minimizedRMSD -1
REMARK  1 active torsions:
REMARK  status: ('A' for Active; 'I' for Inactive)
REMARK    1  A    between atoms: C1_2  and  C2_3 
ROOT
ATOM      1  C2  UNL d   1      -0.797   1.132  -1.050  0.00  0.00    -0.076 A 
ATOM      2  C3  UNL d   1      -0.766   2.473  -1.471  0.00  0.00     0.004 A 
ATOM      3  C4  UNL d   1      -1.618   2.929  -2.475  0.00  0.00    -0.003 A 
ATOM      4  C5  UNL d   1      -2.515   2.052  -3.075  0.00  0.00     0.000 A 
ATOM      5  C6  UNL d   1      -2.572   0.722  -2.657  0.00  0.00     0.000 A 
ATOM      6  C7  UNL d   1      -1.731   0.250  -1.635  0.00  0.00    -0.073 A 
ATOM      7  C8  UNL d   1      -1.830  -1.195  -1.228  0.00  0.00     0.078 C 
ENDROOT
BRANCH   1   8
ATOM      8  C1  UNL d   1       0.170   0.688   0.025  0.00  0.00     0.053 C 
ATOM      9  C   UNL d   1       1.278  -0.201  -0.519  0.00  0.00     0.018 C 
ENDBRANCH   1   8
TORSDOF 1
ENDMDL
