MODEL 1
REMARK minimizedAffinity -1.00797915
REMARK minimizedRMSD -1
REMARK  1 active torsions:
REMARK  status: ('A' for Active; 'I' for Inactive)
REMARK    1  A    between atoms: C1_2  and  C2_3 
ROOT
ATOM      1  C2  UNL d   1      -0.870   0.585  -1.046  0.00  0.00    -0.076 A 
ATOM      2  C3  UNL d   1      -1.319   0.116  -2.292  0.00  0.00     0.004 A 
ATOM      3  C4  UNL d   1      -2.073   0.929  -3.136  0.00  0.00    -0.003 A 
ATOM      4  C5  UNL d   1      -2.391   2.226  -2.747  0.00  0.00     0.000 A 
ATOM      5  C6  UNL d   1      -1.940   2.714  -1.521  0.00  0.00     0.000 A 
ATOM      6  C7  UNL d   1      -1.164   1.913  -0.666  0.00  0.00    -0.073 A 
ATOM      7  C8  UNL d   1      -0.709   2.488   0.647  0.00  0.00     0.078 C 
ENDROOT
BRANCH   1   8
ATOM      8  C1  UNL d   1      -0.079  -0.351  -0.161  0.00  0.00     0.053 C 
ATOM      9  C   UNL d   1       1.395  -0.399  -0.534  0.00  0.00     0.018 C 
ENDBRANCH   1   8
TORSDOF 1
ENDMDL
