MODEL 1
REMARK minimizedAffinity -3.25757957
REMARK minimizedRMSD -1
REMARK  1 active torsions:
REMARK  status: ('A' for Active; 'I' for Inactive)
REMARK    1  A    between atoms: C1_2  and  C2_3 
ROOT
ATOM      1  C2  UNL d   1       0.015   0.371   0.320  0.00  0.00    -0.076 A 
ATOM      2  C3  UNL d   1      -0.651  -0.271   1.378  0.00  0.00     0.004 A 
ATOM      3  C4  UNL d   1      -0.087  -1.374   2.018  0.00  0.00    -0.003 A 
ATOM      4  C5  UNL d   1       1.154  -1.851   1.610  0.00  0.00     0.000 A 
ATOM      5  C6  UNL d   1       1.837  -1.215   0.574  0.00  0.00     0.000 A 
ATOM      6  C7  UNL d   1       1.289  -0.093  -0.071  0.00  0.00    -0.073 A 
ATOM      7  C8  UNL d   1       2.067   0.551  -1.186  0.00  0.00     0.078 C 
ENDROOT
BRANCH   1   8
ATOM      8  C1  UNL d   1      -0.659   1.545  -0.353  0.00  0.00     0.053 C 
ATOM      9  C   UNL d   1      -1.443   1.136  -1.590  0.00  0.00     0.018 C 
ENDBRANCH   1   8
TORSDOF 1
ENDMDL
