MODEL 1
REMARK minimizedAffinity -5.31999779
REMARK minimizedRMSD -1
REMARK  2 active torsions:
REMARK  status: ('A' for Active; 'I' for Inactive)
REMARK    1  A    between atoms: C2'_3  and  C1'_4 
REMARK    2  A    between atoms: C1'_4  and  C1_5 
ROOT
ATOM      1  C1  I4B d   1       0.384  -0.026  -0.450  0.00  0.00    -0.075 A 
ATOM      2  C2  I4B d   1      -0.262   1.142  -0.770  0.00  0.00     0.003 A 
ATOM      3  C3  I4B d   1      -0.658   2.040   0.250  0.00  0.00     0.002 A 
ATOM      4  C4  I4B d   1      -0.435   1.709   1.571  0.00  0.00    -0.004 A 
ATOM      5  C5  I4B d   1       0.241   0.535   1.892  0.00  0.00     0.002 A 
ATOM      6  C6  I4B d   1       0.664  -0.333   0.875  0.00  0.00     0.003 A 
ENDROOT
BRANCH   1   7
ATOM      7  C1' I4B d   1       0.759  -0.968  -1.551  0.00  0.00     0.060 C 
BRANCH   7   8
ATOM      8  C2' I4B d   1       0.193  -2.331  -1.212  0.00  0.00    -0.013 C 
ATOM      9  C4' I4B d   1      -0.759  -2.807  -2.278  0.00  0.00     0.013 C 
ATOM     10  C3' I4B d   1       1.341  -3.282  -1.048  0.00  0.00     0.013 C 
ENDBRANCH   7   8
ENDBRANCH   1   7
TORSDOF 2
ENDMDL
