MODEL 1
REMARK minimizedAffinity -5.81557846
REMARK minimizedRMSD -1
REMARK  2 active torsions:
REMARK  status: ('A' for Active; 'I' for Inactive)
REMARK    1  A    between atoms: C2'_3  and  C1'_4 
REMARK    2  A    between atoms: C1'_4  and  C1_5 
ROOT
ATOM      1  C1  I4B d   1       0.060  -0.220   0.150  0.00  0.00    -0.075 A 
ATOM      2  C2  I4B d   1       0.044  -0.862   1.363  0.00  0.00     0.003 A 
ATOM      3  C3  I4B d   1      -0.381  -0.177   2.527  0.00  0.00     0.002 A 
ATOM      4  C4  I4B d   1      -0.730   1.155   2.442  0.00  0.00    -0.004 A 
ATOM      5  C5  I4B d   1      -0.735   1.799   1.208  0.00  0.00     0.002 A 
ATOM      6  C6  I4B d   1      -0.349   1.104   0.053  0.00  0.00     0.003 A 
ENDROOT
BRANCH   1   7
ATOM      7  C1' I4B d   1       0.546  -0.964  -1.053  0.00  0.00     0.060 C 
BRANCH   7   8
ATOM      8  C2' I4B d   1      -0.021  -2.367  -0.994  0.00  0.00    -0.013 C 
ATOM      9  C4' I4B d   1      -1.045  -2.588  -2.076  0.00  0.00     0.013 C 
ATOM     10  C3' I4B d   1       1.119  -3.333  -1.123  0.00  0.00     0.013 C 
ENDBRANCH   7   8
ENDBRANCH   1   7
TORSDOF 2
ENDMDL
