MODEL 1
REMARK minimizedAffinity -5.3642993
REMARK minimizedRMSD -1
REMARK  2 active torsions:
REMARK  status: ('A' for Active; 'I' for Inactive)
REMARK    1  A    between atoms: C2'_3  and  C1'_4 
REMARK    2  A    between atoms: C1'_4  and  C1_5 
ROOT
ATOM      1  C1  I4B d   1       0.336  -0.181  -0.058  0.00  0.00    -0.075 A 
ATOM      2  C2  I4B d   1       1.093  -0.284   1.082  0.00  0.00     0.003 A 
ATOM      3  C3  I4B d   1       0.790   0.509   2.214  0.00  0.00     0.002 A 
ATOM      4  C4  I4B d   1      -0.242   1.424   2.146  0.00  0.00    -0.004 A 
ATOM      5  C5  I4B d   1      -1.023   1.512   0.998  0.00  0.00     0.002 A 
ATOM      6  C6  I4B d   1      -0.741   0.696  -0.107  0.00  0.00     0.003 A 
ENDROOT
BRANCH   1   7
ATOM      7  C1' I4B d   1       0.705  -1.010  -1.247  0.00  0.00     0.060 C 
BRANCH   7   8
ATOM      8  C2' I4B d   1       0.248  -2.431  -0.985  0.00  0.00    -0.013 C 
ATOM      9  C4' I4B d   1      -0.910  -2.804  -1.873  0.00  0.00     0.013 C 
ATOM     10  C3' I4B d   1       1.417  -3.342  -1.209  0.00  0.00     0.013 C 
ENDBRANCH   7   8
ENDBRANCH   1   7
TORSDOF 2
ENDMDL
