MODEL 1
REMARK minimizedAffinity -2.52883148
REMARK minimizedRMSD -1
REMARK  2 active torsions:
REMARK  status: ('A' for Active; 'I' for Inactive)
REMARK    1  A    between atoms: C2'_3  and  C1'_4 
REMARK    2  A    between atoms: C1'_4  and  C1_5 
ROOT
ATOM      1  C1  I4B d   1      -0.172   1.341   1.342  0.00  0.00    -0.075 A 
ATOM      2  C2  I4B d   1       0.466   0.738   2.398  0.00  0.00     0.003 A 
ATOM      3  C3  I4B d   1       1.415  -0.287   2.166  0.00  0.00     0.002 A 
ATOM      4  C4  I4B d   1       1.658  -0.710   0.875  0.00  0.00    -0.004 A 
ATOM      5  C5  I4B d   1       1.028  -0.081  -0.196  0.00  0.00     0.002 A 
ATOM      6  C6  I4B d   1       0.116   0.959   0.038  0.00  0.00     0.003 A 
ENDROOT
BRANCH   1   7
ATOM      7  C1' I4B d   1      -1.193   2.397   1.625  0.00  0.00     0.060 C 
BRANCH   7   8
ATOM      8  C2' I4B d   1      -2.445   2.056   0.843  0.00  0.00    -0.013 C 
ATOM      9  C4' I4B d   1      -2.143   1.886  -0.623  0.00  0.00     0.013 C 
ATOM     10  C3' I4B d   1      -3.028   0.803   1.425  0.00  0.00     0.013 C 
ENDBRANCH   7   8
ENDBRANCH   1   7
TORSDOF 2
ENDMDL
