MODEL 1
REMARK minimizedAffinity -2.86025476
REMARK minimizedRMSD -1
REMARK  2 active torsions:
REMARK  status: ('A' for Active; 'I' for Inactive)
REMARK    1  A    between atoms: C2'_3  and  C1'_4 
REMARK    2  A    between atoms: C1'_4  and  C1_5 
ROOT
ATOM      1  C1  I4B d   1       0.322  -0.237  -0.561  0.00  0.00    -0.075 A 
ATOM      2  C2  I4B d   1       0.913  -0.174   0.676  0.00  0.00     0.003 A 
ATOM      3  C3  I4B d   1       0.563   0.857   1.581  0.00  0.00     0.002 A 
ATOM      4  C4  I4B d   1      -0.337   1.827   1.191  0.00  0.00    -0.004 A 
ATOM      5  C5  I4B d   1      -0.952   1.749  -0.055  0.00  0.00     0.002 A 
ATOM      6  C6  I4B d   1      -0.630   0.703  -0.933  0.00  0.00     0.003 A 
ENDROOT
BRANCH   1   7
ATOM      7  C1' I4B d   1       0.739  -1.321  -1.504  0.00  0.00     0.060 C 
BRANCH   7   8
ATOM      8  C2' I4B d   1      -0.154  -2.521  -1.261  0.00  0.00    -0.013 C 
ATOM      9  C4' I4B d   1      -1.133  -2.710  -2.389  0.00  0.00     0.013 C 
ATOM     10  C3' I4B d   1       0.724  -3.726  -1.098  0.00  0.00     0.013 C 
ENDBRANCH   7   8
ENDBRANCH   1   7
TORSDOF 2
ENDMDL
