MODEL 1
REMARK minimizedAffinity -4.2458868
REMARK minimizedRMSD -1
REMARK  2 active torsions:
REMARK  status: ('A' for Active; 'I' for Inactive)
REMARK    1  A    between atoms: C2'_3  and  C1'_4 
REMARK    2  A    between atoms: C1'_4  and  C1_5 
ROOT
ATOM      1  C1  I4B d   1       0.289  -0.414  -0.506  0.00  0.00    -0.075 A 
ATOM      2  C2  I4B d   1      -0.115   0.565  -1.379  0.00  0.00     0.003 A 
ATOM      3  C3  I4B d   1      -0.523   1.831  -0.893  0.00  0.00     0.002 A 
ATOM      4  C4  I4B d   1      -0.559   2.057   0.468  0.00  0.00    -0.004 A 
ATOM      5  C5  I4B d   1      -0.128   1.071   1.351  0.00  0.00     0.002 A 
ATOM      6  C6  I4B d   1       0.311  -0.168   0.861  0.00  0.00     0.003 A 
ENDROOT
BRANCH   1   7
ATOM      7  C1' I4B d   1       0.681  -1.750  -1.051  0.00  0.00     0.060 C 
BRANCH   7   8
ATOM      8  C2' I4B d   1      -0.496  -2.688  -0.882  0.00  0.00    -0.013 C 
ATOM      9  C4' I4B d   1      -1.497  -2.512  -1.995  0.00  0.00     0.013 C 
ATOM     10  C3' I4B d   1       0.031  -4.091  -0.844  0.00  0.00     0.013 C 
ENDBRANCH   7   8
ENDBRANCH   1   7
TORSDOF 2
ENDMDL
