MODEL 1
REMARK minimizedAffinity -4.56240273
REMARK minimizedRMSD -1
REMARK  0 active torsions:
REMARK  status: ('A' for Active; 'I' for Inactive)
ROOT
ATOM      1  C1  DEN d   1      -1.612   2.829  -3.865  0.00  0.00     0.130 A 
ATOM      2  C2  DEN d   1      -2.471   1.671  -4.092  0.00  0.00    -0.031 A 
ATOM      3  C3  DEN d   1      -2.377   0.793  -2.909  0.00  0.00     0.027 A 
ATOM      4  C4  DEN d   1      -0.993   1.115  -0.756  0.00  0.00     0.027 A 
ATOM      5  C5  DEN d   1      -0.100   1.939  -0.109  0.00  0.00    -0.003 A 
ATOM      6  C6  DEN d   1       0.375   3.091  -0.677  0.00  0.00     0.001 A 
ATOM      7  C7  DEN d   1      -0.077   3.475  -1.912  0.00  0.00     0.017 A 
ATOM      8  C8  DEN d   1      -0.973   2.645  -2.574  0.00  0.00    -0.094 A 
ATOM      9  C9  DEN d   1      -1.450   1.490  -1.978  0.00  0.00    -0.072 A 
ENDROOT
TORSDOF 0
ENDMDL
