MODEL 1
REMARK minimizedAffinity 0.351365894
REMARK minimizedRMSD -1
REMARK  0 active torsions:
REMARK  status: ('A' for Active; 'I' for Inactive)
ROOT
ATOM      1  C1  DEN d   1       0.099  -0.075  -2.316  0.00  0.00     0.130 A 
ATOM      2  C2  DEN d   1      -1.254   0.401  -2.590  0.00  0.00    -0.031 A 
ATOM      3  C3  DEN d   1      -2.031   0.311  -1.337  0.00  0.00     0.027 A 
ATOM      4  C4  DEN d   1      -1.273  -0.511   0.987  0.00  0.00     0.027 A 
ATOM      5  C5  DEN d   1      -0.217  -1.024   1.707  0.00  0.00    -0.003 A 
ATOM      6  C6  DEN d   1       0.999  -1.287   1.133  0.00  0.00     0.001 A 
ATOM      7  C7  DEN d   1       1.202  -0.995  -0.190  0.00  0.00     0.017 A 
ATOM      8  C8  DEN d   1       0.140  -0.484  -0.924  0.00  0.00    -0.094 A 
ATOM      9  C9  DEN d   1      -1.078  -0.213  -0.322  0.00  0.00    -0.072 A 
ENDROOT
TORSDOF 0
ENDMDL
