MODEL 1
REMARK minimizedAffinity -3.6273551
REMARK minimizedRMSD -1
REMARK  0 active torsions:
REMARK  status: ('A' for Active; 'I' for Inactive)
ROOT
ATOM      1  C1  DEN d   1       1.407   0.412  -0.376  0.00  0.00     0.130 A 
ATOM      2  C2  DEN d   1      -0.020   0.102  -0.362  0.00  0.00    -0.031 A 
ATOM      3  C3  DEN d   1      -0.751   1.334  -0.002  0.00  0.00     0.027 A 
ATOM      4  C4  DEN d   1       0.183   3.678   0.529  0.00  0.00     0.027 A 
ATOM      5  C5  DEN d   1       1.332   4.426   0.656  0.00  0.00    -0.003 A 
ATOM      6  C6  DEN d   1       2.579   3.885   0.483  0.00  0.00     0.001 A 
ATOM      7  C7  DEN d   1       2.703   2.568   0.128  0.00  0.00     0.017 A 
ATOM      8  C8  DEN d   1       1.549   1.805   0.005  0.00  0.00    -0.094 A 
ATOM      9  C9  DEN d   1       0.298   2.374   0.173  0.00  0.00    -0.072 A 
ENDROOT
TORSDOF 0
ENDMDL
