MODEL 1
REMARK minimizedAffinity -2.86859155
REMARK minimizedRMSD -1
REMARK  0 active torsions:
REMARK  status: ('A' for Active; 'I' for Inactive)
ROOT
ATOM      1  C1  DEN d   1      -0.618  -0.195  -2.527  0.00  0.00     0.130 A 
ATOM      2  C2  DEN d   1      -1.413   0.996  -2.811  0.00  0.00    -0.031 A 
ATOM      3  C3  DEN d   1      -1.931   1.515  -1.529  0.00  0.00     0.027 A 
ATOM      4  C4  DEN d   1      -1.576   0.596   0.855  0.00  0.00     0.027 A 
ATOM      5  C5  DEN d   1      -0.985  -0.402   1.597  0.00  0.00    -0.003 A 
ATOM      6  C6  DEN d   1      -0.264  -1.413   1.018  0.00  0.00     0.001 A 
ATOM      7  C7  DEN d   1      -0.078  -1.422  -0.340  0.00  0.00     0.017 A 
ATOM      8  C8  DEN d   1      -0.678  -0.423  -1.095  0.00  0.00    -0.094 A 
ATOM      9  C9  DEN d   1      -1.392   0.597  -0.489  0.00  0.00    -0.072 A 
ENDROOT
TORSDOF 0
ENDMDL
