MODEL 1
REMARK minimizedAffinity -2.64534497
REMARK minimizedRMSD -1
REMARK  0 active torsions:
REMARK  status: ('A' for Active; 'I' for Inactive)
ROOT
ATOM      1  C1  DEN d   1       0.078   2.600  -2.712  0.00  0.00     0.130 A 
ATOM      2  C2  DEN d   1      -0.103   3.819  -3.495  0.00  0.00    -0.031 A 
ATOM      3  C3  DEN d   1      -1.379   3.705  -4.230  0.00  0.00     0.027 A 
ATOM      4  C4  DEN d   1      -3.085   1.772  -4.227  0.00  0.00     0.027 A 
ATOM      5  C5  DEN d   1      -3.361   0.519  -3.725  0.00  0.00    -0.003 A 
ATOM      6  C6  DEN d   1      -2.501  -0.137  -2.885  0.00  0.00     0.001 A 
ATOM      7  C7  DEN d   1      -1.344   0.476  -2.484  0.00  0.00     0.017 A 
ATOM      8  C8  DEN d   1      -1.055   1.736  -2.992  0.00  0.00    -0.094 A 
ATOM      9  C9  DEN d   1      -1.943   2.388  -3.831  0.00  0.00    -0.072 A 
ENDROOT
TORSDOF 0
ENDMDL
