MODEL 1
REMARK minimizedAffinity -4.3807559
REMARK minimizedRMSD -1
REMARK  0 active torsions:
REMARK  status: ('A' for Active; 'I' for Inactive)
ROOT
ATOM      1  C1  DEN d   1       2.833   2.431   0.289  0.00  0.00     0.130 A 
ATOM      2  C2  DEN d   1       2.183   3.735   0.389  0.00  0.00    -0.031 A 
ATOM      3  C3  DEN d   1       0.735   3.540   0.176  0.00  0.00     0.027 A 
ATOM      4  C4  DEN d   1      -0.557   1.357  -0.292  0.00  0.00     0.027 A 
ATOM      5  C5  DEN d   1      -0.434  -0.002  -0.478  0.00  0.00    -0.003 A 
ATOM      6  C6  DEN d   1       0.780  -0.635  -0.456  0.00  0.00     0.001 A 
ATOM      7  C7  DEN d   1       1.917   0.085  -0.198  0.00  0.00     0.017 A 
ATOM      8  C8  DEN d   1       1.801   1.457  -0.016  0.00  0.00    -0.094 A 
ATOM      9  C9  DEN d   1       0.563   2.076  -0.030  0.00  0.00    -0.072 A 
ENDROOT
TORSDOF 0
ENDMDL
