MODEL 1
REMARK minimizedAffinity -2.42586374
REMARK minimizedRMSD -1
REMARK  0 active torsions:
REMARK  status: ('A' for Active; 'I' for Inactive)
ROOT
ATOM      1  C1  DEN d   1      -0.460   0.863   0.105  0.00  0.00     0.130 A 
ATOM      2  C2  DEN d   1       0.466  -0.225  -0.200  0.00  0.00    -0.031 A 
ATOM      3  C3  DEN d   1       0.131  -0.748  -1.539  0.00  0.00     0.027 A 
ATOM      4  C4  DEN d   1      -1.719   0.019  -3.165  0.00  0.00     0.027 A 
ATOM      5  C5  DEN d   1      -2.763   0.899  -3.342  0.00  0.00    -0.003 A 
ATOM      6  C6  DEN d   1      -3.131   1.799  -2.378  0.00  0.00     0.001 A 
ATOM      7  C7  DEN d   1      -2.421   1.870  -1.208  0.00  0.00     0.017 A 
ATOM      8  C8  DEN d   1      -1.371   0.980  -1.019  0.00  0.00    -0.094 A 
ATOM      9  C9  DEN d   1      -1.007   0.086  -2.012  0.00  0.00    -0.072 A 
ENDROOT
TORSDOF 0
ENDMDL
