MODEL 1
REMARK minimizedAffinity -2.53174996
REMARK minimizedRMSD -1
REMARK  0 active torsions:
REMARK  status: ('A' for Active; 'I' for Inactive)
ROOT
ATOM      1  C1  DEN d   1      -1.033   3.351  -2.029  0.00  0.00     0.130 A 
ATOM      2  C2  DEN d   1      -0.874   2.833  -0.672  0.00  0.00    -0.031 A 
ATOM      3  C3  DEN d   1      -1.476   1.485  -0.624  0.00  0.00     0.027 A 
ATOM      4  C4  DEN d   1      -2.629   0.155  -2.510  0.00  0.00     0.027 A 
ATOM      5  C5  DEN d   1      -3.013   0.186  -3.832  0.00  0.00    -0.003 A 
ATOM      6  C6  DEN d   1      -2.796   1.278  -4.630  0.00  0.00     0.001 A 
ATOM      7  C7  DEN d   1      -2.138   2.368  -4.125  0.00  0.00     0.017 A 
ATOM      8  C8  DEN d   1      -1.754   2.347  -2.791  0.00  0.00    -0.094 A 
ATOM      9  C9  DEN d   1      -1.971   1.229  -2.004  0.00  0.00    -0.072 A 
ENDROOT
TORSDOF 0
ENDMDL
