MODEL 1
REMARK minimizedAffinity -2.1436429
REMARK minimizedRMSD -1
REMARK  0 active torsions:
REMARK  status: ('A' for Active; 'I' for Inactive)
ROOT
ATOM      1  C1  DEN d   1      -1.655  -1.023   1.919  0.00  0.00     0.130 A 
ATOM      2  C2  DEN d   1      -1.842   0.378   1.553  0.00  0.00    -0.031 A 
ATOM      3  C3  DEN d   1      -0.660   0.809   0.779  0.00  0.00     0.027 A 
ATOM      4  C4  DEN d   1       1.426  -0.553   0.112  0.00  0.00     0.027 A 
ATOM      5  C5  DEN d   1       2.042  -1.781   0.204  0.00  0.00    -0.003 A 
ATOM      6  C6  DEN d   1       1.489  -2.825   0.898  0.00  0.00     0.001 A 
ATOM      7  C7  DEN d   1       0.262  -2.673   1.489  0.00  0.00     0.017 A 
ATOM      8  C8  DEN d   1      -0.361  -1.434   1.406  0.00  0.00    -0.094 A 
ATOM      9  C9  DEN d   1       0.209  -0.396   0.690  0.00  0.00    -0.072 A 
ENDROOT
TORSDOF 0
ENDMDL
