MODEL 1
REMARK minimizedAffinity -2.17582464
REMARK minimizedRMSD -1
REMARK  0 active torsions:
REMARK  status: ('A' for Active; 'I' for Inactive)
ROOT
ATOM      1  C1  DEN d   1       0.073   0.354  -1.069  0.00  0.00     0.130 A 
ATOM      2  C2  DEN d   1      -1.084   1.240  -0.981  0.00  0.00    -0.031 A 
ATOM      3  C3  DEN d   1      -1.875   0.842   0.201  0.00  0.00     0.027 A 
ATOM      4  C4  DEN d   1      -1.418  -1.046   1.898  0.00  0.00     0.027 A 
ATOM      5  C5  DEN d   1      -0.562  -2.073   2.231  0.00  0.00    -0.003 A 
ATOM      6  C6  DEN d   1       0.537  -2.382   1.474  0.00  0.00     0.001 A 
ATOM      7  C7  DEN d   1       0.836  -1.628   0.371  0.00  0.00     0.017 A 
ATOM      8  C8  DEN d   1      -0.026  -0.595   0.025  0.00  0.00    -0.094 A 
ATOM      9  C9  DEN d   1      -1.126  -0.290   0.809  0.00  0.00    -0.072 A 
ENDROOT
TORSDOF 0
ENDMDL
