MODEL 1
REMARK minimizedAffinity -4.15985823
REMARK minimizedRMSD -1
REMARK  0 active torsions:
REMARK  status: ('A' for Active; 'I' for Inactive)
ROOT
ATOM      1  C1  DEN d   1       1.171  -0.173  -0.768  0.00  0.00     0.130 A 
ATOM      2  C2  DEN d   1      -0.212  -0.102  -0.304  0.00  0.00    -0.031 A 
ATOM      3  C3  DEN d   1      -0.471   1.279   0.150  0.00  0.00     0.027 A 
ATOM      4  C4  DEN d   1       1.126   3.305   0.176  0.00  0.00     0.027 A 
ATOM      5  C5  DEN d   1       2.405   3.730  -0.109  0.00  0.00    -0.003 A 
ATOM      6  C6  DEN d   1       3.364   2.883  -0.597  0.00  0.00     0.001 A 
ATOM      7  C7  DEN d   1       3.046   1.576  -0.859  0.00  0.00     0.017 A 
ATOM      8  C8  DEN d   1       1.761   1.139  -0.567  0.00  0.00    -0.094 A 
ATOM      9  C9  DEN d   1       0.802   2.013  -0.085  0.00  0.00    -0.072 A 
ENDROOT
TORSDOF 0
ENDMDL
