MODEL 1
REMARK minimizedAffinity -3.66399336
REMARK minimizedRMSD -1
REMARK  0 active torsions:
REMARK  status: ('A' for Active; 'I' for Inactive)
ROOT
ATOM      1  C1  DEN d   1       1.801  -1.384  -0.492  0.00  0.00     0.130 A 
ATOM      2  C2  DEN d   1       2.157  -2.564   0.292  0.00  0.00    -0.031 A 
ATOM      3  C3  DEN d   1       1.178  -2.695   1.390  0.00  0.00     0.027 A 
ATOM      4  C4  DEN d   1      -0.847  -1.197   1.945  0.00  0.00     0.027 A 
ATOM      5  C5  DEN d   1      -1.547  -0.070   1.571  0.00  0.00    -0.003 A 
ATOM      6  C6  DEN d   1      -1.163   0.709   0.513  0.00  0.00     0.001 A 
ATOM      7  C7  DEN d   1      -0.075   0.348  -0.237  0.00  0.00     0.017 A 
ATOM      8  C8  DEN d   1       0.640  -0.782   0.138  0.00  0.00    -0.094 A 
ATOM      9  C9  DEN d   1       0.228  -1.564   1.204  0.00  0.00    -0.072 A 
ENDROOT
TORSDOF 0
ENDMDL
