MODEL 1
REMARK minimizedAffinity -4.57803869
REMARK minimizedRMSD -1
REMARK  0 active torsions:
REMARK  status: ('A' for Active; 'I' for Inactive)
ROOT
ATOM      1  C1  DEN d   1       0.593  -2.220   0.926  0.00  0.00     0.130 A 
ATOM      2  C2  DEN d   1       1.128  -2.650  -0.363  0.00  0.00    -0.031 A 
ATOM      3  C3  DEN d   1       0.614  -1.733  -1.400  0.00  0.00     0.027 A 
ATOM      4  C4  DEN d   1      -0.948   0.303  -1.136  0.00  0.00     0.027 A 
ATOM      5  C5  DEN d   1      -1.673   1.052  -0.235  0.00  0.00    -0.003 A 
ATOM      6  C6  DEN d   1      -1.720   0.746   1.099  0.00  0.00     0.001 A 
ATOM      7  C7  DEN d   1      -0.993  -0.311   1.579  0.00  0.00     0.017 A 
ATOM      8  C8  DEN d   1      -0.266  -1.076   0.676  0.00  0.00    -0.094 A 
ATOM      9  C9  DEN d   1      -0.222  -0.743  -0.667  0.00  0.00    -0.072 A 
ENDROOT
TORSDOF 0
ENDMDL
