MODEL 1
REMARK minimizedAffinity -4.54292965
REMARK minimizedRMSD -1
REMARK  0 active torsions:
REMARK  status: ('A' for Active; 'I' for Inactive)
ROOT
ATOM      1  C1  DEN d   1       2.386   0.599  -0.492  0.00  0.00     0.130 A 
ATOM      2  C2  DEN d   1       1.029   0.166  -0.171  0.00  0.00    -0.031 A 
ATOM      3  C3  DEN d   1       0.263   1.352   0.265  0.00  0.00     0.027 A 
ATOM      4  C4  DEN d   1       1.042   3.802   0.467  0.00  0.00     0.027 A 
ATOM      5  C5  DEN d   1       2.113   4.656   0.316  0.00  0.00    -0.003 A 
ATOM      6  C6  DEN d   1       3.348   4.215  -0.079  0.00  0.00     0.001 A 
ATOM      7  C7  DEN d   1       3.532   2.892  -0.380  0.00  0.00     0.017 A 
ATOM      8  C8  DEN d   1       2.460   2.024  -0.223  0.00  0.00    -0.094 A 
ATOM      9  C9  DEN d   1       1.216   2.490   0.165  0.00  0.00    -0.072 A 
ENDROOT
TORSDOF 0
ENDMDL
