MODEL 1
REMARK minimizedAffinity -3.30861163
REMARK minimizedRMSD -1
REMARK  0 active torsions:
REMARK  status: ('A' for Active; 'I' for Inactive)
ROOT
ATOM      1  C1  DEN d   1       0.005   0.357  -0.577  0.00  0.00     0.130 A 
ATOM      2  C2  DEN d   1       1.118   1.290  -0.729  0.00  0.00    -0.031 A 
ATOM      3  C3  DEN d   1       2.340   0.628  -0.230  0.00  0.00     0.027 A 
ATOM      4  C4  DEN d   1       2.616  -1.740   0.754  0.00  0.00     0.027 A 
ATOM      5  C5  DEN d   1       1.953  -2.899   1.095  0.00  0.00    -0.003 A 
ATOM      6  C6  DEN d   1       0.600  -3.040   0.935  0.00  0.00     0.001 A 
ATOM      7  C7  DEN d   1      -0.128  -2.021   0.378  0.00  0.00     0.017 A 
ATOM      8  C8  DEN d   1       0.532  -0.847   0.040  0.00  0.00    -0.094 A 
ATOM      9  C9  DEN d   1       1.903  -0.729   0.198  0.00  0.00    -0.072 A 
ENDROOT
TORSDOF 0
ENDMDL
