MODEL 1
REMARK minimizedAffinity -2.8018415
REMARK minimizedRMSD -1
REMARK  0 active torsions:
REMARK  status: ('A' for Active; 'I' for Inactive)
ROOT
ATOM      1  C   UNL d   1       0.010  -2.172  -2.043  0.00  0.00     0.020 A 
ATOM      2  C1  UNL d   1      -0.684  -2.941  -1.109  0.00  0.00     0.020 A 
ATOM      3  C2  UNL d   1      -0.929  -2.433   0.169  0.00  0.00     0.034 A 
ATOM      4  C3  UNL d   1      -0.479  -1.154   0.517  0.00  0.00     0.017 A 
ATOM      5  C4  UNL d   1       0.217  -0.384  -0.421  0.00  0.00     0.017 A 
ATOM      6  C5  UNL d   1       0.460  -0.896  -1.700  0.00  0.00     0.034 A 
ATOM      7 Cl   UNL d   1       0.803   1.203  -0.066  0.00  0.00    -0.070 Cl
ATOM      8 Cl1  UNL d   1      -0.818  -0.591   2.114  0.00  0.00    -0.070 Cl
ENDROOT
TORSDOF 0
ENDMDL
