MODEL 1
REMARK minimizedAffinity -4.22764778
REMARK minimizedRMSD -1
REMARK  0 active torsions:
REMARK  status: ('A' for Active; 'I' for Inactive)
ROOT
ATOM      1  C   UNL d   1       1.759   1.831   2.140  0.00  0.00     0.020 A 
ATOM      2  C1  UNL d   1       1.768   2.889   1.232  0.00  0.00     0.020 A 
ATOM      3  C2  UNL d   1       1.110   2.764   0.007  0.00  0.00     0.034 A 
ATOM      4  C3  UNL d   1       0.439   1.578  -0.313  0.00  0.00     0.017 A 
ATOM      5  C4  UNL d   1       0.430   0.517   0.599  0.00  0.00     0.017 A 
ATOM      6  C5  UNL d   1       1.091   0.647   1.824  0.00  0.00     0.034 A 
ATOM      7 Cl   UNL d   1      -0.376  -0.977   0.274  0.00  0.00    -0.070 Cl
ATOM      8 Cl1  UNL d   1      -0.355   1.493  -1.845  0.00  0.00    -0.070 Cl
ENDROOT
TORSDOF 0
ENDMDL
