MODEL 1
REMARK minimizedAffinity -2.98523092
REMARK minimizedRMSD -1
REMARK  0 active torsions:
REMARK  status: ('A' for Active; 'I' for Inactive)
ROOT
ATOM      1  C   UNL d   1      -0.626  -1.728   1.976  0.00  0.00     0.020 A 
ATOM      2  C1  UNL d   1      -0.158  -2.830   1.261  0.00  0.00     0.020 A 
ATOM      3  C2  UNL d   1       0.294  -2.670  -0.051  0.00  0.00     0.034 A 
ATOM      4  C3  UNL d   1       0.280  -1.406  -0.652  0.00  0.00     0.017 A 
ATOM      5  C4  UNL d   1      -0.190  -0.301   0.067  0.00  0.00     0.017 A 
ATOM      6  C5  UNL d   1      -0.642  -0.466   1.380  0.00  0.00     0.034 A 
ATOM      7 Cl   UNL d   1      -0.239   1.290  -0.607  0.00  0.00    -0.070 Cl
ATOM      8 Cl1  UNL d   1       0.854  -1.282  -2.276  0.00  0.00    -0.070 Cl
ENDROOT
TORSDOF 0
ENDMDL
