MODEL 1
REMARK minimizedAffinity -1.5137583
REMARK minimizedRMSD -1
REMARK  0 active torsions:
REMARK  status: ('A' for Active; 'I' for Inactive)
ROOT
ATOM      1  C   UNL d   1       0.153   1.669   0.073  0.00  0.00     0.020 A 
ATOM      2  C1  UNL d   1      -0.409   1.184   1.253  0.00  0.00     0.020 A 
ATOM      3  C2  UNL d   1      -0.741  -0.168   1.365  0.00  0.00     0.034 A 
ATOM      4  C3  UNL d   1      -0.511  -1.039   0.294  0.00  0.00     0.017 A 
ATOM      5  C4  UNL d   1       0.053  -0.552  -0.890  0.00  0.00     0.017 A 
ATOM      6  C5  UNL d   1       0.384   0.803  -0.996  0.00  0.00     0.034 A 
ATOM      7 Cl   UNL d   1       0.367  -1.566  -2.254  0.00  0.00    -0.070 Cl
ATOM      8 Cl1  UNL d   1      -0.946  -2.699   0.502  0.00  0.00    -0.070 Cl
ENDROOT
TORSDOF 0
ENDMDL
