MODEL 1
REMARK minimizedAffinity -5.23781443
REMARK minimizedRMSD -1
REMARK  0 active torsions:
REMARK  status: ('A' for Active; 'I' for Inactive)
ROOT
ATOM      1  C   UNL d   1      -0.031  -2.886   0.776  0.00  0.00     0.020 A 
ATOM      2  C1  UNL d   1       1.028  -2.334   0.056  0.00  0.00     0.020 A 
ATOM      3  C2  UNL d   1       1.050  -0.964  -0.216  0.00  0.00     0.034 A 
ATOM      4  C3  UNL d   1       0.010  -0.142   0.233  0.00  0.00     0.017 A 
ATOM      5  C4  UNL d   1      -1.052  -0.696   0.956  0.00  0.00     0.017 A 
ATOM      6  C5  UNL d   1      -1.069  -2.068   1.225  0.00  0.00     0.034 A 
ATOM      7 Cl   UNL d   1      -2.370   0.255   1.543  0.00  0.00    -0.070 Cl
ATOM      8 Cl1  UNL d   1       0.102   1.543  -0.138  0.00  0.00    -0.070 Cl
ENDROOT
TORSDOF 0
ENDMDL
