MODEL 1
REMARK minimizedAffinity -3.13703871
REMARK minimizedRMSD -1
REMARK  0 active torsions:
REMARK  status: ('A' for Active; 'I' for Inactive)
ROOT
ATOM      1  C   UNL d   1       1.417   2.534   0.282  0.00  0.00     0.020 A 
ATOM      2  C1  UNL d   1       0.257   2.396  -0.479  0.00  0.00     0.020 A 
ATOM      3  C2  UNL d   1      -0.441   1.186  -0.476  0.00  0.00     0.034 A 
ATOM      4  C3  UNL d   1       0.022   0.109   0.289  0.00  0.00     0.017 A 
ATOM      5  C4  UNL d   1       1.187   0.249   1.052  0.00  0.00     0.017 A 
ATOM      6  C5  UNL d   1       1.881   1.462   1.046  0.00  0.00     0.034 A 
ATOM      7 Cl   UNL d   1       1.819  -1.035   2.022  0.00  0.00    -0.070 Cl
ATOM      8 Cl1  UNL d   1      -0.891  -1.357   0.246  0.00  0.00    -0.070 Cl
ENDROOT
TORSDOF 0
ENDMDL
