MODEL 1
REMARK minimizedAffinity -1.47323811
REMARK minimizedRMSD -1
REMARK  0 active torsions:
REMARK  status: ('A' for Active; 'I' for Inactive)
ROOT
ATOM      1  C   UNL d   1       0.177   1.159   0.386  0.00  0.00     0.020 A 
ATOM      2  C1  UNL d   1      -0.747   0.682   1.315  0.00  0.00     0.020 A 
ATOM      3  C2  UNL d   1      -1.189  -0.641   1.244  0.00  0.00     0.034 A 
ATOM      4  C3  UNL d   1      -0.707  -1.491   0.242  0.00  0.00     0.017 A 
ATOM      5  C4  UNL d   1       0.220  -1.011  -0.689  0.00  0.00     0.017 A 
ATOM      6  C5  UNL d   1       0.659   0.314  -0.614  0.00  0.00     0.034 A 
ATOM      7 Cl   UNL d   1       0.860  -2.001  -1.954  0.00  0.00    -0.070 Cl
ATOM      8 Cl1  UNL d   1      -1.297  -3.115   0.215  0.00  0.00    -0.070 Cl
ENDROOT
TORSDOF 0
ENDMDL
