MODEL 1
REMARK minimizedAffinity -3.96529245
REMARK minimizedRMSD -1
REMARK  0 active torsions:
REMARK  status: ('A' for Active; 'I' for Inactive)
ROOT
ATOM      1  C   UNL d   1      -0.711  -1.131   2.187  0.00  0.00     0.020 A 
ATOM      2  C1  UNL d   1      -0.853  -2.247   1.364  0.00  0.00     0.020 A 
ATOM      3  C2  UNL d   1      -0.450  -2.186   0.028  0.00  0.00     0.034 A 
ATOM      4  C3  UNL d   1       0.097  -1.006  -0.488  0.00  0.00     0.017 A 
ATOM      5  C4  UNL d   1       0.240   0.114   0.339  0.00  0.00     0.017 A 
ATOM      6  C5  UNL d   1      -0.166   0.047   1.676  0.00  0.00     0.034 A 
ATOM      7 Cl   UNL d   1       0.907   1.605  -0.226  0.00  0.00    -0.070 Cl
ATOM      8 Cl1  UNL d   1       0.575  -1.001  -2.148  0.00  0.00    -0.070 Cl
ENDROOT
TORSDOF 0
ENDMDL
