MODEL 1
REMARK minimizedAffinity -1.11818647
REMARK minimizedRMSD -1
REMARK  0 active torsions:
REMARK  status: ('A' for Active; 'I' for Inactive)
ROOT
ATOM      1  C   UNL d   1       0.449  -0.811  -2.155  0.00  0.00     0.020 A 
ATOM      2  C1  UNL d   1       0.787  -1.813  -1.246  0.00  0.00     0.020 A 
ATOM      3  C2  UNL d   1       0.691  -1.572   0.126  0.00  0.00     0.034 A 
ATOM      4  C3  UNL d   1       0.256  -0.326   0.593  0.00  0.00     0.017 A 
ATOM      5  C4  UNL d   1      -0.083   0.679  -0.320  0.00  0.00     0.017 A 
ATOM      6  C5  UNL d   1       0.014   0.432  -1.693  0.00  0.00     0.034 A 
ATOM      7 Cl   UNL d   1      -0.628   2.241   0.180  0.00  0.00    -0.070 Cl
ATOM      8 Cl1  UNL d   1       0.161  -0.098   2.303  0.00  0.00    -0.070 Cl
ENDROOT
TORSDOF 0
ENDMDL
