MODEL 1
REMARK minimizedAffinity -2.81966901
REMARK minimizedRMSD -1
REMARK  0 active torsions:
REMARK  status: ('A' for Active; 'I' for Inactive)
ROOT
ATOM      1  C   UNL d   1      -0.201   1.319  -0.179  0.00  0.00     0.020 A 
ATOM      2  C1  UNL d   1      -0.797   0.843   0.989  0.00  0.00     0.020 A 
ATOM      3  C2  UNL d   1      -1.136  -0.507   1.099  0.00  0.00     0.034 A 
ATOM      4  C3  UNL d   1      -0.881  -1.386   0.040  0.00  0.00     0.017 A 
ATOM      5  C4  UNL d   1      -0.282  -0.907  -1.131  0.00  0.00     0.017 A 
ATOM      6  C5  UNL d   1       0.056   0.446  -1.236  0.00  0.00     0.034 A 
ATOM      7 Cl   UNL d   1       0.065  -1.930  -2.480  0.00  0.00    -0.070 Cl
ATOM      8 Cl1  UNL d   1      -1.327  -3.042   0.245  0.00  0.00    -0.070 Cl
ENDROOT
TORSDOF 0
ENDMDL
