MODEL 1
REMARK minimizedAffinity -3.64078355
REMARK minimizedRMSD -1
REMARK  0 active torsions:
REMARK  status: ('A' for Active; 'I' for Inactive)
ROOT
ATOM      1  C   UNL d   1      -1.192  -2.629   1.185  0.00  0.00     0.020 A 
ATOM      2  C1  UNL d   1      -1.052  -3.569   0.165  0.00  0.00     0.020 A 
ATOM      3  C2  UNL d   1      -0.433  -3.211  -1.034  0.00  0.00     0.034 A 
ATOM      4  C3  UNL d   1       0.048  -1.909  -1.217  0.00  0.00     0.017 A 
ATOM      5  C4  UNL d   1      -0.093  -0.967  -0.192  0.00  0.00     0.017 A 
ATOM      6  C5  UNL d   1      -0.713  -1.331   1.007  0.00  0.00     0.034 A 
ATOM      7 Cl   UNL d   1       0.476   0.659  -0.343  0.00  0.00    -0.070 Cl
ATOM      8 Cl1  UNL d   1       0.803  -1.536  -2.725  0.00  0.00    -0.070 Cl
ENDROOT
TORSDOF 0
ENDMDL
