MODEL 1
REMARK minimizedAffinity 0.18171148
REMARK minimizedRMSD -1
REMARK  0 active torsions:
REMARK  status: ('A' for Active; 'I' for Inactive)
ROOT
ATOM      1  C   UNL d   1      -0.623  -1.672   0.503  0.00  0.00     0.020 A 
ATOM      2  C1  UNL d   1      -0.137  -1.174   1.711  0.00  0.00     0.020 A 
ATOM      3  C2  UNL d   1       0.334   0.139   1.787  0.00  0.00     0.034 A 
ATOM      4  C3  UNL d   1       0.319   0.958   0.652  0.00  0.00     0.017 A 
ATOM      5  C4  UNL d   1      -0.169   0.458  -0.560  0.00  0.00     0.017 A 
ATOM      6  C5  UNL d   1      -0.639  -0.857  -0.631  0.00  0.00     0.034 A 
ATOM      7 Cl   UNL d   1      -0.219   1.409  -2.003  0.00  0.00    -0.070 Cl
ATOM      8 Cl1  UNL d   1       0.916   2.571   0.818  0.00  0.00    -0.070 Cl
ENDROOT
TORSDOF 0
ENDMDL
