MODEL 1
REMARK minimizedAffinity -3.16152358
REMARK minimizedRMSD -1
REMARK  0 active torsions:
REMARK  status: ('A' for Active; 'I' for Inactive)
ROOT
ATOM      1  C   UNL d   1      -0.446   0.504   0.818  0.00  0.00     0.020 A 
ATOM      2  C1  UNL d   1      -0.213   1.099  -0.421  0.00  0.00     0.020 A 
ATOM      3  C2  UNL d   1       0.269   0.332  -1.484  0.00  0.00     0.034 A 
ATOM      4  C3  UNL d   1       0.520  -1.034  -1.309  0.00  0.00     0.017 A 
ATOM      5  C4  UNL d   1       0.286  -1.630  -0.065  0.00  0.00     0.017 A 
ATOM      6  C5  UNL d   1      -0.198  -0.858   0.996  0.00  0.00     0.034 A 
ATOM      7 Cl   UNL d   1       0.571  -3.310   0.227  0.00  0.00    -0.070 Cl
ATOM      8 Cl1  UNL d   1       1.116  -1.922  -2.667  0.00  0.00    -0.070 Cl
ENDROOT
TORSDOF 0
ENDMDL
