MODEL 1
REMARK minimizedAffinity -3.24023628
REMARK minimizedRMSD -1
REMARK  0 active torsions:
REMARK  status: ('A' for Active; 'I' for Inactive)
ROOT
ATOM      1  C   UNL d   1      -0.899  -1.426   1.902  0.00  0.00     0.020 A 
ATOM      2  C1  UNL d   1      -0.793  -2.641   1.228  0.00  0.00     0.020 A 
ATOM      3  C2  UNL d   1      -0.453  -2.661  -0.126  0.00  0.00     0.034 A 
ATOM      4  C3  UNL d   1      -0.219  -1.463  -0.811  0.00  0.00     0.017 A 
ATOM      5  C4  UNL d   1      -0.326  -0.243  -0.133  0.00  0.00     0.017 A 
ATOM      6  C5  UNL d   1      -0.666  -0.229   1.223  0.00  0.00     0.034 A 
ATOM      7 Cl   UNL d   1      -0.051   1.276  -0.910  0.00  0.00    -0.070 Cl
ATOM      8 Cl1  UNL d   1       0.198  -1.562  -2.485  0.00  0.00    -0.070 Cl
ENDROOT
TORSDOF 0
ENDMDL
