MODEL 1
REMARK minimizedAffinity -4.63998747
REMARK minimizedRMSD -1
REMARK  0 active torsions:
REMARK  status: ('A' for Active; 'I' for Inactive)
ROOT
ATOM      1  C   UNL d   1       0.064  -2.209  -2.806  0.00  0.00     0.020 A 
ATOM      2  C1  UNL d   1      -0.073  -3.318  -1.972  0.00  0.00     0.020 A 
ATOM      3  C2  UNL d   1      -0.264  -3.140  -0.601  0.00  0.00     0.034 A 
ATOM      4  C3  UNL d   1      -0.317  -1.851  -0.058  0.00  0.00     0.017 A 
ATOM      5  C4  UNL d   1      -0.179  -0.739  -0.896  0.00  0.00     0.017 A 
ATOM      6  C5  UNL d   1       0.011  -0.922  -2.269  0.00  0.00     0.034 A 
ATOM      7 Cl   UNL d   1      -0.234   0.883  -0.301  0.00  0.00    -0.070 Cl
ATOM      8 Cl1  UNL d   1      -0.556  -1.706   1.647  0.00  0.00    -0.070 Cl
ENDROOT
TORSDOF 0
ENDMDL
