MODEL 1
REMARK minimizedAffinity -4.70177555
REMARK minimizedRMSD -1
REMARK  0 active torsions:
REMARK  status: ('A' for Active; 'I' for Inactive)
ROOT
ATOM      1  C   UNL d   1       0.364  -0.933   0.307  0.00  0.00     0.020 A 
ATOM      2  C1  UNL d   1      -0.673  -0.411   1.079  0.00  0.00     0.020 A 
ATOM      3  C2  UNL d   1      -0.812   0.972   1.218  0.00  0.00     0.034 A 
ATOM      4  C3  UNL d   1       0.088   1.837   0.584  0.00  0.00     0.017 A 
ATOM      5  C4  UNL d   1       1.129   1.311  -0.190  0.00  0.00     0.017 A 
ATOM      6  C5  UNL d   1       1.263  -0.074  -0.326  0.00  0.00     0.034 A 
ATOM      7 Cl   UNL d   1       2.277   2.315  -1.003  0.00  0.00    -0.070 Cl
ATOM      8 Cl1  UNL d   1      -0.144   3.535   0.799  0.00  0.00    -0.070 Cl
ENDROOT
TORSDOF 0
ENDMDL
