MODEL 1
REMARK minimizedAffinity 1.37699246
REMARK minimizedRMSD -1
REMARK  0 active torsions:
REMARK  status: ('A' for Active; 'I' for Inactive)
ROOT
ATOM      1  C   UNL d   1      -0.534  -0.831   1.507  0.00  0.00     0.020 A 
ATOM      2  C1  UNL d   1      -0.812  -2.192   1.625  0.00  0.00     0.020 A 
ATOM      3  C2  UNL d   1      -0.818  -3.005   0.490  0.00  0.00     0.034 A 
ATOM      4  C3  UNL d   1      -0.545  -2.458  -0.769  0.00  0.00     0.017 A 
ATOM      5  C4  UNL d   1      -0.266  -1.092  -0.887  0.00  0.00     0.017 A 
ATOM      6  C5  UNL d   1      -0.261  -0.282   0.253  0.00  0.00     0.034 A 
ATOM      7 Cl   UNL d   1       0.081  -0.345  -2.407  0.00  0.00    -0.070 Cl
ATOM      8 Cl1  UNL d   1      -0.569  -3.523  -2.130  0.00  0.00    -0.070 Cl
ENDROOT
TORSDOF 0
ENDMDL
