MODEL 1
REMARK minimizedAffinity -3.17669368
REMARK minimizedRMSD -1
REMARK  0 active torsions:
REMARK  status: ('A' for Active; 'I' for Inactive)
ROOT
ATOM      1  C   UNL d   1       0.548  -1.479  -1.183  0.00  0.00     0.020 A 
ATOM      2  C1  UNL d   1       0.291  -2.278  -0.070  0.00  0.00     0.020 A 
ATOM      3  C2  UNL d   1       0.546  -1.791   1.214  0.00  0.00     0.034 A 
ATOM      4  C3  UNL d   1       1.061  -0.501   1.388  0.00  0.00     0.017 A 
ATOM      5  C4  UNL d   1       1.319   0.300   0.270  0.00  0.00     0.017 A 
ATOM      6  C5  UNL d   1       1.061  -0.193  -1.013  0.00  0.00     0.034 A 
ATOM      7 Cl   UNL d   1       1.954   1.902   0.405  0.00  0.00    -0.070 Cl
ATOM      8 Cl1  UNL d   1       1.353   0.036   3.004  0.00  0.00    -0.070 Cl
ENDROOT
TORSDOF 0
ENDMDL
