MODEL 1
REMARK minimizedAffinity 0.468074709
REMARK minimizedRMSD -1
REMARK  0 active torsions:
REMARK  status: ('A' for Active; 'I' for Inactive)
ROOT
ATOM      1  C1  BNZ d   1      -0.560   2.002   1.996  0.00  0.00     0.000 A 
ATOM      2  C2  BNZ d   1      -1.064   1.258   3.029  0.00  0.00     0.000 A 
ATOM      3  C3  BNZ d   1      -0.303   0.301   3.639  0.00  0.00     0.000 A 
ATOM      4  C4  BNZ d   1       0.945   0.060   3.190  0.00  0.00     0.000 A 
ATOM      5  C5  BNZ d   1       1.465   0.795   2.143  0.00  0.00     0.000 A 
ATOM      6  C6  BNZ d   1       0.710   1.785   1.557  0.00  0.00     0.000 A 
ENDROOT
TORSDOF 0
ENDMDL
