MODEL 1
REMARK minimizedAffinity 0.211991623
REMARK minimizedRMSD -1
REMARK  0 active torsions:
REMARK  status: ('A' for Active; 'I' for Inactive)
ROOT
ATOM      1  C1  BNZ d   1      -0.402   0.391   4.171  0.00  0.00     0.000 A 
ATOM      2  C2  BNZ d   1      -0.818   1.527   3.529  0.00  0.00     0.000 A 
ATOM      3  C3  BNZ d   1      -0.137   2.008   2.446  0.00  0.00     0.000 A 
ATOM      4  C4  BNZ d   1       0.981   1.378   2.032  0.00  0.00     0.000 A 
ATOM      5  C5  BNZ d   1       1.418   0.237   2.675  0.00  0.00     0.000 A 
ATOM      6  C6  BNZ d   1       0.708  -0.267   3.740  0.00  0.00     0.000 A 
ENDROOT
TORSDOF 0
ENDMDL
