MODEL 1
REMARK minimizedAffinity 3.59080863
REMARK minimizedRMSD -1
REMARK  0 active torsions:
REMARK  status: ('A' for Active; 'I' for Inactive)
ROOT
ATOM      1  C1  BNZ d   1      -1.908   3.157  -2.724  0.00  0.00     0.000 A 
ATOM      2  C2  BNZ d   1      -2.859   4.136  -2.831  0.00  0.00     0.000 A 
ATOM      3  C3  BNZ d   1      -4.115   3.950  -2.324  0.00  0.00     0.000 A 
ATOM      4  C4  BNZ d   1      -4.429   2.773  -1.746  0.00  0.00     0.000 A 
ATOM      5  C5  BNZ d   1      -3.484   1.773  -1.638  0.00  0.00     0.000 A 
ATOM      6  C6  BNZ d   1      -2.209   1.977  -2.116  0.00  0.00     0.000 A 
ENDROOT
TORSDOF 0
ENDMDL
