MODEL 1
REMARK minimizedAffinity 2.15438151
REMARK minimizedRMSD -1
REMARK  0 active torsions:
REMARK  status: ('A' for Active; 'I' for Inactive)
ROOT
ATOM      1  C1  BNZ d   1      -1.977   2.139   2.616  0.00  0.00     0.000 A 
ATOM      2  C2  BNZ d   1      -1.890   2.927   1.499  0.00  0.00     0.000 A 
ATOM      3  C3  BNZ d   1      -0.801   2.858   0.676  0.00  0.00     0.000 A 
ATOM      4  C4  BNZ d   1       0.216   2.031   0.992  0.00  0.00     0.000 A 
ATOM      5  C5  BNZ d   1       0.148   1.236   2.119  0.00  0.00     0.000 A 
ATOM      6  C6  BNZ d   1      -0.967   1.281   2.924  0.00  0.00     0.000 A 
ENDROOT
TORSDOF 0
ENDMDL
