MODEL 1
REMARK minimizedAffinity 3.07615566
REMARK minimizedRMSD -1
REMARK  0 active torsions:
REMARK  status: ('A' for Active; 'I' for Inactive)
ROOT
ATOM      1  C1  BNZ d   1       0.397   0.061  -0.233  0.00  0.00     0.000 A 
ATOM      2  C2  BNZ d   1      -0.050   1.061   0.589  0.00  0.00     0.000 A 
ATOM      3  C3  BNZ d   1       0.204   1.029   1.932  0.00  0.00     0.000 A 
ATOM      4  C4  BNZ d   1       0.868  -0.020   2.456  0.00  0.00     0.000 A 
ATOM      5  C5  BNZ d   1       1.318  -1.041   1.642  0.00  0.00     0.000 A 
ATOM      6  C6  BNZ d   1       1.094  -0.986   0.285  0.00  0.00     0.000 A 
ENDROOT
TORSDOF 0
ENDMDL
