MODEL 1
REMARK minimizedAffinity -0.015357241
REMARK minimizedRMSD -1
REMARK  0 active torsions:
REMARK  status: ('A' for Active; 'I' for Inactive)
ROOT
ATOM      1  C1  BNZ d   1       1.399   0.851   0.768  0.00  0.00     0.000 A 
ATOM      2  C2  BNZ d   1       1.025   0.901  -0.548  0.00  0.00     0.000 A 
ATOM      3  C3  BNZ d   1      -0.143   0.327  -0.967  0.00  0.00     0.000 A 
ATOM      4  C4  BNZ d   1      -0.914  -0.331  -0.077  0.00  0.00     0.000 A 
ATOM      5  C5  BNZ d   1      -0.546  -0.399   1.252  0.00  0.00     0.000 A 
ATOM      6  C6  BNZ d   1       0.610   0.214   1.677  0.00  0.00     0.000 A 
ENDROOT
TORSDOF 0
ENDMDL
