MODEL 1
REMARK minimizedAffinity 8.67490005
REMARK minimizedRMSD -1
REMARK  0 active torsions:
REMARK  status: ('A' for Active; 'I' for Inactive)
ROOT
ATOM      1  C   UNL d   1       1.651  -3.137   0.186  0.00  0.00     0.020 A 
ATOM      2  C1  UNL d   1       0.577  -2.256   0.315  0.00  0.00     0.020 A 
ATOM      3  C2  UNL d   1       0.521  -1.377   1.397  0.00  0.00     0.034 A 
ATOM      4  C3  UNL d   1       1.541  -1.375   2.356  0.00  0.00     0.017 A 
ATOM      5  C4  UNL d   1       2.618  -2.259   2.226  0.00  0.00     0.017 A 
ATOM      6  C5  UNL d   1       2.669  -3.138   1.140  0.00  0.00     0.034 A 
ATOM      7 Cl   UNL d   1       3.914  -2.315   3.369  0.00  0.00    -0.070 Cl
ATOM      8 Cl1  UNL d   1       1.408  -0.260   3.669  0.00  0.00    -0.070 Cl
ENDROOT
TORSDOF 0
ENDMDL
