MODEL 1
REMARK minimizedAffinity 9.04993534
REMARK minimizedRMSD -1
REMARK  0 active torsions:
REMARK  status: ('A' for Active; 'I' for Inactive)
ROOT
ATOM      1  C   UNL d   1      -1.999  -0.014  -1.313  0.00  0.00     0.020 A 
ATOM      2  C1  UNL d   1      -3.351   0.314  -1.408  0.00  0.00     0.020 A 
ATOM      3  C2  UNL d   1      -3.764   1.330  -2.272  0.00  0.00     0.034 A 
ATOM      4  C3  UNL d   1      -2.824   2.022  -3.046  0.00  0.00     0.017 A 
ATOM      5  C4  UNL d   1      -1.468   1.692  -2.950  0.00  0.00     0.017 A 
ATOM      6  C5  UNL d   1      -1.059   0.674  -2.083  0.00  0.00     0.034 A 
ATOM      7 Cl   UNL d   1      -0.250   2.501  -3.872  0.00  0.00    -0.070 Cl
ATOM      8 Cl1  UNL d   1      -3.406   3.266  -4.094  0.00  0.00    -0.070 Cl
ENDROOT
TORSDOF 0
ENDMDL
