MODEL 1
REMARK minimizedAffinity 6.66129875
REMARK minimizedRMSD -1
REMARK  0 active torsions:
REMARK  status: ('A' for Active; 'I' for Inactive)
ROOT
ATOM      1  C   UNL d   1       2.052  -2.622   0.797  0.00  0.00     0.020 A 
ATOM      2  C1  UNL d   1       1.930  -3.944   0.372  0.00  0.00     0.020 A 
ATOM      3  C2  UNL d   1       3.074  -4.709   0.135  0.00  0.00     0.034 A 
ATOM      4  C3  UNL d   1       4.344  -4.153   0.322  0.00  0.00     0.017 A 
ATOM      5  C4  UNL d   1       4.466  -2.826   0.748  0.00  0.00     0.017 A 
ATOM      6  C5  UNL d   1       3.317  -2.064   0.985  0.00  0.00     0.034 A 
ATOM      7 Cl   UNL d   1       6.000  -2.070   1.001  0.00  0.00    -0.070 Cl
ATOM      8 Cl1  UNL d   1       5.715  -5.158   0.010  0.00  0.00    -0.070 Cl
ENDROOT
TORSDOF 0
ENDMDL
