MODEL 1
REMARK minimizedAffinity 1.91476369
REMARK minimizedRMSD -1
REMARK  0 active torsions:
REMARK  status: ('A' for Active; 'I' for Inactive)
ROOT
ATOM      1  C   UNL d   1      -5.002   1.513   5.997  0.00  0.00     0.020 A 
ATOM      2  C1  UNL d   1      -5.999   1.774   5.057  0.00  0.00     0.020 A 
ATOM      3  C2  UNL d   1      -5.709   1.700   3.693  0.00  0.00     0.034 A 
ATOM      4  C3  UNL d   1      -4.420   1.365   3.265  0.00  0.00     0.017 A 
ATOM      5  C4  UNL d   1      -3.420   1.103   4.209  0.00  0.00     0.017 A 
ATOM      6  C5  UNL d   1      -3.716   1.179   5.573  0.00  0.00     0.034 A 
ATOM      7 Cl   UNL d   1      -1.805   0.684   3.757  0.00  0.00    -0.070 Cl
ATOM      8 Cl1  UNL d   1      -4.132   1.292   1.563  0.00  0.00    -0.070 Cl
ENDROOT
TORSDOF 0
ENDMDL
