MODEL 1
REMARK minimizedAffinity 14.6386099
REMARK minimizedRMSD -1
REMARK  0 active torsions:
REMARK  status: ('A' for Active; 'I' for Inactive)
ROOT
ATOM      1  C   UNL d   1       1.265  -2.851   0.125  0.00  0.00     0.020 A 
ATOM      2  C1  UNL d   1       2.406  -2.109   0.431  0.00  0.00     0.020 A 
ATOM      3  C2  UNL d   1       2.351  -1.117   1.412  0.00  0.00     0.034 A 
ATOM      4  C3  UNL d   1       1.154  -0.863   2.091  0.00  0.00     0.017 A 
ATOM      5  C4  UNL d   1       0.009  -1.608   1.783  0.00  0.00     0.017 A 
ATOM      6  C5  UNL d   1       0.070  -2.601   0.800  0.00  0.00     0.034 A 
ATOM      7 Cl   UNL d   1      -1.504  -1.353   2.578  0.00  0.00    -0.070 Cl
ATOM      8 Cl1  UNL d   1       1.159   0.378   3.292  0.00  0.00    -0.070 Cl
ENDROOT
TORSDOF 0
ENDMDL
