MODEL 1
REMARK minimizedAffinity 8.92146492
REMARK minimizedRMSD -1
REMARK  0 active torsions:
REMARK  status: ('A' for Active; 'I' for Inactive)
ROOT
ATOM      1  C   UNL d   1       4.102  -2.274   4.636  0.00  0.00     0.020 A 
ATOM      2  C1  UNL d   1       5.433  -1.896   4.466  0.00  0.00     0.020 A 
ATOM      3  C2  UNL d   1       5.999  -1.893   3.189  0.00  0.00     0.034 A 
ATOM      4  C3  UNL d   1       5.235  -2.267   2.078  0.00  0.00     0.017 A 
ATOM      5  C4  UNL d   1       3.898  -2.646   2.251  0.00  0.00     0.017 A 
ATOM      6  C5  UNL d   1       3.336  -2.648   3.531  0.00  0.00     0.034 A 
ATOM      7 Cl   UNL d   1       2.892  -3.121   0.929  0.00  0.00    -0.070 Cl
ATOM      8 Cl1  UNL d   1       6.000  -2.239   0.530  0.00  0.00    -0.070 Cl
ENDROOT
TORSDOF 0
ENDMDL
