MODEL 1
REMARK minimizedAffinity 9.66540051
REMARK minimizedRMSD -1
REMARK  0 active torsions:
REMARK  status: ('A' for Active; 'I' for Inactive)
ROOT
ATOM      1  C   UNL d   1       0.191  -1.586   2.243  0.00  0.00     0.020 A 
ATOM      2  C1  UNL d   1      -0.560  -2.625   1.695  0.00  0.00     0.020 A 
ATOM      3  C2  UNL d   1       0.065  -3.603   0.919  0.00  0.00     0.034 A 
ATOM      4  C3  UNL d   1       1.444  -3.545   0.690  0.00  0.00     0.017 A 
ATOM      5  C4  UNL d   1       2.197  -2.502   1.241  0.00  0.00     0.017 A 
ATOM      6  C5  UNL d   1       1.567  -1.525   2.017  0.00  0.00     0.034 A 
ATOM      7 Cl   UNL d   1       3.903  -2.364   1.002  0.00  0.00    -0.070 Cl
ATOM      8 Cl1  UNL d   1       2.151  -4.790  -0.279  0.00  0.00    -0.070 Cl
ENDROOT
TORSDOF 0
ENDMDL
