MODEL 1
REMARK minimizedAffinity 15.168541
REMARK minimizedRMSD -1
REMARK  0 active torsions:
REMARK  status: ('A' for Active; 'I' for Inactive)
ROOT
ATOM      1  C   UNL d   1       4.032  -5.950   4.241  0.00  0.00     0.020 A 
ATOM      2  C1  UNL d   1       4.686  -5.827   5.465  0.00  0.00     0.020 A 
ATOM      3  C2  UNL d   1       4.961  -4.561   5.986  0.00  0.00     0.034 A 
ATOM      4  C3  UNL d   1       4.581  -3.413   5.282  0.00  0.00     0.017 A 
ATOM      5  C4  UNL d   1       3.924  -3.537   4.053  0.00  0.00     0.017 A 
ATOM      6  C5  UNL d   1       3.651  -4.808   3.536  0.00  0.00     0.034 A 
ATOM      7 Cl   UNL d   1       3.424  -2.167   3.126  0.00  0.00    -0.070 Cl
ATOM      8 Cl1  UNL d   1       4.952  -1.879   5.986  0.00  0.00    -0.070 Cl
ENDROOT
TORSDOF 0
ENDMDL
