MODEL 1
REMARK minimizedAffinity 8.63426495
REMARK minimizedRMSD -1
REMARK  0 active torsions:
REMARK  status: ('A' for Active; 'I' for Inactive)
ROOT
ATOM      1  C   UNL d   1       1.291  -2.814   0.487  0.00  0.00     0.020 A 
ATOM      2  C1  UNL d   1       2.421  -2.118   0.916  0.00  0.00     0.020 A 
ATOM      3  C2  UNL d   1       2.326  -1.227   1.987  0.00  0.00     0.034 A 
ATOM      4  C3  UNL d   1       1.100  -1.030   2.633  0.00  0.00     0.017 A 
ATOM      5  C4  UNL d   1      -0.033  -1.729   2.201  0.00  0.00     0.017 A 
ATOM      6  C5  UNL d   1       0.067  -2.620   1.128  0.00  0.00     0.034 A 
ATOM      7 Cl   UNL d   1      -1.580  -1.538   2.948  0.00  0.00    -0.070 Cl
ATOM      8 Cl1  UNL d   1       1.057   0.087   3.950  0.00  0.00    -0.070 Cl
ENDROOT
TORSDOF 0
ENDMDL
