MODEL 1
REMARK minimizedAffinity 4.74200869
REMARK minimizedRMSD -1
REMARK  0 active torsions:
REMARK  status: ('A' for Active; 'I' for Inactive)
ROOT
ATOM      1  C   UNL d   1       2.618  -2.060  -0.364  0.00  0.00     0.020 A 
ATOM      2  C1  UNL d   1       1.957  -1.090   0.388  0.00  0.00     0.020 A 
ATOM      3  C2  UNL d   1       0.887  -1.451   1.208  0.00  0.00     0.034 A 
ATOM      4  C3  UNL d   1       0.474  -2.787   1.280  0.00  0.00     0.017 A 
ATOM      5  C4  UNL d   1       1.139  -3.760   0.525  0.00  0.00     0.017 A 
ATOM      6  C5  UNL d   1       2.210  -3.393  -0.295  0.00  0.00     0.034 A 
ATOM      7 Cl   UNL d   1       0.687  -5.428   0.561  0.00  0.00    -0.070 Cl
ATOM      8 Cl1  UNL d   1      -0.856  -3.162   2.316  0.00  0.00    -0.070 Cl
ENDROOT
TORSDOF 0
ENDMDL
