MODEL 1
REMARK minimizedAffinity 9.19033337
REMARK minimizedRMSD -1
REMARK  0 active torsions:
REMARK  status: ('A' for Active; 'I' for Inactive)
ROOT
ATOM      1  C   UNL d   1      -3.310   0.619  -2.114  0.00  0.00     0.020 A 
ATOM      2  C1  UNL d   1      -3.310  -0.756  -1.885  0.00  0.00     0.020 A 
ATOM      3  C2  UNL d   1      -4.148  -1.588  -2.630  0.00  0.00     0.034 A 
ATOM      4  C3  UNL d   1      -4.989  -1.046  -3.609  0.00  0.00     0.017 A 
ATOM      5  C4  UNL d   1      -4.988   0.335  -3.838  0.00  0.00     0.017 A 
ATOM      6  C5  UNL d   1      -4.147   1.163  -3.089  0.00  0.00     0.034 A 
ATOM      7 Cl   UNL d   1      -5.998   1.077  -5.028  0.00  0.00    -0.070 Cl
ATOM      8 Cl1  UNL d   1      -5.998  -2.134  -4.493  0.00  0.00    -0.070 Cl
ENDROOT
TORSDOF 0
ENDMDL
