MODEL 1
REMARK minimizedAffinity 10.5425606
REMARK minimizedRMSD -1
REMARK  0 active torsions:
REMARK  status: ('A' for Active; 'I' for Inactive)
ROOT
ATOM      1  C   UNL d   1       2.075  -4.033   0.554  0.00  0.00     0.020 A 
ATOM      2  C1  UNL d   1       3.098  -3.086   0.580  0.00  0.00     0.020 A 
ATOM      3  C2  UNL d   1       2.821  -1.768   0.950  0.00  0.00     0.034 A 
ATOM      4  C3  UNL d   1       1.518  -1.394   1.296  0.00  0.00     0.017 A 
ATOM      5  C4  UNL d   1       0.491  -2.345   1.270  0.00  0.00     0.017 A 
ATOM      6  C5  UNL d   1       0.774  -3.663   0.899  0.00  0.00     0.034 A 
ATOM      7 Cl   UNL d   1      -1.141  -1.958   1.685  0.00  0.00    -0.070 Cl
ATOM      8 Cl1  UNL d   1       1.247   0.253   1.744  0.00  0.00    -0.070 Cl
ENDROOT
TORSDOF 0
ENDMDL
