MODEL 1
REMARK minimizedAffinity 8.25681686
REMARK minimizedRMSD -1
REMARK  0 active torsions:
REMARK  status: ('A' for Active; 'I' for Inactive)
ROOT
ATOM      1  C   UNL d   1      -1.946  -1.074   0.511  0.00  0.00     0.020 A 
ATOM      2  C1  UNL d   1      -3.045  -1.932   0.493  0.00  0.00     0.020 A 
ATOM      3  C2  UNL d   1      -4.052  -1.756  -0.458  0.00  0.00     0.034 A 
ATOM      4  C3  UNL d   1      -3.964  -0.719  -1.394  0.00  0.00     0.017 A 
ATOM      5  C4  UNL d   1      -2.861   0.142  -1.374  0.00  0.00     0.017 A 
ATOM      6  C5  UNL d   1      -1.854  -0.039  -0.420  0.00  0.00     0.034 A 
ATOM      7 Cl   UNL d   1      -2.681   1.444  -2.497  0.00  0.00    -0.070 Cl
ATOM      8 Cl1  UNL d   1      -5.246  -0.560  -2.540  0.00  0.00    -0.070 Cl
ENDROOT
TORSDOF 0
ENDMDL
