MODEL 1
REMARK minimizedAffinity 8.79594421
REMARK minimizedRMSD -1
REMARK  0 active torsions:
REMARK  status: ('A' for Active; 'I' for Inactive)
ROOT
ATOM      1  C   UNL d   1       1.437  -2.251   0.737  0.00  0.00     0.020 A 
ATOM      2  C1  UNL d   1       0.729  -3.380   0.328  0.00  0.00     0.020 A 
ATOM      3  C2  UNL d   1       1.417  -4.526  -0.077  0.00  0.00     0.034 A 
ATOM      4  C3  UNL d   1       2.816  -4.545  -0.075  0.00  0.00     0.017 A 
ATOM      5  C4  UNL d   1       3.526  -3.411   0.336  0.00  0.00     0.017 A 
ATOM      6  C5  UNL d   1       2.832  -2.266   0.740  0.00  0.00     0.034 A 
ATOM      7 Cl   UNL d   1       5.253  -3.359   0.366  0.00  0.00    -0.070 Cl
ATOM      8 Cl1  UNL d   1       3.601  -5.996  -0.589  0.00  0.00    -0.070 Cl
ENDROOT
TORSDOF 0
ENDMDL
