MODEL 1
REMARK minimizedAffinity 8.17037106
REMARK minimizedRMSD -1
REMARK  0 active torsions:
REMARK  status: ('A' for Active; 'I' for Inactive)
ROOT
ATOM      1  C   UNL d   1      -0.664  -2.551   1.607  0.00  0.00     0.020 A 
ATOM      2  C1  UNL d   1      -0.878  -3.885   1.265  0.00  0.00     0.020 A 
ATOM      3  C2  UNL d   1       0.117  -4.603   0.599  0.00  0.00     0.034 A 
ATOM      4  C3  UNL d   1       1.331  -3.987   0.272  0.00  0.00     0.017 A 
ATOM      5  C4  UNL d   1       1.544  -2.647   0.616  0.00  0.00     0.017 A 
ATOM      6  C5  UNL d   1       0.544  -1.933   1.284  0.00  0.00     0.034 A 
ATOM      7 Cl   UNL d   1       3.015  -1.818   0.247  0.00  0.00    -0.070 Cl
ATOM      8 Cl1  UNL d   1       2.517  -4.935  -0.552  0.00  0.00    -0.070 Cl
ENDROOT
TORSDOF 0
ENDMDL
