MODEL 1
REMARK minimizedAffinity 15.9236269
REMARK minimizedRMSD -1
REMARK  0 active torsions:
REMARK  status: ('A' for Active; 'I' for Inactive)
ROOT
ATOM      1  C   UNL d   1      -5.554  -1.882  -2.750  0.00  0.00     0.020 A 
ATOM      2  C1  UNL d   1      -4.503  -1.503  -1.916  0.00  0.00     0.020 A 
ATOM      3  C2  UNL d   1      -3.897  -0.256  -2.080  0.00  0.00     0.034 A 
ATOM      4  C3  UNL d   1      -4.341   0.617  -3.080  0.00  0.00     0.017 A 
ATOM      5  C4  UNL d   1      -5.396   0.235  -3.916  0.00  0.00     0.017 A 
ATOM      6  C5  UNL d   1      -5.999  -1.015  -3.748  0.00  0.00     0.034 A 
ATOM      7 Cl   UNL d   1      -5.999   1.258  -5.172  0.00  0.00    -0.070 Cl
ATOM      8 Cl1  UNL d   1      -3.546   2.144  -3.225  0.00  0.00    -0.070 Cl
ENDROOT
TORSDOF 0
ENDMDL
