MODEL 1
REMARK minimizedAffinity 9.44320202
REMARK minimizedRMSD -1
REMARK  0 active torsions:
REMARK  status: ('A' for Active; 'I' for Inactive)
ROOT
ATOM      1  C   UNL d   1      -4.528   2.500  -4.175  0.00  0.00     0.020 A 
ATOM      2  C1  UNL d   1      -4.385   1.897  -5.424  0.00  0.00     0.020 A 
ATOM      3  C2  UNL d   1      -3.114   1.552  -5.891  0.00  0.00     0.034 A 
ATOM      4  C3  UNL d   1      -1.983   1.811  -5.109  0.00  0.00     0.017 A 
ATOM      5  C4  UNL d   1      -2.128   2.416  -3.855  0.00  0.00     0.017 A 
ATOM      6  C5  UNL d   1      -3.402   2.759  -3.393  0.00  0.00     0.034 A 
ATOM      7 Cl   UNL d   1      -0.779   2.766  -2.833  0.00  0.00    -0.070 Cl
ATOM      8 Cl1  UNL d   1      -0.443   1.357  -5.749  0.00  0.00    -0.070 Cl
ENDROOT
TORSDOF 0
ENDMDL
