MODEL 1
REMARK minimizedAffinity -4.16059875
REMARK minimizedRMSD -1
REMARK  0 active torsions:
REMARK  status: ('A' for Active; 'I' for Inactive)
ROOT
ATOM      1  C4' PXY d   1      -1.570   0.014  -0.503  0.00  0.00     0.077 C 
ATOM      2  C1' PXY d   1       3.804  -0.351   1.594  0.00  0.00     0.077 C 
ATOM      3  C1  PXY d   1       2.394  -0.243   1.048  0.00  0.00    -0.082 A 
ATOM      4  C2  PXY d   1       1.648  -1.331   0.942  0.00  0.00     0.003 A 
ATOM      5  C3  PXY d   1       0.382  -1.255   0.420  0.00  0.00     0.003 A 
ATOM      6  C4  PXY d   1      -0.145  -0.046   0.052  0.00  0.00    -0.082 A 
ATOM      7  C5  PXY d   1       0.606   1.069   0.167  0.00  0.00     0.003 A 
ATOM      8  C6  PXY d   1       1.903   0.966   0.661  0.00  0.00     0.003 A 
ENDROOT
TORSDOF 0
ENDMDL
