MODEL 1
REMARK minimizedAffinity -5.45565081
REMARK minimizedRMSD -1
REMARK  0 active torsions:
REMARK  status: ('A' for Active; 'I' for Inactive)
ROOT
ATOM      1  C4' PXY d   1      -0.944   0.294   0.071  0.00  0.00     0.077 C 
ATOM      2  C1' PXY d   1       4.255  -1.634   1.707  0.00  0.00     0.077 C 
ATOM      3  C1  PXY d   1       2.895  -1.116   1.280  0.00  0.00    -0.082 A 
ATOM      4  C2  PXY d   1       1.835  -1.902   1.378  0.00  0.00     0.003 A 
ATOM      5  C3  PXY d   1       0.604  -1.461   0.967  0.00  0.00     0.003 A 
ATOM      6  C4  PXY d   1       0.447  -0.183   0.499  0.00  0.00    -0.082 A 
ATOM      7  C5  PXY d   1       1.521   0.628   0.406  0.00  0.00     0.003 A 
ATOM      8  C6  PXY d   1       2.770   0.147   0.791  0.00  0.00     0.003 A 
ENDROOT
TORSDOF 0
ENDMDL
