MODEL 1
REMARK minimizedAffinity -3.86533403
REMARK minimizedRMSD -1
REMARK  0 active torsions:
REMARK  status: ('A' for Active; 'I' for Inactive)
ROOT
ATOM      1  C4' PXY d   1       3.364  -0.538   0.688  0.00  0.00     0.077 C 
ATOM      2  C1' PXY d   1      -2.083   1.189  -0.186  0.00  0.00     0.077 C 
ATOM      3  C1  PXY d   1      -0.650   0.747   0.038  0.00  0.00    -0.082 A 
ATOM      4  C2  PXY d   1      -0.369  -0.543   0.124  0.00  0.00     0.003 A 
ATOM      5  C3  PXY d   1       0.916  -0.959   0.359  0.00  0.00     0.003 A 
ATOM      6  C4  PXY d   1       1.933  -0.047   0.453  0.00  0.00    -0.082 A 
ATOM      7  C5  PXY d   1       1.656   1.271   0.355  0.00  0.00     0.003 A 
ATOM      8  C6  PXY d   1       0.338   1.674   0.158  0.00  0.00     0.003 A 
ENDROOT
TORSDOF 0
ENDMDL
