MODEL 1
REMARK minimizedAffinity -4.16061544
REMARK minimizedRMSD -1
REMARK  0 active torsions:
REMARK  status: ('A' for Active; 'I' for Inactive)
ROOT
ATOM      1  C4' PXY d   1      -1.892   0.464  -0.471  0.00  0.00     0.077 C 
ATOM      2  C1' PXY d   1       3.571  -0.692   1.028  0.00  0.00     0.077 C 
ATOM      3  C1  PXY d   1       2.139  -0.377   0.640  0.00  0.00    -0.082 A 
ATOM      4  C2  PXY d   1       1.279  -1.365   0.457  0.00  0.00     0.003 A 
ATOM      5  C3  PXY d   1      -0.011  -1.099   0.075  0.00  0.00     0.003 A 
ATOM      6  C4  PXY d   1      -0.439   0.193  -0.069  0.00  0.00    -0.082 A 
ATOM      7  C5  PXY d   1       0.431   1.207   0.125  0.00  0.00     0.003 A 
ATOM      8  C6  PXY d   1       1.746   0.915   0.473  0.00  0.00     0.003 A 
ENDROOT
TORSDOF 0
ENDMDL
