MODEL 1
REMARK minimizedAffinity -4.71281672
REMARK minimizedRMSD -1
REMARK  0 active torsions:
REMARK  status: ('A' for Active; 'I' for Inactive)
ROOT
ATOM      1  C4' PXY d   1      -2.017  -0.351  -0.736  0.00  0.00     0.077 C 
ATOM      2  C1' PXY d   1       3.411   0.289   1.148  0.00  0.00     0.077 C 
ATOM      3  C1  PXY d   1       1.990   0.109   0.650  0.00  0.00    -0.082 A 
ATOM      4  C2  PXY d   1       1.274   1.170   0.318  0.00  0.00     0.003 A 
ATOM      5  C3  PXY d   1      -0.023   1.028  -0.103  0.00  0.00     0.003 A 
ATOM      6  C4  PXY d   1      -0.575  -0.218  -0.237  0.00  0.00    -0.082 A 
ATOM      7  C5  PXY d   1       0.153  -1.307   0.089  0.00  0.00     0.003 A 
ATOM      8  C6  PXY d   1       1.454  -1.138   0.554  0.00  0.00     0.003 A 
ENDROOT
TORSDOF 0
ENDMDL
