MODEL 1
REMARK minimizedAffinity -3.82321358
REMARK minimizedRMSD -1
REMARK  0 active torsions:
REMARK  status: ('A' for Active; 'I' for Inactive)
ROOT
ATOM      1  C4' PXY d   1      -2.319   0.282   0.722  0.00  0.00     0.077 C 
ATOM      2  C1' PXY d   1       3.235  -1.321   0.776  0.00  0.00     0.077 C 
ATOM      3  C1  PXY d   1       1.775  -0.913   0.764  0.00  0.00    -0.082 A 
ATOM      4  C2  PXY d   1       1.404   0.173   0.104  0.00  0.00     0.003 A 
ATOM      5  C3  PXY d   1       0.093   0.574   0.110  0.00  0.00     0.003 A 
ATOM      6  C4  PXY d   1      -0.857  -0.173   0.753  0.00  0.00    -0.082 A 
ATOM      7  C5  PXY d   1      -0.488  -1.288   1.419  0.00  0.00     0.003 A 
ATOM      8  C6  PXY d   1       0.854  -1.655   1.436  0.00  0.00     0.003 A 
ENDROOT
TORSDOF 0
ENDMDL
