MODEL 1
REMARK minimizedAffinity -2.59035373
REMARK minimizedRMSD -1
REMARK  0 active torsions:
REMARK  status: ('A' for Active; 'I' for Inactive)
ROOT
ATOM      1  C4' PXY d   1      -0.553  -2.211   1.930  0.00  0.00     0.077 C 
ATOM      2  C1' PXY d   1       1.333   2.599  -0.661  0.00  0.00     0.077 C 
ATOM      3  C1  PXY d   1       0.850   1.332   0.016  0.00  0.00    -0.082 A 
ATOM      4  C2  PXY d   1      -0.449   1.102   0.122  0.00  0.00     0.003 A 
ATOM      5  C3  PXY d   1      -0.904  -0.024   0.760  0.00  0.00     0.003 A 
ATOM      6  C4  PXY d   1      -0.020  -0.950   1.246  0.00  0.00    -0.082 A 
ATOM      7  C5  PXY d   1       1.307  -0.727   1.132  0.00  0.00     0.003 A 
ATOM      8  C6  PXY d   1       1.748   0.441   0.518  0.00  0.00     0.003 A 
ENDROOT
TORSDOF 0
ENDMDL
