MODEL 1
REMARK minimizedAffinity -5.47493076
REMARK minimizedRMSD -1
REMARK  0 active torsions:
REMARK  status: ('A' for Active; 'I' for Inactive)
ROOT
ATOM      1  C4' PXY d   1      -1.505   0.274  -0.554  0.00  0.00     0.077 C 
ATOM      2  C1' PXY d   1       3.735  -0.781   1.647  0.00  0.00     0.077 C 
ATOM      3  C1  PXY d   1       2.362  -0.492   1.073  0.00  0.00    -0.082 A 
ATOM      4  C2  PXY d   1       1.489  -1.476   0.939  0.00  0.00     0.003 A 
ATOM      5  C3  PXY d   1       0.254  -1.239   0.392  0.00  0.00     0.003 A 
ATOM      6  C4  PXY d   1      -0.110   0.030   0.029  0.00  0.00    -0.082 A 
ATOM      7  C5  PXY d   1       0.771   1.042   0.173  0.00  0.00     0.003 A 
ATOM      8  C6  PXY d   1       2.034   0.773   0.692  0.00  0.00     0.003 A 
ENDROOT
TORSDOF 0
ENDMDL
