MODEL 1
REMARK minimizedAffinity -4.40045929
REMARK minimizedRMSD -1
REMARK  0 active torsions:
REMARK  status: ('A' for Active; 'I' for Inactive)
ROOT
ATOM      1  C4' PXY d   1      -2.456   0.145  -1.041  0.00  0.00     0.077 C 
ATOM      2  C1' PXY d   1       2.909   0.631   1.057  0.00  0.00     0.077 C 
ATOM      3  C1  PXY d   1       1.504   0.491   0.504  0.00  0.00    -0.082 A 
ATOM      4  C2  PXY d   1       0.880   1.555   0.026  0.00  0.00     0.003 A 
ATOM      5  C3  PXY d   1      -0.402   1.452  -0.448  0.00  0.00     0.003 A 
ATOM      6  C4  PXY d   1      -1.033   0.238  -0.482  0.00  0.00    -0.082 A 
ATOM      7  C5  PXY d   1      -0.399  -0.855  -0.005  0.00  0.00     0.003 A 
ATOM      8  C6  PXY d   1       0.887  -0.722   0.510  0.00  0.00     0.003 A 
ENDROOT
TORSDOF 0
ENDMDL
