MODEL 1
REMARK minimizedAffinity -4.92917824
REMARK minimizedRMSD -1
REMARK  0 active torsions:
REMARK  status: ('A' for Active; 'I' for Inactive)
ROOT
ATOM      1  C4' PXY d   1      -1.825  -0.745  -0.413  0.00  0.00     0.077 C 
ATOM      2  C1' PXY d   1       3.750  -0.309   1.048  0.00  0.00     0.077 C 
ATOM      3  C1  PXY d   1       2.291  -0.434   0.657  0.00  0.00    -0.082 A 
ATOM      4  C2  PXY d   1       1.497   0.621   0.750  0.00  0.00     0.003 A 
ATOM      5  C3  PXY d   1       0.167   0.517   0.431  0.00  0.00     0.003 A 
ATOM      6  C4  PXY d   1      -0.343  -0.663  -0.039  0.00  0.00    -0.082 A 
ATOM      7  C5  PXY d   1       0.463  -1.741  -0.146  0.00  0.00     0.003 A 
ATOM      8  C6  PXY d   1       1.801  -1.626   0.222  0.00  0.00     0.003 A 
ENDROOT
TORSDOF 0
ENDMDL
