MODEL 1
REMARK minimizedAffinity -1.85026693
REMARK minimizedRMSD -1
REMARK  1 active torsions:
REMARK  status: ('A' for Active; 'I' for Inactive)
REMARK    1  A    between atoms: C1_2  and  C2_3 
ROOT
ATOM      1  C2  UNL d   1      -1.561   5.102  -5.892  0.00  0.00    -0.073 A 
ATOM      2  C3  UNL d   1      -1.630   3.704  -5.915  0.00  0.00    -0.002 A 
ATOM      3  C4  UNL d   1      -0.463   2.942  -5.972  0.00  0.00     0.004 A 
ATOM      4  C5  UNL d   1       0.783   3.567  -5.998  0.00  0.00    -0.004 A 
ATOM      5  C6  UNL d   1       0.873   4.963  -5.964  0.00  0.00    -0.075 A 
ATOM      6  C7  UNL d   1       2.206   5.651  -5.994  0.00  0.00     0.076 C 
ATOM      7  C8  UNL d   1      -0.304   5.721  -5.909  0.00  0.00     0.001 A 
ENDROOT
BRANCH   1   8
ATOM      8  C1  UNL d   1      -2.819   5.929  -5.824  0.00  0.00     0.053 C 
ATOM      9  C   UNL d   1      -4.070   5.080  -5.984  0.00  0.00     0.018 C 
ENDBRANCH   1   8
TORSDOF 1
ENDMDL
