MODEL 1
REMARK minimizedAffinity -2.97025537
REMARK minimizedRMSD -1
REMARK  1 active torsions:
REMARK  status: ('A' for Active; 'I' for Inactive)
REMARK    1  A    between atoms: C1_2  and  C2_3 
ROOT
ATOM      1  C2  UNL d   1      -1.656   4.223  -5.922  0.00  0.00    -0.073 A 
ATOM      2  C3  UNL d   1      -0.941   5.425  -5.951  0.00  0.00    -0.002 A 
ATOM      3  C4  UNL d   1       0.455   5.414  -5.985  0.00  0.00     0.004 A 
ATOM      4  C5  UNL d   1       1.147   4.204  -5.997  0.00  0.00    -0.004 A 
ATOM      5  C6  UNL d   1       0.450   2.992  -5.981  0.00  0.00    -0.075 A 
ATOM      6  C7  UNL d   1       1.180   1.681  -5.992  0.00  0.00     0.076 C 
ATOM      7  C8  UNL d   1      -0.951   3.011  -5.944  0.00  0.00     0.001 A 
ENDROOT
BRANCH   1   8
ATOM      8  C1  UNL d   1      -3.163   4.229  -5.892  0.00  0.00     0.053 C 
ATOM      9  C   UNL d   1      -3.729   5.636  -5.997  0.00  0.00     0.018 C 
ENDBRANCH   1   8
TORSDOF 1
ENDMDL
