MODEL 1
REMARK minimizedAffinity 2.21771622
REMARK minimizedRMSD -1
REMARK  1 active torsions:
REMARK  status: ('A' for Active; 'I' for Inactive)
REMARK    1  A    between atoms: C1_2  and  C2_3 
ROOT
ATOM      1  C2  UNL d   1       0.850   4.364  -5.865  0.00  0.00    -0.073 A 
ATOM      2  C3  UNL d   1       0.535   3.007  -5.995  0.00  0.00    -0.002 A 
ATOM      3  C4  UNL d   1      -0.796   2.588  -5.991  0.00  0.00     0.004 A 
ATOM      4  C5  UNL d   1      -1.825   3.521  -5.864  0.00  0.00    -0.004 A 
ATOM      5  C6  UNL d   1      -1.531   4.883  -5.744  0.00  0.00    -0.075 A 
ATOM      6  C7  UNL d   1      -2.626   5.899  -5.604  0.00  0.00     0.076 C 
ATOM      7  C8  UNL d   1      -0.192   5.295  -5.747  0.00  0.00     0.001 A 
ENDROOT
BRANCH   1   8
ATOM      8  C1  UNL d   1       2.285   4.821  -5.876  0.00  0.00     0.053 C 
ATOM      9  C   UNL d   1       3.255   3.654  -5.978  0.00  0.00     0.018 C 
ENDBRANCH   1   8
TORSDOF 1
ENDMDL
