MODEL 1
REMARK minimizedAffinity 6.44739103
REMARK minimizedRMSD -1
REMARK  1 active torsions:
REMARK  status: ('A' for Active; 'I' for Inactive)
REMARK    1  A    between atoms: C1_2  and  C2_3 
ROOT
ATOM      1  C2  UNL d   1      -0.766   4.735  -5.439  0.00  0.00    -0.073 A 
ATOM      2  C3  UNL d   1      -1.771   5.631  -5.819  0.00  0.00    -0.002 A 
ATOM      3  C4  UNL d   1      -3.063   5.500  -5.308  0.00  0.00     0.004 A 
ATOM      4  C5  UNL d   1      -3.361   4.478  -4.407  0.00  0.00    -0.004 A 
ATOM      5  C6  UNL d   1      -2.367   3.580  -4.005  0.00  0.00    -0.075 A 
ATOM      6  C7  UNL d   1      -2.671   2.474  -3.038  0.00  0.00     0.076 C 
ATOM      7  C8  UNL d   1      -1.073   3.717  -4.525  0.00  0.00     0.001 A 
ENDROOT
BRANCH   1   8
ATOM      8  C1  UNL d   1       0.632   4.877  -5.983  0.00  0.00     0.053 C 
ATOM      9  C   UNL d   1       1.375   3.550  -6.000  0.00  0.00     0.018 C 
ENDBRANCH   1   8
TORSDOF 1
ENDMDL
