MODEL 1
REMARK minimizedAffinity 13.2249289
REMARK minimizedRMSD -1
REMARK  1 active torsions:
REMARK  status: ('A' for Active; 'I' for Inactive)
REMARK    1  A    between atoms: C1_2  and  C2_3 
ROOT
ATOM      1  C2  UNL d   1       3.690   4.132   0.509  0.00  0.00    -0.073 A 
ATOM      2  C3  UNL d   1       4.228   5.234  -0.165  0.00  0.00    -0.002 A 
ATOM      3  C4  UNL d   1       5.234   5.999   0.426  0.00  0.00     0.004 A 
ATOM      4  C5  UNL d   1       5.717   5.667   1.692  0.00  0.00    -0.004 A 
ATOM      5  C6  UNL d   1       5.200   4.563   2.377  0.00  0.00    -0.075 A 
ATOM      6  C7  UNL d   1       5.706   4.194   3.740  0.00  0.00     0.076 C 
ATOM      7  C8  UNL d   1       4.188   3.801   1.778  0.00  0.00     0.001 A 
ENDROOT
BRANCH   1   8
ATOM      8  C1  UNL d   1       2.608   3.299  -0.127  0.00  0.00     0.053 C 
ATOM      9  C   UNL d   1       3.089   2.613  -1.396  0.00  0.00     0.018 C 
ENDBRANCH   1   8
TORSDOF 1
ENDMDL
