MODEL 1
REMARK minimizedAffinity 5.84952736
REMARK minimizedRMSD -1
REMARK  1 active torsions:
REMARK  status: ('A' for Active; 'I' for Inactive)
REMARK    1  A    between atoms: C1_2  and  C2_3 
ROOT
ATOM      1  C2  UNL d   1       0.447   1.799  -5.999  0.00  0.00    -0.073 A 
ATOM      2  C3  UNL d   1       1.826   2.040  -5.997  0.00  0.00    -0.002 A 
ATOM      3  C4  UNL d   1       2.313   3.348  -5.997  0.00  0.00     0.004 A 
ATOM      4  C5  UNL d   1       1.429   4.426  -5.991  0.00  0.00    -0.004 A 
ATOM      5  C6  UNL d   1       0.048   4.206  -5.981  0.00  0.00    -0.075 A 
ATOM      6  C7  UNL d   1      -0.917   5.355  -5.978  0.00  0.00     0.076 C 
ATOM      7  C8  UNL d   1      -0.434   2.890  -5.984  0.00  0.00     0.001 A 
ENDROOT
BRANCH   1   8
ATOM      8  C1  UNL d   1      -0.083   0.389  -5.992  0.00  0.00     0.053 C 
ATOM      9  C   UNL d   1      -0.676   0.009  -4.645  0.00  0.00     0.018 C 
ENDBRANCH   1   8
TORSDOF 1
ENDMDL
