MODEL 1
REMARK minimizedAffinity 6.41514587
REMARK minimizedRMSD -1
REMARK  1 active torsions:
REMARK  status: ('A' for Active; 'I' for Inactive)
REMARK    1  A    between atoms: C1_2  and  C2_3 
ROOT
ATOM      1  C2  UNL d   1       0.585  -0.981  -2.652  0.00  0.00    -0.073 A 
ATOM      2  C3  UNL d   1       0.889  -1.130  -4.010  0.00  0.00    -0.002 A 
ATOM      3  C4  UNL d   1       2.150  -1.577  -4.406  0.00  0.00     0.004 A 
ATOM      4  C5  UNL d   1       3.117  -1.886  -3.449  0.00  0.00    -0.004 A 
ATOM      5  C6  UNL d   1       2.829  -1.755  -2.087  0.00  0.00    -0.075 A 
ATOM      6  C7  UNL d   1       3.859  -2.081  -1.045  0.00  0.00     0.076 C 
ATOM      7  C8  UNL d   1       1.561  -1.303  -1.698  0.00  0.00     0.001 A 
ENDROOT
BRANCH   1   8
ATOM      8  C1  UNL d   1      -0.777  -0.504  -2.220  0.00  0.00     0.053 C 
ATOM      9  C   UNL d   1      -1.871  -1.494  -2.589  0.00  0.00     0.018 C 
ENDBRANCH   1   8
TORSDOF 1
ENDMDL
