MODEL 1
REMARK minimizedAffinity 6.64224672
REMARK minimizedRMSD -1
REMARK  1 active torsions:
REMARK  status: ('A' for Active; 'I' for Inactive)
REMARK    1  A    between atoms: C1_2  and  C2_3 
ROOT
ATOM      1  C2  UNL d   1      -1.056   4.596  -5.371  0.00  0.00    -0.073 A 
ATOM      2  C3  UNL d   1      -1.050   5.546  -4.343  0.00  0.00    -0.002 A 
ATOM      3  C4  UNL d   1      -2.251   5.998  -3.794  0.00  0.00     0.004 A 
ATOM      4  C5  UNL d   1      -3.467   5.500  -4.261  0.00  0.00    -0.004 A 
ATOM      5  C6  UNL d   1      -3.493   4.541  -5.279  0.00  0.00    -0.075 A 
ATOM      6  C7  UNL d   1      -4.793   3.997  -5.794  0.00  0.00     0.076 C 
ATOM      7  C8  UNL d   1      -2.283   4.094  -5.827  0.00  0.00     0.001 A 
ENDROOT
BRANCH   1   8
ATOM      8  C1  UNL d   1       0.239   4.101  -5.962  0.00  0.00     0.053 C 
ATOM      9  C   UNL d   1       1.316   5.173  -5.955  0.00  0.00     0.018 C 
ENDBRANCH   1   8
TORSDOF 1
ENDMDL
