MODEL 1
REMARK minimizedAffinity 3.43742681
REMARK minimizedRMSD -1
REMARK  1 active torsions:
REMARK  status: ('A' for Active; 'I' for Inactive)
REMARK    1  A    between atoms: C1_2  and  C2_3 
ROOT
ATOM      1  C2  UNL d   1      -1.337  -0.709   1.703  0.00  0.00    -0.073 A 
ATOM      2  C3  UNL d   1      -1.215  -2.005   2.216  0.00  0.00    -0.002 A 
ATOM      3  C4  UNL d   1      -2.309  -2.632   2.815  0.00  0.00     0.004 A 
ATOM      4  C5  UNL d   1      -3.535  -1.972   2.901  0.00  0.00    -0.004 A 
ATOM      5  C6  UNL d   1      -3.680  -0.681   2.384  0.00  0.00    -0.075 A 
ATOM      6  C7  UNL d   1      -4.991   0.042   2.471  0.00  0.00     0.076 C 
ATOM      7  C8  UNL d   1      -2.576  -0.058   1.786  0.00  0.00     0.001 A 
ENDROOT
BRANCH   1   8
ATOM      8  C1  UNL d   1      -0.161  -0.031   1.050  0.00  0.00     0.053 C 
ATOM      9  C   UNL d   1      -0.040  -0.392  -0.422  0.00  0.00     0.018 C 
ENDBRANCH   1   8
TORSDOF 1
ENDMDL
