MODEL 1
REMARK minimizedAffinity 9.73226166
REMARK minimizedRMSD -1
REMARK  0 active torsions:
REMARK  status: ('A' for Active; 'I' for Inactive)
ROOT
ATOM      1  C4' PXY d   1       0.414  -1.370   3.499  0.00  0.00     0.077 C 
ATOM      2  C1' PXY d   1      -4.460   1.294   1.900  0.00  0.00     0.077 C 
ATOM      3  C1  PXY d   1      -3.185   0.586   2.311  0.00  0.00    -0.082 A 
ATOM      4  C2  PXY d   1      -2.656   0.828   3.499  0.00  0.00     0.003 A 
ATOM      5  C3  PXY d   1      -1.485   0.221   3.874  0.00  0.00     0.003 A 
ATOM      6  C4  PXY d   1      -0.878  -0.685   3.046  0.00  0.00    -0.082 A 
ATOM      7  C5  PXY d   1      -1.418  -0.946   1.836  0.00  0.00     0.003 A 
ATOM      8  C6  PXY d   1      -2.584  -0.287   1.458  0.00  0.00     0.003 A 
ENDROOT
TORSDOF 0
ENDMDL
