MODEL 1
REMARK minimizedAffinity 3.49844694
REMARK minimizedRMSD -1
REMARK  0 active torsions:
REMARK  status: ('A' for Active; 'I' for Inactive)
ROOT
ATOM      1  C4' PXY d   1      -0.881  -1.493   3.113  0.00  0.00     0.077 C 
ATOM      2  C1' PXY d   1       2.961  -5.375   1.219  0.00  0.00     0.077 C 
ATOM      3  C1  PXY d   1       1.944  -4.365   1.713  0.00  0.00    -0.082 A 
ATOM      4  C2  PXY d   1       2.245  -3.077   1.706  0.00  0.00     0.003 A 
ATOM      5  C3  PXY d   1       1.349  -2.153   2.179  0.00  0.00     0.003 A 
ATOM      6  C4  PXY d   1       0.112  -2.547   2.615  0.00  0.00    -0.082 A 
ATOM      7  C5  PXY d   1      -0.206  -3.859   2.615  0.00  0.00     0.003 A 
ATOM      8  C6  PXY d   1       0.733  -4.785   2.170  0.00  0.00     0.003 A 
ENDROOT
TORSDOF 0
ENDMDL
