MODEL 1
REMARK minimizedAffinity 11.1301279
REMARK minimizedRMSD -1
REMARK  0 active torsions:
REMARK  status: ('A' for Active; 'I' for Inactive)
ROOT
ATOM      1  C4' PXY d   1       3.437  -5.949   0.404  0.00  0.00     0.077 C 
ATOM      2  C1' PXY d   1       0.145  -1.842   2.793  0.00  0.00     0.077 C 
ATOM      3  C1  PXY d   1       1.002  -2.928   2.173  0.00  0.00    -0.082 A 
ATOM      4  C2  PXY d   1       2.235  -2.647   1.785  0.00  0.00     0.003 A 
ATOM      5  C3  PXY d   1       3.012  -3.610   1.193  0.00  0.00     0.003 A 
ATOM      6  C4  PXY d   1       2.540  -4.886   1.044  0.00  0.00    -0.082 A 
ATOM      7  C5  PXY d   1       1.286  -5.183   1.446  0.00  0.00     0.003 A 
ATOM      8  C6  PXY d   1       0.499  -4.182   2.008  0.00  0.00     0.003 A 
ENDROOT
TORSDOF 0
ENDMDL
