MODEL 1
REMARK minimizedAffinity 11.2503977
REMARK minimizedRMSD -1
REMARK  0 active torsions:
REMARK  status: ('A' for Active; 'I' for Inactive)
ROOT
ATOM      1  C4' PXY d   1       2.143  -5.185   1.255  0.00  0.00     0.077 C 
ATOM      2  C1' PXY d   1       0.304  -0.085   3.258  0.00  0.00     0.077 C 
ATOM      3  C1  PXY d   1       0.798  -1.417   2.732  0.00  0.00    -0.082 A 
ATOM      4  C2  PXY d   1      -0.054  -2.250   2.156  0.00  0.00     0.003 A 
ATOM      5  C3  PXY d   1       0.370  -3.473   1.703  0.00  0.00     0.003 A 
ATOM      6  C4  PXY d   1       1.690  -3.825   1.793  0.00  0.00    -0.082 A 
ATOM      7  C5  PXY d   1       2.567  -2.977   2.369  0.00  0.00     0.003 A 
ATOM      8  C6  PXY d   1       2.109  -1.757   2.860  0.00  0.00     0.003 A 
ENDROOT
TORSDOF 0
ENDMDL
