MODEL 1
REMARK minimizedAffinity 11.8998451
REMARK minimizedRMSD -1
REMARK  0 active torsions:
REMARK  status: ('A' for Active; 'I' for Inactive)
ROOT
ATOM      1  C4' PXY d   1      -3.851   0.772   3.102  0.00  0.00     0.077 C 
ATOM      2  C1' PXY d   1       1.108  -2.174   2.728  0.00  0.00     0.077 C 
ATOM      3  C1  PXY d   1      -0.195  -1.404   2.814  0.00  0.00    -0.082 A 
ATOM      4  C2  PXY d   1      -0.340  -0.464   3.733  0.00  0.00     0.003 A 
ATOM      5  C3  PXY d   1      -1.523   0.220   3.845  0.00  0.00     0.003 A 
ATOM      6  C4  PXY d   1      -2.550  -0.024   2.973  0.00  0.00    -0.082 A 
ATOM      7  C5  PXY d   1      -2.406  -0.975   2.026  0.00  0.00     0.003 A 
ATOM      8  C6  PXY d   1      -1.212  -1.687   1.955  0.00  0.00     0.003 A 
ENDROOT
TORSDOF 0
ENDMDL
