MODEL 1
REMARK minimizedAffinity 0.0288727079
REMARK minimizedRMSD -1
REMARK  0 active torsions:
REMARK  status: ('A' for Active; 'I' for Inactive)
ROOT
ATOM      1  C4' PXY d   1       0.776   0.552  -0.745  0.00  0.00     0.077 C 
ATOM      2  C1' PXY d   1       6.000   1.824   1.380  0.00  0.00     0.077 C 
ATOM      3  C1  PXY d   1       4.625   1.500   0.829  0.00  0.00    -0.082 A 
ATOM      4  C2  PXY d   1       4.365   0.278   0.394  0.00  0.00     0.003 A 
ATOM      5  C3  PXY d   1       3.137  -0.024  -0.136  0.00  0.00     0.003 A 
ATOM      6  C4  PXY d   1       2.148   0.922  -0.173  0.00  0.00    -0.082 A 
ATOM      7  C5  PXY d   1       2.401   2.168   0.279  0.00  0.00     0.003 A 
ATOM      8  C6  PXY d   1       3.667   2.465   0.776  0.00  0.00     0.003 A 
ENDROOT
TORSDOF 0
ENDMDL
