MODEL 1
REMARK minimizedAffinity 9.99331188
REMARK minimizedRMSD -1
REMARK  0 active torsions:
REMARK  status: ('A' for Active; 'I' for Inactive)
ROOT
ATOM      1  C4' PXY d   1      -6.000   3.753  -5.695  0.00  0.00     0.077 C 
ATOM      2  C1' PXY d   1      -1.544   2.730  -2.158  0.00  0.00     0.077 C 
ATOM      3  C1  PXY d   1      -2.710   2.987  -3.092  0.00  0.00    -0.082 A 
ATOM      4  C2  PXY d   1      -3.152   4.223  -3.262  0.00  0.00     0.003 A 
ATOM      5  C3  PXY d   1      -4.225   4.470  -4.078  0.00  0.00     0.003 A 
ATOM      6  C4  PXY d   1      -4.819   3.448  -4.769  0.00  0.00    -0.082 A 
ATOM      7  C5  PXY d   1      -4.367   2.186  -4.610  0.00  0.00     0.003 A 
ATOM      8  C6  PXY d   1      -3.303   1.951  -3.745  0.00  0.00     0.003 A 
ENDROOT
TORSDOF 0
ENDMDL
