MODEL 1
REMARK minimizedAffinity -1.88449275
REMARK minimizedRMSD -1
REMARK  0 active torsions:
REMARK  status: ('A' for Active; 'I' for Inactive)
ROOT
ATOM      1  C4' PXY d   1       5.973   2.937   1.193  0.00  0.00     0.077 C 
ATOM      2  C1' PXY d   1       6.000  -0.696  -3.304  0.00  0.00     0.077 C 
ATOM      3  C1  PXY d   1       5.987   0.247  -2.117  0.00  0.00    -0.082 A 
ATOM      4  C2  PXY d   1       5.978   1.555  -2.321  0.00  0.00     0.003 A 
ATOM      5  C3  PXY d   1       5.999   2.422  -1.259  0.00  0.00     0.003 A 
ATOM      6  C4  PXY d   1       5.976   1.947   0.025  0.00  0.00    -0.082 A 
ATOM      7  C5  PXY d   1       5.975   0.614   0.241  0.00  0.00     0.003 A 
ATOM      8  C6  PXY d   1       5.995  -0.249  -0.850  0.00  0.00     0.003 A 
ENDROOT
TORSDOF 0
ENDMDL
