MODEL 1
REMARK minimizedAffinity 2.45214939
REMARK minimizedRMSD -1
REMARK  0 active torsions:
REMARK  status: ('A' for Active; 'I' for Inactive)
ROOT
ATOM      1  C4' PXY d   1       0.331  -1.415   2.965  0.00  0.00     0.077 C 
ATOM      2  C1' PXY d   1       3.492  -5.274   0.045  0.00  0.00     0.077 C 
ATOM      3  C1  PXY d   1       2.674  -4.254   0.812  0.00  0.00    -0.082 A 
ATOM      4  C2  PXY d   1       1.572  -4.637   1.437  0.00  0.00     0.003 A 
ATOM      5  C3  PXY d   1       0.803  -3.722   2.109  0.00  0.00     0.003 A 
ATOM      6  C4  PXY d   1       1.194  -2.412   2.186  0.00  0.00    -0.082 A 
ATOM      7  C5  PXY d   1       2.322  -2.016   1.560  0.00  0.00     0.003 A 
ATOM      8  C6  PXY d   1       3.067  -2.952   0.849  0.00  0.00     0.003 A 
ENDROOT
TORSDOF 0
ENDMDL
