MODEL 1
REMARK minimizedAffinity 2.96380639
REMARK minimizedRMSD -1
REMARK  0 active torsions:
REMARK  status: ('A' for Active; 'I' for Inactive)
ROOT
ATOM      1  C4' PXY d   1      -3.388   4.949  -3.732  0.00  0.00     0.077 C 
ATOM      2  C1' PXY d   1      -1.293   0.039  -1.514  0.00  0.00     0.077 C 
ATOM      3  C1  PXY d   1      -1.832   1.333  -2.091  0.00  0.00    -0.082 A 
ATOM      4  C2  PXY d   1      -3.126   1.450  -2.339  0.00  0.00     0.003 A 
ATOM      5  C3  PXY d   1      -3.626   2.601  -2.891  0.00  0.00     0.003 A 
ATOM      6  C4  PXY d   1      -2.801   3.664  -3.141  0.00  0.00    -0.082 A 
ATOM      7  C5  PXY d   1      -1.480   3.557  -2.881  0.00  0.00     0.003 A 
ATOM      8  C6  PXY d   1      -0.987   2.365  -2.359  0.00  0.00     0.003 A 
ENDROOT
TORSDOF 0
ENDMDL
