MODEL 1
REMARK minimizedAffinity 10.5453129
REMARK minimizedRMSD -1
REMARK  0 active torsions:
REMARK  status: ('A' for Active; 'I' for Inactive)
ROOT
ATOM      1  C   UNL d   1      -4.021   1.834  -0.239  0.00  0.00     0.023 A 
ATOM      2  C1  UNL d   1      -3.284   2.923  -0.705  0.00  0.00     0.003 A 
ATOM      3  C2  UNL d   1      -1.899   2.959  -0.525  0.00  0.00     0.048 A 
ATOM      4  C3  UNL d   1      -1.259   1.902   0.122  0.00  0.00     0.023 A 
ATOM      5  C4  UNL d   1      -1.992   0.811   0.589  0.00  0.00     0.048 A 
ATOM      6  C5  UNL d   1      -3.376   0.780   0.407  0.00  0.00     0.003 A 
ATOM      7  I   UNL d   1       0.802   1.953   0.391  0.00  0.00    -0.146 I 
ENDROOT
TORSDOF 0
ENDMDL
