MODEL 1
REMARK minimizedAffinity 1.26074529
REMARK minimizedRMSD -1
REMARK  0 active torsions:
REMARK  status: ('A' for Active; 'I' for Inactive)
ROOT
ATOM      1  C   UNL d   1       0.076   0.550   1.116  0.00  0.00     0.023 A 
ATOM      2  C1  UNL d   1      -1.128  -0.136   1.283  0.00  0.00     0.003 A 
ATOM      3  C2  UNL d   1      -2.299   0.354   0.701  0.00  0.00     0.048 A 
ATOM      4  C3  UNL d   1      -2.259   1.530  -0.047  0.00  0.00     0.023 A 
ATOM      5  C4  UNL d   1      -1.057   2.220  -0.218  0.00  0.00     0.048 A 
ATOM      6  C5  UNL d   1       0.111   1.726   0.367  0.00  0.00     0.003 A 
ATOM      7  I   UNL d   1      -4.001   2.262  -0.914  0.00  0.00    -0.146 I 
ENDROOT
TORSDOF 0
ENDMDL
