MODEL 1
REMARK minimizedAffinity -0.122373171
REMARK minimizedRMSD -1
REMARK  0 active torsions:
REMARK  status: ('A' for Active; 'I' for Inactive)
ROOT
ATOM      1  C   UNL d   1      -3.370   1.274  -0.181  0.00  0.00     0.023 A 
ATOM      2  C1  UNL d   1      -2.600   2.420  -0.381  0.00  0.00     0.003 A 
ATOM      3  C2  UNL d   1      -1.248   2.424  -0.030  0.00  0.00     0.048 A 
ATOM      4  C3  UNL d   1      -0.673   1.278   0.519  0.00  0.00     0.023 A 
ATOM      5  C4  UNL d   1      -1.440   0.129   0.719  0.00  0.00     0.048 A 
ATOM      6  C5  UNL d   1      -2.791   0.130   0.368  0.00  0.00     0.003 A 
ATOM      7  I   UNL d   1       1.338   1.281   1.041  0.00  0.00    -0.146 I 
ENDROOT
TORSDOF 0
ENDMDL
