MODEL 1
REMARK minimizedAffinity 0.544797301
REMARK minimizedRMSD -1
REMARK  0 active torsions:
REMARK  status: ('A' for Active; 'I' for Inactive)
ROOT
ATOM      1  C   UNL d   1       0.278   0.026   1.348  0.00  0.00     0.023 A 
ATOM      2  C1  UNL d   1      -1.045  -0.395   1.482  0.00  0.00     0.003 A 
ATOM      3  C2  UNL d   1      -2.079   0.358   0.923  0.00  0.00     0.048 A 
ATOM      4  C3  UNL d   1      -1.783   1.531   0.229  0.00  0.00     0.023 A 
ATOM      5  C4  UNL d   1      -0.461   1.956   0.091  0.00  0.00     0.048 A 
ATOM      6  C5  UNL d   1       0.570   1.200   0.653  0.00  0.00     0.003 A 
ATOM      7  I   UNL d   1      -3.320   2.653  -0.605  0.00  0.00    -0.146 I 
ENDROOT
TORSDOF 0
ENDMDL
