MODEL 1
REMARK minimizedAffinity 5.49114275
REMARK minimizedRMSD -1
REMARK  0 active torsions:
REMARK  status: ('A' for Active; 'I' for Inactive)
ROOT
ATOM      1  C   UNL d   1      -3.016  -2.483  -1.017  0.00  0.00     0.023 A 
ATOM      2  C1  UNL d   1      -2.526  -2.170  -2.285  0.00  0.00     0.003 A 
ATOM      3  C2  UNL d   1      -1.652  -3.045  -2.933  0.00  0.00     0.048 A 
ATOM      4  C3  UNL d   1      -1.273  -4.232  -2.308  0.00  0.00     0.023 A 
ATOM      5  C4  UNL d   1      -1.761  -4.550  -1.039  0.00  0.00     0.048 A 
ATOM      6  C5  UNL d   1      -2.634  -3.672  -0.395  0.00  0.00     0.003 A 
ATOM      7  I   UNL d   1       0.028  -5.537  -3.270  0.00  0.00    -0.146 I 
ENDROOT
TORSDOF 0
ENDMDL
