MODEL 1
REMARK minimizedAffinity 1.66867208
REMARK minimizedRMSD -1
REMARK  0 active torsions:
REMARK  status: ('A' for Active; 'I' for Inactive)
ROOT
ATOM      1  C   UNL d   1      -0.005   1.973   0.124  0.00  0.00     0.023 A 
ATOM      2  C1  UNL d   1       0.109   0.810   0.887  0.00  0.00     0.003 A 
ATOM      3  C2  UNL d   1      -1.039   0.139   1.314  0.00  0.00     0.048 A 
ATOM      4  C3  UNL d   1      -2.297   0.635   0.974  0.00  0.00     0.023 A 
ATOM      5  C4  UNL d   1      -2.415   1.797   0.210  0.00  0.00     0.048 A 
ATOM      6  C5  UNL d   1      -1.265   2.466  -0.214  0.00  0.00     0.003 A 
ATOM      7  I   UNL d   1      -4.007  -0.362   1.607  0.00  0.00    -0.146 I 
ENDROOT
TORSDOF 0
ENDMDL
