MODEL 1
REMARK minimizedAffinity 8.73740959
REMARK minimizedRMSD -1
REMARK  0 active torsions:
REMARK  status: ('A' for Active; 'I' for Inactive)
ROOT
ATOM      1  C   UNL d   1       4.030  -0.655  -0.828  0.00  0.00     0.023 A 
ATOM      2  C1  UNL d   1       3.476   0.353  -1.617  0.00  0.00     0.003 A 
ATOM      3  C2  UNL d   1       2.370   1.072  -1.160  0.00  0.00     0.048 A 
ATOM      4  C3  UNL d   1       1.823   0.779   0.090  0.00  0.00     0.023 A 
ATOM      5  C4  UNL d   1       2.375  -0.227   0.884  0.00  0.00     0.048 A 
ATOM      6  C5  UNL d   1       3.480  -0.944   0.421  0.00  0.00     0.003 A 
ATOM      7  I   UNL d   1       0.178   1.849   0.773  0.00  0.00    -0.146 I 
ENDROOT
TORSDOF 0
ENDMDL
