MODEL 1
REMARK minimizedAffinity 2.35188603
REMARK minimizedRMSD -1
REMARK  0 active torsions:
REMARK  status: ('A' for Active; 'I' for Inactive)
ROOT
ATOM      1  C   UNL d   1      -0.159   2.074  -0.192  0.00  0.00     0.023 A 
ATOM      2  C1  UNL d   1       0.231   1.059   0.682  0.00  0.00     0.003 A 
ATOM      3  C2  UNL d   1      -0.731   0.235   1.271  0.00  0.00     0.048 A 
ATOM      4  C3  UNL d   1      -2.081   0.431   0.980  0.00  0.00     0.023 A 
ATOM      5  C4  UNL d   1      -2.475   1.445   0.105  0.00  0.00     0.048 A 
ATOM      6  C5  UNL d   1      -1.510   2.267  -0.480  0.00  0.00     0.003 A 
ATOM      7  I   UNL d   1      -3.514  -0.794   1.854  0.00  0.00    -0.146 I 
ENDROOT
TORSDOF 0
ENDMDL
