MODEL 1
REMARK minimizedAffinity -2.64201498
REMARK minimizedRMSD -1
REMARK  0 active torsions:
REMARK  status: ('A' for Active; 'I' for Inactive)
ROOT
ATOM      1  C   UNL d   1      -3.205   1.279   0.393  0.00  0.00     0.023 A 
ATOM      2  C1  UNL d   1      -2.585   0.188   1.002  0.00  0.00     0.003 A 
ATOM      3  C2  UNL d   1      -1.193   0.142   1.102  0.00  0.00     0.048 A 
ATOM      4  C3  UNL d   1      -0.427   1.190   0.592  0.00  0.00     0.023 A 
ATOM      5  C4  UNL d   1      -1.044   2.284  -0.017  0.00  0.00     0.048 A 
ATOM      6  C5  UNL d   1      -2.436   2.326  -0.116  0.00  0.00     0.003 A 
ATOM      7  I   UNL d   1       1.645   1.122   0.739  0.00  0.00    -0.146 I 
ENDROOT
TORSDOF 0
ENDMDL
