MODEL 1
REMARK minimizedAffinity 0.432327181
REMARK minimizedRMSD -1
REMARK  0 active torsions:
REMARK  status: ('A' for Active; 'I' for Inactive)
ROOT
ATOM      1  C   UNL d   1      -3.407   1.734   0.180  0.00  0.00     0.023 A 
ATOM      2  C1  UNL d   1      -2.459   2.759   0.168  0.00  0.00     0.003 A 
ATOM      3  C2  UNL d   1      -1.115   2.471   0.410  0.00  0.00     0.048 A 
ATOM      4  C3  UNL d   1      -0.724   1.156   0.662  0.00  0.00     0.023 A 
ATOM      5  C4  UNL d   1      -1.668   0.128   0.674  0.00  0.00     0.048 A 
ATOM      6  C5  UNL d   1      -3.011   0.421   0.433  0.00  0.00     0.003 A 
ATOM      7  I   UNL d   1       1.277   0.725   1.022  0.00  0.00    -0.146 I 
ENDROOT
TORSDOF 0
ENDMDL
