MODEL 1
REMARK minimizedAffinity 3.48415494
REMARK minimizedRMSD -1
REMARK  0 active torsions:
REMARK  status: ('A' for Active; 'I' for Inactive)
ROOT
ATOM      1  C   UNL d   1      -4.200   1.094   0.689  0.00  0.00     0.023 A 
ATOM      2  C1  UNL d   1      -3.257   0.298   1.339  0.00  0.00     0.003 A 
ATOM      3  C2  UNL d   1      -1.902   0.631   1.282  0.00  0.00     0.048 A 
ATOM      4  C3  UNL d   1      -1.497   1.761   0.573  0.00  0.00     0.023 A 
ATOM      5  C4  UNL d   1      -2.437   2.561  -0.078  0.00  0.00     0.048 A 
ATOM      6  C5  UNL d   1      -3.791   2.224  -0.019  0.00  0.00     0.003 A 
ATOM      7  I   UNL d   1       0.519   2.259   0.486  0.00  0.00    -0.146 I 
ENDROOT
TORSDOF 0
ENDMDL
