MODEL 1
REMARK minimizedAffinity 7.09758806
REMARK minimizedRMSD -1
REMARK  0 active torsions:
REMARK  status: ('A' for Active; 'I' for Inactive)
ROOT
ATOM      1  C   UNL d   1      -3.587   2.257  -0.489  0.00  0.00     0.023 A 
ATOM      2  C1  UNL d   1      -2.262   2.114  -0.077  0.00  0.00     0.003 A 
ATOM      3  C2  UNL d   1      -1.943   1.238   0.962  0.00  0.00     0.048 A 
ATOM      4  C3  UNL d   1      -2.954   0.508   1.586  0.00  0.00     0.023 A 
ATOM      5  C4  UNL d   1      -4.281   0.647   1.177  0.00  0.00     0.048 A 
ATOM      6  C5  UNL d   1      -4.595   1.525   0.138  0.00  0.00     0.003 A 
ATOM      7  I   UNL d   1      -2.482  -0.796   3.134  0.00  0.00    -0.146 I 
ENDROOT
TORSDOF 0
ENDMDL
