MODEL 1
REMARK minimizedAffinity 0.691464543
REMARK minimizedRMSD -1
REMARK  0 active torsions:
REMARK  status: ('A' for Active; 'I' for Inactive)
ROOT
ATOM      1  C   UNL d   1       1.637   0.191   0.340  0.00  0.00     0.023 A 
ATOM      2  C1  UNL d   1       0.834  -0.742   0.996  0.00  0.00     0.003 A 
ATOM      3  C2  UNL d   1      -0.556  -0.649   0.914  0.00  0.00     0.048 A 
ATOM      4  C3  UNL d   1      -1.138   0.380   0.175  0.00  0.00     0.023 A 
ATOM      5  C4  UNL d   1      -0.339   1.316  -0.484  0.00  0.00     0.048 A 
ATOM      6  C5  UNL d   1       1.051   1.219  -0.399  0.00  0.00     0.003 A 
ATOM      7  I   UNL d   1      -3.208   0.521   0.052  0.00  0.00    -0.146 I 
ENDROOT
TORSDOF 0
ENDMDL
