MODEL 1
REMARK minimizedAffinity 8.0759964
REMARK minimizedRMSD -1
REMARK  0 active torsions:
REMARK  status: ('A' for Active; 'I' for Inactive)
ROOT
ATOM      1  C   UNL d   1      -1.530  -2.364   1.160  0.00  0.00     0.023 A 
ATOM      2  C1  UNL d   1      -0.167  -2.358   1.457  0.00  0.00     0.003 A 
ATOM      3  C2  UNL d   1       0.632  -1.284   1.060  0.00  0.00     0.048 A 
ATOM      4  C3  UNL d   1       0.061  -0.218   0.365  0.00  0.00     0.023 A 
ATOM      5  C4  UNL d   1      -1.302  -0.219   0.065  0.00  0.00     0.048 A 
ATOM      6  C5  UNL d   1      -2.097  -1.295   0.464  0.00  0.00     0.003 A 
ATOM      7  I   UNL d   1       1.248   1.381  -0.228  0.00  0.00    -0.146 I 
ENDROOT
TORSDOF 0
ENDMDL
