MODEL 1
REMARK minimizedAffinity 11.7390966
REMARK minimizedRMSD -1
REMARK  1 active torsions:
REMARK  status: ('A' for Active; 'I' for Inactive)
REMARK    1  A    between atoms: C1_2  and  C2_3 
ROOT
ATOM      1  C2  UNL d   1       1.069  -0.771   1.207  0.00  0.00    -0.081 A 
ATOM      2  C3  UNL d   1      -0.161  -0.171   1.504  0.00  0.00     0.006 A 
ATOM      3  C4  UNL d   1      -1.232  -0.272   0.612  0.00  0.00     0.002 A 
ATOM      4  C5  UNL d   1      -1.093  -0.981  -0.586  0.00  0.00    -0.080 A 
ATOM      5  C6  UNL d   1      -2.244  -1.122  -1.537  0.00  0.00     0.076 C 
ATOM      6  C7  UNL d   1       0.141  -1.566  -0.890  0.00  0.00     0.002 A 
ATOM      7  C8  UNL d   1       1.212  -1.464   0.000  0.00  0.00     0.006 A 
ENDROOT
BRANCH   1   8
ATOM      8  C1  UNL d   1       2.206  -0.718   2.196  0.00  0.00     0.054 C 
ATOM      9  C   UNL d   1       1.779  -1.246   3.558  0.00  0.00     0.018 C 
ENDBRANCH   1   8
TORSDOF 1
ENDMDL
