MODEL 1
REMARK minimizedAffinity 4.59514141
REMARK minimizedRMSD -1
REMARK  1 active torsions:
REMARK  status: ('A' for Active; 'I' for Inactive)
REMARK    1  A    between atoms: C1_2  and  C2_3 
ROOT
ATOM      1  C2  UNL d   1       2.608  -1.529   3.657  0.00  0.00    -0.081 A 
ATOM      2  C3  UNL d   1       2.405  -2.118   4.911  0.00  0.00     0.006 A 
ATOM      3  C4  UNL d   1       3.491  -2.569   5.666  0.00  0.00     0.002 A 
ATOM      4  C5  UNL d   1       4.797  -2.431   5.183  0.00  0.00    -0.080 A 
ATOM      5  C6  UNL d   1       5.973  -2.883   5.996  0.00  0.00     0.076 C 
ATOM      6  C7  UNL d   1       4.998  -1.858   3.923  0.00  0.00     0.002 A 
ATOM      7  C8  UNL d   1       3.913  -1.408   3.168  0.00  0.00     0.006 A 
ENDROOT
BRANCH   1   8
ATOM      8  C1  UNL d   1       1.444  -0.984   2.870  0.00  0.00     0.054 C 
ATOM      9  C   UNL d   1       1.897   0.075   1.875  0.00  0.00     0.018 C 
ENDBRANCH   1   8
TORSDOF 1
ENDMDL
