MODEL 1
REMARK minimizedAffinity 8.71980572
REMARK minimizedRMSD -1
REMARK  1 active torsions:
REMARK  status: ('A' for Active; 'I' for Inactive)
REMARK    1  A    between atoms: C1_2  and  C2_3 
ROOT
ATOM      1  C2  UNL d   1       1.012  -2.390   0.654  0.00  0.00    -0.081 A 
ATOM      2  C3  UNL d   1       1.869  -3.488   0.802  0.00  0.00     0.006 A 
ATOM      3  C4  UNL d   1       2.636  -3.637   1.960  0.00  0.00     0.002 A 
ATOM      4  C5  UNL d   1       2.554  -2.695   2.991  0.00  0.00    -0.080 A 
ATOM      5  C6  UNL d   1       3.349  -2.859   4.252  0.00  0.00     0.076 C 
ATOM      6  C7  UNL d   1       1.711  -1.589   2.836  0.00  0.00     0.002 A 
ATOM      7  C8  UNL d   1       0.944  -1.440   1.679  0.00  0.00     0.006 A 
ENDROOT
BRANCH   1   8
ATOM      8  C1  UNL d   1       0.135  -2.261  -0.565  0.00  0.00     0.054 C 
ATOM      9  C   UNL d   1      -1.317  -2.017  -0.179  0.00  0.00     0.018 C 
ENDBRANCH   1   8
TORSDOF 1
ENDMDL
