MODEL 1
REMARK minimizedAffinity 13.5969229
REMARK minimizedRMSD -1
REMARK  1 active torsions:
REMARK  status: ('A' for Active; 'I' for Inactive)
REMARK    1  A    between atoms: C1_2  and  C2_3 
ROOT
ATOM      1  C2  UNL d   1       2.400  -3.491   4.340  0.00  0.00    -0.081 A 
ATOM      2  C3  UNL d   1       1.727  -2.410   4.924  0.00  0.00     0.006 A 
ATOM      3  C4  UNL d   1       1.765  -1.147   4.329  0.00  0.00     0.002 A 
ATOM      4  C5  UNL d   1       2.468  -0.945   3.136  0.00  0.00    -0.080 A 
ATOM      5  C6  UNL d   1       2.491   0.398   2.471  0.00  0.00     0.076 C 
ATOM      6  C7  UNL d   1       3.155  -2.020   2.562  0.00  0.00     0.002 A 
ATOM      7  C8  UNL d   1       3.118  -3.283   3.158  0.00  0.00     0.006 A 
ENDROOT
BRANCH   1   8
ATOM      8  C1  UNL d   1       2.309  -4.868   4.945  0.00  0.00     0.054 C 
ATOM      9  C   UNL d   1       0.873  -5.219   5.308  0.00  0.00     0.018 C 
ENDBRANCH   1   8
TORSDOF 1
ENDMDL
