MODEL 1
REMARK minimizedAffinity 5.18430519
REMARK minimizedRMSD -1
REMARK  1 active torsions:
REMARK  status: ('A' for Active; 'I' for Inactive)
REMARK    1  A    between atoms: C1_2  and  C2_3 
ROOT
ATOM      1  C2  UNL d   1       1.647   1.108   2.645  0.00  0.00    -0.073 A 
ATOM      2  C3  UNL d   1       2.399   0.757   1.518  0.00  0.00    -0.002 A 
ATOM      3  C4  UNL d   1       2.400  -0.559   1.054  0.00  0.00     0.004 A 
ATOM      4  C5  UNL d   1       1.646  -1.535   1.706  0.00  0.00    -0.004 A 
ATOM      5  C6  UNL d   1       0.879  -1.200   2.827  0.00  0.00    -0.075 A 
ATOM      6  C7  UNL d   1       0.064  -2.238   3.542  0.00  0.00     0.076 C 
ATOM      7  C8  UNL d   1       0.885   0.123   3.289  0.00  0.00     0.001 A 
ENDROOT
BRANCH   1   8
ATOM      8  C1  UNL d   1       1.638   2.529   3.146  0.00  0.00     0.053 C 
ATOM      9  C   UNL d   1       0.581   3.372   2.450  0.00  0.00     0.018 C 
ENDBRANCH   1   8
TORSDOF 1
ENDMDL
