MODEL 1
REMARK minimizedAffinity 11.199399
REMARK minimizedRMSD -1
REMARK  1 active torsions:
REMARK  status: ('A' for Active; 'I' for Inactive)
REMARK    1  A    between atoms: C1_2  and  C2_3 
ROOT
ATOM      1  C2  UNL d   1       5.221   5.267  -3.603  0.00  0.00    -0.073 A 
ATOM      2  C3  UNL d   1       5.934   5.888  -2.571  0.00  0.00    -0.002 A 
ATOM      3  C4  UNL d   1       5.377   5.998  -1.296  0.00  0.00     0.004 A 
ATOM      4  C5  UNL d   1       4.106   5.483  -1.038  0.00  0.00    -0.004 A 
ATOM      5  C6  UNL d   1       3.383   4.848  -2.053  0.00  0.00    -0.075 A 
ATOM      6  C7  UNL d   1       2.015   4.290  -1.793  0.00  0.00     0.076 C 
ATOM      7  C8  UNL d   1       3.949   4.744  -3.332  0.00  0.00     0.001 A 
ENDROOT
BRANCH   1   8
ATOM      8  C1  UNL d   1       5.821   5.140  -4.979  0.00  0.00     0.053 C 
ATOM      9  C   UNL d   1       5.093   5.999  -6.000  0.00  0.00     0.018 C 
ENDBRANCH   1   8
TORSDOF 1
ENDMDL
