MODEL 1
REMARK minimizedAffinity 11.7723064
REMARK minimizedRMSD -1
REMARK  1 active torsions:
REMARK  status: ('A' for Active; 'I' for Inactive)
REMARK    1  A    between atoms: C1_2  and  C2_3 
ROOT
ATOM      1  C2  UNL d   1      -4.820  -2.899  -4.562  0.00  0.00    -0.073 A 
ATOM      2  C3  UNL d   1      -5.944  -3.234  -5.326  0.00  0.00    -0.002 A 
ATOM      3  C4  UNL d   1      -6.000  -4.455  -6.000  0.00  0.00     0.004 A 
ATOM      4  C5  UNL d   1      -4.938  -5.355  -5.912  0.00  0.00    -0.004 A 
ATOM      5  C6  UNL d   1      -3.811  -5.043  -5.144  0.00  0.00    -0.075 A 
ATOM      6  C7  UNL d   1      -2.659  -5.999  -5.041  0.00  0.00     0.076 C 
ATOM      7  C8  UNL d   1      -3.761  -3.814  -4.472  0.00  0.00     0.001 A 
ENDROOT
BRANCH   1   8
ATOM      8  C1  UNL d   1      -4.758  -1.585  -3.827  0.00  0.00     0.053 C 
ATOM      9  C   UNL d   1      -3.343  -1.033  -3.765  0.00  0.00     0.018 C 
ENDBRANCH   1   8
TORSDOF 1
ENDMDL
