MODEL 1
REMARK minimizedAffinity 14.8694801
REMARK minimizedRMSD -1
REMARK  1 active torsions:
REMARK  status: ('A' for Active; 'I' for Inactive)
REMARK    1  A    between atoms: C1_2  and  C2_3 
ROOT
ATOM      1  C2  UNL d   1       1.661  -0.206   1.856  0.00  0.00    -0.073 A 
ATOM      2  C3  UNL d   1       2.436  -0.034   0.703  0.00  0.00    -0.002 A 
ATOM      3  C4  UNL d   1       3.008   1.206   0.417  0.00  0.00     0.004 A 
ATOM      4  C5  UNL d   1       2.818   2.284   1.283  0.00  0.00    -0.004 A 
ATOM      5  C6  UNL d   1       2.057   2.128   2.446  0.00  0.00    -0.075 A 
ATOM      6  C7  UNL d   1       1.840   3.278   3.386  0.00  0.00     0.076 C 
ATOM      7  C8  UNL d   1       1.483   0.880   2.725  0.00  0.00     0.001 A 
ENDROOT
BRANCH   1   8
ATOM      8  C1  UNL d   1       1.047  -1.545   2.173  0.00  0.00     0.053 C 
ATOM      9  C   UNL d   1       1.108  -1.863   3.658  0.00  0.00     0.018 C 
ENDBRANCH   1   8
TORSDOF 1
ENDMDL
