MODEL 1
REMARK minimizedAffinity 17.4698925
REMARK minimizedRMSD -1
REMARK  1 active torsions:
REMARK  status: ('A' for Active; 'I' for Inactive)
REMARK    1  A    between atoms: C1_2  and  C2_3 
ROOT
ATOM      1  C2  UNL d   1       4.990   5.726  -3.899  0.00  0.00    -0.073 A 
ATOM      2  C3  UNL d   1       5.996   5.951  -2.952  0.00  0.00    -0.002 A 
ATOM      3  C4  UNL d   1       5.749   5.732  -1.596  0.00  0.00     0.004 A 
ATOM      4  C5  UNL d   1       4.500   5.279  -1.174  0.00  0.00    -0.004 A 
ATOM      5  C6  UNL d   1       3.486   5.036  -2.106  0.00  0.00    -0.075 A 
ATOM      6  C7  UNL d   1       2.135   4.550  -1.668  0.00  0.00     0.076 C 
ATOM      7  C8  UNL d   1       3.740   5.261  -3.466  0.00  0.00     0.001 A 
ENDROOT
BRANCH   1   8
ATOM      8  C1  UNL d   1       5.253   5.955  -5.365  0.00  0.00     0.053 C 
ATOM      9  C   UNL d   1       5.997   4.791  -5.999  0.00  0.00     0.018 C 
ENDBRANCH   1   8
TORSDOF 1
ENDMDL
