MODEL 1
REMARK minimizedAffinity 15.8017979
REMARK minimizedRMSD -1
REMARK  1 active torsions:
REMARK  status: ('A' for Active; 'I' for Inactive)
REMARK    1  A    between atoms: C1_2  and  C2_3 
ROOT
ATOM      1  C2  UNL d   1      -4.057  -1.470  -3.248  0.00  0.00    -0.073 A 
ATOM      2  C3  UNL d   1      -5.001  -1.751  -2.254  0.00  0.00    -0.002 A 
ATOM      3  C4  UNL d   1      -5.220  -0.845  -1.214  0.00  0.00     0.004 A 
ATOM      4  C5  UNL d   1      -4.503   0.350  -1.162  0.00  0.00    -0.004 A 
ATOM      5  C6  UNL d   1      -3.564   0.654  -2.153  0.00  0.00    -0.075 A 
ATOM      6  C7  UNL d   1      -2.784   1.934  -2.111  0.00  0.00     0.076 C 
ATOM      7  C8  UNL d   1      -3.348  -0.262  -3.193  0.00  0.00     0.001 A 
ENDROOT
BRANCH   1   8
ATOM      8  C1  UNL d   1      -3.822  -2.442  -4.376  0.00  0.00     0.053 C 
ATOM      9  C   UNL d   1      -5.121  -2.868  -5.041  0.00  0.00     0.018 C 
ENDBRANCH   1   8
TORSDOF 1
ENDMDL
