MODEL 1
REMARK minimizedAffinity 9.94559956
REMARK minimizedRMSD -1
REMARK  1 active torsions:
REMARK  status: ('A' for Active; 'I' for Inactive)
REMARK    1  A    between atoms: C1_2  and  C2_3 
ROOT
ATOM      1  C2  UNL d   1       0.426  -1.624   1.967  0.00  0.00    -0.073 A 
ATOM      2  C3  UNL d   1       1.745  -2.093   1.993  0.00  0.00    -0.002 A 
ATOM      3  C4  UNL d   1       2.005  -3.463   2.047  0.00  0.00     0.004 A 
ATOM      4  C5  UNL d   1       0.951  -4.377   2.067  0.00  0.00    -0.004 A 
ATOM      5  C6  UNL d   1      -0.373  -3.929   2.029  0.00  0.00    -0.075 A 
ATOM      6  C7  UNL d   1      -1.517  -4.899   2.053  0.00  0.00     0.076 C 
ATOM      7  C8  UNL d   1      -0.626  -2.551   1.979  0.00  0.00     0.001 A 
ENDROOT
BRANCH   1   8
ATOM      8  C1  UNL d   1       0.141  -0.146   1.903  0.00  0.00     0.053 C 
ATOM      9  C   UNL d   1      -1.211   0.146   1.272  0.00  0.00     0.018 C 
ENDBRANCH   1   8
TORSDOF 1
ENDMDL
