MODEL 1
REMARK minimizedAffinity 4.04269361
REMARK minimizedRMSD -1
REMARK  1 active torsions:
REMARK  status: ('A' for Active; 'I' for Inactive)
REMARK    1  A    between atoms: C1_2  and  C2_3 
ROOT
ATOM      1  C2  UNL d   1       4.097  -2.624   4.053  0.00  0.00    -0.073 A 
ATOM      2  C3  UNL d   1       3.237  -3.257   4.957  0.00  0.00    -0.002 A 
ATOM      3  C4  UNL d   1       1.854  -3.171   4.793  0.00  0.00     0.004 A 
ATOM      4  C5  UNL d   1       1.317  -2.457   3.721  0.00  0.00    -0.004 A 
ATOM      5  C6  UNL d   1       2.161  -1.827   2.801  0.00  0.00    -0.075 A 
ATOM      6  C7  UNL d   1       1.600  -1.053   1.644  0.00  0.00     0.076 C 
ATOM      7  C8  UNL d   1       3.549  -1.916   2.974  0.00  0.00     0.001 A 
ENDROOT
BRANCH   1   8
ATOM      8  C1  UNL d   1       5.591  -2.719   4.223  0.00  0.00     0.053 C 
ATOM      9  C   UNL d   1       6.000  -2.714   5.688  0.00  0.00     0.018 C 
ENDBRANCH   1   8
TORSDOF 1
ENDMDL
