MODEL 1
REMARK minimizedAffinity 1.0177325
REMARK minimizedRMSD -1
REMARK  3 active torsions:
REMARK  status: ('A' for Active; 'I' for Inactive)
REMARK    1  A    between atoms: C3'_2  and  C2'_3 
REMARK    2  A    between atoms: C2'_3  and  C1'_4 
REMARK    3  A    between atoms: C1'_4  and  C1_5 
ROOT
ATOM      1  C1  N4B d   1       2.119  -1.643  -0.382  0.00  0.00    -0.075 A 
ATOM      2  C2  N4B d   1       3.054  -2.082  -1.346  0.00  0.00     0.002 A 
ATOM      3  C3  N4B d   1       4.042  -1.234  -1.781  0.00  0.00     0.002 A 
ATOM      4  C4  N4B d   1       4.104   0.059  -1.283  0.00  0.00    -0.004 A 
ATOM      5  C5  N4B d   1       3.213   0.467  -0.333  0.00  0.00     0.002 A 
ATOM      6  C6  N4B d   1       2.217  -0.376   0.116  0.00  0.00     0.002 A 
ENDROOT
BRANCH   1   7
ATOM      7  C1' N4B d   1       0.969  -2.507   0.060  0.00  0.00     0.057 C 
BRANCH   7   8
ATOM      8  C2' N4B d   1       0.070  -2.796  -1.138  0.00  0.00     0.009 C 
BRANCH   8   9
ATOM      9  C3' N4B d   1      -1.180  -3.561  -0.739  0.00  0.00     0.004 C 
ATOM     10  C4' N4B d   1      -0.955  -5.042  -0.666  0.00  0.00     0.003 C 
ENDBRANCH   8   9
ENDBRANCH   7   8
ENDBRANCH   1   7
TORSDOF 3
ENDMDL
