MODEL 1
REMARK minimizedAffinity 7.44598627
REMARK minimizedRMSD -1
REMARK  3 active torsions:
REMARK  status: ('A' for Active; 'I' for Inactive)
REMARK    1  A    between atoms: C3'_2  and  C2'_3 
REMARK    2  A    between atoms: C2'_3  and  C1'_4 
REMARK    3  A    between atoms: C1'_4  and  C1_5 
ROOT
ATOM      1  C1  N4B d   1      -3.598   1.131  -0.953  0.00  0.00    -0.075 A 
ATOM      2  C2  N4B d   1      -3.078   2.036  -0.001  0.00  0.00     0.002 A 
ATOM      3  C3  N4B d   1      -1.777   2.464  -0.100  0.00  0.00     0.002 A 
ATOM      4  C4  N4B d   1      -0.975   1.988  -1.127  0.00  0.00    -0.004 A 
ATOM      5  C5  N4B d   1      -1.492   1.135  -2.057  0.00  0.00     0.002 A 
ATOM      6  C6  N4B d   1      -2.800   0.699  -1.972  0.00  0.00     0.002 A 
ENDROOT
BRANCH   1   7
ATOM      7  C1' N4B d   1      -4.989   0.569  -0.837  0.00  0.00     0.057 C 
BRANCH   7   8
ATOM      8  C2' N4B d   1      -5.977   1.542  -1.473  0.00  0.00     0.009 C 
BRANCH   8   9
ATOM      9  C3' N4B d   1      -5.997   2.881  -0.756  0.00  0.00     0.004 C 
ATOM     10  C4' N4B d   1      -6.000   4.045  -1.701  0.00  0.00     0.003 C 
ENDBRANCH   8   9
ENDBRANCH   7   8
ENDBRANCH   1   7
TORSDOF 3
ENDMDL
