MODEL 1
REMARK minimizedAffinity 8.15432739
REMARK minimizedRMSD -1
REMARK  3 active torsions:
REMARK  status: ('A' for Active; 'I' for Inactive)
REMARK    1  A    between atoms: C3'_2  and  C2'_3 
REMARK    2  A    between atoms: C2'_3  and  C1'_4 
REMARK    3  A    between atoms: C1'_4  and  C1_5 
ROOT
ATOM      1  C1  N4B d   1       1.040   1.069   0.524  0.00  0.00    -0.075 A 
ATOM      2  C2  N4B d   1       0.786   0.954   1.909  0.00  0.00     0.002 A 
ATOM      3  C3  N4B d   1      -0.374   1.464   2.439  0.00  0.00     0.002 A 
ATOM      4  C4  N4B d   1      -1.281   2.107   1.611  0.00  0.00    -0.004 A 
ATOM      5  C5  N4B d   1      -1.040   2.192   0.270  0.00  0.00     0.002 A 
ATOM      6  C6  N4B d   1       0.119   1.680  -0.276  0.00  0.00     0.002 A 
ENDROOT
BRANCH   1   7
ATOM      7  C1' N4B d   1       2.333   0.603  -0.087  0.00  0.00     0.057 C 
BRANCH   7   8
ATOM      8  C2' N4B d   1       2.588  -0.844   0.324  0.00  0.00     0.009 C 
BRANCH   8   9
ATOM      9  C3' N4B d   1       2.170  -1.824  -0.759  0.00  0.00     0.004 C 
ATOM     10  C4' N4B d   1       1.371  -2.975  -0.224  0.00  0.00     0.003 C 
ENDBRANCH   8   9
ENDBRANCH   7   8
ENDBRANCH   1   7
TORSDOF 3
ENDMDL
