MODEL 1
REMARK minimizedAffinity 5.59882212
REMARK minimizedRMSD -1
REMARK  3 active torsions:
REMARK  status: ('A' for Active; 'I' for Inactive)
REMARK    1  A    between atoms: C3'_2  and  C2'_3 
REMARK    2  A    between atoms: C2'_3  and  C1'_4 
REMARK    3  A    between atoms: C1'_4  and  C1_5 
ROOT
ATOM      1  C1  N4B d   1      -4.781   2.078  -3.767  0.00  0.00    -0.075 A 
ATOM      2  C2  N4B d   1      -4.788   3.373  -4.332  0.00  0.00     0.002 A 
ATOM      3  C3  N4B d   1      -5.370   4.415  -3.652  0.00  0.00     0.002 A 
ATOM      4  C4  N4B d   1      -5.964   4.184  -2.420  0.00  0.00    -0.004 A 
ATOM      5  C5  N4B d   1      -5.930   2.936  -1.870  0.00  0.00     0.002 A 
ATOM      6  C6  N4B d   1      -5.346   1.880  -2.540  0.00  0.00     0.002 A 
ENDROOT
BRANCH   1   7
ATOM      7  C1' N4B d   1      -4.234   0.890  -4.510  0.00  0.00     0.057 C 
BRANCH   7   8
ATOM      8  C2' N4B d   1      -2.784   1.167  -4.897  0.00  0.00     0.009 C 
BRANCH   8   9
ATOM      9  C3' N4B d   1      -1.846   1.047  -3.709  0.00  0.00     0.004 C 
ATOM     10  C4' N4B d   1      -2.165  -0.128  -2.833  0.00  0.00     0.003 C 
ENDBRANCH   8   9
ENDBRANCH   7   8
ENDBRANCH   1   7
TORSDOF 3
ENDMDL
