MODEL 1
REMARK minimizedAffinity 8.89388657
REMARK minimizedRMSD -1
REMARK  3 active torsions:
REMARK  status: ('A' for Active; 'I' for Inactive)
REMARK    1  A    between atoms: C3'_2  and  C2'_3 
REMARK    2  A    between atoms: C2'_3  and  C1'_4 
REMARK    3  A    between atoms: C1'_4  and  C1_5 
ROOT
ATOM      1  C1  N4B d   1       1.083   0.943   0.610  0.00  0.00    -0.075 A 
ATOM      2  C2  N4B d   1       0.929   0.821   2.009  0.00  0.00     0.002 A 
ATOM      3  C3  N4B d   1      -0.326   0.858   2.567  0.00  0.00     0.002 A 
ATOM      4  C4  N4B d   1      -1.434   1.034   1.752  0.00  0.00    -0.004 A 
ATOM      5  C5  N4B d   1      -1.279   1.126   0.400  0.00  0.00     0.002 A 
ATOM      6  C6  N4B d   1      -0.024   1.086  -0.175  0.00  0.00     0.002 A 
ENDROOT
BRANCH   1   7
ATOM      7  C1' N4B d   1       2.439   0.995  -0.038  0.00  0.00     0.057 C 
BRANCH   7   8
ATOM      8  C2' N4B d   1       2.616  -0.232  -0.928  0.00  0.00     0.009 C 
BRANCH   8   9
ATOM      9  C3' N4B d   1       2.679  -1.516  -0.119  0.00  0.00     0.004 C 
ATOM     10  C4' N4B d   1       2.325  -2.729  -0.927  0.00  0.00     0.003 C 
ENDBRANCH   8   9
ENDBRANCH   7   8
ENDBRANCH   1   7
TORSDOF 3
ENDMDL
