MODEL 1
REMARK minimizedAffinity -4.00610304
REMARK minimizedRMSD -1
REMARK  2 active torsions:
REMARK  status: ('A' for Active; 'I' for Inactive)
REMARK    1  A    between atoms: C2'_3  and  C1'_4 
REMARK    2  A    between atoms: C1'_4  and  C1_5 
ROOT
ATOM      1  C1  I4B d   1      -0.466   0.004   0.134  0.00  0.00    -0.075 A 
ATOM      2  C2  I4B d   1      -1.113   1.132  -0.305  0.00  0.00     0.003 A 
ATOM      3  C3  I4B d   1      -1.953   1.860   0.572  0.00  0.00     0.002 A 
ATOM      4  C4  I4B d   1      -2.157   1.399   1.857  0.00  0.00    -0.004 A 
ATOM      5  C5  I4B d   1      -1.482   0.268   2.308  0.00  0.00     0.002 A 
ATOM      6  C6  I4B d   1      -0.622  -0.427   1.445  0.00  0.00     0.003 A 
ENDROOT
BRANCH   1   7
ATOM      7  C1' I4B d   1       0.387  -0.759  -0.828  0.00  0.00     0.060 C 
BRANCH   7   8
ATOM      8  C2' I4B d   1      -0.297  -2.079  -1.115  0.00  0.00    -0.013 C 
ATOM      9  C4' I4B d   1      -1.108  -2.010  -2.382  0.00  0.00     0.013 C 
ATOM     10  C3' I4B d   1       0.760  -3.139  -1.205  0.00  0.00     0.013 C 
ENDBRANCH   7   8
ENDBRANCH   1   7
TORSDOF 2
ENDMDL
