MODEL 1
REMARK minimizedAffinity 1.38671553
REMARK minimizedRMSD -1
REMARK  2 active torsions:
REMARK  status: ('A' for Active; 'I' for Inactive)
REMARK    1  A    between atoms: C2'_3  and  C1'_4 
REMARK    2  A    between atoms: C1'_4  and  C1_5 
ROOT
ATOM      1  C1  I4B d   1      -0.742  -0.081   0.680  0.00  0.00    -0.075 A 
ATOM      2  C2  I4B d   1      -0.321  -1.060   1.546  0.00  0.00     0.003 A 
ATOM      3  C3  I4B d   1      -0.246  -0.797   2.935  0.00  0.00     0.002 A 
ATOM      4  C4  I4B d   1      -0.550   0.464   3.406  0.00  0.00    -0.004 A 
ATOM      5  C5  I4B d   1      -0.998   1.448   2.529  0.00  0.00     0.002 A 
ATOM      6  C6  I4B d   1      -1.106   1.170   1.159  0.00  0.00     0.003 A 
ENDROOT
BRANCH   1   7
ATOM      7  C1' I4B d   1      -0.778  -0.383  -0.785  0.00  0.00     0.060 C 
BRANCH   7   8
ATOM      8  C2' I4B d   1       0.557   0.020  -1.378  0.00  0.00    -0.013 C 
ATOM      9  C4' I4B d   1       0.665   1.516  -1.512  0.00  0.00     0.013 C 
ATOM     10  C3' I4B d   1       1.639  -0.523  -0.493  0.00  0.00     0.013 C 
ENDBRANCH   7   8
ENDBRANCH   1   7
TORSDOF 2
ENDMDL
