MODEL 1
REMARK minimizedAffinity -3.03292227
REMARK minimizedRMSD -1
REMARK  2 active torsions:
REMARK  status: ('A' for Active; 'I' for Inactive)
REMARK    1  A    between atoms: C2'_3  and  C1'_4 
REMARK    2  A    between atoms: C1'_4  and  C1_5 
ROOT
ATOM      1  C1  I4B d   1       0.722  -0.512  -0.959  0.00  0.00    -0.075 A 
ATOM      2  C2  I4B d   1       1.129   0.685  -1.493  0.00  0.00     0.003 A 
ATOM      3  C3  I4B d   1       0.388   1.865  -1.245  0.00  0.00     0.002 A 
ATOM      4  C4  I4B d   1      -0.775   1.795  -0.505  0.00  0.00    -0.004 A 
ATOM      5  C5  I4B d   1      -1.174   0.584   0.055  0.00  0.00     0.002 A 
ATOM      6  C6  I4B d   1      -0.415  -0.574  -0.163  0.00  0.00     0.003 A 
ENDROOT
BRANCH   1   7
ATOM      7  C1' I4B d   1       1.510  -1.745  -1.268  0.00  0.00     0.060 C 
BRANCH   7   8
ATOM      8  C2' I4B d   1       0.599  -2.711  -1.998  0.00  0.00    -0.013 C 
ATOM      9  C4' I4B d   1       0.796  -2.625  -3.489  0.00  0.00     0.013 C 
ATOM     10  C3' I4B d   1       0.889  -4.093  -1.493  0.00  0.00     0.013 C 
ENDBRANCH   7   8
ENDBRANCH   1   7
TORSDOF 2
ENDMDL
