MODEL 1
REMARK minimizedAffinity -3.18452549
REMARK minimizedRMSD -1
REMARK  2 active torsions:
REMARK  status: ('A' for Active; 'I' for Inactive)
REMARK    1  A    between atoms: C2'_3  and  C1'_4 
REMARK    2  A    between atoms: C1'_4  and  C1_5 
ROOT
ATOM      1  C1  I4B d   1       0.401  -0.061  -1.139  0.00  0.00    -0.075 A 
ATOM      2  C2  I4B d   1      -0.808  -0.278  -0.528  0.00  0.00     0.003 A 
ATOM      3  C3  I4B d   1      -1.677   0.807  -0.260  0.00  0.00     0.002 A 
ATOM      4  C4  I4B d   1      -1.278   2.091  -0.573  0.00  0.00    -0.004 A 
ATOM      5  C5  I4B d   1      -0.062   2.307  -1.214  0.00  0.00     0.002 A 
ATOM      6  C6  I4B d   1       0.778   1.223  -1.510  0.00  0.00     0.003 A 
ENDROOT
BRANCH   1   7
ATOM      7  C1' I4B d   1       1.308  -1.226  -1.377  0.00  0.00     0.060 C 
BRANCH   7   8
ATOM      8  C2' I4B d   1       0.449  -2.421  -1.737  0.00  0.00    -0.013 C 
ATOM      9  C4' I4B d   1       0.322  -2.571  -3.230  0.00  0.00     0.013 C 
ATOM     10  C3' I4B d   1       1.070  -3.639  -1.121  0.00  0.00     0.013 C 
ENDBRANCH   7   8
ENDBRANCH   1   7
TORSDOF 2
ENDMDL
