MODEL 1
REMARK minimizedAffinity 2.46419835
REMARK minimizedRMSD -1
REMARK  2 active torsions:
REMARK  status: ('A' for Active; 'I' for Inactive)
REMARK    1  A    between atoms: C2'_3  and  C1'_4 
REMARK    2  A    between atoms: C1'_4  and  C1_5 
ROOT
ATOM      1  C1  I4B d   1       0.442  -1.902  -1.403  0.00  0.00    -0.075 A 
ATOM      2  C2  I4B d   1       0.550  -3.199  -0.965  0.00  0.00     0.003 A 
ATOM      3  C3  I4B d   1       0.345  -4.274  -1.864  0.00  0.00     0.002 A 
ATOM      4  C4  I4B d   1      -0.014  -4.009  -3.170  0.00  0.00    -0.004 A 
ATOM      5  C5  I4B d   1      -0.101  -2.694  -3.617  0.00  0.00     0.002 A 
ATOM      6  C6  I4B d   1       0.140  -1.633  -2.731  0.00  0.00     0.003 A 
ENDROOT
BRANCH   1   7
ATOM      7  C1' I4B d   1       0.633  -0.792  -0.419  0.00  0.00     0.060 C 
BRANCH   7   8
ATOM      8  C2' I4B d   1       1.620   0.193  -1.013  0.00  0.00    -0.013 C 
ATOM      9  C4' I4B d   1       1.070   1.594  -0.995  0.00  0.00     0.013 C 
ATOM     10  C3' I4B d   1       2.894   0.101  -0.227  0.00  0.00     0.013 C 
ENDBRANCH   7   8
ENDBRANCH   1   7
TORSDOF 2
ENDMDL
