MODEL 1
REMARK minimizedAffinity 0.350926399
REMARK minimizedRMSD -1
REMARK  2 active torsions:
REMARK  status: ('A' for Active; 'I' for Inactive)
REMARK    1  A    between atoms: C2'_3  and  C1'_4 
REMARK    2  A    between atoms: C1'_4  and  C1_5 
ROOT
ATOM      1  C1  I4B d   1      -4.240  -2.239   3.682  0.00  0.00    -0.075 A 
ATOM      2  C2  I4B d   1      -4.320  -2.101   5.045  0.00  0.00     0.003 A 
ATOM      3  C3  I4B d   1      -3.142  -2.105   5.832  0.00  0.00     0.002 A 
ATOM      4  C4  I4B d   1      -1.919  -2.300   5.223  0.00  0.00    -0.004 A 
ATOM      5  C5  I4B d   1      -1.839  -2.417   3.839  0.00  0.00     0.002 A 
ATOM      6  C6  I4B d   1      -3.005  -2.374   3.061  0.00  0.00     0.003 A 
ENDROOT
BRANCH   1   7
ATOM      7  C1' I4B d   1      -5.506  -2.262   2.885  0.00  0.00     0.060 C 
BRANCH   7   8
ATOM      8  C2' I4B d   1      -5.167  -1.876   1.459  0.00  0.00    -0.013 C 
ATOM      9  C4' I4B d   1      -5.975  -2.676   0.471  0.00  0.00     0.013 C 
ATOM     10  C3' I4B d   1      -5.423  -0.407   1.304  0.00  0.00     0.013 C 
ENDBRANCH   7   8
ENDBRANCH   1   7
TORSDOF 2
ENDMDL
