MODEL 1
REMARK minimizedAffinity -1.2182709
REMARK minimizedRMSD -1
REMARK  2 active torsions:
REMARK  status: ('A' for Active; 'I' for Inactive)
REMARK    1  A    between atoms: C2'_3  and  C1'_4 
REMARK    2  A    between atoms: C1'_4  and  C1_5 
ROOT
ATOM      1  C1  I4B d   1      -0.100  -1.658  -0.789  0.00  0.00    -0.075 A 
ATOM      2  C2  I4B d   1       1.216  -1.606  -0.401  0.00  0.00     0.003 A 
ATOM      3  C3  I4B d   1       1.859  -0.356  -0.230  0.00  0.00     0.002 A 
ATOM      4  C4  I4B d   1       1.169   0.807  -0.505  0.00  0.00    -0.004 A 
ATOM      5  C5  I4B d   1      -0.172   0.752  -0.875  0.00  0.00     0.002 A 
ATOM      6  C6  I4B d   1      -0.814  -0.487  -1.006  0.00  0.00     0.003 A 
ENDROOT
BRANCH   1   7
ATOM      7  C1' I4B d   1      -0.739  -2.996  -0.991  0.00  0.00     0.060 C 
BRANCH   7   8
ATOM      8  C2' I4B d   1       0.052  -3.735  -2.052  0.00  0.00    -0.013 C 
ATOM      9  C4' I4B d   1      -0.008  -3.017  -3.375  0.00  0.00     0.013 C 
ATOM     10  C3' I4B d   1       1.466  -3.864  -1.569  0.00  0.00     0.013 C 
ENDBRANCH   7   8
ENDBRANCH   1   7
TORSDOF 2
ENDMDL
