MODEL 1
REMARK minimizedAffinity -5.93516684
REMARK minimizedRMSD -1
REMARK  2 active torsions:
REMARK  status: ('A' for Active; 'I' for Inactive)
REMARK    1  A    between atoms: C2'_3  and  C1'_4 
REMARK    2  A    between atoms: C1'_4  and  C1_5 
ROOT
ATOM      1  C1  I4B d   1       0.388  -1.656  -1.039  0.00  0.00    -0.075 A 
ATOM      2  C2  I4B d   1      -0.796  -1.624  -1.732  0.00  0.00     0.003 A 
ATOM      3  C3  I4B d   1      -1.215  -2.750  -2.482  0.00  0.00     0.002 A 
ATOM      4  C4  I4B d   1      -0.399  -3.861  -2.551  0.00  0.00    -0.004 A 
ATOM      5  C5  I4B d   1       0.790  -3.901  -1.830  0.00  0.00     0.002 A 
ATOM      6  C6  I4B d   1       1.181  -2.796  -1.059  0.00  0.00     0.003 A 
ENDROOT
BRANCH   1   7
ATOM      7  C1' I4B d   1       0.815  -0.437  -0.285  0.00  0.00     0.060 C 
BRANCH   7   8
ATOM      8  C2' I4B d   1      -0.372   0.501  -0.203  0.00  0.00    -0.013 C 
ATOM      9  C4' I4B d   1      -0.854   0.648   1.216  0.00  0.00     0.013 C 
ATOM     10  C3' I4B d   1       0.043   1.824  -0.773  0.00  0.00     0.013 C 
ENDBRANCH   7   8
ENDBRANCH   1   7
TORSDOF 2
ENDMDL
