MODEL 1
REMARK minimizedAffinity -5.10554028
REMARK minimizedRMSD -1
REMARK  2 active torsions:
REMARK  status: ('A' for Active; 'I' for Inactive)
REMARK    1  A    between atoms: C2'_3  and  C1'_4 
REMARK    2  A    between atoms: C1'_4  and  C1_5 
ROOT
ATOM      1  C1  I4B d   1       0.328  -0.439   0.110  0.00  0.00    -0.075 A 
ATOM      2  C2  I4B d   1       0.438  -0.529   1.475  0.00  0.00     0.003 A 
ATOM      3  C3  I4B d   1      -0.222   0.409   2.306  0.00  0.00     0.002 A 
ATOM      4  C4  I4B d   1      -0.933   1.443   1.733  0.00  0.00    -0.004 A 
ATOM      5  C5  I4B d   1      -1.062   1.519   0.349  0.00  0.00     0.002 A 
ATOM      6  C6  I4B d   1      -0.437   0.566  -0.468  0.00  0.00     0.003 A 
ENDROOT
BRANCH   1   7
ATOM      7  C1' I4B d   1       1.065  -1.426  -0.739  0.00  0.00     0.060 C 
BRANCH   7   8
ATOM      8  C2' I4B d   1       0.047  -2.174  -1.576  0.00  0.00    -0.013 C 
ATOM      9  C4' I4B d   1       0.717  -2.999  -2.642  0.00  0.00     0.013 C 
ATOM     10  C3' I4B d   1      -0.766  -3.035  -0.655  0.00  0.00     0.013 C 
ENDBRANCH   7   8
ENDBRANCH   1   7
TORSDOF 2
ENDMDL
