MODEL 1
REMARK minimizedAffinity 11.6534023
REMARK minimizedRMSD -1
REMARK  3 active torsions:
REMARK  status: ('A' for Active; 'I' for Inactive)
REMARK    1  A    between atoms: C3'_2  and  C2'_3 
REMARK    2  A    between atoms: C2'_3  and  C1'_4 
REMARK    3  A    between atoms: C1'_4  and  C1_5 
ROOT
ATOM      1  C1  N4B d   1       3.537   4.993  -2.920  0.00  0.00    -0.075 A 
ATOM      2  C2  N4B d   1       4.709   5.556  -2.369  0.00  0.00     0.002 A 
ATOM      3  C3  N4B d   1       5.929   4.972  -2.607  0.00  0.00     0.002 A 
ATOM      4  C4  N4B d   1       5.999   3.819  -3.374  0.00  0.00    -0.004 A 
ATOM      5  C5  N4B d   1       4.865   3.295  -3.923  0.00  0.00     0.002 A 
ATOM      6  C6  N4B d   1       3.633   3.874  -3.696  0.00  0.00     0.002 A 
ENDROOT
BRANCH   1   7
ATOM      7  C1' N4B d   1       2.171   5.546  -2.617  0.00  0.00     0.057 C 
BRANCH   7   8
ATOM      8  C2' N4B d   1       1.536   4.727  -1.498  0.00  0.00     0.009 C 
BRANCH   8   9
ATOM      9  C3' N4B d   1       0.814   5.605  -0.490  0.00  0.00     0.004 C 
ATOM     10  C4' N4B d   1       1.105   5.220   0.930  0.00  0.00     0.003 C 
ENDBRANCH   8   9
ENDBRANCH   7   8
ENDBRANCH   1   7
TORSDOF 3
ENDMDL
