MODEL 1
REMARK minimizedAffinity 3.74296951
REMARK minimizedRMSD -1
REMARK  3 active torsions:
REMARK  status: ('A' for Active; 'I' for Inactive)
REMARK    1  A    between atoms: C3'_2  and  C2'_3 
REMARK    2  A    between atoms: C2'_3  and  C1'_4 
REMARK    3  A    between atoms: C1'_4  and  C1_5 
ROOT
ATOM      1  C1  N4B d   1       4.452   4.644  -1.358  0.00  0.00    -0.075 A 
ATOM      2  C2  N4B d   1       5.263   5.794  -1.483  0.00  0.00     0.002 A 
ATOM      3  C3  N4B d   1       5.993   5.999  -2.628  0.00  0.00     0.002 A 
ATOM      4  C4  N4B d   1       5.942   5.063  -3.650  0.00  0.00    -0.004 A 
ATOM      5  C5  N4B d   1       5.137   3.968  -3.533  0.00  0.00     0.002 A 
ATOM      6  C6  N4B d   1       4.395   3.751  -2.389  0.00  0.00     0.002 A 
ENDROOT
BRANCH   1   7
ATOM      7  C1' N4B d   1       3.703   4.334  -0.091  0.00  0.00     0.057 C 
BRANCH   7   8
ATOM      8  C2' N4B d   1       2.265   4.825  -0.226  0.00  0.00     0.009 C 
BRANCH   8   9
ATOM      9  C3' N4B d   1       1.547   4.855   1.112  0.00  0.00     0.004 C 
ATOM     10  C4' N4B d   1       0.411   3.879   1.183  0.00  0.00     0.003 C 
ENDBRANCH   8   9
ENDBRANCH   7   8
ENDBRANCH   1   7
TORSDOF 3
ENDMDL
