MODEL 1
REMARK minimizedAffinity 9.52024364
REMARK minimizedRMSD -1
REMARK  3 active torsions:
REMARK  status: ('A' for Active; 'I' for Inactive)
REMARK    1  A    between atoms: C3'_2  and  C2'_3 
REMARK    2  A    between atoms: C2'_3  and  C1'_4 
REMARK    3  A    between atoms: C1'_4  and  C1_5 
ROOT
ATOM      1  C1  N4B d   1       5.929   4.876  -3.465  0.00  0.00    -0.075 A 
ATOM      2  C2  N4B d   1       5.738   3.490  -3.274  0.00  0.00     0.002 A 
ATOM      3  C3  N4B d   1       5.610   2.659  -4.359  0.00  0.00     0.002 A 
ATOM      4  C4  N4B d   1       5.651   3.191  -5.640  0.00  0.00    -0.004 A 
ATOM      5  C5  N4B d   1       5.862   4.527  -5.816  0.00  0.00     0.002 A 
ATOM      6  C6  N4B d   1       5.996   5.374  -4.734  0.00  0.00     0.002 A 
ENDROOT
BRANCH   1   7
ATOM      7  C1' N4B d   1       5.988   5.837  -2.309  0.00  0.00     0.057 C 
BRANCH   7   8
ATOM      8  C2' N4B d   1       4.590   5.999  -1.721  0.00  0.00     0.009 C 
BRANCH   8   9
ATOM      9  C3' N4B d   1       3.560   5.168  -2.466  0.00  0.00     0.004 C 
ATOM     10  C4' N4B d   1       2.671   5.996  -3.345  0.00  0.00     0.003 C 
ENDBRANCH   8   9
ENDBRANCH   7   8
ENDBRANCH   1   7
TORSDOF 3
ENDMDL
