MODEL 1
REMARK minimizedAffinity 0.902661741
REMARK minimizedRMSD -1
REMARK  3 active torsions:
REMARK  status: ('A' for Active; 'I' for Inactive)
REMARK    1  A    between atoms: C3'_2  and  C2'_3 
REMARK    2  A    between atoms: C2'_3  and  C1'_4 
REMARK    3  A    between atoms: C1'_4  and  C1_5 
ROOT
ATOM      1  C1  N4B d   1       3.513   4.530  -2.161  0.00  0.00    -0.075 A 
ATOM      2  C2  N4B d   1       3.653   4.098  -3.498  0.00  0.00     0.002 A 
ATOM      3  C3  N4B d   1       4.894   4.084  -4.088  0.00  0.00     0.002 A 
ATOM      4  C4  N4B d   1       6.000   4.512  -3.370  0.00  0.00    -0.004 A 
ATOM      5  C5  N4B d   1       5.859   4.904  -2.070  0.00  0.00     0.002 A 
ATOM      6  C6  N4B d   1       4.620   4.920  -1.463  0.00  0.00     0.002 A 
ENDROOT
BRANCH   1   7
ATOM      7  C1' N4B d   1       2.166   4.645  -1.501  0.00  0.00     0.057 C 
BRANCH   7   8
ATOM      8  C2' N4B d   1       2.195   3.900  -0.170  0.00  0.00     0.009 C 
BRANCH   8   9
ATOM      9  C3' N4B d   1       0.810   3.771   0.440  0.00  0.00     0.004 C 
ATOM     10  C4' N4B d   1       0.372   5.015   1.154  0.00  0.00     0.003 C 
ENDBRANCH   8   9
ENDBRANCH   7   8
ENDBRANCH   1   7
TORSDOF 3
ENDMDL
