MODEL 1
REMARK minimizedAffinity -2.9702723
REMARK minimizedRMSD -1
REMARK  3 active torsions:
REMARK  status: ('A' for Active; 'I' for Inactive)
REMARK    1  A    between atoms: C3'_2  and  C2'_3 
REMARK    2  A    between atoms: C2'_3  and  C1'_4 
REMARK    3  A    between atoms: C1'_4  and  C1_5 
ROOT
ATOM      1  C1  N4B d   1       3.623  -2.217   3.418  0.00  0.00    -0.075 A 
ATOM      2  C2  N4B d   1       3.087  -1.409   4.445  0.00  0.00     0.002 A 
ATOM      3  C3  N4B d   1       3.582  -1.503   5.722  0.00  0.00     0.002 A 
ATOM      4  C4  N4B d   1       4.596  -2.408   5.999  0.00  0.00    -0.004 A 
ATOM      5  C5  N4B d   1       5.126  -3.166   4.997  0.00  0.00     0.002 A 
ATOM      6  C6  N4B d   1       4.640  -3.079   3.708  0.00  0.00     0.002 A 
ENDROOT
BRANCH   1   7
ATOM      7  C1' N4B d   1       3.055  -2.211   2.025  0.00  0.00     0.057 C 
BRANCH   7   8
ATOM      8  C2' N4B d   1       3.983  -1.417   1.110  0.00  0.00     0.009 C 
BRANCH   8   9
ATOM      9  C3' N4B d   1       4.587  -2.287   0.021  0.00  0.00     0.004 C 
ATOM     10  C4' N4B d   1       5.749  -3.101   0.505  0.00  0.00     0.003 C 
ENDBRANCH   8   9
ENDBRANCH   7   8
ENDBRANCH   1   7
TORSDOF 3
ENDMDL
