MODEL 1
REMARK minimizedAffinity 7.19526434
REMARK minimizedRMSD -1
REMARK  3 active torsions:
REMARK  status: ('A' for Active; 'I' for Inactive)
REMARK    1  A    between atoms: C3'_2  and  C2'_3 
REMARK    2  A    between atoms: C2'_3  and  C1'_4 
REMARK    3  A    between atoms: C1'_4  and  C1_5 
ROOT
ATOM      1  C1  N4B d   1       4.754   5.163  -4.323  0.00  0.00    -0.075 A 
ATOM      2  C2  N4B d   1       3.582   5.195  -3.536  0.00  0.00     0.002 A 
ATOM      3  C3  N4B d   1       3.649   5.573  -2.217  0.00  0.00     0.002 A 
ATOM      4  C4  N4B d   1       4.876   5.904  -1.661  0.00  0.00    -0.004 A 
ATOM      5  C5  N4B d   1       6.000   5.895  -2.434  0.00  0.00     0.002 A 
ATOM      6  C6  N4B d   1       5.946   5.521  -3.762  0.00  0.00     0.002 A 
ENDROOT
BRANCH   1   7
ATOM      7  C1' N4B d   1       4.743   4.675  -5.745  0.00  0.00     0.057 C 
BRANCH   7   8
ATOM      8  C2' N4B d   1       5.999   3.847  -6.000  0.00  0.00     0.009 C 
BRANCH   8   9
ATOM      9  C3' N4B d   1       5.722   2.355  -5.922  0.00  0.00     0.004 C 
ATOM     10  C4' N4B d   1       5.484   1.882  -4.519  0.00  0.00     0.003 C 
ENDBRANCH   8   9
ENDBRANCH   7   8
ENDBRANCH   1   7
TORSDOF 3
ENDMDL
