MODEL 1
REMARK minimizedAffinity 2.64173794
REMARK minimizedRMSD -1
REMARK  3 active torsions:
REMARK  status: ('A' for Active; 'I' for Inactive)
REMARK    1  A    between atoms: C3'_2  and  C2'_3 
REMARK    2  A    between atoms: C2'_3  and  C1'_4 
REMARK    3  A    between atoms: C1'_4  and  C1_5 
ROOT
ATOM      1  C1  N4B d   1       5.380   5.183  -2.626  0.00  0.00    -0.075 A 
ATOM      2  C2  N4B d   1       4.222   5.612  -3.311  0.00  0.00     0.002 A 
ATOM      3  C3  N4B d   1       3.734   4.876  -4.363  0.00  0.00     0.002 A 
ATOM      4  C4  N4B d   1       4.396   3.723  -4.758  0.00  0.00    -0.004 A 
ATOM      5  C5  N4B d   1       5.499   3.302  -4.075  0.00  0.00     0.002 A 
ATOM      6  C6  N4B d   1       5.998   4.030  -3.013  0.00  0.00     0.002 A 
ENDROOT
BRANCH   1   7
ATOM      7  C1' N4B d   1       6.000   6.000  -1.525  0.00  0.00     0.057 C 
BRANCH   7   8
ATOM      8  C2' N4B d   1       5.099   5.948  -0.295  0.00  0.00     0.009 C 
BRANCH   8   9
ATOM      9  C3' N4B d   1       3.633   5.808  -0.669  0.00  0.00     0.004 C 
ATOM     10  C4' N4B d   1       2.759   5.500   0.510  0.00  0.00     0.003 C 
ENDBRANCH   8   9
ENDBRANCH   7   8
ENDBRANCH   1   7
TORSDOF 3
ENDMDL
