MODEL 1
REMARK minimizedAffinity 1.50691879
REMARK minimizedRMSD -1
REMARK  0 active torsions:
REMARK  status: ('A' for Active; 'I' for Inactive)
ROOT
ATOM      1  N1  IND d   1       1.928  -0.924   0.794  0.00  0.00    -0.196 N 
ATOM      2  C2  IND d   1       2.660  -0.082   0.005  0.00  0.00     0.054 A 
ATOM      3  C3  IND d   1       1.958   1.043  -0.261  0.00  0.00    -0.031 A 
ATOM      4  C4  IND d   1      -0.367   1.757   0.581  0.00  0.00     0.051 A 
ATOM      5  C5  IND d   1      -1.439   1.303   1.298  0.00  0.00    -0.031 A 
ATOM      6  C6  IND d   1      -1.443   0.061   1.898  0.00  0.00     0.015 A 
ATOM      7  C7  IND d   1      -0.365  -0.774   1.812  0.00  0.00    -0.016 A 
ATOM      8  C8  IND d   1       0.723  -0.320   1.079  0.00  0.00    -0.047 A 
ATOM      9  C9  IND d   1       0.715   0.922   0.433  0.00  0.00    -0.096 A 
ATOM     10  HN1 IND d   1       2.178  -1.700   1.067  0.00  0.00     0.298 HD
ENDROOT
TORSDOF 0
ENDMDL
