MODEL 1
REMARK minimizedAffinity 1.68510652
REMARK minimizedRMSD -1
REMARK  0 active torsions:
REMARK  status: ('A' for Active; 'I' for Inactive)
ROOT
ATOM      1  N1  IND d   1       0.645   2.035   1.119  0.00  0.00    -0.196 N 
ATOM      2  C2  IND d   1       1.326   0.942   0.658  0.00  0.00     0.054 A 
ATOM      3  C3  IND d   1       0.568  -0.170   0.784  0.00  0.00    -0.031 A 
ATOM      4  C4  IND d   1      -1.853  -0.415   1.623  0.00  0.00     0.051 A 
ATOM      5  C5  IND d   1      -2.875   0.297   2.185  0.00  0.00    -0.031 A 
ATOM      6  C6  IND d   1      -2.775   1.653   2.423  0.00  0.00     0.015 A 
ATOM      7  C7  IND d   1      -1.648   2.352   2.096  0.00  0.00    -0.016 A 
ATOM      8  C8  IND d   1      -0.606   1.631   1.531  0.00  0.00    -0.047 A 
ATOM      9  C9  IND d   1      -0.685   0.248   1.327  0.00  0.00    -0.096 A 
ATOM     10  HN1 IND d   1       0.948   2.839   1.147  0.00  0.00     0.298 HD
ENDROOT
TORSDOF 0
ENDMDL
