MODEL 1
REMARK minimizedAffinity 12.2017441
REMARK minimizedRMSD -1
REMARK  0 active torsions:
REMARK  status: ('A' for Active; 'I' for Inactive)
ROOT
ATOM      1  N1  IND d   1      -2.503   3.424   1.645  0.00  0.00    -0.196 N 
ATOM      2  C2  IND d   1      -3.114   2.672   2.610  0.00  0.00     0.054 A 
ATOM      3  C3  IND d   1      -2.362   1.589   2.909  0.00  0.00    -0.031 A 
ATOM      4  C4  IND d   1      -0.047   0.907   2.012  0.00  0.00     0.051 A 
ATOM      5  C5  IND d   1       0.897   1.260   1.089  0.00  0.00    -0.031 A 
ATOM      6  C6  IND d   1       0.755   2.376   0.291  0.00  0.00     0.015 A 
ATOM      7  C7  IND d   1      -0.337   3.191   0.393  0.00  0.00    -0.016 A 
ATOM      8  C8  IND d   1      -1.301   2.832   1.324  0.00  0.00    -0.047 A 
ATOM      9  C9  IND d   1      -1.182   1.677   2.108  0.00  0.00    -0.096 A 
ATOM     10  HN1 IND d   1      -2.817   4.145   1.298  0.00  0.00     0.298 HD
ENDROOT
TORSDOF 0
ENDMDL
