MODEL 1
REMARK minimizedAffinity -3.36794186
REMARK minimizedRMSD -1
REMARK  0 active torsions:
REMARK  status: ('A' for Active; 'I' for Inactive)
ROOT
ATOM      1  N1  IND d   1       0.920  -0.873   3.355  0.00  0.00    -0.196 N 
ATOM      2  C2  IND d   1       1.670  -0.122   4.216  0.00  0.00     0.054 A 
ATOM      3  C3  IND d   1       1.670   1.174   3.831  0.00  0.00    -0.031 A 
ATOM      4  C4  IND d   1       0.425   2.301   1.880  0.00  0.00     0.051 A 
ATOM      5  C5  IND d   1      -0.357   2.020   0.795  0.00  0.00    -0.031 A 
ATOM      6  C6  IND d   1      -0.763   0.734   0.504  0.00  0.00     0.015 A 
ATOM      7  C7  IND d   1      -0.411  -0.322   1.296  0.00  0.00    -0.016 A 
ATOM      8  C8  IND d   1       0.389  -0.041   2.395  0.00  0.00    -0.047 A 
ATOM      9  C9  IND d   1       0.839   1.257   2.672  0.00  0.00    -0.096 A 
ATOM     10  HN1 IND d   1       0.800  -1.723   3.405  0.00  0.00     0.298 HD
ENDROOT
TORSDOF 0
ENDMDL
