MODEL 1
REMARK minimizedAffinity -1.05322456
REMARK minimizedRMSD -1
REMARK  0 active torsions:
REMARK  status: ('A' for Active; 'I' for Inactive)
ROOT
ATOM      1  N1  IND d   1      -2.534   2.252   2.463  0.00  0.00    -0.196 N 
ATOM      2  C2  IND d   1      -3.547   1.354   2.652  0.00  0.00     0.054 A 
ATOM      3  C3  IND d   1      -3.193   0.139   2.178  0.00  0.00    -0.031 A 
ATOM      4  C4  IND d   1      -0.963  -0.628   1.145  0.00  0.00     0.051 A 
ATOM      5  C5  IND d   1       0.251  -0.157   0.733  0.00  0.00    -0.031 A 
ATOM      6  C6  IND d   1       0.608   1.168   0.882  0.00  0.00     0.015 A 
ATOM      7  C7  IND d   1      -0.236   2.072   1.462  0.00  0.00    -0.016 A 
ATOM      8  C8  IND d   1      -1.473   1.598   1.875  0.00  0.00    -0.047 A 
ATOM      9  C9  IND d   1      -1.857   0.264   1.688  0.00  0.00    -0.096 A 
ATOM     10  HN1 IND d   1      -2.555   3.085   2.676  0.00  0.00     0.298 HD
ENDROOT
TORSDOF 0
ENDMDL
