MODEL 1
REMARK minimizedAffinity -0.667095959
REMARK minimizedRMSD -1
REMARK  0 active torsions:
REMARK  status: ('A' for Active; 'I' for Inactive)
ROOT
ATOM      1  N1  IND d   1       0.920   1.834   1.277  0.00  0.00    -0.196 N 
ATOM      2  C2  IND d   1       1.310   0.547   1.034  0.00  0.00     0.054 A 
ATOM      3  C3  IND d   1       0.270  -0.300   1.209  0.00  0.00    -0.031 A 
ATOM      4  C4  IND d   1      -2.182   0.220   1.794  0.00  0.00     0.051 A 
ATOM      5  C5  IND d   1      -3.011   1.249   2.145  0.00  0.00    -0.031 A 
ATOM      6  C6  IND d   1      -2.563   2.552   2.224  0.00  0.00     0.015 A 
ATOM      7  C7  IND d   1      -1.267   2.878   1.942  0.00  0.00    -0.016 A 
ATOM      8  C8  IND d   1      -0.421   1.835   1.592  0.00  0.00    -0.047 A 
ATOM      9  C9  IND d   1      -0.859   0.505   1.552  0.00  0.00    -0.096 A 
ATOM     10  HN1 IND d   1       1.428   2.527   1.240  0.00  0.00     0.298 HD
ENDROOT
TORSDOF 0
ENDMDL
