MODEL 1
REMARK minimizedAffinity 4.32061434
REMARK minimizedRMSD -1
REMARK  0 active torsions:
REMARK  status: ('A' for Active; 'I' for Inactive)
ROOT
ATOM      1  N1  IND d   1       2.494  -0.798   0.242  0.00  0.00    -0.196 N 
ATOM      2  C2  IND d   1       2.886   0.199  -0.606  0.00  0.00     0.054 A 
ATOM      3  C3  IND d   1       1.907   1.122  -0.732  0.00  0.00    -0.031 A 
ATOM      4  C4  IND d   1      -0.381   1.249   0.441  0.00  0.00     0.051 A 
ATOM      5  C5  IND d   1      -1.203   0.548   1.278  0.00  0.00    -0.031 A 
ATOM      6  C6  IND d   1      -0.826  -0.662   1.825  0.00  0.00     0.015 A 
ATOM      7  C7  IND d   1       0.397  -1.211   1.564  0.00  0.00    -0.016 A 
ATOM      8  C8  IND d   1       1.231  -0.505   0.710  0.00  0.00    -0.047 A 
ATOM      9  C9  IND d   1       0.838   0.702   0.117  0.00  0.00    -0.096 A 
ATOM     10  HN1 IND d   1       2.957  -1.492   0.450  0.00  0.00     0.298 HD
ENDROOT
TORSDOF 0
ENDMDL
