MODEL 1
REMARK minimizedAffinity 1.91138351
REMARK minimizedRMSD -1
REMARK  0 active torsions:
REMARK  status: ('A' for Active; 'I' for Inactive)
ROOT
ATOM      1  N1  IND d   1      -0.094  -1.924   2.763  0.00  0.00    -0.196 N 
ATOM      2  C2  IND d   1       1.159  -1.667   3.245  0.00  0.00     0.054 A 
ATOM      3  C3  IND d   1       1.653  -0.537   2.691  0.00  0.00    -0.031 A 
ATOM      4  C4  IND d   1       0.538   1.103   1.050  0.00  0.00     0.051 A 
ATOM      5  C5  IND d   1      -0.590   1.274   0.297  0.00  0.00    -0.031 A 
ATOM      6  C6  IND d   1      -1.632   0.370   0.330  0.00  0.00     0.015 A 
ATOM      7  C7  IND d   1      -1.590  -0.736   1.130  0.00  0.00    -0.016 A 
ATOM      8  C8  IND d   1      -0.444  -0.917   1.891  0.00  0.00    -0.047 A 
ATOM      9  C9  IND d   1       0.635  -0.025   1.829  0.00  0.00    -0.096 A 
ATOM     10  HN1 IND d   1      -0.583  -2.601   2.970  0.00  0.00     0.298 HD
ENDROOT
TORSDOF 0
ENDMDL
