MODEL 1
REMARK minimizedAffinity 4.91985416
REMARK minimizedRMSD -1
REMARK  0 active torsions:
REMARK  status: ('A' for Active; 'I' for Inactive)
ROOT
ATOM      1  N1  IND d   1       0.506  -0.821   1.138  0.00  0.00    -0.196 N 
ATOM      2  C2  IND d   1       1.544   0.014   0.830  0.00  0.00     0.054 A 
ATOM      3  C3  IND d   1       1.137   1.303   0.863  0.00  0.00    -0.031 A 
ATOM      4  C4  IND d   1      -1.161   2.276   1.498  0.00  0.00     0.051 A 
ATOM      5  C5  IND d   1      -2.437   1.905   1.817  0.00  0.00    -0.031 A 
ATOM      6  C6  IND d   1      -2.804   0.580   1.932  0.00  0.00     0.015 A 
ATOM      7  C7  IND d   1      -1.901  -0.428   1.742  0.00  0.00    -0.016 A 
ATOM      8  C8  IND d   1      -0.606  -0.055   1.410  0.00  0.00    -0.047 A 
ATOM      9  C9  IND d   1      -0.239   1.287   1.250  0.00  0.00    -0.096 A 
ATOM     10  HN1 IND d   1       0.542  -1.680   1.158  0.00  0.00     0.298 HD
ENDROOT
TORSDOF 0
ENDMDL
