MODEL 1
REMARK minimizedAffinity 6.97301292
REMARK minimizedRMSD -1
REMARK  0 active torsions:
REMARK  status: ('A' for Active; 'I' for Inactive)
ROOT
ATOM      1  N1  IND d   1      -2.508   1.314   2.775  0.00  0.00    -0.196 N 
ATOM      2  C2  IND d   1      -2.719   2.580   2.306  0.00  0.00     0.054 A 
ATOM      3  C3  IND d   1      -1.633   3.017   1.628  0.00  0.00    -0.031 A 
ATOM      4  C4  IND d   1       0.559   1.783   1.080  0.00  0.00     0.051 A 
ATOM      5  C5  IND d   1       1.230   0.618   1.326  0.00  0.00    -0.031 A 
ATOM      6  C6  IND d   1       0.677  -0.396   2.081  0.00  0.00     0.015 A 
ATOM      7  C7  IND d   1      -0.578  -0.287   2.611  0.00  0.00    -0.016 A 
ATOM      8  C8  IND d   1      -1.259   0.897   2.369  0.00  0.00    -0.047 A 
ATOM      9  C9  IND d   1      -0.687   1.947   1.639  0.00  0.00    -0.096 A 
ATOM     10  HN1 IND d   1      -3.062   0.854   3.246  0.00  0.00     0.298 HD
ENDROOT
TORSDOF 0
ENDMDL
