MODEL 1
REMARK minimizedAffinity 2.32828832
REMARK minimizedRMSD -1
REMARK  0 active torsions:
REMARK  status: ('A' for Active; 'I' for Inactive)
ROOT
ATOM      1  N1  IND d   1      -4.014  -0.550  -3.249  0.00  0.00    -0.196 N 
ATOM      2  C2  IND d   1      -4.600   0.185  -2.257  0.00  0.00     0.054 A 
ATOM      3  C3  IND d   1      -4.810  -0.582  -1.164  0.00  0.00    -0.031 A 
ATOM      4  C4  IND d   1      -4.178  -3.043  -0.748  0.00  0.00     0.051 A 
ATOM      5  C5  IND d   1      -3.658  -4.142  -1.372  0.00  0.00    -0.031 A 
ATOM      6  C6  IND d   1      -3.219  -4.098  -2.680  0.00  0.00     0.015 A 
ATOM      7  C7  IND d   1      -3.273  -2.946  -3.411  0.00  0.00    -0.016 A 
ATOM      8  C8  IND d   1      -3.807  -1.830  -2.783  0.00  0.00    -0.047 A 
ATOM      9  C9  IND d   1      -4.293  -1.879  -1.470  0.00  0.00    -0.096 A 
ATOM     10  HN1 IND d   1      -3.809  -0.262  -4.033  0.00  0.00     0.298 HD
ENDROOT
TORSDOF 0
ENDMDL
