MODEL 1
REMARK minimizedAffinity -2.24688172
REMARK minimizedRMSD -1
REMARK  0 active torsions:
REMARK  status: ('A' for Active; 'I' for Inactive)
ROOT
ATOM      1  N1  IND d   1      -2.775   0.994   2.127  0.00  0.00    -0.196 N 
ATOM      2  C2  IND d   1      -2.954  -0.361   2.142  0.00  0.00     0.054 A 
ATOM      3  C3  IND d   1      -1.842  -0.988   1.697  0.00  0.00    -0.031 A 
ATOM      4  C4  IND d   1       0.424   0.008   0.989  0.00  0.00     0.051 A 
ATOM      5  C5  IND d   1       1.056   1.201   0.772  0.00  0.00    -0.031 A 
ATOM      6  C6  IND d   1       0.431   2.409   1.003  0.00  0.00     0.015 A 
ATOM      7  C7  IND d   1      -0.850   2.471   1.473  0.00  0.00    -0.016 A 
ATOM      8  C8  IND d   1      -1.497   1.262   1.687  0.00  0.00    -0.047 A 
ATOM      9  C9  IND d   1      -0.883   0.033   1.414  0.00  0.00    -0.096 A 
ATOM     10  HN1 IND d   1      -3.362   1.580   2.354  0.00  0.00     0.298 HD
ENDROOT
TORSDOF 0
ENDMDL
