MODEL 1
REMARK minimizedAffinity -1.44685495
REMARK minimizedRMSD -1
REMARK  0 active torsions:
REMARK  status: ('A' for Active; 'I' for Inactive)
ROOT
ATOM      1  N1  IND d   1       1.438  -0.369   0.680  0.00  0.00    -0.196 N 
ATOM      2  C2  IND d   1       2.262   0.641   0.267  0.00  0.00     0.054 A 
ATOM      3  C3  IND d   1       1.647   1.837   0.410  0.00  0.00    -0.031 A 
ATOM      4  C4  IND d   1      -0.668   2.378   1.397  0.00  0.00     0.051 A 
ATOM      5  C5  IND d   1      -1.801   1.783   1.875  0.00  0.00    -0.031 A 
ATOM      6  C6  IND d   1      -1.914   0.412   1.983  0.00  0.00     0.015 A 
ATOM      7  C7  IND d   1      -0.889  -0.418   1.627  0.00  0.00    -0.016 A 
ATOM      8  C8  IND d   1       0.261   0.183   1.135  0.00  0.00    -0.047 A 
ATOM      9  C9  IND d   1       0.366   1.572   0.983  0.00  0.00    -0.096 A 
ATOM     10  HN1 IND d   1       1.624  -1.208   0.659  0.00  0.00     0.298 HD
ENDROOT
TORSDOF 0
ENDMDL
