MODEL 1
REMARK minimizedAffinity -1.79974699
REMARK minimizedRMSD -1
REMARK  0 active torsions:
REMARK  status: ('A' for Active; 'I' for Inactive)
ROOT
ATOM      1  N1  IND d   1       1.325  -0.338   0.910  0.00  0.00    -0.196 N 
ATOM      2  C2  IND d   1       2.274   0.644   0.854  0.00  0.00     0.054 A 
ATOM      3  C3  IND d   1       1.727   1.844   1.153  0.00  0.00    -0.031 A 
ATOM      4  C4  IND d   1      -0.681   2.412   1.865  0.00  0.00     0.051 A 
ATOM      5  C5  IND d   1      -1.918   1.852   2.025  0.00  0.00    -0.031 A 
ATOM      6  C6  IND d   1      -2.140   0.506   1.819  0.00  0.00     0.015 A 
ATOM      7  C7  IND d   1      -1.128  -0.337   1.456  0.00  0.00    -0.016 A 
ATOM      8  C8  IND d   1       0.128   0.230   1.286  0.00  0.00    -0.047 A 
ATOM      9  C9  IND d   1       0.351   1.602   1.452  0.00  0.00    -0.096 A 
ATOM     10  HN1 IND d   1       1.454  -1.171   0.738  0.00  0.00     0.298 HD
ENDROOT
TORSDOF 0
ENDMDL
