MODEL 1
REMARK minimizedAffinity 11.1191435
REMARK minimizedRMSD -1
REMARK  0 active torsions:
REMARK  status: ('A' for Active; 'I' for Inactive)
ROOT
ATOM      1  C1  DEN d   1       2.042   3.382  -6.000  0.00  0.00     0.130 A 
ATOM      2  C2  DEN d   1       1.134   4.526  -5.993  0.00  0.00    -0.031 A 
ATOM      3  C3  DEN d   1       1.950   5.756  -5.979  0.00  0.00     0.027 A 
ATOM      4  C4  DEN d   1       4.518   6.000  -5.970  0.00  0.00     0.027 A 
ATOM      5  C5  DEN d   1       5.711   5.311  -5.960  0.00  0.00    -0.003 A 
ATOM      6  C6  DEN d   1       5.764   3.943  -5.928  0.00  0.00     0.001 A 
ATOM      7  C7  DEN d   1       4.602   3.218  -5.951  0.00  0.00     0.017 A 
ATOM      8  C8  DEN d   1       3.395   3.905  -5.954  0.00  0.00    -0.094 A 
ATOM      9  C9  DEN d   1       3.363   5.289  -5.998  0.00  0.00    -0.072 A 
ENDROOT
TORSDOF 0
ENDMDL
