MODEL 1
REMARK minimizedAffinity 15.7385721
REMARK minimizedRMSD -1
REMARK  0 active torsions:
REMARK  status: ('A' for Active; 'I' for Inactive)
ROOT
ATOM      1  C1  DEN d   1       0.450  -1.735   2.165  0.00  0.00     0.130 A 
ATOM      2  C2  DEN d   1       0.106  -1.872   0.752  0.00  0.00    -0.031 A 
ATOM      3  C3  DEN d   1       1.363  -1.888  -0.024  0.00  0.00     0.027 A 
ATOM      4  C4  DEN d   1       3.794  -1.721   0.821  0.00  0.00     0.027 A 
ATOM      5  C5  DEN d   1       4.587  -1.581   1.939  0.00  0.00    -0.003 A 
ATOM      6  C6  DEN d   1       4.059  -1.449   3.196  0.00  0.00     0.001 A 
ATOM      7  C7  DEN d   1       2.702  -1.500   3.372  0.00  0.00     0.017 A 
ATOM      8  C8  DEN d   1       1.896  -1.634   2.249  0.00  0.00    -0.094 A 
ATOM      9  C9  DEN d   1       2.448  -1.778   0.988  0.00  0.00    -0.072 A 
ENDROOT
TORSDOF 0
ENDMDL
