MODEL 1
REMARK minimizedAffinity 12.5304136
REMARK minimizedRMSD -1
REMARK  0 active torsions:
REMARK  status: ('A' for Active; 'I' for Inactive)
ROOT
ATOM      1  C1  DEN d   1       2.729  -4.209   0.412  0.00  0.00     0.130 A 
ATOM      2  C2  DEN d   1       1.964  -5.452   0.372  0.00  0.00    -0.031 A 
ATOM      3  C3  DEN d   1       0.675  -5.217   1.053  0.00  0.00     0.027 A 
ATOM      4  C4  DEN d   1      -0.208  -3.059   2.156  0.00  0.00     0.027 A 
ATOM      5  C5  DEN d   1       0.089  -1.747   2.451  0.00  0.00    -0.003 A 
ATOM      6  C6  DEN d   1       1.290  -1.178   2.120  0.00  0.00     0.001 A 
ATOM      7  C7  DEN d   1       2.222  -1.910   1.433  0.00  0.00     0.017 A 
ATOM      8  C8  DEN d   1       1.933  -3.236   1.139  0.00  0.00    -0.094 A 
ATOM      9  C9  DEN d   1       0.708  -3.790   1.472  0.00  0.00    -0.072 A 
ENDROOT
TORSDOF 0
ENDMDL
