MODEL 1
REMARK minimizedAffinity 3.52577925
REMARK minimizedRMSD -1
REMARK  0 active torsions:
REMARK  status: ('A' for Active; 'I' for Inactive)
ROOT
ATOM      1  C1  DEN d   1       2.315  -4.663   0.352  0.00  0.00     0.130 A 
ATOM      2  C2  DEN d   1       2.641  -5.990  -0.163  0.00  0.00    -0.031 A 
ATOM      3  C3  DEN d   1       4.072  -6.000  -0.528  0.00  0.00     0.027 A 
ATOM      4  C4  DEN d   1       5.807  -4.101  -0.339  0.00  0.00     0.027 A 
ATOM      5  C5  DEN d   1       5.998  -2.787   0.030  0.00  0.00    -0.003 A 
ATOM      6  C6  DEN d   1       4.976  -2.004   0.496  0.00  0.00     0.001 A 
ATOM      7  C7  DEN d   1       3.725  -2.540   0.649  0.00  0.00     0.017 A 
ATOM      8  C8  DEN d   1       3.523  -3.861   0.272  0.00  0.00    -0.094 A 
ATOM      9  C9  DEN d   1       4.571  -4.641  -0.186  0.00  0.00    -0.072 A 
ENDROOT
TORSDOF 0
ENDMDL
