MODEL 1
REMARK minimizedAffinity 3.5084362
REMARK minimizedRMSD -1
REMARK  0 active torsions:
REMARK  status: ('A' for Active; 'I' for Inactive)
ROOT
ATOM      1  C1  DEN d   1      -4.154   1.458  -5.305  0.00  0.00     0.130 A 
ATOM      2  C2  DEN d   1      -5.316   0.576  -5.231  0.00  0.00    -0.031 A 
ATOM      3  C3  DEN d   1      -5.460   0.128  -3.832  0.00  0.00     0.027 A 
ATOM      4  C4  DEN d   1      -4.009   0.715  -1.782  0.00  0.00     0.027 A 
ATOM      5  C5  DEN d   1      -2.905   1.418  -1.352  0.00  0.00    -0.003 A 
ATOM      6  C6  DEN d   1      -2.127   2.150  -2.209  0.00  0.00     0.001 A 
ATOM      7  C7  DEN d   1      -2.468   2.233  -3.533  0.00  0.00     0.017 A 
ATOM      8  C8  DEN d   1      -3.575   1.521  -3.975  0.00  0.00    -0.094 A 
ATOM      9  C9  DEN d   1      -4.356   0.796  -3.091  0.00  0.00    -0.072 A 
ENDROOT
TORSDOF 0
ENDMDL
