MODEL 1
REMARK minimizedAffinity 12.2263699
REMARK minimizedRMSD -1
REMARK  0 active torsions:
REMARK  status: ('A' for Active; 'I' for Inactive)
ROOT
ATOM      1  C1  DEN d   1       4.184   3.657  -5.312  0.00  0.00     0.130 A 
ATOM      2  C2  DEN d   1       5.010   4.808  -5.665  0.00  0.00    -0.031 A 
ATOM      3  C3  DEN d   1       4.111   5.931  -5.999  0.00  0.00     0.027 A 
ATOM      4  C4  DEN d   1       1.533   6.000  -6.000  0.00  0.00     0.027 A 
ATOM      5  C5  DEN d   1       0.390   5.262  -5.781  0.00  0.00    -0.003 A 
ATOM      6  C6  DEN d   1       0.431   3.940  -5.427  0.00  0.00     0.001 A 
ATOM      7  C7  DEN d   1       1.641   3.325  -5.236  0.00  0.00     0.017 A 
ATOM      8  C8  DEN d   1       2.797   4.060  -5.462  0.00  0.00    -0.094 A 
ATOM      9  C9  DEN d   1       2.735   5.399  -5.808  0.00  0.00    -0.072 A 
ENDROOT
TORSDOF 0
ENDMDL
