MODEL 1
REMARK minimizedAffinity -3.82150888
REMARK minimizedRMSD -1
REMARK  0 active torsions:
REMARK  status: ('A' for Active; 'I' for Inactive)
ROOT
ATOM      1  O1  BZF d   1       2.068  -1.351   1.146  0.00  0.00    -0.204 OA
ATOM      2  C2  BZF d   1       3.011  -0.798   0.301  0.00  0.00     0.174 A 
ATOM      3  C3  BZF d   1       2.416  -0.127  -0.706  0.00  0.00    -0.012 A 
ATOM      4  C3A BZF d   1       1.015  -0.191  -0.425  0.00  0.00    -0.107 A 
ATOM      5  C4  BZF d   1      -0.093   0.302  -1.054  0.00  0.00     0.055 A 
ATOM      6  C5  BZF d   1      -1.322  -0.001  -0.562  0.00  0.00    -0.016 A 
ATOM      7  C6  BZF d   1      -1.482  -0.798   0.553  0.00  0.00     0.022 A 
ATOM      8  C7  BZF d   1      -0.413  -1.307   1.213  0.00  0.00     0.029 A 
ATOM      9  C7A BZF d   1       0.832  -0.975   0.737  0.00  0.00     0.058 A 
ENDROOT
TORSDOF 0
ENDMDL
