MODEL 1
REMARK minimizedAffinity -5.39910269
REMARK minimizedRMSD -1
REMARK  0 active torsions:
REMARK  status: ('A' for Active; 'I' for Inactive)
ROOT
ATOM      1  O1  BZF d   1      -0.871  -0.832   0.731  0.00  0.00    -0.204 OA
ATOM      2  C2  BZF d   1      -0.834   0.372   0.056  0.00  0.00     0.174 A 
ATOM      3  C3  BZF d   1       0.352   0.987   0.239  0.00  0.00    -0.012 A 
ATOM      4  C3A BZF d   1       1.138   0.069   1.006  0.00  0.00    -0.107 A 
ATOM      5  C4  BZF d   1       2.414   0.103   1.491  0.00  0.00     0.055 A 
ATOM      6  C5  BZF d   1       2.853  -0.925   2.264  0.00  0.00    -0.016 A 
ATOM      7  C6  BZF d   1       2.043  -1.997   2.576  0.00  0.00     0.022 A 
ATOM      8  C7  BZF d   1       0.772  -2.077   2.113  0.00  0.00     0.029 A 
ATOM      9  C7A BZF d   1       0.336  -1.056   1.305  0.00  0.00     0.058 A 
ENDROOT
TORSDOF 0
ENDMDL
