MODEL 1
REMARK minimizedAffinity -5.54875946
REMARK minimizedRMSD -1
REMARK  0 active torsions:
REMARK  status: ('A' for Active; 'I' for Inactive)
ROOT
ATOM      1  O1  BZF d   1      -0.835  -0.860   0.725  0.00  0.00    -0.204 OA
ATOM      2  C2  BZF d   1      -0.985   0.002  -0.345  0.00  0.00     0.174 A 
ATOM      3  C3  BZF d   1       0.216   0.405  -0.806  0.00  0.00    -0.012 A 
ATOM      4  C3A BZF d   1       1.178  -0.317  -0.033  0.00  0.00    -0.107 A 
ATOM      5  C4  BZF d   1       2.543  -0.358  -0.033  0.00  0.00     0.055 A 
ATOM      6  C5  BZF d   1       3.182  -1.113   0.900  0.00  0.00    -0.016 A 
ATOM      7  C6  BZF d   1       2.488  -1.834   1.849  0.00  0.00     0.022 A 
ATOM      8  C7  BZF d   1       1.133  -1.828   1.886  0.00  0.00     0.029 A 
ATOM      9  C7A BZF d   1       0.484  -1.093   0.924  0.00  0.00     0.058 A 
ENDROOT
TORSDOF 0
ENDMDL
