MODEL 1
REMARK minimizedAffinity -3.94887543
REMARK minimizedRMSD -1
REMARK  0 active torsions:
REMARK  status: ('A' for Active; 'I' for Inactive)
ROOT
ATOM      1  O1  BZF d   1      -0.573  -0.556   0.909  0.00  0.00    -0.204 OA
ATOM      2  C2  BZF d   1      -1.211  -0.183  -0.259  0.00  0.00     0.174 A 
ATOM      3  C3  BZF d   1      -0.379   0.521  -1.053  0.00  0.00    -0.012 A 
ATOM      4  C3A BZF d   1       0.882   0.514  -0.378  0.00  0.00    -0.107 A 
ATOM      5  C4  BZF d   1       2.109   1.035  -0.676  0.00  0.00     0.055 A 
ATOM      6  C5  BZF d   1       3.115   0.914   0.230  0.00  0.00    -0.016 A 
ATOM      7  C6  BZF d   1       2.929   0.283   1.442  0.00  0.00     0.022 A 
ATOM      8  C7  BZF d   1       1.731  -0.254   1.780  0.00  0.00     0.029 A 
ATOM      9  C7A BZF d   1       0.721  -0.162   0.853  0.00  0.00     0.058 A 
ENDROOT
TORSDOF 0
ENDMDL
