MODEL 1
REMARK minimizedAffinity -2.31626844
REMARK minimizedRMSD -1
REMARK  0 active torsions:
REMARK  status: ('A' for Active; 'I' for Inactive)
ROOT
ATOM      1  O1  BZF d   1       0.736   0.581   0.965  0.00  0.00    -0.204 OA
ATOM      2  C2  BZF d   1       1.627   1.176   0.093  0.00  0.00     0.174 A 
ATOM      3  C3  BZF d   1       1.157   1.139  -1.171  0.00  0.00    -0.012 A 
ATOM      4  C3A BZF d   1      -0.149   0.562  -1.070  0.00  0.00    -0.107 A 
ATOM      5  C4  BZF d   1      -1.123   0.277  -1.983  0.00  0.00     0.055 A 
ATOM      6  C5  BZF d   1      -2.254  -0.352  -1.569  0.00  0.00    -0.016 A 
ATOM      7  C6  BZF d   1      -2.441  -0.716  -0.252  0.00  0.00     0.022 A 
ATOM      8  C7  BZF d   1      -1.505  -0.450   0.692  0.00  0.00     0.029 A 
ATOM      9  C7A BZF d   1      -0.376   0.215   0.282  0.00  0.00     0.058 A 
ENDROOT
TORSDOF 0
ENDMDL
