MODEL 1
REMARK minimizedAffinity -3.49679995
REMARK minimizedRMSD -1
REMARK  0 active torsions:
REMARK  status: ('A' for Active; 'I' for Inactive)
ROOT
ATOM      1  O1  BZF d   1      -0.551  -1.050   0.205  0.00  0.00    -0.204 OA
ATOM      2  C2  BZF d   1      -0.677  -0.063  -0.754  0.00  0.00     0.174 A 
ATOM      3  C3  BZF d   1       0.330   0.829  -0.658  0.00  0.00    -0.012 A 
ATOM      4  C3A BZF d   1       1.187   0.320   0.368  0.00  0.00    -0.107 A 
ATOM      5  C4  BZF d   1       2.363   0.754   0.910  0.00  0.00     0.055 A 
ATOM      6  C5  BZF d   1       2.906   0.065   1.948  0.00  0.00    -0.016 A 
ATOM      7  C6  BZF d   1       2.298  -1.056   2.472  0.00  0.00     0.022 A 
ATOM      8  C7  BZF d   1       1.133  -1.528   1.965  0.00  0.00     0.029 A 
ATOM      9  C7A BZF d   1       0.599  -0.854   0.894  0.00  0.00     0.058 A 
ENDROOT
TORSDOF 0
ENDMDL
