MODEL 1
REMARK minimizedAffinity -3.68568492
REMARK minimizedRMSD -1
REMARK  0 active torsions:
REMARK  status: ('A' for Active; 'I' for Inactive)
ROOT
ATOM      1  O1  BZF d   1      -0.676  -1.056   0.878  0.00  0.00    -0.204 OA
ATOM      2  C2  BZF d   1      -1.676  -0.340   0.248  0.00  0.00     0.174 A 
ATOM      3  C3  BZF d   1      -1.185   0.794  -0.291  0.00  0.00    -0.012 A 
ATOM      4  C3A BZF d   1       0.226   0.742  -0.058  0.00  0.00    -0.107 A 
ATOM      5  C4  BZF d   1       1.261   1.575  -0.373  0.00  0.00     0.055 A 
ATOM      6  C5  BZF d   1       2.511   1.269   0.063  0.00  0.00    -0.016 A 
ATOM      7  C6  BZF d   1       2.761   0.143   0.820  0.00  0.00     0.022 A 
ATOM      8  C7  BZF d   1       1.767  -0.716   1.154  0.00  0.00     0.029 A 
ATOM      9  C7A BZF d   1       0.508  -0.427   0.686  0.00  0.00     0.058 A 
ENDROOT
TORSDOF 0
ENDMDL
