MODEL 1
REMARK minimizedAffinity -4.77560282
REMARK minimizedRMSD -1
REMARK  0 active torsions:
REMARK  status: ('A' for Active; 'I' for Inactive)
ROOT
ATOM      1  O1  BZF d   1      -1.269  -0.889   1.021  0.00  0.00    -0.204 OA
ATOM      2  C2  BZF d   1      -0.652  -2.025   1.508  0.00  0.00     0.174 A 
ATOM      3  C3  BZF d   1       0.690  -1.905   1.445  0.00  0.00    -0.012 A 
ATOM      4  C3A BZF d   1       0.927  -0.577   0.970  0.00  0.00    -0.107 A 
ATOM      5  C4  BZF d   1       2.061   0.140   0.714  0.00  0.00     0.055 A 
ATOM      6  C5  BZF d   1       1.948   1.389   0.188  0.00  0.00    -0.016 A 
ATOM      7  C6  BZF d   1       0.720   1.948  -0.098  0.00  0.00     0.022 A 
ATOM      8  C7  BZF d   1      -0.433   1.277   0.144  0.00  0.00     0.029 A 
ATOM      9  C7A BZF d   1      -0.323   0.028   0.705  0.00  0.00     0.058 A 
ENDROOT
TORSDOF 0
ENDMDL
