MODEL 1
REMARK minimizedAffinity -1.72867978
REMARK minimizedRMSD -1
REMARK  0 active torsions:
REMARK  status: ('A' for Active; 'I' for Inactive)
ROOT
ATOM      1  O1  BZF d   1      -1.153  -1.110   0.338  0.00  0.00    -0.204 OA
ATOM      2  C2  BZF d   1      -1.778  -0.046  -0.284  0.00  0.00     0.174 A 
ATOM      3  C3  BZF d   1      -0.922   0.984  -0.446  0.00  0.00    -0.012 A 
ATOM      4  C3A BZF d   1       0.340   0.502   0.026  0.00  0.00    -0.107 A 
ATOM      5  C4  BZF d   1       1.585   1.057   0.110  0.00  0.00     0.055 A 
ATOM      6  C5  BZF d   1       2.588   0.345   0.689  0.00  0.00    -0.016 A 
ATOM      7  C6  BZF d   1       2.380  -0.920   1.198  0.00  0.00     0.022 A 
ATOM      8  C7  BZF d   1       1.163  -1.514   1.134  0.00  0.00     0.029 A 
ATOM      9  C7A BZF d   1       0.156  -0.810   0.520  0.00  0.00     0.058 A 
ENDROOT
TORSDOF 0
ENDMDL
