MODEL 1
REMARK minimizedAffinity 0.0110101942
REMARK minimizedRMSD -1
REMARK  0 active torsions:
REMARK  status: ('A' for Active; 'I' for Inactive)
ROOT
ATOM      1  O1  BZF d   1      -1.185   1.136   0.712  0.00  0.00    -0.204 OA
ATOM      2  C2  BZF d   1      -1.606   0.736  -0.541  0.00  0.00     0.174 A 
ATOM      3  C3  BZF d   1      -0.552   0.444  -1.330  0.00  0.00    -0.012 A 
ATOM      4  C3A BZF d   1       0.598   0.588  -0.490  0.00  0.00    -0.107 A 
ATOM      5  C4  BZF d   1       1.937   0.419  -0.695  0.00  0.00     0.055 A 
ATOM      6  C5  BZF d   1       2.801   0.712   0.312  0.00  0.00    -0.016 A 
ATOM      7  C6  BZF d   1       2.362   1.181   1.533  0.00  0.00     0.022 A 
ATOM      8  C7  BZF d   1       1.042   1.360   1.785  0.00  0.00     0.029 A 
ATOM      9  C7A BZF d   1       0.164   1.033   0.781  0.00  0.00     0.058 A 
ENDROOT
TORSDOF 0
ENDMDL
