MODEL 1
REMARK minimizedAffinity 5.47539473
REMARK minimizedRMSD -1
REMARK  0 active torsions:
REMARK  status: ('A' for Active; 'I' for Inactive)
ROOT
ATOM      1  C   UNL d   1       1.823   1.010   5.980  0.00  0.00     0.077 C 
ATOM      2  C1  UNL d   1       2.726   2.207   5.992  0.00  0.00    -0.074 A 
ATOM      3  C2  UNL d   1       4.117   2.058   5.992  0.00  0.00    -0.005 A 
ATOM      4  C3  UNL d   1       4.944   3.181   5.994  0.00  0.00     0.006 A 
ATOM      5  C4  UNL d   1       4.391   4.462   5.996  0.00  0.00    -0.005 A 
ATOM      6  C5  UNL d   1       3.002   4.630   5.996  0.00  0.00    -0.074 A 
ATOM      7  C6  UNL d   1       2.391   6.000   5.988  0.00  0.00     0.077 C 
ATOM      8  C7  UNL d   1       2.177   3.497   5.986  0.00  0.00    -0.001 A 
ENDROOT
TORSDOF 0
ENDMDL
