MODEL 1
REMARK minimizedAffinity 5.03351068
REMARK minimizedRMSD -1
REMARK  0 active torsions:
REMARK  status: ('A' for Active; 'I' for Inactive)
ROOT
ATOM      1  C   UNL d   1       1.013   1.603   0.677  0.00  0.00     0.077 C 
ATOM      2  C1  UNL d   1       2.277   0.910   0.264  0.00  0.00    -0.074 A 
ATOM      3  C2  UNL d   1       2.330  -0.483   0.152  0.00  0.00    -0.005 A 
ATOM      4  C3  UNL d   1       3.511  -1.112  -0.242  0.00  0.00     0.006 A 
ATOM      5  C4  UNL d   1       4.649  -0.357  -0.528  0.00  0.00    -0.005 A 
ATOM      6  C5  UNL d   1       4.614   1.037  -0.422  0.00  0.00    -0.074 A 
ATOM      7  C6  UNL d   1       5.825   1.865  -0.735  0.00  0.00     0.077 C 
ATOM      8  C7  UNL d   1       3.422   1.663  -0.032  0.00  0.00    -0.001 A 
ENDROOT
TORSDOF 0
ENDMDL
