MODEL 1
REMARK minimizedAffinity 4.99116182
REMARK minimizedRMSD -1
REMARK  0 active torsions:
REMARK  status: ('A' for Active; 'I' for Inactive)
ROOT
ATOM      1  C   UNL d   1      -2.259  -5.995   5.989  0.00  0.00     0.077 C 
ATOM      2  C1  UNL d   1      -1.180  -5.022   5.617  0.00  0.00    -0.074 A 
ATOM      3  C2  UNL d   1      -0.046  -5.441   4.913  0.00  0.00    -0.005 A 
ATOM      4  C3  UNL d   1       0.945  -4.523   4.566  0.00  0.00     0.006 A 
ATOM      5  C4  UNL d   1       0.813  -3.179   4.918  0.00  0.00    -0.005 A 
ATOM      6  C5  UNL d   1      -0.314  -2.742   5.622  0.00  0.00    -0.074 A 
ATOM      7  C6  UNL d   1      -0.476  -1.300   6.000  0.00  0.00     0.077 C 
ATOM      8  C7  UNL d   1      -1.309  -3.669   5.961  0.00  0.00    -0.001 A 
ENDROOT
TORSDOF 0
ENDMDL
