MODEL 1
REMARK minimizedAffinity 9.04949284
REMARK minimizedRMSD -1
REMARK  0 active torsions:
REMARK  status: ('A' for Active; 'I' for Inactive)
ROOT
ATOM      1  C   UNL d   1      -1.021  -1.737  -2.348  0.00  0.00     0.077 C 
ATOM      2  C1  UNL d   1      -0.692  -1.182  -0.994  0.00  0.00    -0.074 A 
ATOM      3  C2  UNL d   1      -1.618  -1.242   0.052  0.00  0.00    -0.005 A 
ATOM      4  C3  UNL d   1      -1.295  -0.730   1.309  0.00  0.00     0.006 A 
ATOM      5  C4  UNL d   1      -0.044  -0.152   1.531  0.00  0.00    -0.005 A 
ATOM      6  C5  UNL d   1       0.895  -0.084   0.497  0.00  0.00    -0.074 A 
ATOM      7  C6  UNL d   1       2.248   0.525   0.722  0.00  0.00     0.077 C 
ATOM      8  C7  UNL d   1       0.565  -0.607  -0.760  0.00  0.00    -0.001 A 
ENDROOT
TORSDOF 0
ENDMDL
