MODEL 1
REMARK minimizedAffinity 8.79972744
REMARK minimizedRMSD -1
REMARK  0 active torsions:
REMARK  status: ('A' for Active; 'I' for Inactive)
ROOT
ATOM      1  C   UNL d   1       0.298   4.624   4.806  0.00  0.00     0.077 C 
ATOM      2  C1  UNL d   1       0.041   3.734   3.627  0.00  0.00    -0.074 A 
ATOM      3  C2  UNL d   1      -0.559   4.233   2.466  0.00  0.00    -0.005 A 
ATOM      4  C3  UNL d   1      -0.783   3.395   1.374  0.00  0.00     0.006 A 
ATOM      5  C4  UNL d   1      -0.409   2.051   1.431  0.00  0.00    -0.005 A 
ATOM      6  C5  UNL d   1       0.193   1.535   2.582  0.00  0.00    -0.074 A 
ATOM      7  C6  UNL d   1       0.610   0.096   2.656  0.00  0.00     0.077 C 
ATOM      8  C7  UNL d   1       0.421   2.385   3.673  0.00  0.00    -0.001 A 
ENDROOT
TORSDOF 0
ENDMDL
