MODEL 1
REMARK minimizedAffinity 6.93011713
REMARK minimizedRMSD -1
REMARK  0 active torsions:
REMARK  status: ('A' for Active; 'I' for Inactive)
ROOT
ATOM      1  C   UNL d   1      -0.987   2.947   3.050  0.00  0.00     0.077 C 
ATOM      2  C1  UNL d   1      -2.307   2.374   2.625  0.00  0.00    -0.074 A 
ATOM      3  C2  UNL d   1      -2.373   1.170   1.916  0.00  0.00    -0.005 A 
ATOM      4  C3  UNL d   1      -3.608   0.645   1.536  0.00  0.00     0.006 A 
ATOM      5  C4  UNL d   1      -4.787   1.317   1.861  0.00  0.00    -0.005 A 
ATOM      6  C5  UNL d   1      -4.741   2.521   2.570  0.00  0.00    -0.074 A 
ATOM      7  C6  UNL d   1      -5.999   3.251   2.935  0.00  0.00     0.077 C 
ATOM      8  C7  UNL d   1      -3.496   3.039   2.955  0.00  0.00    -0.001 A 
ENDROOT
TORSDOF 0
ENDMDL
