MODEL 1
REMARK minimizedAffinity 18.3303432
REMARK minimizedRMSD -1
REMARK  0 active torsions:
REMARK  status: ('A' for Active; 'I' for Inactive)
ROOT
ATOM      1  C   UNL d   1      -0.694   1.699   1.538  0.00  0.00     0.077 C 
ATOM      2  C1  UNL d   1       0.044   0.641   0.773  0.00  0.00    -0.074 A 
ATOM      3  C2  UNL d   1       1.374   0.332   1.073  0.00  0.00    -0.005 A 
ATOM      4  C3  UNL d   1       2.044  -0.662   0.359  0.00  0.00     0.006 A 
ATOM      5  C4  UNL d   1       1.391  -1.355  -0.661  0.00  0.00    -0.005 A 
ATOM      6  C5  UNL d   1       0.060  -1.060  -0.975  0.00  0.00    -0.074 A 
ATOM      7  C6  UNL d   1      -0.659  -1.803  -2.062  0.00  0.00     0.077 C 
ATOM      8  C7  UNL d   1      -0.608  -0.066  -0.248  0.00  0.00    -0.001 A 
ENDROOT
TORSDOF 0
ENDMDL
