MODEL 1
REMARK minimizedAffinity 4.58724833
REMARK minimizedRMSD -1
REMARK  0 active torsions:
REMARK  status: ('A' for Active; 'I' for Inactive)
ROOT
ATOM      1  O1  BZF d   1       2.670  -2.393  -0.561  0.00  0.00    -0.204 OA
ATOM      2  C2  BZF d   1       3.504  -1.683  -1.403  0.00  0.00     0.174 A 
ATOM      3  C3  BZF d   1       3.202  -0.368  -1.378  0.00  0.00    -0.012 A 
ATOM      4  C3A BZF d   1       2.173  -0.237  -0.393  0.00  0.00    -0.107 A 
ATOM      5  C4  BZF d   1       1.472   0.827   0.097  0.00  0.00     0.055 A 
ATOM      6  C5  BZF d   1       0.483   0.607   1.002  0.00  0.00    -0.016 A 
ATOM      7  C6  BZF d   1       0.164  -0.664   1.435  0.00  0.00     0.022 A 
ATOM      8  C7  BZF d   1       0.835  -1.751   0.981  0.00  0.00     0.029 A 
ATOM      9  C7A BZF d   1       1.857  -1.528   0.091  0.00  0.00     0.058 A 
ENDROOT
TORSDOF 0
ENDMDL
