MODEL 1
REMARK minimizedAffinity -0.901149333
REMARK minimizedRMSD -1
REMARK  0 active torsions:
REMARK  status: ('A' for Active; 'I' for Inactive)
ROOT
ATOM      1  O1  BZF d   1       2.544  -2.083  -0.009  0.00  0.00    -0.204 OA
ATOM      2  C2  BZF d   1       1.523  -1.599   0.786  0.00  0.00     0.174 A 
ATOM      3  C3  BZF d   1       1.378  -0.268   0.621  0.00  0.00    -0.012 A 
ATOM      4  C3A BZF d   1       2.309   0.087  -0.405  0.00  0.00    -0.107 A 
ATOM      5  C4  BZF d   1       2.623   1.265  -1.021  0.00  0.00     0.055 A 
ATOM      6  C5  BZF d   1       3.631   1.286  -1.933  0.00  0.00    -0.016 A 
ATOM      7  C6  BZF d   1       4.348   0.150  -2.248  0.00  0.00     0.022 A 
ATOM      8  C7  BZF d   1       4.070  -1.042  -1.667  0.00  0.00     0.029 A 
ATOM      9  C7A BZF d   1       3.030  -1.073  -0.770  0.00  0.00     0.058 A 
ENDROOT
TORSDOF 0
ENDMDL
