MODEL 1
REMARK minimizedAffinity 4.55639315
REMARK minimizedRMSD -1
REMARK  0 active torsions:
REMARK  status: ('A' for Active; 'I' for Inactive)
ROOT
ATOM      1  O1  BZF d   1       3.018  -0.179  -1.609  0.00  0.00    -0.204 OA
ATOM      2  C2  BZF d   1       3.063  -1.553  -1.747  0.00  0.00     0.174 A 
ATOM      3  C3  BZF d   1       2.338  -2.155  -0.781  0.00  0.00    -0.012 A 
ATOM      4  C3A BZF d   1       1.732  -1.087  -0.046  0.00  0.00    -0.107 A 
ATOM      5  C4  BZF d   1       0.885  -1.048   1.024  0.00  0.00     0.055 A 
ATOM      6  C5  BZF d   1       0.538   0.157   1.548  0.00  0.00    -0.016 A 
ATOM      7  C6  BZF d   1       1.023   1.341   1.030  0.00  0.00     0.022 A 
ATOM      8  C7  BZF d   1       1.862   1.352  -0.034  0.00  0.00     0.029 A 
ATOM      9  C7A BZF d   1       2.188   0.137  -0.586  0.00  0.00     0.058 A 
ENDROOT
TORSDOF 0
ENDMDL
