MODEL 1
REMARK minimizedAffinity -0.961616158
REMARK minimizedRMSD -1
REMARK  0 active torsions:
REMARK  status: ('A' for Active; 'I' for Inactive)
ROOT
ATOM      1  O1  BZF d   1       1.074  -1.137   0.670  0.00  0.00    -0.204 OA
ATOM      2  C2  BZF d   1       0.423   0.049   0.948  0.00  0.00     0.174 A 
ATOM      3  C3  BZF d   1       1.018   1.081   0.315  0.00  0.00    -0.012 A 
ATOM      4  C3A BZF d   1       2.054   0.491  -0.476  0.00  0.00    -0.107 A 
ATOM      5  C4  BZF d   1       2.982   1.000  -1.339  0.00  0.00     0.055 A 
ATOM      6  C5  BZF d   1       3.897   0.162  -1.894  0.00  0.00    -0.016 A 
ATOM      7  C6  BZF d   1       3.917  -1.186  -1.604  0.00  0.00     0.022 A 
ATOM      8  C7  BZF d   1       3.013  -1.738  -0.758  0.00  0.00     0.029 A 
ATOM      9  C7A BZF d   1       2.066  -0.900  -0.221  0.00  0.00     0.058 A 
ENDROOT
TORSDOF 0
ENDMDL
