MODEL 1
REMARK minimizedAffinity 7.98478079
REMARK minimizedRMSD -1
REMARK  0 active torsions:
REMARK  status: ('A' for Active; 'I' for Inactive)
ROOT
ATOM      1  O1  BZF d   1       1.659  -1.563   1.623  0.00  0.00    -0.204 OA
ATOM      2  C2  BZF d   1       1.514  -2.106   0.361  0.00  0.00     0.174 A 
ATOM      3  C3  BZF d   1       1.531  -1.141  -0.580  0.00  0.00    -0.012 A 
ATOM      4  C3A BZF d   1       1.788   0.074   0.131  0.00  0.00    -0.107 A 
ATOM      5  C4  BZF d   1       1.935   1.375  -0.256  0.00  0.00     0.055 A 
ATOM      6  C5  BZF d   1       2.106   2.332   0.695  0.00  0.00    -0.016 A 
ATOM      7  C6  BZF d   1       2.129   2.023   2.039  0.00  0.00     0.022 A 
ATOM      8  C7  BZF d   1       1.992   0.746   2.471  0.00  0.00     0.029 A 
ATOM      9  C7A BZF d   1       1.853  -0.227   1.511  0.00  0.00     0.058 A 
ENDROOT
TORSDOF 0
ENDMDL
