MODEL 1
REMARK minimizedAffinity -4.87583447
REMARK minimizedRMSD -1
REMARK  0 active torsions:
REMARK  status: ('A' for Active; 'I' for Inactive)
ROOT
ATOM      1  O1  BZF d   1       3.356   0.297  -1.922  0.00  0.00    -0.204 OA
ATOM      2  C2  BZF d   1       3.891  -0.975  -1.981  0.00  0.00     0.174 A 
ATOM      3  C3  BZF d   1       3.319  -1.778  -1.061  0.00  0.00    -0.012 A 
ATOM      4  C3A BZF d   1       2.301  -0.982  -0.448  0.00  0.00    -0.107 A 
ATOM      5  C4  BZF d   1       1.379  -1.227   0.530  0.00  0.00     0.055 A 
ATOM      6  C5  BZF d   1       0.578  -0.213   0.951  0.00  0.00    -0.016 A 
ATOM      7  C6  BZF d   1       0.675   1.057   0.421  0.00  0.00     0.022 A 
ATOM      8  C7  BZF d   1       1.571   1.347  -0.554  0.00  0.00     0.029 A 
ATOM      9  C7A BZF d   1       2.359   0.316  -1.005  0.00  0.00     0.058 A 
ENDROOT
TORSDOF 0
ENDMDL
