MODEL 1
REMARK minimizedAffinity 3.26121879
REMARK minimizedRMSD -1
REMARK  0 active torsions:
REMARK  status: ('A' for Active; 'I' for Inactive)
ROOT
ATOM      1  O1  BZF d   1       2.010  -2.728   0.167  0.00  0.00    -0.204 OA
ATOM      2  C2  BZF d   1       3.333  -2.711  -0.229  0.00  0.00     0.174 A 
ATOM      3  C3  BZF d   1       3.737  -1.452  -0.495  0.00  0.00    -0.012 A 
ATOM      4  C3A BZF d   1       2.621  -0.621  -0.161  0.00  0.00    -0.107 A 
ATOM      5  C4  BZF d   1       2.412   0.728  -0.193  0.00  0.00     0.055 A 
ATOM      6  C5  BZF d   1       1.185   1.215   0.128  0.00  0.00    -0.016 A 
ATOM      7  C6  BZF d   1       0.143   0.382   0.482  0.00  0.00     0.022 A 
ATOM      8  C7  BZF d   1       0.304  -0.963   0.533  0.00  0.00     0.029 A 
ATOM      9  C7A BZF d   1       1.552  -1.455   0.241  0.00  0.00     0.058 A 
ENDROOT
TORSDOF 0
ENDMDL
