MODEL 1
REMARK minimizedAffinity -6.53373575
REMARK minimizedRMSD -1
REMARK  0 active torsions:
REMARK  status: ('A' for Active; 'I' for Inactive)
ROOT
ATOM      1  O1  BZF d   1       3.746  -1.490  -1.583  0.00  0.00    -0.204 OA
ATOM      2  C2  BZF d   1       4.422  -0.383  -2.059  0.00  0.00     0.174 A 
ATOM      3  C3  BZF d   1       3.779   0.753  -1.720  0.00  0.00    -0.012 A 
ATOM      4  C3A BZF d   1       2.679   0.334  -0.907  0.00  0.00    -0.107 A 
ATOM      5  C4  BZF d   1       1.683   1.005  -0.257  0.00  0.00     0.055 A 
ATOM      6  C5  BZF d   1       0.721   0.296   0.390  0.00  0.00    -0.016 A 
ATOM      7  C6  BZF d   1       0.721  -1.084   0.402  0.00  0.00     0.022 A 
ATOM      8  C7  BZF d   1       1.691  -1.794  -0.224  0.00  0.00     0.029 A 
ATOM      9  C7A BZF d   1       2.683  -1.079  -0.851  0.00  0.00     0.058 A 
ENDROOT
TORSDOF 0
ENDMDL
