MODEL 1
REMARK minimizedAffinity 1.14929855
REMARK minimizedRMSD -1
REMARK  0 active torsions:
REMARK  status: ('A' for Active; 'I' for Inactive)
ROOT
ATOM      1  O1  BZF d   1       4.115   0.634  -1.708  0.00  0.00    -0.204 OA
ATOM      2  C2  BZF d   1       4.562  -0.644  -1.982  0.00  0.00     0.174 A 
ATOM      3  C3  BZF d   1       3.809  -1.562  -1.343  0.00  0.00    -0.012 A 
ATOM      4  C3A BZF d   1       2.773  -0.815  -0.698  0.00  0.00    -0.107 A 
ATOM      5  C4  BZF d   1       1.706  -1.167   0.079  0.00  0.00     0.055 A 
ATOM      6  C5  BZF d   1       0.927  -0.190   0.613  0.00  0.00    -0.016 A 
ATOM      7  C6  BZF d   1       1.188   1.147   0.396  0.00  0.00     0.022 A 
ATOM      8  C7  BZF d   1       2.232   1.545  -0.371  0.00  0.00     0.029 A 
ATOM      9  C7A BZF d   1       3.001   0.559  -0.940  0.00  0.00     0.058 A 
ENDROOT
TORSDOF 0
ENDMDL
