MODEL 1
REMARK minimizedAffinity -0.415500343
REMARK minimizedRMSD -1
REMARK  0 active torsions:
REMARK  status: ('A' for Active; 'I' for Inactive)
ROOT
ATOM      1  O1  BZF d   1       3.800  -0.215  -0.799  0.00  0.00    -0.204 OA
ATOM      2  C2  BZF d   1       4.036  -1.561  -1.003  0.00  0.00     0.174 A 
ATOM      3  C3  BZF d   1       3.027  -2.305  -0.505  0.00  0.00    -0.012 A 
ATOM      4  C3A BZF d   1       2.058  -1.360  -0.038  0.00  0.00    -0.107 A 
ATOM      5  C4  BZF d   1       0.830  -1.486   0.546  0.00  0.00     0.055 A 
ATOM      6  C5  BZF d   1       0.173  -0.366   0.948  0.00  0.00    -0.016 A 
ATOM      7  C6  BZF d   1       0.715   0.892   0.786  0.00  0.00     0.022 A 
ATOM      8  C7  BZF d   1       1.928   1.067   0.208  0.00  0.00     0.029 A 
ATOM      9  C7A BZF d   1       2.581  -0.060  -0.230  0.00  0.00     0.058 A 
ENDROOT
TORSDOF 0
ENDMDL
