MODEL 1
REMARK minimizedAffinity 8.52578259
REMARK minimizedRMSD -1
REMARK  0 active torsions:
REMARK  status: ('A' for Active; 'I' for Inactive)
ROOT
ATOM      1  O1  BZF d   1      -2.457   5.107  -2.352  0.00  0.00    -0.204 OA
ATOM      2  C2  BZF d   1      -1.612   5.985  -1.701  0.00  0.00     0.174 A 
ATOM      3  C3  BZF d   1      -0.329   5.585  -1.812  0.00  0.00    -0.012 A 
ATOM      4  C3A BZF d   1      -0.366   4.432  -2.658  0.00  0.00    -0.107 A 
ATOM      5  C4  BZF d   1       0.596   3.597  -3.149  0.00  0.00     0.055 A 
ATOM      6  C5  BZF d   1       0.221   2.520  -3.888  0.00  0.00    -0.016 A 
ATOM      7  C6  BZF d   1      -1.105   2.245  -4.150  0.00  0.00     0.022 A 
ATOM      8  C7  BZF d   1      -2.095   3.047  -3.688  0.00  0.00     0.029 A 
ATOM      9  C7A BZF d   1      -1.717   4.155  -2.969  0.00  0.00     0.058 A 
ENDROOT
TORSDOF 0
ENDMDL
