MODEL 1
REMARK minimizedAffinity -2.98927045
REMARK minimizedRMSD -1
REMARK  0 active torsions:
REMARK  status: ('A' for Active; 'I' for Inactive)
ROOT
ATOM      1  O1  BZF d   1       3.448   0.183  -1.730  0.00  0.00    -0.204 OA
ATOM      2  C2  BZF d   1       4.018  -1.074  -1.774  0.00  0.00     0.174 A 
ATOM      3  C3  BZF d   1       3.480  -1.877  -0.834  0.00  0.00    -0.012 A 
ATOM      4  C3A BZF d   1       2.447  -1.099  -0.221  0.00  0.00    -0.107 A 
ATOM      5  C4  BZF d   1       1.545  -1.353   0.772  0.00  0.00     0.055 A 
ATOM      6  C5  BZF d   1       0.721  -0.355   1.186  0.00  0.00    -0.016 A 
ATOM      7  C6  BZF d   1       0.776   0.908   0.635  0.00  0.00     0.022 A 
ATOM      8  C7  BZF d   1       1.651   1.206  -0.356  0.00  0.00     0.029 A 
ATOM      9  C7A BZF d   1       2.462   0.191  -0.800  0.00  0.00     0.058 A 
ENDROOT
TORSDOF 0
ENDMDL
