MODEL 1
REMARK minimizedAffinity -5.60595751
REMARK minimizedRMSD -1
REMARK  0 active torsions:
REMARK  status: ('A' for Active; 'I' for Inactive)
ROOT
ATOM      1  O1  BZF d   1       0.843  -2.131   0.712  0.00  0.00    -0.204 OA
ATOM      2  C2  BZF d   1      -0.171  -1.437   1.343  0.00  0.00     0.174 A 
ATOM      3  C3  BZF d   1      -0.016  -0.107   1.177  0.00  0.00    -0.012 A 
ATOM      4  C3A BZF d   1       1.117   0.035   0.316  0.00  0.00    -0.107 A 
ATOM      5  C4  BZF d   1       1.756   1.114  -0.225  0.00  0.00     0.055 A 
ATOM      6  C5  BZF d   1       2.879   0.915  -0.965  0.00  0.00    -0.016 A 
ATOM      7  C6  BZF d   1       3.392  -0.348  -1.180  0.00  0.00     0.022 A 
ATOM      8  C7  BZF d   1       2.790  -1.449  -0.668  0.00  0.00     0.029 A 
ATOM      9  C7A BZF d   1       1.638  -1.254   0.053  0.00  0.00     0.058 A 
ENDROOT
TORSDOF 0
ENDMDL
