MODEL 1
REMARK minimizedAffinity -0.854573548
REMARK minimizedRMSD -1
REMARK  0 active torsions:
REMARK  status: ('A' for Active; 'I' for Inactive)
ROOT
ATOM      1  O1  BZF d   1       3.401   1.773  -1.439  0.00  0.00    -0.204 OA
ATOM      2  C2  BZF d   1       4.175   1.062  -2.336  0.00  0.00     0.174 A 
ATOM      3  C3  BZF d   1       3.951  -0.262  -2.218  0.00  0.00    -0.012 A 
ATOM      4  C3A BZF d   1       2.907  -0.382  -1.246  0.00  0.00    -0.107 A 
ATOM      5  C4  BZF d   1       2.238  -1.446  -0.713  0.00  0.00     0.055 A 
ATOM      6  C5  BZF d   1       1.325  -1.227   0.269  0.00  0.00    -0.016 A 
ATOM      7  C6  BZF d   1       1.060   0.040   0.745  0.00  0.00     0.022 A 
ATOM      8  C7  BZF d   1       1.695   1.127   0.244  0.00  0.00     0.029 A 
ATOM      9  C7A BZF d   1       2.594   0.913  -0.772  0.00  0.00     0.058 A 
ENDROOT
TORSDOF 0
ENDMDL
