MODEL 1
REMARK minimizedAffinity -5.89345264
REMARK minimizedRMSD -1
REMARK  0 active torsions:
REMARK  status: ('A' for Active; 'I' for Inactive)
ROOT
ATOM      1  O1  BZF d   1       3.131   0.785  -1.622  0.00  0.00    -0.204 OA
ATOM      2  C2  BZF d   1       3.951  -0.267  -1.982  0.00  0.00     0.174 A 
ATOM      3  C3  BZF d   1       3.564  -1.406  -1.373  0.00  0.00    -0.012 A 
ATOM      4  C3A BZF d   1       2.375  -1.063  -0.654  0.00  0.00    -0.107 A 
ATOM      5  C4  BZF d   1       1.517  -1.774   0.135  0.00  0.00     0.055 A 
ATOM      6  C5  BZF d   1       0.492  -1.126   0.748  0.00  0.00    -0.016 A 
ATOM      7  C6  BZF d   1       0.300   0.232   0.599  0.00  0.00     0.022 A 
ATOM      8  C7  BZF d   1       1.122   0.979  -0.177  0.00  0.00     0.029 A 
ATOM      9  C7A BZF d   1       2.139   0.321  -0.824  0.00  0.00     0.058 A 
ENDROOT
TORSDOF 0
ENDMDL
