MODEL 1
REMARK minimizedAffinity 6.23650885
REMARK minimizedRMSD -1
REMARK  0 active torsions:
REMARK  status: ('A' for Active; 'I' for Inactive)
ROOT
ATOM      1  O1  BZF d   1      -0.264   0.580   1.901  0.00  0.00    -0.204 OA
ATOM      2  C2  BZF d   1      -0.786  -0.699   1.906  0.00  0.00     0.174 A 
ATOM      3  C3  BZF d   1      -0.099  -1.500   1.067  0.00  0.00    -0.012 A 
ATOM      4  C3A BZF d   1       0.974  -0.694   0.571  0.00  0.00    -0.107 A 
ATOM      5  C4  BZF d   1       2.008  -0.932  -0.289  0.00  0.00     0.055 A 
ATOM      6  C5  BZF d   1       2.840   0.090  -0.620  0.00  0.00    -0.016 A 
ATOM      7  C6  BZF d   1       2.665   1.362  -0.115  0.00  0.00     0.022 A 
ATOM      8  C7  BZF d   1       1.657   1.645   0.745  0.00  0.00     0.029 A 
ATOM      9  C7A BZF d   1       0.834   0.607   1.108  0.00  0.00     0.058 A 
ENDROOT
TORSDOF 0
ENDMDL
