MODEL 1
REMARK minimizedAffinity 1.68340242
REMARK minimizedRMSD -1
REMARK  0 active torsions:
REMARK  status: ('A' for Active; 'I' for Inactive)
ROOT
ATOM      1  O1  BZF d   1       3.540   1.051  -1.405  0.00  0.00    -0.204 OA
ATOM      2  C2  BZF d   1       4.257   0.007  -1.958  0.00  0.00     0.174 A 
ATOM      3  C3  BZF d   1       3.747  -1.181  -1.572  0.00  0.00    -0.012 A 
ATOM      4  C3A BZF d   1       2.587  -0.859  -0.798  0.00  0.00    -0.107 A 
ATOM      5  C4  BZF d   1       1.649  -1.614  -0.155  0.00  0.00     0.055 A 
ATOM      6  C5  BZF d   1       0.685  -0.991   0.572  0.00  0.00    -0.016 A 
ATOM      7  C6  BZF d   1       0.632   0.384   0.681  0.00  0.00     0.022 A 
ATOM      8  C7  BZF d   1       1.538   1.175   0.056  0.00  0.00     0.029 A 
ATOM      9  C7A BZF d   1       2.494   0.549  -0.706  0.00  0.00     0.058 A 
ENDROOT
TORSDOF 0
ENDMDL
