MODEL 1
REMARK minimizedAffinity -3.80048704
REMARK minimizedRMSD -1
REMARK  1 active torsions:
REMARK  status: ('A' for Active; 'I' for Inactive)
REMARK    1  A    between atoms: C1_2  and  C2_3 
ROOT
ATOM      1  C2  UNL d   1       0.065  -0.207   0.692  0.00  0.00    -0.077 A 
ATOM      2  C3  UNL d   1       1.396   0.108   0.999  0.00  0.00     0.002 A 
ATOM      3  C4  UNL d   1       1.877  -0.049   2.300  0.00  0.00     0.002 A 
ATOM      4  C5  UNL d   1       1.036  -0.525   3.303  0.00  0.00    -0.004 A 
ATOM      5  C6  UNL d   1      -0.290  -0.839   3.009  0.00  0.00     0.002 A 
ATOM      6  C7  UNL d   1      -0.773  -0.682   1.709  0.00  0.00     0.002 A 
ENDROOT
BRANCH   1   7
ATOM      7  C1  UNL d   1      -0.442  -0.085  -0.721  0.00  0.00     0.055 C 
ATOM      8  C   UNL d   1      -0.177   1.303  -1.286  0.00  0.00     0.019 C 
ENDBRANCH   1   7
TORSDOF 1
ENDMDL
