MODEL 1
REMARK minimizedAffinity -4.01863623
REMARK minimizedRMSD -1
REMARK  1 active torsions:
REMARK  status: ('A' for Active; 'I' for Inactive)
REMARK    1  A    between atoms: C1_2  and  C2_3 
ROOT
ATOM      1  C2  UNL d   1       0.673  -0.567   0.698  0.00  0.00    -0.077 A 
ATOM      2  C3  UNL d   1       1.791  -1.246   0.194  0.00  0.00     0.002 A 
ATOM      3  C4  UNL d   1       2.737  -1.793   1.063  0.00  0.00     0.002 A 
ATOM      4  C5  UNL d   1       2.572  -1.670   2.441  0.00  0.00    -0.004 A 
ATOM      5  C6  UNL d   1       1.465  -0.994   2.952  0.00  0.00     0.002 A 
ATOM      6  C7  UNL d   1       0.519  -0.446   2.085  0.00  0.00     0.002 A 
ENDROOT
BRANCH   1   7
ATOM      7  C1  UNL d   1      -0.374  -0.020  -0.237  0.00  0.00     0.055 C 
ATOM      8  C   UNL d   1      -1.776  -0.387   0.226  0.00  0.00     0.019 C 
ENDBRANCH   1   7
TORSDOF 1
ENDMDL
