MODEL 1
REMARK minimizedAffinity -6.02578545
REMARK minimizedRMSD -1
REMARK  1 active torsions:
REMARK  status: ('A' for Active; 'I' for Inactive)
REMARK    1  A    between atoms: C1_2  and  C2_3 
ROOT
ATOM      1  C2  UNL d   1       0.155  -0.458   0.693  0.00  0.00    -0.077 A 
ATOM      2  C3  UNL d   1      -0.363  -0.030   1.924  0.00  0.00     0.002 A 
ATOM      3  C4  UNL d   1       0.382  -0.180   3.095  0.00  0.00     0.002 A 
ATOM      4  C5  UNL d   1       1.651  -0.754   3.046  0.00  0.00    -0.004 A 
ATOM      5  C6  UNL d   1       2.175  -1.184   1.828  0.00  0.00     0.002 A 
ATOM      6  C7  UNL d   1       1.431  -1.036   0.657  0.00  0.00     0.002 A 
ENDROOT
BRANCH   1   7
ATOM      7  C1  UNL d   1      -0.626  -0.253  -0.578  0.00  0.00     0.055 C 
ATOM      8  C   UNL d   1      -0.465   1.166  -1.104  0.00  0.00     0.019 C 
ENDBRANCH   1   7
TORSDOF 1
ENDMDL
