MODEL 1
REMARK minimizedAffinity -4.20733881
REMARK minimizedRMSD -1
REMARK  1 active torsions:
REMARK  status: ('A' for Active; 'I' for Inactive)
REMARK    1  A    between atoms: C1_2  and  C2_3 
ROOT
ATOM      1  C2  UNL d   1       0.134  -0.457   1.148  0.00  0.00    -0.077 A 
ATOM      2  C3  UNL d   1      -1.013  -0.250   0.368  0.00  0.00     0.002 A 
ATOM      3  C4  UNL d   1      -0.911  -0.120  -1.018  0.00  0.00     0.002 A 
ATOM      4  C5  UNL d   1       0.335  -0.201  -1.637  0.00  0.00    -0.004 A 
ATOM      5  C6  UNL d   1       1.482  -0.404  -0.871  0.00  0.00     0.002 A 
ATOM      6  C7  UNL d   1       1.382  -0.533   0.515  0.00  0.00     0.002 A 
ENDROOT
BRANCH   1   7
ATOM      7  C1  UNL d   1       0.021  -0.646   2.638  0.00  0.00     0.055 C 
ATOM      8  C   UNL d   1       1.386  -0.597   3.308  0.00  0.00     0.019 C 
ENDBRANCH   1   7
TORSDOF 1
ENDMDL
