MODEL 1
REMARK minimizedAffinity 16.9694939
REMARK minimizedRMSD -1
REMARK  0 active torsions:
REMARK  status: ('A' for Active; 'I' for Inactive)
ROOT
ATOM      1  N1  IND d   1       0.287   1.686   4.039  0.00  0.00    -0.196 N 
ATOM      2  C2  IND d   1       0.521   2.306   2.843  0.00  0.00     0.054 A 
ATOM      3  C3  IND d   1       1.268   1.514   2.041  0.00  0.00    -0.031 A 
ATOM      4  C4  IND d   1       2.131  -0.877   2.449  0.00  0.00     0.051 A 
ATOM      5  C5  IND d   1       2.201  -1.848   3.408  0.00  0.00    -0.031 A 
ATOM      6  C6  IND d   1       1.623  -1.689   4.650  0.00  0.00     0.015 A 
ATOM      7  C7  IND d   1       0.940  -0.552   4.978  0.00  0.00    -0.016 A 
ATOM      8  C8  IND d   1       0.873   0.439   4.009  0.00  0.00    -0.047 A 
ATOM      9  C9  IND d   1       1.494   0.301   2.761  0.00  0.00    -0.096 A 
ATOM     10  HN1 IND d   1      -0.153   2.019   4.699  0.00  0.00     0.298 HD
ENDROOT
TORSDOF 0
ENDMDL
