MODEL 1
REMARK minimizedAffinity 10.9629908
REMARK minimizedRMSD -1
REMARK  0 active torsions:
REMARK  status: ('A' for Active; 'I' for Inactive)
ROOT
ATOM      1  N1  IND d   1       0.361   4.720  -1.467  0.00  0.00    -0.196 N 
ATOM      2  C2  IND d   1       0.385   5.998  -0.984  0.00  0.00     0.054 A 
ATOM      3  C3  IND d   1       0.205   5.998   0.356  0.00  0.00    -0.031 A 
ATOM      4  C4  IND d   1      -0.044   4.009   1.972  0.00  0.00     0.051 A 
ATOM      5  C5  IND d   1      -0.163   2.648   1.995  0.00  0.00    -0.031 A 
ATOM      6  C6  IND d   1      -0.110   1.892   0.842  0.00  0.00     0.015 A 
ATOM      7  C7  IND d   1       0.077   2.471  -0.382  0.00  0.00    -0.016 A 
ATOM      8  C8  IND d   1       0.191   3.854  -0.409  0.00  0.00    -0.047 A 
ATOM      9  C9  IND d   1       0.095   4.630   0.753  0.00  0.00    -0.096 A 
ATOM     10  HN1 IND d   1       0.439   4.494  -2.293  0.00  0.00     0.298 HD
ENDROOT
TORSDOF 0
ENDMDL
