MODEL 1
REMARK minimizedAffinity 13.6400499
REMARK minimizedRMSD -1
REMARK  0 active torsions:
REMARK  status: ('A' for Active; 'I' for Inactive)
ROOT
ATOM      1  N1  IND d   1       0.793   2.525  -0.067  0.00  0.00    -0.196 N 
ATOM      2  C2  IND d   1       0.078   3.585   0.416  0.00  0.00     0.054 A 
ATOM      3  C3  IND d   1      -1.238   3.424   0.150  0.00  0.00    -0.031 A 
ATOM      4  C4  IND d   1      -2.450   1.450  -0.975  0.00  0.00     0.051 A 
ATOM      5  C5  IND d   1      -2.215   0.266  -1.615  0.00  0.00    -0.031 A 
ATOM      6  C6  IND d   1      -0.940  -0.238  -1.773  0.00  0.00     0.015 A 
ATOM      7  C7  IND d   1       0.152   0.422  -1.284  0.00  0.00    -0.016 A 
ATOM      8  C8  IND d   1      -0.082   1.629  -0.639  0.00  0.00    -0.047 A 
ATOM      9  C9  IND d   1      -1.370   2.165  -0.513  0.00  0.00    -0.096 A 
ATOM     10  HN1 IND d   1       1.647   2.433  -0.020  0.00  0.00     0.298 HD
ENDROOT
TORSDOF 0
ENDMDL
