MODEL 1
REMARK minimizedAffinity 10.4104357
REMARK minimizedRMSD -1
REMARK  0 active torsions:
REMARK  status: ('A' for Active; 'I' for Inactive)
ROOT
ATOM      1  N1  IND d   1       0.382   2.412   1.372  0.00  0.00    -0.196 N 
ATOM      2  C2  IND d   1       0.877   2.800   2.586  0.00  0.00     0.054 A 
ATOM      3  C3  IND d   1       1.121   4.130   2.591  0.00  0.00    -0.031 A 
ATOM      4  C4  IND d   1       0.686   5.880   0.754  0.00  0.00     0.051 A 
ATOM      5  C5  IND d   1       0.276   6.000  -0.544  0.00  0.00    -0.031 A 
ATOM      6  C6  IND d   1      -0.129   4.908  -1.284  0.00  0.00     0.015 A 
ATOM      7  C7  IND d   1      -0.152   3.652  -0.748  0.00  0.00    -0.016 A 
ATOM      8  C8  IND d   1       0.270   3.526   0.568  0.00  0.00    -0.047 A 
ATOM      9  C9  IND d   1       0.723   4.623   1.311  0.00  0.00    -0.096 A 
ATOM     10  HN1 IND d   1       0.175   1.608   1.148  0.00  0.00     0.298 HD
ENDROOT
TORSDOF 0
ENDMDL
