MODEL 1
REMARK minimizedAffinity 6.37999249
REMARK minimizedRMSD -1
REMARK  0 active torsions:
REMARK  status: ('A' for Active; 'I' for Inactive)
ROOT
ATOM      1  N1  IND d   1       2.963   4.209   2.255  0.00  0.00    -0.196 N 
ATOM      2  C2  IND d   1       2.861   3.292   3.265  0.00  0.00     0.054 A 
ATOM      3  C3  IND d   1       1.684   2.633   3.184  0.00  0.00    -0.031 A 
ATOM      4  C4  IND d   1      -0.181   2.825   1.420  0.00  0.00     0.051 A 
ATOM      5  C5  IND d   1      -0.557   3.551   0.325  0.00  0.00    -0.031 A 
ATOM      6  C6  IND d   1       0.238   4.551  -0.195  0.00  0.00     0.015 A 
ATOM      7  C7  IND d   1       1.450   4.857   0.357  0.00  0.00    -0.016 A 
ATOM      8  C8  IND d   1       1.832   4.127   1.473  0.00  0.00    -0.047 A 
ATOM      9  C9  IND d   1       1.010   3.139   2.031  0.00  0.00    -0.096 A 
ATOM     10  HN1 IND d   1       3.623   4.746   2.130  0.00  0.00     0.298 HD
ENDROOT
TORSDOF 0
ENDMDL
