MODEL 1
REMARK minimizedAffinity 7.48471832
REMARK minimizedRMSD -1
REMARK  0 active torsions:
REMARK  status: ('A' for Active; 'I' for Inactive)
ROOT
ATOM      1  N1  IND d   1      -3.053   1.297   1.419  0.00  0.00    -0.196 N 
ATOM      2  C2  IND d   1      -3.679   1.336   0.205  0.00  0.00     0.054 A 
ATOM      3  C3  IND d   1      -2.937   2.032  -0.685  0.00  0.00    -0.031 A 
ATOM      4  C4  IND d   1      -0.617   3.109  -0.393  0.00  0.00     0.051 A 
ATOM      5  C5  IND d   1       0.339   3.368   0.548  0.00  0.00    -0.031 A 
ATOM      6  C6  IND d   1       0.213   2.939   1.853  0.00  0.00     0.015 A 
ATOM      7  C7  IND d   1      -0.875   2.222   2.265  0.00  0.00    -0.016 A 
ATOM      8  C8  IND d   1      -1.851   1.963   1.314  0.00  0.00    -0.047 A 
ATOM      9  C9  IND d   1      -1.748   2.433  -0.002  0.00  0.00    -0.096 A 
ATOM     10  HN1 IND d   1      -3.358   0.921   2.130  0.00  0.00     0.298 HD
ENDROOT
TORSDOF 0
ENDMDL
