MODEL 1
REMARK minimizedAffinity 6.06729841
REMARK minimizedRMSD -1
REMARK  0 active torsions:
REMARK  status: ('A' for Active; 'I' for Inactive)
ROOT
ATOM      1  N1  IND d   1      -1.910  -5.805  -5.995  0.00  0.00    -0.196 N 
ATOM      2  C2  IND d   1      -0.970  -5.768  -5.004  0.00  0.00     0.054 A 
ATOM      3  C3  IND d   1      -1.565  -5.785  -3.790  0.00  0.00    -0.031 A 
ATOM      4  C4  IND d   1      -4.062  -5.974  -3.195  0.00  0.00     0.051 A 
ATOM      5  C5  IND d   1      -5.306  -5.998  -3.762  0.00  0.00    -0.031 A 
ATOM      6  C6  IND d   1      -5.484  -5.961  -5.129  0.00  0.00     0.015 A 
ATOM      7  C7  IND d   1      -4.421  -5.910  -5.986  0.00  0.00    -0.016 A 
ATOM      8  C8  IND d   1      -3.157  -5.878  -5.414  0.00  0.00    -0.047 A 
ATOM      9  C9  IND d   1      -2.971  -5.872  -4.025  0.00  0.00    -0.096 A 
ATOM     10  HN1 IND d   1      -1.750  -5.787  -6.840  0.00  0.00     0.298 HD
ENDROOT
TORSDOF 0
ENDMDL
