MODEL 1
REMARK minimizedAffinity 13.9779491
REMARK minimizedRMSD -1
REMARK  0 active torsions:
REMARK  status: ('A' for Active; 'I' for Inactive)
ROOT
ATOM      1  N1  IND d   1      -1.350  -0.935  -2.819  0.00  0.00    -0.196 N 
ATOM      2  C2  IND d   1      -1.349  -0.876  -1.453  0.00  0.00     0.054 A 
ATOM      3  C3  IND d   1      -2.008   0.226  -1.029  0.00  0.00    -0.031 A 
ATOM      4  C4  IND d   1      -3.255   2.014  -2.399  0.00  0.00     0.051 A 
ATOM      5  C5  IND d   1      -3.503   2.407  -3.684  0.00  0.00    -0.031 A 
ATOM      6  C6  IND d   1      -3.040   1.691  -4.768  0.00  0.00     0.015 A 
ATOM      7  C7  IND d   1      -2.317   0.543  -4.607  0.00  0.00    -0.016 A 
ATOM      8  C8  IND d   1      -2.056   0.144  -3.304  0.00  0.00    -0.047 A 
ATOM      9  C9  IND d   1      -2.488   0.890  -2.200  0.00  0.00    -0.096 A 
ATOM     10  HN1 IND d   1      -0.973  -1.543  -3.295  0.00  0.00     0.298 HD
ENDROOT
TORSDOF 0
ENDMDL
