MODEL 1
REMARK minimizedAffinity 12.1470232
REMARK minimizedRMSD -1
REMARK  0 active torsions:
REMARK  status: ('A' for Active; 'I' for Inactive)
ROOT
ATOM      1  N1  IND d   1      -4.460   5.160  -3.902  0.00  0.00    -0.196 N 
ATOM      2  C2  IND d   1      -4.871   5.966  -4.927  0.00  0.00     0.054 A 
ATOM      3  C3  IND d   1      -5.435   5.227  -5.909  0.00  0.00    -0.031 A 
ATOM      4  C4  IND d   1      -5.879   2.693  -5.999  0.00  0.00     0.051 A 
ATOM      5  C5  IND d   1      -5.649   1.534  -5.313  0.00  0.00    -0.031 A 
ATOM      6  C6  IND d   1      -4.999   1.524  -4.096  0.00  0.00     0.015 A 
ATOM      7  C7  IND d   1      -4.564   2.680  -3.511  0.00  0.00    -0.016 A 
ATOM      8  C8  IND d   1      -4.791   3.858  -4.208  0.00  0.00    -0.047 A 
ATOM      9  C9  IND d   1      -5.411   3.870  -5.464  0.00  0.00    -0.096 A 
ATOM     10  HN1 IND d   1      -4.061   5.422  -3.187  0.00  0.00     0.298 HD
ENDROOT
TORSDOF 0
ENDMDL
