MODEL 1
REMARK minimizedAffinity 4.55737257
REMARK minimizedRMSD -1
REMARK  0 active torsions:
REMARK  status: ('A' for Active; 'I' for Inactive)
ROOT
ATOM      1  C   UNL d   1       3.307  -2.176   0.856  0.00  0.00     0.020 A 
ATOM      2  C1  UNL d   1       3.871  -0.952   1.213  0.00  0.00     0.020 A 
ATOM      3  C2  UNL d   1       3.049   0.114   1.584  0.00  0.00     0.034 A 
ATOM      4  C3  UNL d   1       1.658  -0.042   1.599  0.00  0.00     0.017 A 
ATOM      5  C4  UNL d   1       1.093  -1.271   1.240  0.00  0.00     0.017 A 
ATOM      6  C5  UNL d   1       1.920  -2.335   0.870  0.00  0.00     0.034 A 
ATOM      7 Cl   UNL d   1      -0.615  -1.539   1.234  0.00  0.00    -0.070 Cl
ATOM      8 Cl1  UNL d   1       0.702   1.319   2.069  0.00  0.00    -0.070 Cl
ENDROOT
TORSDOF 0
ENDMDL
