MODEL 1
REMARK minimizedAffinity -0.170328274
REMARK minimizedRMSD -1
REMARK  0 active torsions:
REMARK  status: ('A' for Active; 'I' for Inactive)
ROOT
ATOM      1  C   UNL d   1       1.777  -2.639   1.433  0.00  0.00     0.020 A 
ATOM      2  C1  UNL d   1       0.534  -2.495   2.047  0.00  0.00     0.020 A 
ATOM      3  C2  UNL d   1      -0.621  -2.383   1.270  0.00  0.00     0.034 A 
ATOM      4  C3  UNL d   1      -0.535  -2.414  -0.127  0.00  0.00     0.017 A 
ATOM      5  C4  UNL d   1       0.713  -2.559  -0.743  0.00  0.00     0.017 A 
ATOM      6  C5  UNL d   1       1.866  -2.671   0.040  0.00  0.00     0.034 A 
ATOM      7 Cl   UNL d   1       0.899  -2.607  -2.461  0.00  0.00    -0.070 Cl
ATOM      8 Cl1  UNL d   1      -2.003  -2.271  -1.026  0.00  0.00    -0.070 Cl
ENDROOT
TORSDOF 0
ENDMDL
