MODEL 1
REMARK minimizedAffinity 1.90122974
REMARK minimizedRMSD -1
REMARK  0 active torsions:
REMARK  status: ('A' for Active; 'I' for Inactive)
ROOT
ATOM      1  C   UNL d   1       2.397  -3.264   2.902  0.00  0.00     0.020 A 
ATOM      2  C1  UNL d   1       3.546  -2.476   2.855  0.00  0.00     0.020 A 
ATOM      3  C2  UNL d   1       3.565  -1.315   2.079  0.00  0.00     0.034 A 
ATOM      4  C3  UNL d   1       2.434  -0.940   1.345  0.00  0.00     0.017 A 
ATOM      5  C4  UNL d   1       1.281  -1.733   1.393  0.00  0.00     0.017 A 
ATOM      6  C5  UNL d   1       1.267  -2.894   2.172  0.00  0.00     0.034 A 
ATOM      7 Cl   UNL d   1      -0.154  -1.335   0.515  0.00  0.00    -0.070 Cl
ATOM      8 Cl1  UNL d   1       2.528   0.507   0.406  0.00  0.00    -0.070 Cl
ENDROOT
TORSDOF 0
ENDMDL
