MODEL 1
REMARK minimizedAffinity 13.10254
REMARK minimizedRMSD -1
REMARK  0 active torsions:
REMARK  status: ('A' for Active; 'I' for Inactive)
ROOT
ATOM      1  C   UNL d   1      -0.482  -1.668  -2.094  0.00  0.00     0.020 A 
ATOM      2  C1  UNL d   1       0.543  -2.420  -2.667  0.00  0.00     0.020 A 
ATOM      3  C2  UNL d   1       1.225  -3.369  -1.902  0.00  0.00     0.034 A 
ATOM      4  C3  UNL d   1       0.883  -3.567  -0.559  0.00  0.00     0.017 A 
ATOM      5  C4  UNL d   1      -0.145  -2.812   0.015  0.00  0.00     0.017 A 
ATOM      6  C5  UNL d   1      -0.825  -1.864  -0.755  0.00  0.00     0.034 A 
ATOM      7 Cl   UNL d   1      -0.623  -3.000   1.666  0.00  0.00    -0.070 Cl
ATOM      8 Cl1  UNL d   1       1.769  -4.757   0.328  0.00  0.00    -0.070 Cl
ENDROOT
TORSDOF 0
ENDMDL
