MODEL 1
REMARK minimizedAffinity 3.86277342
REMARK minimizedRMSD -1
REMARK  0 active torsions:
REMARK  status: ('A' for Active; 'I' for Inactive)
ROOT
ATOM      1  C   UNL d   1      -4.367   1.934   1.623  0.00  0.00     0.020 A 
ATOM      2  C1  UNL d   1      -5.381   2.869   1.827  0.00  0.00     0.020 A 
ATOM      3  C2  UNL d   1      -5.694   3.790   0.826  0.00  0.00     0.034 A 
ATOM      4  C3  UNL d   1      -4.992   3.779  -0.385  0.00  0.00     0.017 A 
ATOM      5  C4  UNL d   1      -3.974   2.841  -0.589  0.00  0.00     0.017 A 
ATOM      6  C5  UNL d   1      -3.665   1.921   0.417  0.00  0.00     0.034 A 
ATOM      7 Cl   UNL d   1      -3.063   2.766  -2.056  0.00  0.00    -0.070 Cl
ATOM      8 Cl1  UNL d   1      -5.432   4.947  -1.580  0.00  0.00    -0.070 Cl
ENDROOT
TORSDOF 0
ENDMDL
