MODEL 1
REMARK minimizedAffinity 3.59467363
REMARK minimizedRMSD -1
REMARK  0 active torsions:
REMARK  status: ('A' for Active; 'I' for Inactive)
ROOT
ATOM      1  C   UNL d   1      -0.361  -1.105   1.313  0.00  0.00     0.020 A 
ATOM      2  C1  UNL d   1      -0.612   0.239   1.588  0.00  0.00     0.020 A 
ATOM      3  C2  UNL d   1       0.449   1.142   1.684  0.00  0.00     0.034 A 
ATOM      4  C3  UNL d   1       1.765   0.702   1.505  0.00  0.00     0.017 A 
ATOM      5  C4  UNL d   1       2.016  -0.647   1.230  0.00  0.00     0.017 A 
ATOM      6  C5  UNL d   1       0.950  -1.547   1.135  0.00  0.00     0.034 A 
ATOM      7 Cl   UNL d   1       3.614  -1.263   0.997  0.00  0.00    -0.070 Cl
ATOM      8 Cl1  UNL d   1       3.028   1.874   1.638  0.00  0.00    -0.070 Cl
ENDROOT
TORSDOF 0
ENDMDL
