MODEL 1
REMARK minimizedAffinity 15.7053223
REMARK minimizedRMSD -1
REMARK  0 active torsions:
REMARK  status: ('A' for Active; 'I' for Inactive)
ROOT
ATOM      1  C   UNL d   1       4.027  -0.528   0.730  0.00  0.00     0.020 A 
ATOM      2  C1  UNL d   1       3.194  -0.850   1.801  0.00  0.00     0.020 A 
ATOM      3  C2  UNL d   1       2.234   0.066   2.237  0.00  0.00     0.034 A 
ATOM      4  C3  UNL d   1       2.105   1.307   1.603  0.00  0.00     0.017 A 
ATOM      5  C4  UNL d   1       2.943   1.629   0.529  0.00  0.00     0.017 A 
ATOM      6  C5  UNL d   1       3.902   0.708   0.096  0.00  0.00     0.034 A 
ATOM      7 Cl   UNL d   1       2.843   3.140  -0.303  0.00  0.00    -0.070 Cl
ATOM      8 Cl1  UNL d   1       0.896   2.390   2.196  0.00  0.00    -0.070 Cl
ENDROOT
TORSDOF 0
ENDMDL
