MODEL 1
REMARK minimizedAffinity -4.74909353
REMARK minimizedRMSD -1
REMARK  0 active torsions:
REMARK  status: ('A' for Active; 'I' for Inactive)
ROOT
ATOM      1  C   UNL d   1       3.267  -1.014   1.513  0.00  0.00     0.020 A 
ATOM      2  C1  UNL d   1       2.481  -2.165   1.495  0.00  0.00     0.020 A 
ATOM      3  C2  UNL d   1       1.159  -2.101   1.048  0.00  0.00     0.034 A 
ATOM      4  C3  UNL d   1       0.620  -0.884   0.617  0.00  0.00     0.017 A 
ATOM      5  C4  UNL d   1       1.411   0.271   0.636  0.00  0.00     0.017 A 
ATOM      6  C5  UNL d   1       2.733   0.201   1.084  0.00  0.00     0.034 A 
ATOM      7 Cl   UNL d   1       0.816   1.810   0.119  0.00  0.00    -0.070 Cl
ATOM      8 Cl1  UNL d   1      -1.021  -0.878   0.077  0.00  0.00    -0.070 Cl
ENDROOT
TORSDOF 0
ENDMDL
