MODEL 1
REMARK minimizedAffinity -0.762727439
REMARK minimizedRMSD -1
REMARK  0 active torsions:
REMARK  status: ('A' for Active; 'I' for Inactive)
ROOT
ATOM      1  C   UNL d   1      -2.329   2.845  -2.724  0.00  0.00     0.020 A 
ATOM      2  C1  UNL d   1      -2.809   1.832  -1.894  0.00  0.00     0.020 A 
ATOM      3  C2  UNL d   1      -3.851   1.010  -2.326  0.00  0.00     0.034 A 
ATOM      4  C3  UNL d   1      -4.418   1.199  -3.592  0.00  0.00     0.017 A 
ATOM      5  C4  UNL d   1      -3.936   2.216  -4.425  0.00  0.00     0.017 A 
ATOM      6  C5  UNL d   1      -2.892   3.036  -3.987  0.00  0.00     0.034 A 
ATOM      7 Cl   UNL d   1      -4.585   2.510  -5.999  0.00  0.00    -0.070 Cl
ATOM      8 Cl1  UNL d   1      -5.704   0.145  -4.062  0.00  0.00    -0.070 Cl
ENDROOT
TORSDOF 0
ENDMDL
