MODEL 1
REMARK minimizedAffinity -3.71317053
REMARK minimizedRMSD -1
REMARK  3 active torsions:
REMARK  status: ('A' for Active; 'I' for Inactive)
REMARK    1  A    between atoms: C3'_2  and  C2'_3 
REMARK    2  A    between atoms: C2'_3  and  C1'_4 
REMARK    3  A    between atoms: C1'_4  and  C1_5 
ROOT
ATOM      1  C1  N4B d   1      -5.084   1.759  -0.169  0.00  0.00    -0.075 A 
ATOM      2  C2  N4B d   1      -3.737   1.852   0.246  0.00  0.00     0.002 A 
ATOM      3  C3  N4B d   1      -3.358   2.830   1.132  0.00  0.00     0.002 A 
ATOM      4  C4  N4B d   1      -4.299   3.734   1.601  0.00  0.00    -0.004 A 
ATOM      5  C5  N4B d   1      -5.603   3.621   1.216  0.00  0.00     0.002 A 
ATOM      6  C6  N4B d   1      -5.999   2.641   0.328  0.00  0.00     0.002 A 
ENDROOT
BRANCH   1   7
ATOM      7  C1' N4B d   1      -5.529   0.761  -1.202  0.00  0.00     0.057 C 
BRANCH   7   8
ATOM      8  C2' N4B d   1      -6.000   1.506  -2.448  0.00  0.00     0.009 C 
BRANCH   8   9
ATOM      9  C3' N4B d   1      -4.841   1.893  -3.350  0.00  0.00     0.004 C 
ATOM     10  C4' N4B d   1      -5.280   2.649  -4.568  0.00  0.00     0.003 C 
ENDBRANCH   8   9
ENDBRANCH   7   8
ENDBRANCH   1   7
TORSDOF 3
ENDMDL
