MODEL 1
REMARK minimizedAffinity 7.41692877
REMARK minimizedRMSD -1
REMARK  3 active torsions:
REMARK  status: ('A' for Active; 'I' for Inactive)
REMARK    1  A    between atoms: C3'_2  and  C2'_3 
REMARK    2  A    between atoms: C2'_3  and  C1'_4 
REMARK    3  A    between atoms: C1'_4  and  C1_5 
ROOT
ATOM      1  C1  N4B d   1       2.829  -5.936  -0.969  0.00  0.00    -0.075 A 
ATOM      2  C2  N4B d   1       4.240  -5.939  -0.902  0.00  0.00     0.002 A 
ATOM      3  C3  N4B d   1       4.982  -5.961  -2.058  0.00  0.00     0.002 A 
ATOM      4  C4  N4B d   1       4.338  -6.000  -3.285  0.00  0.00    -0.004 A 
ATOM      5  C5  N4B d   1       2.975  -5.971  -3.342  0.00  0.00     0.002 A 
ATOM      6  C6  N4B d   1       2.217  -5.945  -2.189  0.00  0.00     0.002 A 
ENDROOT
BRANCH   1   7
ATOM      7  C1' N4B d   1       1.976  -5.999   0.268  0.00  0.00     0.057 C 
BRANCH   7   8
ATOM      8  C2' N4B d   1       2.521  -5.020   1.303  0.00  0.00     0.009 C 
BRANCH   8   9
ATOM      9  C3' N4B d   1       1.481  -3.994   1.718  0.00  0.00     0.004 C 
ATOM     10  C4' N4B d   1       2.062  -2.873   2.528  0.00  0.00     0.003 C 
ENDBRANCH   8   9
ENDBRANCH   7   8
ENDBRANCH   1   7
TORSDOF 3
ENDMDL
