MODEL 1
REMARK minimizedAffinity 6.04794455
REMARK minimizedRMSD -1
REMARK  3 active torsions:
REMARK  status: ('A' for Active; 'I' for Inactive)
REMARK    1  A    between atoms: C3'_2  and  C2'_3 
REMARK    2  A    between atoms: C2'_3  and  C1'_4 
REMARK    3  A    between atoms: C1'_4  and  C1_5 
ROOT
ATOM      1  C1  N4B d   1       4.940  -5.871  -3.192  0.00  0.00    -0.075 A 
ATOM      2  C2  N4B d   1       5.958  -5.855  -4.171  0.00  0.00     0.002 A 
ATOM      3  C3  N4B d   1       5.630  -5.910  -5.504  0.00  0.00     0.002 A 
ATOM      4  C4  N4B d   1       4.298  -5.999  -5.879  0.00  0.00    -0.004 A 
ATOM      5  C5  N4B d   1       3.319  -5.988  -4.928  0.00  0.00     0.002 A 
ATOM      6  C6  N4B d   1       3.635  -5.930  -3.585  0.00  0.00     0.002 A 
ENDROOT
BRANCH   1   7
ATOM      7  C1' N4B d   1       5.254  -5.899  -1.721  0.00  0.00     0.057 C 
BRANCH   7   8
ATOM      8  C2' N4B d   1       3.949  -5.929  -0.931  0.00  0.00     0.009 C 
BRANCH   8   9
ATOM      9  C3' N4B d   1       3.231  -4.590  -0.970  0.00  0.00     0.004 C 
ATOM     10  C4' N4B d   1       3.998  -3.541  -1.718  0.00  0.00     0.003 C 
ENDBRANCH   8   9
ENDBRANCH   7   8
ENDBRANCH   1   7
TORSDOF 3
ENDMDL
