MODEL 1
REMARK minimizedAffinity 9.42877102
REMARK minimizedRMSD -1
REMARK  3 active torsions:
REMARK  status: ('A' for Active; 'I' for Inactive)
REMARK    1  A    between atoms: C3'_2  and  C2'_3 
REMARK    2  A    between atoms: C2'_3  and  C1'_4 
REMARK    3  A    between atoms: C1'_4  and  C1_5 
ROOT
ATOM      1  C1  N4B d   1      -2.502   0.547  -2.372  0.00  0.00    -0.075 A 
ATOM      2  C2  N4B d   1      -3.088   1.804  -2.110  0.00  0.00     0.002 A 
ATOM      3  C3  N4B d   1      -2.763   2.488  -0.964  0.00  0.00     0.002 A 
ATOM      4  C4  N4B d   1      -1.872   1.928  -0.061  0.00  0.00    -0.004 A 
ATOM      5  C5  N4B d   1      -1.291   0.724  -0.334  0.00  0.00     0.002 A 
ATOM      6  C6  N4B d   1      -1.605   0.028  -1.484  0.00  0.00     0.002 A 
ENDROOT
BRANCH   1   7
ATOM      7  C1' N4B d   1      -2.892  -0.277  -3.569  0.00  0.00     0.057 C 
BRANCH   7   8
ATOM      8  C2' N4B d   1      -3.319  -1.666  -3.104  0.00  0.00     0.009 C 
BRANCH   8   9
ATOM      9  C3' N4B d   1      -4.578  -1.619  -2.256  0.00  0.00     0.004 C 
ATOM     10  C4' N4B d   1      -4.793  -2.875  -1.466  0.00  0.00     0.003 C 
ENDBRANCH   8   9
ENDBRANCH   7   8
ENDBRANCH   1   7
TORSDOF 3
ENDMDL
