MODEL 1
REMARK minimizedAffinity 2.92156792
REMARK minimizedRMSD -1
REMARK  3 active torsions:
REMARK  status: ('A' for Active; 'I' for Inactive)
REMARK    1  A    between atoms: C3'_2  and  C2'_3 
REMARK    2  A    between atoms: C2'_3  and  C1'_4 
REMARK    3  A    between atoms: C1'_4  and  C1_5 
ROOT
ATOM      1  C1  N4B d   1       2.897  -2.405   0.654  0.00  0.00    -0.075 A 
ATOM      2  C2  N4B d   1       2.650  -3.188   1.803  0.00  0.00     0.002 A 
ATOM      3  C3  N4B d   1       2.251  -2.586   2.971  0.00  0.00     0.002 A 
ATOM      4  C4  N4B d   1       2.111  -1.207   3.019  0.00  0.00    -0.004 A 
ATOM      5  C5  N4B d   1       2.327  -0.460   1.898  0.00  0.00     0.002 A 
ATOM      6  C6  N4B d   1       2.725  -1.052   0.716  0.00  0.00     0.002 A 
ENDROOT
BRANCH   1   7
ATOM      7  C1' N4B d   1       3.418  -3.008  -0.622  0.00  0.00     0.057 C 
BRANCH   7   8
ATOM      8  C2' N4B d   1       3.714  -4.487  -0.391  0.00  0.00     0.009 C 
BRANCH   8   9
ATOM      9  C3' N4B d   1       5.047  -4.900  -0.991  0.00  0.00     0.004 C 
ATOM     10  C4' N4B d   1       5.715  -6.000  -0.221  0.00  0.00     0.003 C 
ENDBRANCH   8   9
ENDBRANCH   7   8
ENDBRANCH   1   7
TORSDOF 3
ENDMDL
