MODEL 1
REMARK minimizedAffinity 7.3640213
REMARK minimizedRMSD -1
REMARK  3 active torsions:
REMARK  status: ('A' for Active; 'I' for Inactive)
REMARK    1  A    between atoms: C3'_2  and  C2'_3 
REMARK    2  A    between atoms: C2'_3  and  C1'_4 
REMARK    3  A    between atoms: C1'_4  and  C1_5 
ROOT
ATOM      1  C1  N4B d   1       1.937  -0.452   1.949  0.00  0.00    -0.075 A 
ATOM      2  C2  N4B d   1       2.441  -0.982   3.158  0.00  0.00     0.002 A 
ATOM      3  C3  N4B d   1       2.151  -2.277   3.513  0.00  0.00     0.002 A 
ATOM      4  C4  N4B d   1       1.347  -3.051   2.690  0.00  0.00    -0.004 A 
ATOM      5  C5  N4B d   1       0.886  -2.540   1.512  0.00  0.00     0.002 A 
ATOM      6  C6  N4B d   1       1.172  -1.242   1.140  0.00  0.00     0.002 A 
ENDROOT
BRANCH   1   7
ATOM      7  C1' N4B d   1       2.156   0.984   1.560  0.00  0.00     0.057 C 
BRANCH   7   8
ATOM      8  C2' N4B d   1       3.016   1.036   0.300  0.00  0.00     0.009 C 
BRANCH   8   9
ATOM      9  C3' N4B d   1       3.023   2.419  -0.326  0.00  0.00     0.004 C 
ATOM     10  C4' N4B d   1       1.774   3.196  -0.034  0.00  0.00     0.003 C 
ENDBRANCH   8   9
ENDBRANCH   7   8
ENDBRANCH   1   7
TORSDOF 3
ENDMDL
