MODEL 1
REMARK minimizedAffinity 10.6505671
REMARK minimizedRMSD -1
REMARK  3 active torsions:
REMARK  status: ('A' for Active; 'I' for Inactive)
REMARK    1  A    between atoms: C3'_2  and  C2'_3 
REMARK    2  A    between atoms: C2'_3  and  C1'_4 
REMARK    3  A    between atoms: C1'_4  and  C1_5 
ROOT
ATOM      1  C1  N4B d   1       0.436  -1.819   0.560  0.00  0.00    -0.075 A 
ATOM      2  C2  N4B d   1       0.903  -0.534   0.914  0.00  0.00     0.002 A 
ATOM      3  C3  N4B d   1       1.530  -0.340   2.120  0.00  0.00     0.002 A 
ATOM      4  C4  N4B d   1       1.685  -1.406   2.993  0.00  0.00    -0.004 A 
ATOM      5  C5  N4B d   1       1.254  -2.649   2.633  0.00  0.00     0.002 A 
ATOM      6  C6  N4B d   1       0.625  -2.861   1.422  0.00  0.00     0.002 A 
ENDROOT
BRANCH   1   7
ATOM      7  C1' N4B d   1      -0.333  -2.064  -0.710  0.00  0.00     0.057 C 
BRANCH   7   8
ATOM      8  C2' N4B d   1       0.379  -1.370  -1.867  0.00  0.00     0.009 C 
BRANCH   8   9
ATOM      9  C3' N4B d   1       1.858  -1.714  -1.912  0.00  0.00     0.004 C 
ATOM     10  C4' N4B d   1       2.568  -1.075  -3.068  0.00  0.00     0.003 C 
ENDBRANCH   8   9
ENDBRANCH   7   8
ENDBRANCH   1   7
TORSDOF 3
ENDMDL
