MODEL 1
REMARK minimizedAffinity -0.290623963
REMARK minimizedRMSD -1
REMARK  3 active torsions:
REMARK  status: ('A' for Active; 'I' for Inactive)
REMARK    1  A    between atoms: C3'_2  and  C2'_3 
REMARK    2  A    between atoms: C2'_3  and  C1'_4 
REMARK    3  A    between atoms: C1'_4  and  C1_5 
ROOT
ATOM      1  C1  N4B d   1       2.246  -1.797   3.880  0.00  0.00    -0.075 A 
ATOM      2  C2  N4B d   1       3.072  -2.482   4.798  0.00  0.00     0.002 A 
ATOM      3  C3  N4B d   1       3.029  -3.852   4.870  0.00  0.00     0.002 A 
ATOM      4  C4  N4B d   1       2.158  -4.555   4.052  0.00  0.00    -0.004 A 
ATOM      5  C5  N4B d   1       1.381  -3.888   3.150  0.00  0.00     0.002 A 
ATOM      6  C6  N4B d   1       1.417  -2.511   3.063  0.00  0.00     0.002 A 
ENDROOT
BRANCH   1   7
ATOM      7  C1' N4B d   1       2.196  -0.295   3.824  0.00  0.00     0.057 C 
BRANCH   7   8
ATOM      8  C2' N4B d   1       2.243   0.154   2.366  0.00  0.00     0.009 C 
BRANCH   8   9
ATOM      9  C3' N4B d   1       3.060   1.423   2.189  0.00  0.00     0.004 C 
ATOM     10  C4' N4B d   1       3.797   1.462   0.884  0.00  0.00     0.003 C 
ENDBRANCH   8   9
ENDBRANCH   7   8
ENDBRANCH   1   7
TORSDOF 3
ENDMDL
