MODEL 1
REMARK minimizedAffinity 8.5708847
REMARK minimizedRMSD -1
REMARK  1 active torsions:
REMARK  status: ('A' for Active; 'I' for Inactive)
REMARK    1  A    between atoms: C1_2  and  C2_3 
ROOT
ATOM      1  C2  UNL d   1       5.266   2.315  -1.756  0.00  0.00    -0.073 A 
ATOM      2  C3  UNL d   1       5.999   2.346  -0.564  0.00  0.00    -0.002 A 
ATOM      3  C4  UNL d   1       5.591   1.590   0.535  0.00  0.00     0.004 A 
ATOM      4  C5  UNL d   1       4.451   0.790   0.453  0.00  0.00    -0.004 A 
ATOM      5  C6  UNL d   1       3.711   0.737  -0.733  0.00  0.00    -0.075 A 
ATOM      6  C7  UNL d   1       2.481  -0.116  -0.838  0.00  0.00     0.076 C 
ATOM      7  C8  UNL d   1       4.126   1.501  -1.832  0.00  0.00     0.001 A 
ENDROOT
BRANCH   1   8
ATOM      8  C1  UNL d   1       5.707   3.125  -2.947  0.00  0.00     0.053 C 
ATOM      9  C   UNL d   1       5.614   4.620  -2.686  0.00  0.00     0.018 C 
ENDBRANCH   1   8
TORSDOF 1
ENDMDL
