MODEL 1
REMARK minimizedAffinity 10.7405796
REMARK minimizedRMSD -1
REMARK  1 active torsions:
REMARK  status: ('A' for Active; 'I' for Inactive)
REMARK    1  A    between atoms: C1_2  and  C2_3 
ROOT
ATOM      1  C2  UNL d   1      -1.348   1.595  -0.384  0.00  0.00    -0.073 A 
ATOM      2  C3  UNL d   1      -2.667   1.776   0.048  0.00  0.00    -0.002 A 
ATOM      3  C4  UNL d   1      -3.527   0.683   0.163  0.00  0.00     0.004 A 
ATOM      4  C5  UNL d   1      -3.076  -0.600  -0.144  0.00  0.00    -0.004 A 
ATOM      5  C6  UNL d   1      -1.758  -0.803  -0.566  0.00  0.00    -0.075 A 
ATOM      6  C7  UNL d   1      -1.259  -2.177  -0.903  0.00  0.00     0.076 C 
ATOM      7  C8  UNL d   1      -0.901   0.300  -0.682  0.00  0.00     0.001 A 
ENDROOT
BRANCH   1   8
ATOM      8  C1  UNL d   1      -0.414   2.771  -0.504  0.00  0.00     0.053 C 
ATOM      9  C   UNL d   1      -0.298   3.543   0.801  0.00  0.00     0.018 C 
ENDBRANCH   1   8
TORSDOF 1
ENDMDL
