MODEL 1
REMARK minimizedAffinity 11.5909929
REMARK minimizedRMSD -1
REMARK  1 active torsions:
REMARK  status: ('A' for Active; 'I' for Inactive)
REMARK    1  A    between atoms: C1_2  and  C2_3 
ROOT
ATOM      1  C2  UNL d   1       5.239   1.875  -1.615  0.00  0.00    -0.073 A 
ATOM      2  C3  UNL d   1       5.641   2.082  -0.290  0.00  0.00    -0.002 A 
ATOM      3  C4  UNL d   1       4.937   1.492   0.760  0.00  0.00     0.004 A 
ATOM      4  C5  UNL d   1       3.830   0.684   0.498  0.00  0.00    -0.004 A 
ATOM      5  C6  UNL d   1       3.420   0.456  -0.820  0.00  0.00    -0.075 A 
ATOM      6  C7  UNL d   1       2.231  -0.408  -1.119  0.00  0.00     0.076 C 
ATOM      7  C8  UNL d   1       4.131   1.055  -1.869  0.00  0.00     0.001 A 
ENDROOT
BRANCH   1   8
ATOM      8  C1  UNL d   1       6.000   2.506  -2.753  0.00  0.00     0.053 C 
ATOM      9  C   UNL d   1       5.745   4.001  -2.849  0.00  0.00     0.018 C 
ENDBRANCH   1   8
TORSDOF 1
ENDMDL
