MODEL 1
REMARK minimizedAffinity 11.9272833
REMARK minimizedRMSD -1
REMARK  1 active torsions:
REMARK  status: ('A' for Active; 'I' for Inactive)
REMARK    1  A    between atoms: C1_2  and  C2_3 
ROOT
ATOM      1  C2  UNL d   1      -2.013  -3.212  -3.305  0.00  0.00    -0.073 A 
ATOM      2  C3  UNL d   1      -2.031  -1.961  -3.932  0.00  0.00    -0.002 A 
ATOM      3  C4  UNL d   1      -3.023  -1.653  -4.863  0.00  0.00     0.004 A 
ATOM      4  C5  UNL d   1      -4.010  -2.589  -5.173  0.00  0.00    -0.004 A 
ATOM      5  C6  UNL d   1      -4.016  -3.840  -4.548  0.00  0.00    -0.075 A 
ATOM      6  C7  UNL d   1      -5.070  -4.859  -4.871  0.00  0.00     0.076 C 
ATOM      7  C8  UNL d   1      -3.015  -4.142  -3.615  0.00  0.00     0.001 A 
ENDROOT
BRANCH   1   8
ATOM      8  C1  UNL d   1      -0.948  -3.546  -2.293  0.00  0.00     0.053 C 
ATOM      9  C   UNL d   1      -1.026  -2.652  -1.066  0.00  0.00     0.018 C 
ENDBRANCH   1   8
TORSDOF 1
ENDMDL
