MODEL 1
REMARK minimizedAffinity 5.10078716
REMARK minimizedRMSD -1
REMARK  1 active torsions:
REMARK  status: ('A' for Active; 'I' for Inactive)
REMARK    1  A    between atoms: C1_2  and  C2_3 
ROOT
ATOM      1  C2  UNL d   1       4.455   1.665  -1.135  0.00  0.00    -0.073 A 
ATOM      2  C3  UNL d   1       4.862   2.272   0.058  0.00  0.00    -0.002 A 
ATOM      3  C4  UNL d   1       4.149   2.053   1.238  0.00  0.00     0.004 A 
ATOM      4  C5  UNL d   1       3.030   1.222   1.239  0.00  0.00    -0.004 A 
ATOM      5  C6  UNL d   1       2.615   0.596   0.059  0.00  0.00    -0.075 A 
ATOM      6  C7  UNL d   1       1.411  -0.299   0.042  0.00  0.00     0.076 C 
ATOM      7  C8  UNL d   1       3.334   0.823  -1.123  0.00  0.00     0.001 A 
ENDROOT
BRANCH   1   8
ATOM      8  C1  UNL d   1       5.225   1.892  -2.411  0.00  0.00     0.053 C 
ATOM      9  C   UNL d   1       5.999   3.201  -2.384  0.00  0.00     0.018 C 
ENDBRANCH   1   8
TORSDOF 1
ENDMDL
