MODEL 1
REMARK minimizedAffinity 11.4728889
REMARK minimizedRMSD -1
REMARK  1 active torsions:
REMARK  status: ('A' for Active; 'I' for Inactive)
REMARK    1  A    between atoms: C1_2  and  C2_3 
ROOT
ATOM      1  C2  UNL d   1       0.772   3.967   2.482  0.00  0.00    -0.073 A 
ATOM      2  C3  UNL d   1       0.432   3.314   3.672  0.00  0.00    -0.002 A 
ATOM      3  C4  UNL d   1       1.424   2.942   4.580  0.00  0.00     0.004 A 
ATOM      4  C5  UNL d   1       2.763   3.225   4.313  0.00  0.00    -0.004 A 
ATOM      5  C6  UNL d   1       3.122   3.888   3.135  0.00  0.00    -0.075 A 
ATOM      6  C7  UNL d   1       4.558   4.199   2.831  0.00  0.00     0.076 C 
ATOM      7  C8  UNL d   1       2.120   4.256   2.226  0.00  0.00     0.001 A 
ENDROOT
BRANCH   1   8
ATOM      8  C1  UNL d   1      -0.296   4.376   1.501  0.00  0.00     0.053 C 
ATOM      9  C   UNL d   1      -0.919   3.177   0.804  0.00  0.00     0.018 C 
ENDBRANCH   1   8
TORSDOF 1
ENDMDL
