MODEL 1
REMARK minimizedAffinity -4.63935184
REMARK minimizedRMSD -1
REMARK  2 active torsions:
REMARK  status: ('A' for Active; 'I' for Inactive)
REMARK    1  A    between atoms: C1_2  and  C2_3 
REMARK    2  A    between atoms: C2_3  and  C3_4 
ROOT
ATOM      1  C3  UNL d   1      -2.052   0.966   1.421  0.00  0.00    -0.075 A 
ATOM      2  C4  UNL d   1      -1.576   1.761   2.473  0.00  0.00     0.002 A 
ATOM      3  C5  UNL d   1      -1.985   1.519   3.785  0.00  0.00     0.002 A 
ATOM      4  C6  UNL d   1      -2.881   0.488   4.059  0.00  0.00    -0.004 A 
ATOM      5  C7  UNL d   1      -3.374  -0.297   3.020  0.00  0.00     0.002 A 
ATOM      6  C8  UNL d   1      -2.963  -0.060   1.707  0.00  0.00     0.002 A 
ENDROOT
BRANCH   1   7
ATOM      7  C2  UNL d   1      -1.591   1.204   0.003  0.00  0.00     0.056 C 
BRANCH   7   8
ATOM      8  C1  UNL d   1      -0.253   0.539  -0.338  0.00  0.00     0.007 C 
ATOM      9  C   UNL d   1      -0.257  -0.968  -0.117  0.00  0.00     0.009 C 
ENDBRANCH   7   8
ENDBRANCH   1   7
TORSDOF 2
ENDMDL
