MODEL 1
REMARK minimizedAffinity -4.26697493
REMARK minimizedRMSD -1
REMARK  2 active torsions:
REMARK  status: ('A' for Active; 'I' for Inactive)
REMARK    1  A    between atoms: C1_2  and  C2_3 
REMARK    2  A    between atoms: C2_3  and  C3_4 
ROOT
ATOM      1  C3  UNL d   1      -0.656   0.398  -0.215  0.00  0.00    -0.075 A 
ATOM      2  C4  UNL d   1       0.122  -0.768  -0.190  0.00  0.00     0.002 A 
ATOM      3  C5  UNL d   1       1.253  -0.883  -0.999  0.00  0.00     0.002 A 
ATOM      4  C6  UNL d   1       1.614   0.160  -1.848  0.00  0.00    -0.004 A 
ATOM      5  C7  UNL d   1       0.839   1.317  -1.893  0.00  0.00     0.002 A 
ATOM      6  C8  UNL d   1      -0.290   1.436  -1.082  0.00  0.00     0.002 A 
ENDROOT
BRANCH   1   7
ATOM      7  C2  UNL d   1      -1.864   0.540   0.680  0.00  0.00     0.056 C 
BRANCH   7   8
ATOM      8  C1  UNL d   1      -1.538   1.025   2.096  0.00  0.00     0.007 C 
ATOM      9  C   UNL d   1      -2.570   0.594   3.130  0.00  0.00     0.009 C 
ENDBRANCH   7   8
ENDBRANCH   1   7
TORSDOF 2
ENDMDL
