MODEL 1
REMARK minimizedAffinity -4.42515802
REMARK minimizedRMSD -1
REMARK  2 active torsions:
REMARK  status: ('A' for Active; 'I' for Inactive)
REMARK    1  A    between atoms: C1_2  and  C2_3 
REMARK    2  A    between atoms: C2_3  and  C3_4 
ROOT
ATOM      1  C3  UNL d   1      -0.304   0.148  -0.030  0.00  0.00    -0.075 A 
ATOM      2  C4  UNL d   1       0.008  -1.124   0.472  0.00  0.00     0.002 A 
ATOM      3  C5  UNL d   1       1.217  -1.738   0.145  0.00  0.00     0.002 A 
ATOM      4  C6  UNL d   1       2.124  -1.094  -0.695  0.00  0.00    -0.004 A 
ATOM      5  C7  UNL d   1       1.817   0.162  -1.212  0.00  0.00     0.002 A 
ATOM      6  C8  UNL d   1       0.610   0.781  -0.883  0.00  0.00     0.002 A 
ENDROOT
BRANCH   1   7
ATOM      7  C2  UNL d   1      -1.598   0.830   0.344  0.00  0.00     0.056 C 
BRANCH   7   8
ATOM      8  C1  UNL d   1      -2.159   0.401   1.704  0.00  0.00     0.007 C 
ATOM      9  C   UNL d   1      -2.297   1.556   2.687  0.00  0.00     0.009 C 
ENDBRANCH   7   8
ENDBRANCH   1   7
TORSDOF 2
ENDMDL
