MODEL 1
REMARK minimizedAffinity -5.10816097
REMARK minimizedRMSD -1
REMARK  2 active torsions:
REMARK  status: ('A' for Active; 'I' for Inactive)
REMARK    1  A    between atoms: C1_2  and  C2_3 
REMARK    2  A    between atoms: C2_3  and  C3_4 
ROOT
ATOM      1  C3  UNL d   1      -0.943   0.387   1.229  0.00  0.00    -0.075 A 
ATOM      2  C4  UNL d   1      -0.592   1.344   2.192  0.00  0.00     0.002 A 
ATOM      3  C5  UNL d   1      -1.429   1.593   3.280  0.00  0.00     0.002 A 
ATOM      4  C6  UNL d   1      -2.629   0.898   3.414  0.00  0.00    -0.004 A 
ATOM      5  C7  UNL d   1      -2.996  -0.043   2.454  0.00  0.00     0.002 A 
ATOM      6  C8  UNL d   1      -2.158  -0.297   1.366  0.00  0.00     0.002 A 
ENDROOT
BRANCH   1   7
ATOM      7  C2  UNL d   1      -0.028   0.091   0.065  0.00  0.00     0.056 C 
BRANCH   7   8
ATOM      8  C1  UNL d   1       0.625  -1.294   0.121  0.00  0.00     0.007 C 
ATOM      9  C   UNL d   1       1.946  -1.366  -0.633  0.00  0.00     0.009 C 
ENDBRANCH   7   8
ENDBRANCH   1   7
TORSDOF 2
ENDMDL
