MODEL 1
REMARK minimizedAffinity -5.10578251
REMARK minimizedRMSD -1
REMARK  2 active torsions:
REMARK  status: ('A' for Active; 'I' for Inactive)
REMARK    1  A    between atoms: C1_2  and  C2_3 
REMARK    2  A    between atoms: C2_3  and  C3_4 
ROOT
ATOM      1  C3  UNL d   1      -0.039   0.000  -0.135  0.00  0.00    -0.075 A 
ATOM      2  C4  UNL d   1       0.013  -1.317   0.342  0.00  0.00     0.002 A 
ATOM      3  C5  UNL d   1       0.999  -2.195  -0.109  0.00  0.00     0.002 A 
ATOM      4  C6  UNL d   1       1.937  -1.772  -1.049  0.00  0.00    -0.004 A 
ATOM      5  C7  UNL d   1       1.883  -0.470  -1.542  0.00  0.00     0.002 A 
ATOM      6  C8  UNL d   1       0.900   0.412  -1.089  0.00  0.00     0.002 A 
ENDROOT
BRANCH   1   7
ATOM      7  C2  UNL d   1      -1.086   0.964   0.371  0.00  0.00     0.056 C 
BRANCH   7   8
ATOM      8  C1  UNL d   1      -1.746   0.534   1.685  0.00  0.00     0.007 C 
ATOM      9  C   UNL d   1      -1.621   1.576   2.789  0.00  0.00     0.009 C 
ENDBRANCH   7   8
ENDBRANCH   1   7
TORSDOF 2
ENDMDL
