MODEL 1
REMARK minimizedAffinity -4.043571
REMARK minimizedRMSD -1
REMARK  2 active torsions:
REMARK  status: ('A' for Active; 'I' for Inactive)
REMARK    1  A    between atoms: C1_2  and  C2_3 
REMARK    2  A    between atoms: C2_3  and  C3_4 
ROOT
ATOM      1  C3  UNL d   1       0.615  -0.134  -0.643  0.00  0.00    -0.075 A 
ATOM      2  C4  UNL d   1       1.454  -1.135  -1.153  0.00  0.00     0.002 A 
ATOM      3  C5  UNL d   1       2.161  -0.930  -2.338  0.00  0.00     0.002 A 
ATOM      4  C6  UNL d   1       2.030   0.271  -3.033  0.00  0.00    -0.004 A 
ATOM      5  C7  UNL d   1       1.186   1.266  -2.544  0.00  0.00     0.002 A 
ATOM      6  C8  UNL d   1       0.481   1.065  -1.356  0.00  0.00     0.002 A 
ENDROOT
BRANCH   1   7
ATOM      7  C2  UNL d   1      -0.130  -0.338   0.655  0.00  0.00     0.056 C 
BRANCH   7   8
ATOM      8  C1  UNL d   1      -1.473   0.396   0.725  0.00  0.00     0.007 C 
ATOM      9  C   UNL d   1      -1.904   0.725   2.148  0.00  0.00     0.009 C 
ENDBRANCH   7   8
ENDBRANCH   1   7
TORSDOF 2
ENDMDL
