MODEL 1
REMARK minimizedAffinity -2.24720073
REMARK minimizedRMSD -1
REMARK  2 active torsions:
REMARK  status: ('A' for Active; 'I' for Inactive)
REMARK    1  A    between atoms: C1_2  and  C2_3 
REMARK    2  A    between atoms: C2_3  and  C3_4 
ROOT
ATOM      1  C3  UNL d   1      -0.569  -0.080   0.492  0.00  0.00    -0.075 A 
ATOM      2  C4  UNL d   1      -0.355   0.756  -0.614  0.00  0.00     0.002 A 
ATOM      3  C5  UNL d   1       0.533   0.382  -1.623  0.00  0.00     0.002 A 
ATOM      4  C6  UNL d   1       1.225  -0.824  -1.534  0.00  0.00    -0.004 A 
ATOM      5  C7  UNL d   1       1.033  -1.654  -0.432  0.00  0.00     0.002 A 
ATOM      6  C8  UNL d   1       0.141  -1.285   0.576  0.00  0.00     0.002 A 
ENDROOT
BRANCH   1   7
ATOM      7  C2  UNL d   1      -1.552   0.305   1.572  0.00  0.00     0.056 C 
BRANCH   7   8
ATOM      8  C1  UNL d   1      -0.925   1.076   2.738  0.00  0.00     0.007 C 
ATOM      9  C   UNL d   1      -1.440   0.628   4.100  0.00  0.00     0.009 C 
ENDBRANCH   7   8
ENDBRANCH   1   7
TORSDOF 2
ENDMDL
