MODEL 1
REMARK minimizedAffinity -5.38592386
REMARK minimizedRMSD -1
REMARK  2 active torsions:
REMARK  status: ('A' for Active; 'I' for Inactive)
REMARK    1  A    between atoms: C1_2  and  C2_3 
REMARK    2  A    between atoms: C2_3  and  C3_4 
ROOT
ATOM      1  C3  UNL d   1       0.029   0.059  -0.009  0.00  0.00    -0.075 A 
ATOM      2  C4  UNL d   1       0.988   0.991  -0.430  0.00  0.00     0.002 A 
ATOM      3  C5  UNL d   1       2.115   0.575  -1.141  0.00  0.00     0.002 A 
ATOM      4  C6  UNL d   1       2.301  -0.775  -1.429  0.00  0.00    -0.004 A 
ATOM      5  C7  UNL d   1       1.363  -1.711  -1.001  0.00  0.00     0.002 A 
ATOM      6  C8  UNL d   1       0.232  -1.297  -0.293  0.00  0.00     0.002 A 
ENDROOT
BRANCH   1   7
ATOM      7  C2  UNL d   1      -1.207   0.506   0.735  0.00  0.00     0.056 C 
BRANCH   7   8
ATOM      8  C1  UNL d   1      -0.915   1.356   1.976  0.00  0.00     0.007 C 
ATOM      9  C   UNL d   1      -1.997   1.253   3.043  0.00  0.00     0.009 C 
ENDBRANCH   7   8
ENDBRANCH   1   7
TORSDOF 2
ENDMDL
