MODEL 1
REMARK minimizedAffinity -4.66515875
REMARK minimizedRMSD -1
REMARK  2 active torsions:
REMARK  status: ('A' for Active; 'I' for Inactive)
REMARK    1  A    between atoms: C1_2  and  C2_3 
REMARK    2  A    between atoms: C2_3  and  C3_4 
ROOT
ATOM      1  C3  UNL d   1       1.030  -0.521  -0.820  0.00  0.00    -0.075 A 
ATOM      2  C4  UNL d   1       0.950   0.812  -1.249  0.00  0.00     0.002 A 
ATOM      3  C5  UNL d   1       2.025   1.409  -1.908  0.00  0.00     0.002 A 
ATOM      4  C6  UNL d   1       3.195   0.687  -2.136  0.00  0.00    -0.004 A 
ATOM      5  C7  UNL d   1       3.291  -0.632  -1.699  0.00  0.00     0.002 A 
ATOM      6  C8  UNL d   1       2.215  -1.234  -1.044  0.00  0.00     0.002 A 
ENDROOT
BRANCH   1   7
ATOM      7  C2  UNL d   1      -0.141  -1.182  -0.133  0.00  0.00     0.056 C 
BRANCH   7   8
ATOM      8  C1  UNL d   1      -1.346  -0.259   0.073  0.00  0.00     0.007 C 
ATOM      9  C   UNL d   1      -1.399   0.359   1.464  0.00  0.00     0.009 C 
ENDBRANCH   7   8
ENDBRANCH   1   7
TORSDOF 2
ENDMDL
