MODEL 1
REMARK minimizedAffinity -0.17495513
REMARK minimizedRMSD -1
REMARK  2 active torsions:
REMARK  status: ('A' for Active; 'I' for Inactive)
REMARK    1  A    between atoms: C1_2  and  C2_3 
REMARK    2  A    between atoms: C2_3  and  C3_4 
ROOT
ATOM      1  C3  UNL d   1       4.890  -2.104   4.579  0.00  0.00    -0.075 A 
ATOM      2  C4  UNL d   1       5.444  -2.924   5.573  0.00  0.00     0.002 A 
ATOM      3  C5  UNL d   1       6.000  -4.160   5.242  0.00  0.00     0.002 A 
ATOM      4  C6  UNL d   1       5.999  -4.596   3.919  0.00  0.00    -0.004 A 
ATOM      5  C7  UNL d   1       5.436  -3.797   2.926  0.00  0.00     0.002 A 
ATOM      6  C8  UNL d   1       4.883  -2.557   3.253  0.00  0.00     0.002 A 
ENDROOT
BRANCH   1   7
ATOM      7  C2  UNL d   1       4.314  -0.752   4.926  0.00  0.00     0.056 C 
BRANCH   7   8
ATOM      8  C1  UNL d   1       5.192   0.077   5.870  0.00  0.00     0.007 C 
ATOM      9  C   UNL d   1       6.000   1.149   5.151  0.00  0.00     0.009 C 
ENDBRANCH   7   8
ENDBRANCH   1   7
TORSDOF 2
ENDMDL
