MODEL 1
REMARK minimizedAffinity -4.27161312
REMARK minimizedRMSD -1
REMARK  2 active torsions:
REMARK  status: ('A' for Active; 'I' for Inactive)
REMARK    1  A    between atoms: C1_2  and  C2_3 
REMARK    2  A    between atoms: C2_3  and  C3_4 
ROOT
ATOM      1  C3  UNL d   1       4.168  -3.702   4.199  0.00  0.00    -0.075 A 
ATOM      2  C4  UNL d   1       4.168  -2.502   3.473  0.00  0.00     0.002 A 
ATOM      3  C5  UNL d   1       5.083  -1.493   3.775  0.00  0.00     0.002 A 
ATOM      4  C6  UNL d   1       6.000  -1.666   4.809  0.00  0.00    -0.004 A 
ATOM      5  C7  UNL d   1       5.997  -2.847   5.548  0.00  0.00     0.002 A 
ATOM      6  C8  UNL d   1       5.086  -3.861   5.245  0.00  0.00     0.002 A 
ENDROOT
BRANCH   1   7
ATOM      7  C2  UNL d   1       3.200  -4.810   3.858  0.00  0.00     0.056 C 
BRANCH   7   8
ATOM      8  C1  UNL d   1       3.399  -5.405   2.460  0.00  0.00     0.007 C 
ATOM      9  C   UNL d   1       2.233  -5.132   1.519  0.00  0.00     0.009 C 
ENDBRANCH   7   8
ENDBRANCH   1   7
TORSDOF 2
ENDMDL
