MODEL 1
REMARK minimizedAffinity -5.43438292
REMARK minimizedRMSD -1
REMARK  2 active torsions:
REMARK  status: ('A' for Active; 'I' for Inactive)
REMARK    1  A    between atoms: C2'_3  and  C1'_4 
REMARK    2  A    between atoms: C1'_4  and  C1_5 
ROOT
ATOM      1  C1  I4B d   1       0.560   1.343   0.751  0.00  0.00    -0.075 A 
ATOM      2  C2  I4B d   1       0.200   0.030   0.928  0.00  0.00     0.003 A 
ATOM      3  C3  I4B d   1      -1.004  -0.295   1.598  0.00  0.00     0.002 A 
ATOM      4  C4  I4B d   1      -1.788   0.716   2.116  0.00  0.00    -0.004 A 
ATOM      5  C5  I4B d   1      -1.433   2.047   1.916  0.00  0.00     0.002 A 
ATOM      6  C6  I4B d   1      -0.259   2.363   1.219  0.00  0.00     0.003 A 
ENDROOT
BRANCH   1   7
ATOM      7  C1' I4B d   1       1.855   1.650   0.068  0.00  0.00     0.060 C 
BRANCH   7   8
ATOM      8  C2' I4B d   1       2.183   0.492  -0.852  0.00  0.00    -0.013 C 
ATOM      9  C4' I4B d   1       2.933   0.959  -2.071  0.00  0.00     0.013 C 
ATOM     10  C3' I4B d   1       2.987  -0.505  -0.071  0.00  0.00     0.013 C 
ENDBRANCH   7   8
ENDBRANCH   1   7
TORSDOF 2
ENDMDL
