MODEL 1
REMARK minimizedAffinity 2.20995307
REMARK minimizedRMSD -1
REMARK  2 active torsions:
REMARK  status: ('A' for Active; 'I' for Inactive)
REMARK    1  A    between atoms: C2'_3  and  C1'_4 
REMARK    2  A    between atoms: C1'_4  and  C1_5 
ROOT
ATOM      1  C1  I4B d   1      -1.435   1.870   2.137  0.00  0.00    -0.075 A 
ATOM      2  C2  I4B d   1      -1.208   0.598   2.601  0.00  0.00     0.003 A 
ATOM      3  C3  I4B d   1      -0.144  -0.173   2.074  0.00  0.00     0.002 A 
ATOM      4  C4  I4B d   1       0.632   0.343   1.057  0.00  0.00    -0.004 A 
ATOM      5  C5  I4B d   1       0.415   1.641   0.604  0.00  0.00     0.002 A 
ATOM      6  C6  I4B d   1      -0.616   2.415   1.156  0.00  0.00     0.003 A 
ENDROOT
BRANCH   1   7
ATOM      7  C1' I4B d   1      -2.588   2.645   2.692  0.00  0.00     0.060 C 
BRANCH   7   8
ATOM      8  C2' I4B d   1      -3.117   1.895   3.897  0.00  0.00    -0.013 C 
ATOM      9  C4' I4B d   1      -4.148   2.708   4.635  0.00  0.00     0.013 C 
ATOM     10  C3' I4B d   1      -3.693   0.596   3.417  0.00  0.00     0.013 C 
ENDBRANCH   7   8
ENDBRANCH   1   7
TORSDOF 2
ENDMDL
