MODEL 1
REMARK minimizedAffinity -4.81719589
REMARK minimizedRMSD -1
REMARK  2 active torsions:
REMARK  status: ('A' for Active; 'I' for Inactive)
REMARK    1  A    between atoms: C2'_3  and  C1'_4 
REMARK    2  A    between atoms: C1'_4  and  C1_5 
ROOT
ATOM      1  C1  I4B d   1      -1.623   1.430   2.088  0.00  0.00    -0.075 A 
ATOM      2  C2  I4B d   1      -0.462   2.104   1.800  0.00  0.00     0.003 A 
ATOM      3  C3  I4B d   1       0.651   1.410   1.265  0.00  0.00     0.002 A 
ATOM      4  C4  I4B d   1       0.576   0.044   1.083  0.00  0.00    -0.004 A 
ATOM      5  C5  I4B d   1      -0.609  -0.633   1.353  0.00  0.00     0.002 A 
ATOM      6  C6  I4B d   1      -1.720   0.066   1.847  0.00  0.00     0.003 A 
ENDROOT
BRANCH   1   7
ATOM      7  C1' I4B d   1      -2.768   2.188   2.682  0.00  0.00     0.060 C 
BRANCH   7   8
ATOM      8  C2' I4B d   1      -3.279   1.402   3.873  0.00  0.00    -0.013 C 
ATOM      9  C4' I4B d   1      -4.447   2.096   4.522  0.00  0.00     0.013 C 
ATOM     10  C3' I4B d   1      -3.660   0.033   3.395  0.00  0.00     0.013 C 
ENDBRANCH   7   8
ENDBRANCH   1   7
TORSDOF 2
ENDMDL
