MODEL 1
REMARK minimizedAffinity 2.79507279
REMARK minimizedRMSD -1
REMARK  2 active torsions:
REMARK  status: ('A' for Active; 'I' for Inactive)
REMARK    1  A    between atoms: C2'_3  and  C1'_4 
REMARK    2  A    between atoms: C1'_4  and  C1_5 
ROOT
ATOM      1  C1  I4B d   1      -1.552   1.652   2.586  0.00  0.00    -0.075 A 
ATOM      2  C2  I4B d   1      -0.601   2.255   1.801  0.00  0.00     0.003 A 
ATOM      3  C3  I4B d   1       0.137   1.493   0.863  0.00  0.00     0.002 A 
ATOM      4  C4  I4B d   1      -0.072   0.131   0.778  0.00  0.00    -0.004 A 
ATOM      5  C5  I4B d   1      -1.053  -0.474   1.559  0.00  0.00     0.002 A 
ATOM      6  C6  I4B d   1      -1.806   0.292   2.460  0.00  0.00     0.003 A 
ENDROOT
BRANCH   1   7
ATOM      7  C1' I4B d   1      -2.289   2.480   3.590  0.00  0.00     0.060 C 
BRANCH   7   8
ATOM      8  C2' I4B d   1      -3.705   1.950   3.684  0.00  0.00    -0.013 C 
ATOM      9  C4' I4B d   1      -3.716   0.459   3.896  0.00  0.00     0.013 C 
ATOM     10  C3' I4B d   1      -4.393   2.662   4.810  0.00  0.00     0.013 C 
ENDBRANCH   7   8
ENDBRANCH   1   7
TORSDOF 2
ENDMDL
