MODEL 1
REMARK minimizedAffinity -0.544301152
REMARK minimizedRMSD -1
REMARK  2 active torsions:
REMARK  status: ('A' for Active; 'I' for Inactive)
REMARK    1  A    between atoms: C2'_3  and  C1'_4 
REMARK    2  A    between atoms: C1'_4  and  C1_5 
ROOT
ATOM      1  C1  I4B d   1      -3.021   1.361   3.003  0.00  0.00    -0.075 A 
ATOM      2  C2  I4B d   1      -2.473   0.192   2.536  0.00  0.00     0.003 A 
ATOM      3  C3  I4B d   1      -1.207   0.201   1.903  0.00  0.00     0.002 A 
ATOM      4  C4  I4B d   1      -0.550   1.400   1.713  0.00  0.00    -0.004 A 
ATOM      5  C5  I4B d   1      -1.096   2.581   2.208  0.00  0.00     0.002 A 
ATOM      6  C6  I4B d   1      -2.333   2.561   2.868  0.00  0.00     0.003 A 
ENDROOT
BRANCH   1   7
ATOM      7  C1' I4B d   1      -4.375   1.320   3.637  0.00  0.00     0.060 C 
BRANCH   7   8
ATOM      8  C2' I4B d   1      -4.383   2.311   4.784  0.00  0.00    -0.013 C 
ATOM      9  C4' I4B d   1      -5.217   3.520   4.453  0.00  0.00     0.013 C 
ATOM     10  C3' I4B d   1      -4.908   1.607   6.000  0.00  0.00     0.013 C 
ENDBRANCH   7   8
ENDBRANCH   1   7
TORSDOF 2
ENDMDL
