MODEL 1
REMARK minimizedAffinity 3.65237188
REMARK minimizedRMSD -1
REMARK  2 active torsions:
REMARK  status: ('A' for Active; 'I' for Inactive)
REMARK    1  A    between atoms: C2'_3  and  C1'_4 
REMARK    2  A    between atoms: C1'_4  and  C1_5 
ROOT
ATOM      1  C1  I4B d   1      -1.514   1.617   2.838  0.00  0.00    -0.075 A 
ATOM      2  C2  I4B d   1      -0.631   2.345   2.080  0.00  0.00     0.003 A 
ATOM      3  C3  I4B d   1       0.187   1.700   1.121  0.00  0.00     0.002 A 
ATOM      4  C4  I4B d   1       0.125   0.328   0.989  0.00  0.00    -0.004 A 
ATOM      5  C5  I4B d   1      -0.787  -0.406   1.741  0.00  0.00     0.002 A 
ATOM      6  C6  I4B d   1      -1.621   0.243   2.663  0.00  0.00     0.003 A 
ENDROOT
BRANCH   1   7
ATOM      7  C1' I4B d   1      -2.339   2.326   3.865  0.00  0.00     0.060 C 
BRANCH   7   8
ATOM      8  C2' I4B d   1      -3.765   1.829   3.742  0.00  0.00    -0.013 C 
ATOM      9  C4' I4B d   1      -3.833   0.330   3.871  0.00  0.00     0.013 C 
ATOM     10  C3' I4B d   1      -4.582   2.502   4.805  0.00  0.00     0.013 C 
ENDBRANCH   7   8
ENDBRANCH   1   7
TORSDOF 2
ENDMDL
