MODEL 1
REMARK minimizedAffinity 2.3429935
REMARK minimizedRMSD -1
REMARK  2 active torsions:
REMARK  status: ('A' for Active; 'I' for Inactive)
REMARK    1  A    between atoms: C2'_3  and  C1'_4 
REMARK    2  A    between atoms: C1'_4  and  C1_5 
ROOT
ATOM      1  C1  I4B d   1      -0.094   0.511   1.440  0.00  0.00    -0.075 A 
ATOM      2  C2  I4B d   1       0.597  -0.450   2.134  0.00  0.00     0.003 A 
ATOM      3  C3  I4B d   1       1.915  -0.798   1.752  0.00  0.00     0.002 A 
ATOM      4  C4  I4B d   1       2.482  -0.198   0.645  0.00  0.00    -0.004 A 
ATOM      5  C5  I4B d   1       1.789   0.793  -0.044  0.00  0.00     0.002 A 
ATOM      6  C6  I4B d   1       0.498   1.159   0.363  0.00  0.00     0.003 A 
ENDROOT
BRANCH   1   7
ATOM      7  C1' I4B d   1      -1.496   0.830   1.851  0.00  0.00     0.060 C 
BRANCH   7   8
ATOM      8  C2' I4B d   1      -1.443   1.965   2.853  0.00  0.00    -0.013 C 
ATOM      9  C4' I4B d   1      -0.903   3.222   2.224  0.00  0.00     0.013 C 
ATOM     10  C3' I4B d   1      -2.828   2.177   3.386  0.00  0.00     0.013 C 
ENDBRANCH   7   8
ENDBRANCH   1   7
TORSDOF 2
ENDMDL
