MODEL 1
REMARK minimizedAffinity -0.533848584
REMARK minimizedRMSD -1
REMARK  2 active torsions:
REMARK  status: ('A' for Active; 'I' for Inactive)
REMARK    1  A    between atoms: C2'_3  and  C1'_4 
REMARK    2  A    between atoms: C1'_4  and  C1_5 
ROOT
ATOM      1  C1  I4B d   1      -4.437   1.544   4.110  0.00  0.00    -0.075 A 
ATOM      2  C2  I4B d   1      -3.479   1.930   5.014  0.00  0.00     0.003 A 
ATOM      3  C3  I4B d   1      -3.776   2.909   5.993  0.00  0.00     0.002 A 
ATOM      4  C4  I4B d   1      -5.019   3.509   5.999  0.00  0.00    -0.004 A 
ATOM      5  C5  I4B d   1      -5.996   3.100   5.096  0.00  0.00     0.002 A 
ATOM      6  C6  I4B d   1      -5.708   2.103   4.153  0.00  0.00     0.003 A 
ENDROOT
BRANCH   1   7
ATOM      7  C1' I4B d   1      -4.079   0.531   3.069  0.00  0.00     0.060 C 
BRANCH   7   8
ATOM      8  C2' I4B d   1      -2.574   0.354   3.087  0.00  0.00    -0.013 C 
ATOM      9  C4' I4B d   1      -2.194  -1.093   2.918  0.00  0.00     0.013 C 
ATOM     10  C3' I4B d   1      -1.995   1.199   1.992  0.00  0.00     0.013 C 
ENDBRANCH   7   8
ENDBRANCH   1   7
TORSDOF 2
ENDMDL
