MODEL 1
REMARK minimizedAffinity -4.68228769
REMARK minimizedRMSD -1
REMARK  2 active torsions:
REMARK  status: ('A' for Active; 'I' for Inactive)
REMARK    1  A    between atoms: C2'_3  and  C1'_4 
REMARK    2  A    between atoms: C1'_4  and  C1_5 
ROOT
ATOM      1  C1  I4B d   1      -1.610   1.410   2.199  0.00  0.00    -0.075 A 
ATOM      2  C2  I4B d   1      -2.707   1.859   2.892  0.00  0.00     0.003 A 
ATOM      3  C3  I4B d   1      -3.598   0.936   3.491  0.00  0.00     0.002 A 
ATOM      4  C4  I4B d   1      -3.383  -0.417   3.331  0.00  0.00    -0.004 A 
ATOM      5  C5  I4B d   1      -2.259  -0.870   2.648  0.00  0.00     0.002 A 
ATOM      6  C6  I4B d   1      -1.359   0.049   2.088  0.00  0.00     0.003 A 
ENDROOT
BRANCH   1   7
ATOM      7  C1' I4B d   1      -0.708   2.412   1.550  0.00  0.00     0.060 C 
BRANCH   7   8
ATOM      8  C2' I4B d   1       0.621   1.737   1.279  0.00  0.00    -0.013 C 
ATOM      9  C4' I4B d   1       0.575   0.932   0.007  0.00  0.00     0.013 C 
ATOM     10  C3' I4B d   1       1.675   2.801   1.210  0.00  0.00     0.013 C 
ENDBRANCH   7   8
ENDBRANCH   1   7
TORSDOF 2
ENDMDL
