MODEL 1
REMARK minimizedAffinity -3.38050222
REMARK minimizedRMSD -1
REMARK  2 active torsions:
REMARK  status: ('A' for Active; 'I' for Inactive)
REMARK    1  A    between atoms: C2'_3  and  C1'_4 
REMARK    2  A    between atoms: C1'_4  and  C1_5 
ROOT
ATOM      1  C1  I4B d   1      -1.397   0.410   1.880  0.00  0.00    -0.075 A 
ATOM      2  C2  I4B d   1      -0.794   1.467   1.247  0.00  0.00     0.003 A 
ATOM      3  C3  I4B d   1       0.456   1.294   0.604  0.00  0.00     0.002 A 
ATOM      4  C4  I4B d   1       1.086   0.068   0.662  0.00  0.00    -0.004 A 
ATOM      5  C5  I4B d   1       0.463  -1.009   1.285  0.00  0.00     0.002 A 
ATOM      6  C6  I4B d   1      -0.793  -0.841   1.888  0.00  0.00     0.003 A 
ENDROOT
BRANCH   1   7
ATOM      7  C1' I4B d   1      -2.701   0.636   2.578  0.00  0.00     0.060 C 
BRANCH   7   8
ATOM      8  C2' I4B d   1      -2.640   1.990   3.253  0.00  0.00    -0.013 C 
ATOM      9  C4' I4B d   1      -2.461   3.095   2.246  0.00  0.00     0.013 C 
ATOM     10  C3' I4B d   1      -3.905   2.174   4.038  0.00  0.00     0.013 C 
ENDBRANCH   7   8
ENDBRANCH   1   7
TORSDOF 2
ENDMDL
