MODEL 1
REMARK minimizedAffinity 0.437900066
REMARK minimizedRMSD -1
REMARK  2 active torsions:
REMARK  status: ('A' for Active; 'I' for Inactive)
REMARK    1  A    between atoms: C2'_3  and  C1'_4 
REMARK    2  A    between atoms: C1'_4  and  C1_5 
ROOT
ATOM      1  C1  I4B d   1      -0.813   1.809   2.086  0.00  0.00    -0.075 A 
ATOM      2  C2  I4B d   1      -0.312   0.768   2.827  0.00  0.00     0.003 A 
ATOM      3  C3  I4B d   1       0.928   0.179   2.481  0.00  0.00     0.002 A 
ATOM      4  C4  I4B d   1       1.603   0.624   1.363  0.00  0.00    -0.004 A 
ATOM      5  C5  I4B d   1       1.105   1.695   0.626  0.00  0.00     0.002 A 
ATOM      6  C6  I4B d   1      -0.105   2.300   0.997  0.00  0.00     0.003 A 
ENDROOT
BRANCH   1   7
ATOM      7  C1' I4B d   1      -2.141   2.387   2.461  0.00  0.00     0.060 C 
BRANCH   7   8
ATOM      8  C2' I4B d   1      -2.786   1.459   3.470  0.00  0.00    -0.013 C 
ATOM      9  C4' I4B d   1      -4.016   2.082   4.076  0.00  0.00     0.013 C 
ATOM     10  C3' I4B d   1      -3.117   0.174   2.772  0.00  0.00     0.013 C 
ENDBRANCH   7   8
ENDBRANCH   1   7
TORSDOF 2
ENDMDL
