MODEL 1
REMARK minimizedAffinity 1.15996861
REMARK minimizedRMSD -1
REMARK  2 active torsions:
REMARK  status: ('A' for Active; 'I' for Inactive)
REMARK    1  A    between atoms: C2'_3  and  C1'_4 
REMARK    2  A    between atoms: C1'_4  and  C1_5 
ROOT
ATOM      1  C1  I4B d   1      -1.153   1.862   1.722  0.00  0.00    -0.075 A 
ATOM      2  C2  I4B d   1       0.025   2.292   2.280  0.00  0.00     0.003 A 
ATOM      3  C3  I4B d   1       1.248   1.668   1.933  0.00  0.00     0.002 A 
ATOM      4  C4  I4B d   1       1.241   0.592   1.070  0.00  0.00    -0.004 A 
ATOM      5  C5  I4B d   1       0.048   0.172   0.487  0.00  0.00     0.002 A 
ATOM      6  C6  I4B d   1      -1.155   0.818   0.806  0.00  0.00     0.003 A 
ENDROOT
BRANCH   1   7
ATOM      7  C1' I4B d   1      -2.430   2.522   2.135  0.00  0.00     0.060 C 
BRANCH   7   8
ATOM      8  C2' I4B d   1      -2.969   1.781   3.342  0.00  0.00    -0.013 C 
ATOM      9  C4' I4B d   1      -4.187   2.466   3.903  0.00  0.00     0.013 C 
ATOM     10  C3' I4B d   1      -3.283   0.376   2.921  0.00  0.00     0.013 C 
ENDBRANCH   7   8
ENDBRANCH   1   7
TORSDOF 2
ENDMDL
