MODEL 1
REMARK minimizedAffinity -2.52999735
REMARK minimizedRMSD -1
REMARK  2 active torsions:
REMARK  status: ('A' for Active; 'I' for Inactive)
REMARK    1  A    between atoms: C2'_3  and  C1'_4 
REMARK    2  A    between atoms: C1'_4  and  C1_5 
ROOT
ATOM      1  C1  I4B d   1      -0.781   0.684   0.499  0.00  0.00    -0.075 A 
ATOM      2  C2  I4B d   1       0.533   0.290   0.479  0.00  0.00     0.003 A 
ATOM      3  C3  I4B d   1       0.898  -0.998   0.941  0.00  0.00     0.002 A 
ATOM      4  C4  I4B d   1      -0.070  -1.834   1.458  0.00  0.00    -0.004 A 
ATOM      5  C5  I4B d   1      -1.405  -1.442   1.457  0.00  0.00     0.002 A 
ATOM      6  C6  I4B d   1      -1.765  -0.179   0.963  0.00  0.00     0.003 A 
ENDROOT
BRANCH   1   7
ATOM      7  C1' I4B d   1      -1.127   2.063   0.034  0.00  0.00     0.060 C 
BRANCH   7   8
ATOM      8  C2' I4B d   1      -0.813   3.028   1.160  0.00  0.00    -0.013 C 
ATOM      9  C4' I4B d   1      -1.316   2.507   2.480  0.00  0.00     0.013 C 
ATOM     10  C3' I4B d   1       0.671   3.236   1.190  0.00  0.00     0.013 C 
ENDBRANCH   7   8
ENDBRANCH   1   7
TORSDOF 2
ENDMDL
