MODEL 1
REMARK minimizedAffinity 0.987373054
REMARK minimizedRMSD -1
REMARK  2 active torsions:
REMARK  status: ('A' for Active; 'I' for Inactive)
REMARK    1  A    between atoms: C2'_3  and  C1'_4 
REMARK    2  A    between atoms: C1'_4  and  C1_5 
ROOT
ATOM      1  C1  I4B d   1      -3.846   1.295   3.953  0.00  0.00    -0.075 A 
ATOM      2  C2  I4B d   1      -5.210   1.142   3.946  0.00  0.00     0.003 A 
ATOM      3  C3  I4B d   1      -5.999   1.734   4.961  0.00  0.00     0.002 A 
ATOM      4  C4  I4B d   1      -5.383   2.423   5.986  0.00  0.00    -0.004 A 
ATOM      5  C5  I4B d   1      -4.002   2.597   5.979  0.00  0.00     0.002 A 
ATOM      6  C6  I4B d   1      -3.229   2.040   4.950  0.00  0.00     0.003 A 
ENDROOT
BRANCH   1   7
ATOM      7  C1' I4B d   1      -3.040   0.629   2.884  0.00  0.00     0.060 C 
BRANCH   7   8
ATOM      8  C2' I4B d   1      -1.735   1.386   2.742  0.00  0.00    -0.013 C 
ATOM      9  C4' I4B d   1      -0.643   0.496   2.210  0.00  0.00     0.013 C 
ATOM     10  C3' I4B d   1      -1.974   2.553   1.832  0.00  0.00     0.013 C 
ENDBRANCH   7   8
ENDBRANCH   1   7
TORSDOF 2
ENDMDL
