MODEL 1
REMARK minimizedAffinity -3.5717628
REMARK minimizedRMSD -1
REMARK  0 active torsions:
REMARK  status: ('A' for Active; 'I' for Inactive)
ROOT
ATOM      1  C   UNL d   1      -0.906   0.553   0.019  0.00  0.00     0.172 C 
ATOM      2  N   UNL d   1       0.267  -0.283   0.127  0.00  0.00    -0.070 N 
ATOM      3  C1  UNL d   1       1.174  -0.256   1.152  0.00  0.00    -0.004 A 
ATOM      4  C2  UNL d   1       2.141  -1.201   0.884  0.00  0.00    -0.047 A 
ATOM      5  C3  UNL d   1       1.804  -1.816  -0.344  0.00  0.00    -0.047 A 
ATOM      6  C4  UNL d   1       0.639  -1.229  -0.791  0.00  0.00    -0.004 A 
ENDROOT
TORSDOF 0
ENDMDL
