MODEL 1
REMARK minimizedAffinity -3.23226309
REMARK minimizedRMSD -1
REMARK  0 active torsions:
REMARK  status: ('A' for Active; 'I' for Inactive)
ROOT
ATOM      1  C   UNL d   1      -0.362   0.373  -0.254  0.00  0.00     0.172 C 
ATOM      2  N   UNL d   1       0.513  -0.422   0.575  0.00  0.00    -0.070 N 
ATOM      3  C1  UNL d   1       0.235  -0.855   1.844  0.00  0.00    -0.004 A 
ATOM      4  C2  UNL d   1       1.318  -1.580   2.290  0.00  0.00    -0.047 A 
ATOM      5  C3  UNL d   1       2.281  -1.584   1.253  0.00  0.00    -0.047 A 
ATOM      6  C4  UNL d   1       1.757  -0.859   0.203  0.00  0.00    -0.004 A 
ENDROOT
TORSDOF 0
ENDMDL
