MODEL 1
REMARK minimizedAffinity -2.45603275
REMARK minimizedRMSD -1
REMARK  0 active torsions:
REMARK  status: ('A' for Active; 'I' for Inactive)
ROOT
ATOM      1  C   UNL d   1      -1.099  -0.334  -0.409  0.00  0.00     0.172 C 
ATOM      2  N   UNL d   1       0.019   0.325   0.224  0.00  0.00    -0.070 N 
ATOM      3  C1  UNL d   1       0.859  -0.238   1.147  0.00  0.00    -0.004 A 
ATOM      4  C2  UNL d   1       1.791   0.713   1.505  0.00  0.00    -0.047 A 
ATOM      5  C3  UNL d   1       1.499   1.888   0.773  0.00  0.00    -0.047 A 
ATOM      6  C4  UNL d   1       0.398   1.620  -0.012  0.00  0.00    -0.004 A 
ENDROOT
TORSDOF 0
ENDMDL
