MODEL 1
REMARK minimizedAffinity -4.0425806
REMARK minimizedRMSD -1
REMARK  0 active torsions:
REMARK  status: ('A' for Active; 'I' for Inactive)
ROOT
ATOM      1  C   UNL d   1      -0.397   0.938  -0.211  0.00  0.00     0.172 C 
ATOM      2  N   UNL d   1       0.601  -0.084  -0.001  0.00  0.00    -0.070 N 
ATOM      3  C1  UNL d   1       1.767   0.070   0.701  0.00  0.00    -0.004 A 
ATOM      4  C2  UNL d   1       2.440  -1.131   0.670  0.00  0.00    -0.047 A 
ATOM      5  C3  UNL d   1       1.653  -2.039  -0.078  0.00  0.00    -0.047 A 
ATOM      6  C4  UNL d   1       0.521  -1.364  -0.481  0.00  0.00    -0.004 A 
ENDROOT
TORSDOF 0
ENDMDL
