MODEL 1
REMARK minimizedAffinity -3.6152091
REMARK minimizedRMSD -1
REMARK  0 active torsions:
REMARK  status: ('A' for Active; 'I' for Inactive)
ROOT
ATOM      1  C   UNL d   1      -0.568   0.012  -0.364  0.00  0.00     0.172 C 
ATOM      2  N   UNL d   1       0.679  -0.382   0.248  0.00  0.00    -0.070 N 
ATOM      3  C1  UNL d   1       1.708  -1.031  -0.382  0.00  0.00    -0.004 A 
ATOM      4  C2  UNL d   1       2.713  -1.225   0.542  0.00  0.00    -0.047 A 
ATOM      5  C3  UNL d   1       2.272  -0.675   1.769  0.00  0.00    -0.047 A 
ATOM      6  C4  UNL d   1       1.010  -0.160   1.559  0.00  0.00    -0.004 A 
ENDROOT
TORSDOF 0
ENDMDL
