MODEL 1
REMARK minimizedAffinity -5.0682354
REMARK minimizedRMSD -1
REMARK  0 active torsions:
REMARK  status: ('A' for Active; 'I' for Inactive)
ROOT
ATOM      1  C4' PXY d   1      -0.011  -2.073   0.331  0.00  0.00     0.077 C 
ATOM      2  C1' PXY d   1       0.053   3.688  -0.145  0.00  0.00     0.077 C 
ATOM      3  C1  PXY d   1       0.026   2.178  -0.012  0.00  0.00    -0.082 A 
ATOM      4  C2  PXY d   1       1.106   1.476  -0.315  0.00  0.00     0.003 A 
ATOM      5  C3  PXY d   1       1.089   0.107  -0.230  0.00  0.00     0.003 A 
ATOM      6  C4  PXY d   1      -0.027  -0.546   0.220  0.00  0.00    -0.082 A 
ATOM      7  C5  PXY d   1      -1.129   0.165   0.541  0.00  0.00     0.003 A 
ATOM      8  C6  PXY d   1      -1.105   1.550   0.409  0.00  0.00     0.003 A 
ENDROOT
TORSDOF 0
ENDMDL
