MODEL 1
REMARK minimizedAffinity -2.31418991
REMARK minimizedRMSD -1
REMARK  0 active torsions:
REMARK  status: ('A' for Active; 'I' for Inactive)
ROOT
ATOM      1  C4' PXY d   1       0.026  -1.589  -0.107  0.00  0.00     0.077 C 
ATOM      2  C1' PXY d   1       0.501   4.167   0.137  0.00  0.00     0.077 C 
ATOM      3  C1  PXY d   1       0.368   2.658   0.082  0.00  0.00    -0.082 A 
ATOM      4  C2  PXY d   1       1.363   1.930  -0.397  0.00  0.00     0.003 A 
ATOM      5  C3  PXY d   1       1.247   0.566  -0.483  0.00  0.00     0.003 A 
ATOM      6  C4  PXY d   1       0.121  -0.063  -0.025  0.00  0.00    -0.082 A 
ATOM      7  C5  PXY d   1      -0.895   0.672   0.475  0.00  0.00     0.003 A 
ATOM      8  C6  PXY d   1      -0.774   2.058   0.516  0.00  0.00     0.003 A 
ENDROOT
TORSDOF 0
ENDMDL
