MODEL 1
REMARK minimizedAffinity -2.43626046
REMARK minimizedRMSD -1
REMARK  0 active torsions:
REMARK  status: ('A' for Active; 'I' for Inactive)
ROOT
ATOM      1  C4' PXY d   1      -1.052  -1.796   0.821  0.00  0.00     0.077 C 
ATOM      2  C1' PXY d   1       0.425   3.533  -0.862  0.00  0.00     0.077 C 
ATOM      3  C1  PXY d   1       0.044   2.130  -0.431  0.00  0.00    -0.082 A 
ATOM      4  C2  PXY d   1      -1.047   1.942   0.293  0.00  0.00     0.003 A 
ATOM      5  C3  PXY d   1      -1.389   0.684   0.719  0.00  0.00     0.003 A 
ATOM      6  C4  PXY d   1      -0.634  -0.399   0.355  0.00  0.00    -0.082 A 
ATOM      7  C5  PXY d   1       0.475  -0.216  -0.392  0.00  0.00     0.003 A 
ATOM      8  C6  PXY d   1       0.827   1.073  -0.780  0.00  0.00     0.003 A 
ENDROOT
TORSDOF 0
ENDMDL
