MODEL 1
REMARK minimizedAffinity -3.80101275
REMARK minimizedRMSD -1
REMARK  0 active torsions:
REMARK  status: ('A' for Active; 'I' for Inactive)
ROOT
ATOM      1  C4' PXY d   1      -0.088   3.268  -0.436  0.00  0.00     0.077 C 
ATOM      2  C1' PXY d   1      -0.309  -2.457   0.336  0.00  0.00     0.077 C 
ATOM      3  C1  PXY d   1      -0.264  -0.955   0.135  0.00  0.00    -0.082 A 
ATOM      4  C2  PXY d   1       0.765  -0.410  -0.494  0.00  0.00     0.003 A 
ATOM      5  C3  PXY d   1       0.837   0.950  -0.657  0.00  0.00     0.003 A 
ATOM      6  C4  PXY d   1      -0.180   1.755  -0.218  0.00  0.00    -0.082 A 
ATOM      7  C5  PXY d   1      -1.238   1.206   0.415  0.00  0.00     0.003 A 
ATOM      8  C6  PXY d   1      -1.273  -0.173   0.606  0.00  0.00     0.003 A 
ENDROOT
TORSDOF 0
ENDMDL
