MODEL 1
REMARK minimizedAffinity -3.92713809
REMARK minimizedRMSD -1
REMARK  0 active torsions:
REMARK  status: ('A' for Active; 'I' for Inactive)
ROOT
ATOM      1  C4' PXY d   1      -0.413  -2.325   0.762  0.00  0.00     0.077 C 
ATOM      2  C1' PXY d   1       0.278   3.271  -0.509  0.00  0.00     0.077 C 
ATOM      3  C1  PXY d   1       0.108   1.801  -0.182  0.00  0.00    -0.082 A 
ATOM      4  C2  PXY d   1      -1.094   1.330   0.107  0.00  0.00     0.003 A 
ATOM      5  C3  PXY d   1      -1.262   0.009   0.436  0.00  0.00     0.003 A 
ATOM      6  C4  PXY d   1      -0.196  -0.850   0.417  0.00  0.00    -0.082 A 
ATOM      7  C5  PXY d   1       1.033  -0.379   0.113  0.00  0.00     0.003 A 
ATOM      8  C6  PXY d   1       1.188   0.973  -0.177  0.00  0.00     0.003 A 
ENDROOT
TORSDOF 0
ENDMDL
