MODEL 1
REMARK minimizedAffinity -4.08345699
REMARK minimizedRMSD -1
REMARK  0 active torsions:
REMARK  status: ('A' for Active; 'I' for Inactive)
ROOT
ATOM      1  C4' PXY d   1      -1.487   0.022   1.577  0.00  0.00     0.077 C 
ATOM      2  C1' PXY d   1       3.527   2.409  -0.027  0.00  0.00     0.077 C 
ATOM      3  C1  PXY d   1       2.209   1.794   0.399  0.00  0.00    -0.082 A 
ATOM      4  C2  PXY d   1       2.107   0.480   0.516  0.00  0.00     0.003 A 
ATOM      5  C3  PXY d   1       0.914  -0.094   0.869  0.00  0.00     0.003 A 
ATOM      6  C4  PXY d   1      -0.173   0.687   1.159  0.00  0.00    -0.082 A 
ATOM      7  C5  PXY d   1      -0.074   2.029   1.052  0.00  0.00     0.003 A 
ATOM      8  C6  PXY d   1       1.135   2.591   0.652  0.00  0.00     0.003 A 
ENDROOT
TORSDOF 0
ENDMDL
