MODEL 1
REMARK minimizedAffinity -0.840755701
REMARK minimizedRMSD -1
REMARK  0 active torsions:
REMARK  status: ('A' for Active; 'I' for Inactive)
ROOT
ATOM      1  C4' PXY d   1      -0.348  -2.145  -0.046  0.00  0.00     0.077 C 
ATOM      2  C1' PXY d   1      -0.018   3.612   0.347  0.00  0.00     0.077 C 
ATOM      3  C1  PXY d   1      -0.094   2.102   0.236  0.00  0.00    -0.082 A 
ATOM      4  C2  PXY d   1      -1.237   1.485   0.489  0.00  0.00     0.003 A 
ATOM      5  C3  PXY d   1      -1.315   0.117   0.424  0.00  0.00     0.003 A 
ATOM      6  C4  PXY d   1      -0.227  -0.622   0.045  0.00  0.00    -0.082 A 
ATOM      7  C5  PXY d   1       0.940   0.002  -0.225  0.00  0.00     0.003 A 
ATOM      8  C6  PXY d   1       1.009   1.387  -0.113  0.00  0.00     0.003 A 
ENDROOT
TORSDOF 0
ENDMDL
