MODEL 1
REMARK minimizedAffinity -2.53610086
REMARK minimizedRMSD -1
REMARK  0 active torsions:
REMARK  status: ('A' for Active; 'I' for Inactive)
ROOT
ATOM      1  C4' PXY d   1       3.300   1.089  -0.762  0.00  0.00     0.077 C 
ATOM      2  C1' PXY d   1      -1.749   2.509   1.669  0.00  0.00     0.077 C 
ATOM      3  C1  PXY d   1      -0.427   2.146   1.022  0.00  0.00    -0.082 A 
ATOM      4  C2  PXY d   1       0.098   0.950   1.234  0.00  0.00     0.003 A 
ATOM      5  C3  PXY d   1       1.308   0.616   0.683  0.00  0.00     0.003 A 
ATOM      6  C4  PXY d   1       1.963   1.496  -0.137  0.00  0.00    -0.082 A 
ATOM      7  C5  PXY d   1       1.429   2.714  -0.366  0.00  0.00     0.003 A 
ATOM      8  C6  PXY d   1       0.219   3.049   0.236  0.00  0.00     0.003 A 
ENDROOT
TORSDOF 0
ENDMDL
