MODEL 1
REMARK minimizedAffinity -3.2379787
REMARK minimizedRMSD -1
REMARK  0 active torsions:
REMARK  status: ('A' for Active; 'I' for Inactive)
ROOT
ATOM      1  C4' PXY d   1      -2.309   1.461   0.047  0.00  0.00     0.077 C 
ATOM      2  C1' PXY d   1       3.350   1.557   1.223  0.00  0.00     0.077 C 
ATOM      3  C1  PXY d   1       1.867   1.520   0.908  0.00  0.00    -0.082 A 
ATOM      4  C2  PXY d   1       1.174   2.647   0.892  0.00  0.00     0.003 A 
ATOM      5  C3  PXY d   1      -0.174   2.629   0.641  0.00  0.00     0.003 A 
ATOM      6  C4  PXY d   1      -0.808   1.451   0.350  0.00  0.00    -0.082 A 
ATOM      7  C5  PXY d   1      -0.106   0.298   0.355  0.00  0.00     0.003 A 
ATOM      8  C6  PXY d   1       1.253   0.333   0.653  0.00  0.00     0.003 A 
ENDROOT
TORSDOF 0
ENDMDL
