MODEL 1
REMARK minimizedAffinity -0.260831028
REMARK minimizedRMSD -1
REMARK  0 active torsions:
REMARK  status: ('A' for Active; 'I' for Inactive)
ROOT
ATOM      1  C4' PXY d   1      -2.475   1.694   0.766  0.00  0.00     0.077 C 
ATOM      2  C1' PXY d   1       3.060   0.024   0.750  0.00  0.00     0.077 C 
ATOM      3  C1  PXY d   1       1.611   0.471   0.763  0.00  0.00    -0.082 A 
ATOM      4  C2  PXY d   1       0.661  -0.378   0.408  0.00  0.00     0.003 A 
ATOM      5  C3  PXY d   1      -0.651   0.019   0.383  0.00  0.00     0.003 A 
ATOM      6  C4  PXY d   1      -1.000   1.283   0.777  0.00  0.00    -0.082 A 
ATOM      7  C5  PXY d   1      -0.037   2.153   1.151  0.00  0.00     0.003 A 
ATOM      8  C6  PXY d   1       1.293   1.742   1.130  0.00  0.00     0.003 A 
ENDROOT
TORSDOF 0
ENDMDL
