MODEL 1
REMARK minimizedAffinity -4.26665211
REMARK minimizedRMSD -1
REMARK  0 active torsions:
REMARK  status: ('A' for Active; 'I' for Inactive)
ROOT
ATOM      1  C4' PXY d   1      -4.395  -4.399  -0.337  0.00  0.00     0.077 C 
ATOM      2  C1' PXY d   1       0.634  -2.881  -2.750  0.00  0.00     0.077 C 
ATOM      3  C1  PXY d   1      -0.691  -3.274  -2.127  0.00  0.00    -0.082 A 
ATOM      4  C2  PXY d   1      -0.775  -3.442  -0.817  0.00  0.00     0.003 A 
ATOM      5  C3  PXY d   1      -1.957  -3.829  -0.241  0.00  0.00     0.003 A 
ATOM      6  C4  PXY d   1      -3.080  -3.993  -1.008  0.00  0.00    -0.082 A 
ATOM      7  C5  PXY d   1      -3.006  -3.813  -2.344  0.00  0.00     0.003 A 
ATOM      8  C6  PXY d   1      -1.786  -3.461  -2.914  0.00  0.00     0.003 A 
ENDROOT
TORSDOF 0
ENDMDL
