MODEL 1
REMARK minimizedAffinity -3.67393684
REMARK minimizedRMSD -1
REMARK  0 active torsions:
REMARK  status: ('A' for Active; 'I' for Inactive)
ROOT
ATOM      1  C4' PXY d   1      -0.453  -2.470  -0.616  0.00  0.00     0.077 C 
ATOM      2  C1' PXY d   1       0.615   3.211  -0.647  0.00  0.00     0.077 C 
ATOM      3  C1  PXY d   1       0.345   1.719  -0.631  0.00  0.00    -0.082 A 
ATOM      4  C2  PXY d   1      -0.328   1.166  -1.627  0.00  0.00     0.003 A 
ATOM      5  C3  PXY d   1      -0.608  -0.176  -1.613  0.00  0.00     0.003 A 
ATOM      6  C4  PXY d   1      -0.149  -0.969  -0.595  0.00  0.00    -0.082 A 
ATOM      7  C5  PXY d   1       0.547  -0.414   0.419  0.00  0.00     0.003 A 
ATOM      8  C6  PXY d   1       0.786   0.957   0.407  0.00  0.00     0.003 A 
ENDROOT
TORSDOF 0
ENDMDL
