MODEL 1
REMARK minimizedAffinity -4.06137085
REMARK minimizedRMSD -1
REMARK  0 active torsions:
REMARK  status: ('A' for Active; 'I' for Inactive)
ROOT
ATOM      1  C4' PXY d   1       0.509   3.888  -0.408  0.00  0.00     0.077 C 
ATOM      2  C1' PXY d   1      -0.278  -1.784   0.383  0.00  0.00     0.077 C 
ATOM      3  C1  PXY d   1      -0.084  -0.294   0.178  0.00  0.00    -0.082 A 
ATOM      4  C2  PXY d   1       0.893   0.137  -0.603  0.00  0.00     0.003 A 
ATOM      5  C3  PXY d   1       1.102   1.481  -0.773  0.00  0.00     0.003 A 
ATOM      6  C4  PXY d   1       0.270   2.393  -0.180  0.00  0.00    -0.082 A 
ATOM      7  C5  PXY d   1      -0.736   1.960   0.609  0.00  0.00     0.003 A 
ATOM      8  C6  PXY d   1      -0.906   0.592   0.802  0.00  0.00     0.003 A 
ENDROOT
TORSDOF 0
ENDMDL
