MODEL 1
REMARK minimizedAffinity -5.35054016
REMARK minimizedRMSD -1
REMARK  0 active torsions:
REMARK  status: ('A' for Active; 'I' for Inactive)
ROOT
ATOM      1  C4' PXY d   1       0.767   4.106   0.014  0.00  0.00     0.077 C 
ATOM      2  C1' PXY d   1      -0.472  -1.540   0.031  0.00  0.00     0.077 C 
ATOM      3  C1  PXY d   1      -0.160  -0.056   0.027  0.00  0.00    -0.082 A 
ATOM      4  C2  PXY d   1       1.008   0.365  -0.430  0.00  0.00     0.003 A 
ATOM      5  C3  PXY d   1       1.320   1.700  -0.411  0.00  0.00     0.003 A 
ATOM      6  C4  PXY d   1       0.405   2.619   0.029  0.00  0.00    -0.082 A 
ATOM      7  C5  PXY d   1      -0.793   2.198   0.486  0.00  0.00     0.003 A 
ATOM      8  C6  PXY d   1      -1.074   0.835   0.497  0.00  0.00     0.003 A 
ENDROOT
TORSDOF 0
ENDMDL
