MODEL 1
REMARK minimizedAffinity -2.01542544
REMARK minimizedRMSD -1
REMARK  0 active torsions:
REMARK  status: ('A' for Active; 'I' for Inactive)
ROOT
ATOM      1  C4' PXY d   1      -0.460  -2.441   0.015  0.00  0.00     0.077 C 
ATOM      2  C1' PXY d   1      -0.060   3.270   0.818  0.00  0.00     0.077 C 
ATOM      3  C1  PXY d   1      -0.154   1.773   0.599  0.00  0.00    -0.082 A 
ATOM      4  C2  PXY d   1      -1.303   1.151   0.814  0.00  0.00     0.003 A 
ATOM      5  C3  PXY d   1      -1.398  -0.207   0.651  0.00  0.00     0.003 A 
ATOM      6  C4  PXY d   1      -0.320  -0.929   0.214  0.00  0.00    -0.082 A 
ATOM      7  C5  PXY d   1       0.852  -0.301  -0.018  0.00  0.00     0.003 A 
ATOM      8  C6  PXY d   1       0.939   1.072   0.193  0.00  0.00     0.003 A 
ENDROOT
TORSDOF 0
ENDMDL
