MODEL 1
REMARK minimizedAffinity -1.71471131
REMARK minimizedRMSD -1
REMARK  0 active torsions:
REMARK  status: ('A' for Active; 'I' for Inactive)
ROOT
ATOM      1  C4' PXY d   1       3.044   0.430   0.845  0.00  0.00     0.077 C 
ATOM      2  C1' PXY d   1      -2.687   1.050   0.413  0.00  0.00     0.077 C 
ATOM      3  C1  PXY d   1      -1.183   0.900   0.526  0.00  0.00    -0.082 A 
ATOM      4  C2  PXY d   1      -0.603  -0.213   0.107  0.00  0.00     0.003 A 
ATOM      5  C3  PXY d   1       0.753  -0.378   0.232  0.00  0.00     0.003 A 
ATOM      6  C4  PXY d   1       1.529   0.628   0.741  0.00  0.00    -0.082 A 
ATOM      7  C5  PXY d   1       0.946   1.771   1.161  0.00  0.00     0.003 A 
ATOM      8  C6  PXY d   1      -0.436   1.902   1.064  0.00  0.00     0.003 A 
ENDROOT
TORSDOF 0
ENDMDL
