MODEL 1
REMARK minimizedAffinity -2.52796268
REMARK minimizedRMSD -1
REMARK  0 active torsions:
REMARK  status: ('A' for Active; 'I' for Inactive)
ROOT
ATOM      1  C4' PXY d   1      -0.878  -2.628   0.007  0.00  0.00     0.077 C 
ATOM      2  C1' PXY d   1       2.232   2.225  -0.430  0.00  0.00     0.077 C 
ATOM      3  C1  PXY d   1       1.427   0.946  -0.312  0.00  0.00    -0.082 A 
ATOM      4  C2  PXY d   1       0.307   0.812  -1.003  0.00  0.00     0.003 A 
ATOM      5  C3  PXY d   1      -0.450  -0.325  -0.883  0.00  0.00     0.003 A 
ATOM      6  C4  PXY d   1      -0.028  -1.358  -0.088  0.00  0.00    -0.082 A 
ATOM      7  C5  PXY d   1       1.119  -1.233   0.611  0.00  0.00     0.003 A 
ATOM      8  C6  PXY d   1       1.852  -0.054   0.508  0.00  0.00     0.003 A 
ENDROOT
TORSDOF 0
ENDMDL
