MODEL 1
REMARK minimizedAffinity -4.95733213
REMARK minimizedRMSD -1
REMARK  0 active torsions:
REMARK  status: ('A' for Active; 'I' for Inactive)
ROOT
ATOM      1  C4' PXY d   1      -0.539  -2.338  -0.379  0.00  0.00     0.077 C 
ATOM      2  C1' PXY d   1       0.314   3.360   0.088  0.00  0.00     0.077 C 
ATOM      3  C1  PXY d   1       0.096   1.866  -0.046  0.00  0.00    -0.082 A 
ATOM      4  C2  PXY d   1      -0.894   1.287   0.614  0.00  0.00     0.003 A 
ATOM      5  C3  PXY d   1      -1.085  -0.068   0.529  0.00  0.00     0.003 A 
ATOM      6  C4  PXY d   1      -0.288  -0.831  -0.281  0.00  0.00    -0.082 A 
ATOM      7  C5  PXY d   1       0.718  -0.246  -0.966  0.00  0.00     0.003 A 
ATOM      8  C6  PXY d   1       0.921   1.125  -0.834  0.00  0.00     0.003 A 
ENDROOT
TORSDOF 0
ENDMDL
