MODEL 1
REMARK minimizedAffinity -4.20331764
REMARK minimizedRMSD -1
REMARK  0 active torsions:
REMARK  status: ('A' for Active; 'I' for Inactive)
ROOT
ATOM      1  C4' PXY d   1      -0.596  -2.293  -0.252  0.00  0.00     0.077 C 
ATOM      2  C1' PXY d   1       0.431   3.388  -0.545  0.00  0.00     0.077 C 
ATOM      3  C1  PXY d   1       0.171   1.896  -0.477  0.00  0.00    -0.082 A 
ATOM      4  C2  PXY d   1      -1.010   1.455  -0.076  0.00  0.00     0.003 A 
ATOM      5  C3  PXY d   1      -1.252   0.109   0.022  0.00  0.00     0.003 A 
ATOM      6  C4  PXY d   1      -0.292  -0.796  -0.345  0.00  0.00    -0.082 A 
ATOM      7  C5  PXY d   1       0.912  -0.354  -0.766  0.00  0.00     0.003 A 
ATOM      8  C6  PXY d   1       1.151   1.016  -0.819  0.00  0.00     0.003 A 
ENDROOT
TORSDOF 0
ENDMDL
