MODEL 1
REMARK minimizedAffinity -3.04363465
REMARK minimizedRMSD -1
REMARK  3 active torsions:
REMARK  status: ('A' for Active; 'I' for Inactive)
REMARK    1  A    between atoms: C3'_2  and  C2'_3 
REMARK    2  A    between atoms: C2'_3  and  C1'_4 
REMARK    3  A    between atoms: C1'_4  and  C1_5 
ROOT
ATOM      1  C1  N4B d   1       2.880  -2.549  -1.503  0.00  0.00    -0.075 A 
ATOM      2  C2  N4B d   1       1.821  -2.098  -2.321  0.00  0.00     0.002 A 
ATOM      3  C3  N4B d   1       0.553  -2.593  -2.137  0.00  0.00     0.002 A 
ATOM      4  C4  N4B d   1       0.325  -3.549  -1.159  0.00  0.00    -0.004 A 
ATOM      5  C5  N4B d   1       1.348  -3.961  -0.357  0.00  0.00     0.002 A 
ATOM      6  C6  N4B d   1       2.627  -3.469  -0.527  0.00  0.00     0.002 A 
ENDROOT
BRANCH   1   7
ATOM      7  C1' N4B d   1       4.299  -2.101  -1.723  0.00  0.00     0.057 C 
BRANCH   7   8
ATOM      8  C2' N4B d   1       4.578  -2.039  -3.221  0.00  0.00     0.009 C 
BRANCH   8   9
ATOM      9  C3' N4B d   1       5.927  -2.643  -3.573  0.00  0.00     0.004 C 
ATOM     10  C4' N4B d   1       5.999  -3.114  -4.995  0.00  0.00     0.003 C 
ENDBRANCH   8   9
ENDBRANCH   7   8
ENDBRANCH   1   7
TORSDOF 3
ENDMDL
