MODEL 1
REMARK minimizedAffinity 1.37050021
REMARK minimizedRMSD -1
REMARK  3 active torsions:
REMARK  status: ('A' for Active; 'I' for Inactive)
REMARK    1  A    between atoms: C3'_2  and  C2'_3 
REMARK    2  A    between atoms: C2'_3  and  C1'_4 
REMARK    3  A    between atoms: C1'_4  and  C1_5 
ROOT
ATOM      1  C1  N4B d   1       4.103  -3.234  -2.375  0.00  0.00    -0.075 A 
ATOM      2  C2  N4B d   1       5.217  -3.972  -1.917  0.00  0.00     0.002 A 
ATOM      3  C3  N4B d   1       5.181  -5.345  -1.923  0.00  0.00     0.002 A 
ATOM      4  C4  N4B d   1       4.040  -5.999  -2.363  0.00  0.00    -0.004 A 
ATOM      5  C5  N4B d   1       2.978  -5.280  -2.827  0.00  0.00     0.002 A 
ATOM      6  C6  N4B d   1       3.002  -3.899  -2.830  0.00  0.00     0.002 A 
ENDROOT
BRANCH   1   7
ATOM      7  C1' N4B d   1       4.063  -1.732  -2.307  0.00  0.00     0.057 C 
BRANCH   7   8
ATOM      8  C2' N4B d   1       2.719  -1.292  -1.735  0.00  0.00     0.009 C 
BRANCH   8   9
ATOM      9  C3' N4B d   1       2.646  -1.496  -0.232  0.00  0.00     0.004 C 
ATOM     10  C4' N4B d   1       1.784  -2.660   0.156  0.00  0.00     0.003 C 
ENDBRANCH   8   9
ENDBRANCH   7   8
ENDBRANCH   1   7
TORSDOF 3
ENDMDL
