MODEL 1
REMARK minimizedAffinity 1.46233296
REMARK minimizedRMSD -1
REMARK  0 active torsions:
REMARK  status: ('A' for Active; 'I' for Inactive)
ROOT
ATOM      1  C1  BNZ d   1       5.978   5.648  -0.329  0.00  0.00     0.000 A 
ATOM      2  C2  BNZ d   1       5.996   5.354  -1.666  0.00  0.00     0.000 A 
ATOM      3  C3  BNZ d   1       5.985   4.057  -2.098  0.00  0.00     0.000 A 
ATOM      4  C4  BNZ d   1       5.996   3.057  -1.194  0.00  0.00     0.000 A 
ATOM      5  C5  BNZ d   1       5.986   3.337   0.158  0.00  0.00     0.000 A 
ATOM      6  C6  BNZ d   1       5.958   4.643   0.589  0.00  0.00     0.000 A 
ENDROOT
TORSDOF 0
ENDMDL
