MODEL 1
REMARK minimizedAffinity 6.42364597
REMARK minimizedRMSD -1
REMARK  0 active torsions:
REMARK  status: ('A' for Active; 'I' for Inactive)
ROOT
ATOM      1  C1  BNZ d   1       3.324  -0.395  -1.196  0.00  0.00     0.000 A 
ATOM      2  C2  BNZ d   1       4.484  -0.007  -1.810  0.00  0.00     0.000 A 
ATOM      3  C3  BNZ d   1       5.239   1.012  -1.300  0.00  0.00     0.000 A 
ATOM      4  C4  BNZ d   1       4.813   1.668  -0.201  0.00  0.00     0.000 A 
ATOM      5  C5  BNZ d   1       3.640   1.294   0.424  0.00  0.00     0.000 A 
ATOM      6  C6  BNZ d   1       2.903   0.243  -0.070  0.00  0.00     0.000 A 
ENDROOT
TORSDOF 0
ENDMDL
