MODEL 1
REMARK minimizedAffinity 1.60336673
REMARK minimizedRMSD -1
REMARK  0 active torsions:
REMARK  status: ('A' for Active; 'I' for Inactive)
ROOT
ATOM      1  C1  BNZ d   1       0.465   3.263   2.223  0.00  0.00     0.000 A 
ATOM      2  C2  BNZ d   1      -0.631   3.694   1.525  0.00  0.00     0.000 A 
ATOM      3  C3  BNZ d   1      -1.397   2.815   0.811  0.00  0.00     0.000 A 
ATOM      4  C4  BNZ d   1      -1.043   1.515   0.764  0.00  0.00     0.000 A 
ATOM      5  C5  BNZ d   1       0.065   1.066   1.455  0.00  0.00     0.000 A 
ATOM      6  C6  BNZ d   1       0.811   1.947   2.204  0.00  0.00     0.000 A 
ENDROOT
TORSDOF 0
ENDMDL
