MODEL 1
REMARK minimizedAffinity 1.90417552
REMARK minimizedRMSD -1
REMARK  0 active torsions:
REMARK  status: ('A' for Active; 'I' for Inactive)
ROOT
ATOM      1  C1  BNZ d   1       0.993  -3.889   4.359  0.00  0.00     0.000 A 
ATOM      2  C2  BNZ d   1       1.869  -4.932   4.502  0.00  0.00     0.000 A 
ATOM      3  C3  BNZ d   1       1.565  -5.997   5.303  0.00  0.00     0.000 A 
ATOM      4  C4  BNZ d   1       0.405  -5.999   5.991  0.00  0.00     0.000 A 
ATOM      5  C5  BNZ d   1      -0.485  -4.951   5.864  0.00  0.00     0.000 A 
ATOM      6  C6  BNZ d   1      -0.193  -3.899   5.027  0.00  0.00     0.000 A 
ENDROOT
TORSDOF 0
ENDMDL
