MODEL 1
REMARK minimizedAffinity 4.27456284
REMARK minimizedRMSD -1
REMARK  0 active torsions:
REMARK  status: ('A' for Active; 'I' for Inactive)
ROOT
ATOM      1  C1  BNZ d   1       5.672   3.220  -0.669  0.00  0.00     0.000 A 
ATOM      2  C2  BNZ d   1       4.976   2.319  -1.430  0.00  0.00     0.000 A 
ATOM      3  C3  BNZ d   1       4.564   1.128  -0.901  0.00  0.00     0.000 A 
ATOM      4  C4  BNZ d   1       4.881   0.823   0.373  0.00  0.00     0.000 A 
ATOM      5  C5  BNZ d   1       5.590   1.717   1.150  0.00  0.00     0.000 A 
ATOM      6  C6  BNZ d   1       5.970   2.931   0.627  0.00  0.00     0.000 A 
ENDROOT
TORSDOF 0
ENDMDL
