MODEL 1
REMARK minimizedAffinity 1.38663387
REMARK minimizedRMSD -1
REMARK  0 active torsions:
REMARK  status: ('A' for Active; 'I' for Inactive)
ROOT
ATOM      1  C1  BNZ d   1       3.722   0.085   0.609  0.00  0.00     0.000 A 
ATOM      2  C2  BNZ d   1       4.538   1.012   1.200  0.00  0.00     0.000 A 
ATOM      3  C3  BNZ d   1       5.209   1.935   0.448  0.00  0.00     0.000 A 
ATOM      4  C4  BNZ d   1       5.096   1.905  -0.896  0.00  0.00     0.000 A 
ATOM      5  C5  BNZ d   1       4.284   0.970  -1.508  0.00  0.00     0.000 A 
ATOM      6  C6  BNZ d   1       3.579   0.068  -0.745  0.00  0.00     0.000 A 
ENDROOT
TORSDOF 0
ENDMDL
