MODEL 1
REMARK minimizedAffinity -4.20050144
REMARK minimizedRMSD -1
REMARK  2 active torsions:
REMARK  status: ('A' for Active; 'I' for Inactive)
REMARK    1  A    between atoms: C1_2  and  C2_3 
REMARK    2  A    between atoms: C2_3  and  C3_4 
ROOT
ATOM      1  C3  UNL d   1      -1.748  -0.076   0.769  0.00  0.00    -0.075 A 
ATOM      2  C4  UNL d   1      -1.236   1.024   0.067  0.00  0.00     0.002 A 
ATOM      3  C5  UNL d   1       0.081   1.019  -0.394  0.00  0.00     0.002 A 
ATOM      4  C6  UNL d   1       0.903  -0.079  -0.151  0.00  0.00    -0.004 A 
ATOM      5  C7  UNL d   1       0.410  -1.170   0.560  0.00  0.00     0.002 A 
ATOM      6  C8  UNL d   1      -0.909  -1.170   1.019  0.00  0.00     0.002 A 
ENDROOT
BRANCH   1   7
ATOM      7  C2  UNL d   1      -3.181  -0.089   1.245  0.00  0.00     0.056 C 
BRANCH   7   8
ATOM      8  C1  UNL d   1      -3.981   1.157   0.851  0.00  0.00     0.007 C 
ATOM      9  C   UNL d   1      -3.928   2.260   1.900  0.00  0.00     0.009 C 
ENDBRANCH   7   8
ENDBRANCH   1   7
TORSDOF 2
ENDMDL
