MODEL 1
REMARK minimizedAffinity -4.67829037
REMARK minimizedRMSD -1
REMARK  2 active torsions:
REMARK  status: ('A' for Active; 'I' for Inactive)
REMARK    1  A    between atoms: C1_2  and  C2_3 
REMARK    2  A    between atoms: C2_3  and  C3_4 
ROOT
ATOM      1  C3  UNL d   1      -0.599  -0.279   0.200  0.00  0.00    -0.075 A 
ATOM      2  C4  UNL d   1      -1.526   0.069   1.194  0.00  0.00     0.002 A 
ATOM      3  C5  UNL d   1      -2.474   1.066   0.960  0.00  0.00     0.002 A 
ATOM      4  C6  UNL d   1      -2.502   1.732  -0.263  0.00  0.00    -0.004 A 
ATOM      5  C7  UNL d   1      -1.576   1.406  -1.251  0.00  0.00     0.002 A 
ATOM      6  C8  UNL d   1      -0.629   0.406  -1.022  0.00  0.00     0.002 A 
ENDROOT
BRANCH   1   7
ATOM      7  C2  UNL d   1       0.410  -1.376   0.435  0.00  0.00     0.056 C 
BRANCH   7   8
ATOM      8  C1  UNL d   1       1.678  -1.252  -0.417  0.00  0.00     0.007 C 
ATOM      9  C   UNL d   1       2.771  -0.427   0.250  0.00  0.00     0.009 C 
ENDBRANCH   7   8
ENDBRANCH   1   7
TORSDOF 2
ENDMDL
