MODEL 1
REMARK minimizedAffinity -3.50945902
REMARK minimizedRMSD -1
REMARK  2 active torsions:
REMARK  status: ('A' for Active; 'I' for Inactive)
REMARK    1  A    between atoms: C1_2  and  C2_3 
REMARK    2  A    between atoms: C2_3  and  C3_4 
ROOT
ATOM      1  C3  UNL d   1      -0.580   0.035   0.080  0.00  0.00    -0.075 A 
ATOM      2  C4  UNL d   1      -0.053  -0.060   1.376  0.00  0.00     0.002 A 
ATOM      3  C5  UNL d   1       0.935  -0.999   1.672  0.00  0.00     0.002 A 
ATOM      4  C6  UNL d   1       1.401  -1.861   0.681  0.00  0.00    -0.004 A 
ATOM      5  C7  UNL d   1       0.872  -1.787  -0.606  0.00  0.00     0.002 A 
ATOM      6  C8  UNL d   1      -0.113  -0.845  -0.906  0.00  0.00     0.002 A 
ENDROOT
BRANCH   1   7
ATOM      7  C2  UNL d   1      -1.628   1.069  -0.254  0.00  0.00     0.056 C 
BRANCH   7   8
ATOM      8  C1  UNL d   1      -2.699   1.244   0.828  0.00  0.00     0.007 C 
ATOM      9  C   UNL d   1      -4.109   0.955   0.331  0.00  0.00     0.009 C 
ENDBRANCH   7   8
ENDBRANCH   1   7
TORSDOF 2
ENDMDL
