MODEL 1
REMARK minimizedAffinity -3.66425753
REMARK minimizedRMSD -1
REMARK  0 active torsions:
REMARK  status: ('A' for Active; 'I' for Inactive)
ROOT
ATOM      1  C   UNL d   1       1.197   1.408  -3.627  0.00  0.00     0.078 C 
ATOM      2  C1  UNL d   1       1.206   0.753  -2.278  0.00  0.00    -0.077 A 
ATOM      3  C2  UNL d   1       2.149   1.113  -1.308  0.00  0.00    -0.001 A 
ATOM      4  C3  UNL d   1       2.151   0.488  -0.060  0.00  0.00     0.003 A 
ATOM      5  C4  UNL d   1       1.214  -0.502   0.229  0.00  0.00    -0.005 A 
ATOM      6  C5  UNL d   1       0.274  -0.869  -0.731  0.00  0.00     0.003 A 
ATOM      7  C6  UNL d   1       0.269  -0.245  -1.980  0.00  0.00    -0.001 A 
ENDROOT
TORSDOF 0
ENDMDL
