MODEL 1
REMARK minimizedAffinity 0.309731036
REMARK minimizedRMSD -1
REMARK  0 active torsions:
REMARK  status: ('A' for Active; 'I' for Inactive)
ROOT
ATOM      1  C   UNL d   1       0.115   1.043  -2.846  0.00  0.00     0.078 C 
ATOM      2  C1  UNL d   1      -0.639   0.639  -1.615  0.00  0.00    -0.077 A 
ATOM      3  C2  UNL d   1      -0.345  -0.558  -0.950  0.00  0.00    -0.001 A 
ATOM      4  C3  UNL d   1      -1.062  -0.927   0.190  0.00  0.00     0.003 A 
ATOM      5  C4  UNL d   1      -2.077  -0.105   0.675  0.00  0.00    -0.005 A 
ATOM      6  C5  UNL d   1      -2.377   1.087   0.019  0.00  0.00     0.003 A 
ATOM      7  C6  UNL d   1      -1.662   1.457  -1.121  0.00  0.00    -0.001 A 
ENDROOT
TORSDOF 0
ENDMDL
