MODEL 1
REMARK minimizedAffinity -3.75372934
REMARK minimizedRMSD -1
REMARK  0 active torsions:
REMARK  status: ('A' for Active; 'I' for Inactive)
ROOT
ATOM      1  C   UNL d   1      -1.128   0.922   2.737  0.00  0.00     0.078 C 
ATOM      2  C1  UNL d   1      -0.623   0.408   1.422  0.00  0.00    -0.077 A 
ATOM      3  C2  UNL d   1      -1.498   0.175   0.354  0.00  0.00    -0.001 A 
ATOM      4  C3  UNL d   1      -1.014  -0.313  -0.861  0.00  0.00     0.003 A 
ATOM      5  C4  UNL d   1       0.346  -0.573  -1.019  0.00  0.00    -0.005 A 
ATOM      6  C5  UNL d   1       1.224  -0.347   0.039  0.00  0.00     0.003 A 
ATOM      7  C6  UNL d   1       0.742   0.141   1.254  0.00  0.00    -0.001 A 
ENDROOT
TORSDOF 0
ENDMDL
