MODEL 1
REMARK minimizedAffinity -0.919947147
REMARK minimizedRMSD -1
REMARK  0 active torsions:
REMARK  status: ('A' for Active; 'I' for Inactive)
ROOT
ATOM      1  C   UNL d   1       1.484  -1.140   0.226  0.00  0.00     0.078 C 
ATOM      2  C1  UNL d   1       0.180  -0.402   0.273  0.00  0.00    -0.077 A 
ATOM      3  C2  UNL d   1      -0.346   0.207  -0.873  0.00  0.00    -0.001 A 
ATOM      4  C3  UNL d   1      -1.556   0.900  -0.813  0.00  0.00     0.003 A 
ATOM      5  C4  UNL d   1      -2.250   0.991   0.392  0.00  0.00    -0.005 A 
ATOM      6  C5  UNL d   1      -1.734   0.390   1.538  0.00  0.00     0.003 A 
ATOM      7  C6  UNL d   1      -0.524  -0.303   1.479  0.00  0.00    -0.001 A 
ENDROOT
TORSDOF 0
ENDMDL
