MODEL 1
REMARK minimizedAffinity -1.27724254
REMARK minimizedRMSD -1
REMARK  0 active torsions:
REMARK  status: ('A' for Active; 'I' for Inactive)
ROOT
ATOM      1  C   UNL d   1       0.322  -0.764  -0.179  0.00  0.00     0.078 C 
ATOM      2  C1  UNL d   1       0.823  -0.063  -1.407  0.00  0.00    -0.077 A 
ATOM      3  C2  UNL d   1       1.976   0.731  -1.364  0.00  0.00    -0.001 A 
ATOM      4  C3  UNL d   1       2.425   1.386  -2.512  0.00  0.00     0.003 A 
ATOM      5  C4  UNL d   1       1.727   1.255  -3.710  0.00  0.00    -0.005 A 
ATOM      6  C5  UNL d   1       0.577   0.469  -3.762  0.00  0.00     0.003 A 
ATOM      7  C6  UNL d   1       0.127  -0.186  -2.615  0.00  0.00    -0.001 A 
ENDROOT
TORSDOF 0
ENDMDL
