MODEL 1
REMARK minimizedAffinity -2.36050916
REMARK minimizedRMSD -1
REMARK  0 active torsions:
REMARK  status: ('A' for Active; 'I' for Inactive)
ROOT
ATOM      1  C2' OXE d   1      -2.430  -1.475   0.610  0.00  0.00     0.078 C 
ATOM      2  C1' OXE d   1      -0.463   0.182  -0.514  0.00  0.00     0.078 C 
ATOM      3  C1  OXE d   1      -0.422  -0.047   0.976  0.00  0.00    -0.078 A 
ATOM      4  C2  OXE d   1      -1.416  -0.822   1.524  0.00  0.00    -0.078 A 
ATOM      5  C3  OXE d   1      -1.394  -1.110   2.886  0.00  0.00     0.003 A 
ATOM      6  C4  OXE d   1      -0.459  -0.494   3.726  0.00  0.00    -0.002 A 
ATOM      7  C5  OXE d   1       0.538   0.331   3.194  0.00  0.00    -0.002 A 
ATOM      8  C6  OXE d   1       0.596   0.530   1.819  0.00  0.00     0.003 A 
ENDROOT
TORSDOF 0
ENDMDL
