MODEL 1
REMARK minimizedAffinity -5.943151
REMARK minimizedRMSD -1
REMARK  0 active torsions:
REMARK  status: ('A' for Active; 'I' for Inactive)
ROOT
ATOM      1  C2' OXE d   1      -0.020   0.334  -1.007  0.00  0.00     0.078 C 
ATOM      2  C1' OXE d   1       1.613   0.301   1.276  0.00  0.00     0.078 C 
ATOM      3  C1  OXE d   1       0.130   0.104   1.468  0.00  0.00    -0.078 A 
ATOM      4  C2  OXE d   1      -0.667   0.168   0.351  0.00  0.00    -0.078 A 
ATOM      5  C3  OXE d   1      -2.035  -0.061   0.466  0.00  0.00     0.003 A 
ATOM      6  C4  OXE d   1      -2.627  -0.203   1.727  0.00  0.00    -0.002 A 
ATOM      7  C5  OXE d   1      -1.838  -0.232   2.882  0.00  0.00    -0.002 A 
ATOM      8  C6  OXE d   1      -0.457  -0.122   2.766  0.00  0.00     0.003 A 
ENDROOT
TORSDOF 0
ENDMDL
