MODEL 1
REMARK minimizedAffinity -4.57510996
REMARK minimizedRMSD -1
REMARK  0 active torsions:
REMARK  status: ('A' for Active; 'I' for Inactive)
ROOT
ATOM      1  C2' OXE d   1      -1.366  -0.589   3.517  0.00  0.00     0.078 C 
ATOM      2  C1' OXE d   1      -2.966   0.979   1.825  0.00  0.00     0.078 C 
ATOM      3  C1  OXE d   1      -1.538   0.727   1.409  0.00  0.00    -0.078 A 
ATOM      4  C2  OXE d   1      -0.749  -0.002   2.265  0.00  0.00    -0.078 A 
ATOM      5  C3  OXE d   1       0.559  -0.310   1.904  0.00  0.00     0.003 A 
ATOM      6  C4  OXE d   1       1.125   0.245   0.750  0.00  0.00    -0.002 A 
ATOM      7  C5  OXE d   1       0.350   1.023  -0.117  0.00  0.00    -0.002 A 
ATOM      8  C6  OXE d   1      -0.992   1.238   0.176  0.00  0.00     0.003 A 
ENDROOT
TORSDOF 0
ENDMDL
