MODEL 1
REMARK minimizedAffinity -4.66783857
REMARK minimizedRMSD -1
REMARK  0 active torsions:
REMARK  status: ('A' for Active; 'I' for Inactive)
ROOT
ATOM      1  C2' OXE d   1      -2.658  -0.125  -0.070  0.00  0.00     0.078 C 
ATOM      2  C1' OXE d   1      -0.102   0.679  -0.907  0.00  0.00     0.078 C 
ATOM      3  C1  OXE d   1      -0.279   0.292   0.540  0.00  0.00    -0.078 A 
ATOM      4  C2  OXE d   1      -1.544  -0.056   0.951  0.00  0.00    -0.078 A 
ATOM      5  C3  OXE d   1      -1.751  -0.474   2.263  0.00  0.00     0.003 A 
ATOM      6  C4  OXE d   1      -0.718  -0.397   3.204  0.00  0.00    -0.002 A 
ATOM      7  C5  OXE d   1       0.569  -0.008   2.815  0.00  0.00    -0.002 A 
ATOM      8  C6  OXE d   1       0.814   0.299   1.481  0.00  0.00     0.003 A 
ENDROOT
TORSDOF 0
ENDMDL
