MODEL 1
REMARK minimizedAffinity -4.98524141
REMARK minimizedRMSD -1
REMARK  0 active torsions:
REMARK  status: ('A' for Active; 'I' for Inactive)
ROOT
ATOM      1  C2' OXE d   1       1.858   1.587   0.899  0.00  0.00     0.078 C 
ATOM      2  C1' OXE d   1       0.034   0.591  -0.988  0.00  0.00     0.078 C 
ATOM      3  C1  OXE d   1      -0.220   0.283   0.466  0.00  0.00    -0.078 A 
ATOM      4  C2  OXE d   1       0.702   0.735   1.379  0.00  0.00    -0.078 A 
ATOM      5  C3  OXE d   1       0.487   0.526   2.738  0.00  0.00     0.003 A 
ATOM      6  C4  OXE d   1      -0.579  -0.271   3.173  0.00  0.00    -0.002 A 
ATOM      7  C5  OXE d   1      -1.508  -0.775   2.256  0.00  0.00    -0.002 A 
ATOM      8  C6  OXE d   1      -1.367  -0.472   0.907  0.00  0.00     0.003 A 
ENDROOT
TORSDOF 0
ENDMDL
