MODEL 1
REMARK minimizedAffinity -3.96709323
REMARK minimizedRMSD -1
REMARK  0 active torsions:
REMARK  status: ('A' for Active; 'I' for Inactive)
ROOT
ATOM      1  C2' OXE d   1      -2.566  -0.018   0.231  0.00  0.00     0.078 C 
ATOM      2  C1' OXE d   1      -0.045   0.618  -0.828  0.00  0.00     0.078 C 
ATOM      3  C1  OXE d   1      -0.136   0.334   0.651  0.00  0.00    -0.078 A 
ATOM      4  C2  OXE d   1      -1.381   0.070   1.169  0.00  0.00    -0.078 A 
ATOM      5  C3  OXE d   1      -1.513  -0.253   2.516  0.00  0.00     0.003 A 
ATOM      6  C4  OXE d   1      -0.414  -0.160   3.378  0.00  0.00    -0.002 A 
ATOM      7  C5  OXE d   1       0.856   0.147   2.878  0.00  0.00    -0.002 A 
ATOM      8  C6  OXE d   1       1.020   0.354   1.513  0.00  0.00     0.003 A 
ENDROOT
TORSDOF 0
ENDMDL
