MODEL 1
REMARK minimizedAffinity -4.14534092
REMARK minimizedRMSD -1
REMARK  0 active torsions:
REMARK  status: ('A' for Active; 'I' for Inactive)
ROOT
ATOM      1  C2' OXE d   1      -0.302   0.702  -1.368  0.00  0.00     0.078 C 
ATOM      2  C1' OXE d   1      -2.628   0.357   0.165  0.00  0.00     0.078 C 
ATOM      3  C1  OXE d   1      -1.310   0.435   0.894  0.00  0.00    -0.078 A 
ATOM      4  C2  OXE d   1      -0.173   0.557   0.133  0.00  0.00    -0.078 A 
ATOM      5  C3  OXE d   1       1.064   0.688   0.757  0.00  0.00     0.003 A 
ATOM      6  C4  OXE d   1       1.176   0.543   2.146  0.00  0.00    -0.002 A 
ATOM      7  C5  OXE d   1       0.034   0.379   2.936  0.00  0.00    -0.002 A 
ATOM      8  C6  OXE d   1      -1.218   0.365   2.331  0.00  0.00     0.003 A 
ENDROOT
TORSDOF 0
ENDMDL
