MODEL 1
REMARK minimizedAffinity -5.96814537
REMARK minimizedRMSD -1
REMARK  0 active torsions:
REMARK  status: ('A' for Active; 'I' for Inactive)
ROOT
ATOM      1  C2' OXE d   1      -2.444   0.378  -0.403  0.00  0.00     0.078 C 
ATOM      2  C1' OXE d   1       0.315   0.771  -0.739  0.00  0.00     0.078 C 
ATOM      3  C1  OXE d   1      -0.161   0.226   0.584  0.00  0.00    -0.078 A 
ATOM      4  C2  OXE d   1      -1.517   0.080   0.756  0.00  0.00    -0.078 A 
ATOM      5  C3  OXE d   1      -2.006  -0.471   1.937  0.00  0.00     0.003 A 
ATOM      6  C4  OXE d   1      -1.143  -0.734   3.008  0.00  0.00    -0.002 A 
ATOM      7  C5  OXE d   1       0.237  -0.555   2.867  0.00  0.00    -0.002 A 
ATOM      8  C6  OXE d   1       0.747  -0.117   1.650  0.00  0.00     0.003 A 
ENDROOT
TORSDOF 0
ENDMDL
