MODEL 1
REMARK minimizedAffinity -5.63563204
REMARK minimizedRMSD -1
REMARK  0 active torsions:
REMARK  status: ('A' for Active; 'I' for Inactive)
ROOT
ATOM      1  C2' OXE d   1       0.446   1.287  -0.239  0.00  0.00     0.078 C 
ATOM      2  C1' OXE d   1      -2.261   0.575  -0.026  0.00  0.00     0.078 C 
ATOM      3  C1  OXE d   1      -1.321   0.096   1.051  0.00  0.00    -0.078 A 
ATOM      4  C2  OXE d   1       0.010   0.409   0.914  0.00  0.00    -0.078 A 
ATOM      5  C3  OXE d   1       0.912   0.038   1.908  0.00  0.00     0.003 A 
ATOM      6  C4  OXE d   1       0.502  -0.782   2.966  0.00  0.00    -0.002 A 
ATOM      7  C5  OXE d   1      -0.841  -1.146   3.103  0.00  0.00    -0.002 A 
ATOM      8  C6  OXE d   1      -1.771  -0.681   2.180  0.00  0.00     0.003 A 
ENDROOT
TORSDOF 0
ENDMDL
