MODEL 1
REMARK minimizedAffinity -4.93311405
REMARK minimizedRMSD -1
REMARK  0 active torsions:
REMARK  status: ('A' for Active; 'I' for Inactive)
ROOT
ATOM      1  C2' OXE d   1       1.879   1.580   0.741  0.00  0.00     0.078 C 
ATOM      2  C1' OXE d   1      -0.024   0.795  -1.168  0.00  0.00     0.078 C 
ATOM      3  C1  OXE d   1      -0.222   0.332   0.254  0.00  0.00    -0.078 A 
ATOM      4  C2  OXE d   1       0.739   0.682   1.172  0.00  0.00    -0.078 A 
ATOM      5  C3  OXE d   1       0.578   0.327   2.508  0.00  0.00     0.003 A 
ATOM      6  C4  OXE d   1      -0.474  -0.512   2.896  0.00  0.00    -0.002 A 
ATOM      7  C5  OXE d   1      -1.442  -0.913   1.969  0.00  0.00    -0.002 A 
ATOM      8  C6  OXE d   1      -1.354  -0.465   0.656  0.00  0.00     0.003 A 
ENDROOT
TORSDOF 0
ENDMDL
