MODEL 1
REMARK minimizedAffinity -4.95290041
REMARK minimizedRMSD -1
REMARK  0 active torsions:
REMARK  status: ('A' for Active; 'I' for Inactive)
ROOT
ATOM      1  C2' OXE d   1       1.858   0.772   0.671  0.00  0.00     0.078 C 
ATOM      2  C1' OXE d   1      -0.153   0.408  -1.254  0.00  0.00     0.078 C 
ATOM      3  C1  OXE d   1      -0.522   0.208   0.195  0.00  0.00    -0.078 A 
ATOM      4  C2  OXE d   1       0.480   0.343   1.127  0.00  0.00    -0.078 A 
ATOM      5  C3  OXE d   1       0.182   0.222   2.481  0.00  0.00     0.003 A 
ATOM      6  C4  OXE d   1      -1.093  -0.185   2.893  0.00  0.00    -0.002 A 
ATOM      7  C5  OXE d   1      -2.117  -0.366   1.957  0.00  0.00    -0.002 A 
ATOM      8  C6  OXE d   1      -1.860  -0.132   0.611  0.00  0.00     0.003 A 
ENDROOT
TORSDOF 0
ENDMDL
