MODEL 1
REMARK minimizedAffinity -6.5080018
REMARK minimizedRMSD -1
REMARK  0 active torsions:
REMARK  status: ('A' for Active; 'I' for Inactive)
ROOT
ATOM      1  C2' OXE d   1      -0.059   0.451  -0.615  0.00  0.00     0.078 C 
ATOM      2  C1' OXE d   1       1.592   0.298   1.650  0.00  0.00     0.078 C 
ATOM      3  C1  OXE d   1       0.105   0.150   1.853  0.00  0.00    -0.078 A 
ATOM      4  C2  OXE d   1      -0.699   0.272   0.745  0.00  0.00    -0.078 A 
ATOM      5  C3  OXE d   1      -2.074   0.089   0.867  0.00  0.00     0.003 A 
ATOM      6  C4  OXE d   1      -2.659  -0.065   2.130  0.00  0.00    -0.002 A 
ATOM      7  C5  OXE d   1      -1.861  -0.153   3.276  0.00  0.00    -0.002 A 
ATOM      8  C6  OXE d   1      -0.478  -0.091   3.150  0.00  0.00     0.003 A 
ENDROOT
TORSDOF 0
ENDMDL
