MODEL 1
REMARK minimizedAffinity 2.60051417
REMARK minimizedRMSD -1
REMARK  0 active torsions:
REMARK  status: ('A' for Active; 'I' for Inactive)
ROOT
ATOM      1  C2' OXE d   1       1.022   0.402  -0.690  0.00  0.00     0.078 C 
ATOM      2  C1' OXE d   1       2.405   2.165   1.001  0.00  0.00     0.078 C 
ATOM      3  C1  OXE d   1       1.430   1.203   1.633  0.00  0.00    -0.078 A 
ATOM      4  C2  OXE d   1       0.724   0.376   0.793  0.00  0.00    -0.078 A 
ATOM      5  C3  OXE d   1      -0.148  -0.569   1.328  0.00  0.00     0.003 A 
ATOM      6  C4  OXE d   1      -0.426  -0.579   2.700  0.00  0.00    -0.002 A 
ATOM      7  C5  OXE d   1       0.253   0.282   3.569  0.00  0.00    -0.002 A 
ATOM      8  C6  OXE d   1       1.213   1.148   3.057  0.00  0.00     0.003 A 
ENDROOT
TORSDOF 0
ENDMDL
