MODEL 1
REMARK minimizedAffinity -5.57984924
REMARK minimizedRMSD -1
REMARK  0 active torsions:
REMARK  status: ('A' for Active; 'I' for Inactive)
ROOT
ATOM      1  C2' OXE d   1      -0.097   0.690  -1.187  0.00  0.00     0.078 C 
ATOM      2  C1' OXE d   1      -2.605   0.094  -0.076  0.00  0.00     0.078 C 
ATOM      3  C1  OXE d   1      -1.411   0.103   0.846  0.00  0.00    -0.078 A 
ATOM      4  C2  OXE d   1      -0.181   0.350   0.286  0.00  0.00    -0.078 A 
ATOM      5  C3  OXE d   1       0.945   0.423   1.100  0.00  0.00     0.003 A 
ATOM      6  C4  OXE d   1       0.860   0.097   2.459  0.00  0.00    -0.002 A 
ATOM      7  C5  OXE d   1      -0.377  -0.196   3.042  0.00  0.00    -0.002 A 
ATOM      8  C6  OXE d   1      -1.526  -0.156   2.260  0.00  0.00     0.003 A 
ENDROOT
TORSDOF 0
ENDMDL
