MODEL 1
REMARK minimizedAffinity -3.75233221
REMARK minimizedRMSD -1
REMARK  1 active torsions:
REMARK  status: ('A' for Active; 'I' for Inactive)
REMARK    1  A    between atoms: C1_2  and  C2_3 
ROOT
ATOM      1  C2  UNL d   1      -0.054  -0.224   0.070  0.00  0.00    -0.077 A 
ATOM      2  C3  UNL d   1       1.011  -1.068  -0.274  0.00  0.00     0.002 A 
ATOM      3  C4  UNL d   1       0.934  -2.440  -0.024  0.00  0.00     0.002 A 
ATOM      4  C5  UNL d   1      -0.207  -2.979   0.566  0.00  0.00    -0.004 A 
ATOM      5  C6  UNL d   1      -1.271  -2.147   0.913  0.00  0.00     0.002 A 
ATOM      6  C7  UNL d   1      -1.195  -0.776   0.665  0.00  0.00     0.002 A 
ENDROOT
BRANCH   1   7
ATOM      7  C1  UNL d   1       0.007   1.248  -0.244  0.00  0.00     0.055 C 
ATOM      8  C   UNL d   1       1.306   1.867   0.253  0.00  0.00     0.019 C 
ENDBRANCH   1   7
TORSDOF 1
ENDMDL
