MODEL 1
REMARK minimizedAffinity -4.68909216
REMARK minimizedRMSD -1
REMARK  1 active torsions:
REMARK  status: ('A' for Active; 'I' for Inactive)
REMARK    1  A    between atoms: C1_2  and  C2_3 
ROOT
ATOM      1  C2  UNL d   1       0.107  -0.465  -0.211  0.00  0.00    -0.077 A 
ATOM      2  C3  UNL d   1      -0.882  -0.850   0.705  0.00  0.00     0.002 A 
ATOM      3  C4  UNL d   1      -0.812  -2.091   1.341  0.00  0.00     0.002 A 
ATOM      4  C5  UNL d   1       0.248  -2.955   1.071  0.00  0.00    -0.004 A 
ATOM      5  C6  UNL d   1       1.235  -2.582   0.160  0.00  0.00     0.002 A 
ATOM      6  C7  UNL d   1       1.166  -1.343  -0.477  0.00  0.00     0.002 A 
ENDROOT
BRANCH   1   7
ATOM      7  C1  UNL d   1       0.060   0.893  -0.860  0.00  0.00     0.055 C 
ATOM      8  C   UNL d   1       0.658   1.960   0.044  0.00  0.00     0.019 C 
ENDBRANCH   1   7
TORSDOF 1
ENDMDL
