MODEL 1
REMARK minimizedAffinity -3.64865947
REMARK minimizedRMSD -1
REMARK  1 active torsions:
REMARK  status: ('A' for Active; 'I' for Inactive)
REMARK    1  A    between atoms: C1_2  and  C2_3 
ROOT
ATOM      1  C2  UNL d   1       0.493  -0.830  -0.164  0.00  0.00    -0.077 A 
ATOM      2  C3  UNL d   1       0.204   0.114   0.832  0.00  0.00     0.002 A 
ATOM      3  C4  UNL d   1       0.027   1.459   0.500  0.00  0.00     0.002 A 
ATOM      4  C5  UNL d   1       0.132   1.871  -0.827  0.00  0.00    -0.004 A 
ATOM      5  C6  UNL d   1       0.421   0.940  -1.824  0.00  0.00     0.002 A 
ATOM      6  C7  UNL d   1       0.600  -0.404  -1.494  0.00  0.00     0.002 A 
ENDROOT
BRANCH   1   7
ATOM      7  C1  UNL d   1       0.635  -2.288   0.186  0.00  0.00     0.055 C 
ATOM      8  C   UNL d   1      -0.718  -2.925   0.467  0.00  0.00     0.019 C 
ENDBRANCH   1   7
TORSDOF 1
ENDMDL
