MODEL 1
REMARK minimizedAffinity -3.987679
REMARK minimizedRMSD -1
REMARK  1 active torsions:
REMARK  status: ('A' for Active; 'I' for Inactive)
REMARK    1  A    between atoms: C1_2  and  C2_3 
ROOT
ATOM      1  C2  UNL d   1      -0.328  -0.833   0.269  0.00  0.00    -0.077 A 
ATOM      2  C3  UNL d   1       0.994  -0.641   0.695  0.00  0.00     0.002 A 
ATOM      3  C4  UNL d   1       1.844  -1.734   0.873  0.00  0.00     0.002 A 
ATOM      4  C5  UNL d   1       1.384  -3.025   0.623  0.00  0.00    -0.004 A 
ATOM      5  C6  UNL d   1       0.070  -3.227   0.201  0.00  0.00     0.002 A 
ATOM      6  C7  UNL d   1      -0.781  -2.135   0.023  0.00  0.00     0.002 A 
ENDROOT
BRANCH   1   7
ATOM      7  C1  UNL d   1      -1.232   0.348   0.029  0.00  0.00     0.055 C 
ATOM      8  C   UNL d   1      -2.488   0.266   0.884  0.00  0.00     0.019 C 
ENDBRANCH   1   7
TORSDOF 1
ENDMDL
