MODEL 1
REMARK minimizedAffinity -3.48748422
REMARK minimizedRMSD -1
REMARK  1 active torsions:
REMARK  status: ('A' for Active; 'I' for Inactive)
REMARK    1  A    between atoms: C1_2  and  C2_3 
ROOT
ATOM      1  C2  UNL d   1       0.428  -1.216  -0.443  0.00  0.00    -0.077 A 
ATOM      2  C3  UNL d   1       0.430  -2.570  -0.077  0.00  0.00     0.002 A 
ATOM      3  C4  UNL d   1      -0.267  -2.996   1.056  0.00  0.00     0.002 A 
ATOM      4  C5  UNL d   1      -0.973  -2.076   1.829  0.00  0.00    -0.004 A 
ATOM      5  C6  UNL d   1      -0.979  -0.728   1.474  0.00  0.00     0.002 A 
ATOM      6  C7  UNL d   1      -0.283  -0.300   0.343  0.00  0.00     0.002 A 
ENDROOT
BRANCH   1   7
ATOM      7  C1  UNL d   1       1.138  -0.763  -1.692  0.00  0.00     0.055 C 
ATOM      8  C   UNL d   1       0.211   0.038  -2.595  0.00  0.00     0.019 C 
ENDBRANCH   1   7
TORSDOF 1
ENDMDL
