MODEL 1
REMARK minimizedAffinity -4.576406
REMARK minimizedRMSD -1
REMARK  1 active torsions:
REMARK  status: ('A' for Active; 'I' for Inactive)
REMARK    1  A    between atoms: C1_2  and  C2_3 
ROOT
ATOM      1  C2  UNL d   1      -0.151   0.055   0.149  0.00  0.00    -0.077 A 
ATOM      2  C3  UNL d   1      -0.586  -0.844   1.134  0.00  0.00     0.002 A 
ATOM      3  C4  UNL d   1      -0.570  -2.219   0.892  0.00  0.00     0.002 A 
ATOM      4  C5  UNL d   1      -0.116  -2.707  -0.331  0.00  0.00    -0.004 A 
ATOM      5  C6  UNL d   1       0.317  -1.822  -1.318  0.00  0.00     0.002 A 
ATOM      6  C7  UNL d   1       0.301  -0.447  -1.078  0.00  0.00     0.002 A 
ENDROOT
BRANCH   1   7
ATOM      7  C1  UNL d   1      -0.121   1.535   0.426  0.00  0.00     0.055 C 
ATOM      8  C   UNL d   1       1.306   2.062   0.469  0.00  0.00     0.019 C 
ENDBRANCH   1   7
TORSDOF 1
ENDMDL
