MODEL 1
REMARK minimizedAffinity -4.19071436
REMARK minimizedRMSD -1
REMARK  1 active torsions:
REMARK  status: ('A' for Active; 'I' for Inactive)
REMARK    1  A    between atoms: C1_2  and  C2_3 
ROOT
ATOM      1  C2  UNL d   1       0.043  -0.666   0.409  0.00  0.00    -0.077 A 
ATOM      2  C3  UNL d   1       1.378  -1.076   0.528  0.00  0.00     0.002 A 
ATOM      3  C4  UNL d   1       1.708  -2.431   0.466  0.00  0.00     0.002 A 
ATOM      4  C5  UNL d   1       0.710  -3.386   0.281  0.00  0.00    -0.004 A 
ATOM      5  C6  UNL d   1      -0.621  -2.988   0.164  0.00  0.00     0.002 A 
ATOM      6  C7  UNL d   1      -0.953  -1.634   0.227  0.00  0.00     0.002 A 
ENDROOT
BRANCH   1   7
ATOM      7  C1  UNL d   1      -0.310   0.799   0.427  0.00  0.00     0.055 C 
ATOM      8  C   UNL d   1       0.916   1.666   0.181  0.00  0.00     0.019 C 
ENDBRANCH   1   7
TORSDOF 1
ENDMDL
