MODEL 1
REMARK minimizedAffinity -3.42299819
REMARK minimizedRMSD -1
REMARK  1 active torsions:
REMARK  status: ('A' for Active; 'I' for Inactive)
REMARK    1  A    between atoms: C1_2  and  C2_3 
ROOT
ATOM      1  C2  UNL d   1      -0.410   0.103   0.149  0.00  0.00    -0.077 A 
ATOM      2  C3  UNL d   1       0.486  -0.684  -0.587  0.00  0.00     0.002 A 
ATOM      3  C4  UNL d   1       0.593  -2.054  -0.336  0.00  0.00     0.002 A 
ATOM      4  C5  UNL d   1      -0.197  -2.648   0.646  0.00  0.00    -0.004 A 
ATOM      5  C6  UNL d   1      -1.090  -1.873   1.385  0.00  0.00     0.002 A 
ATOM      6  C7  UNL d   1      -1.197  -0.504   1.137  0.00  0.00     0.002 A 
ENDROOT
BRANCH   1   7
ATOM      7  C1  UNL d   1      -0.562   1.571  -0.152  0.00  0.00     0.055 C 
ATOM      8  C   UNL d   1       0.662   2.357   0.292  0.00  0.00     0.019 C 
ENDBRANCH   1   7
TORSDOF 1
ENDMDL
