MODEL 1
REMARK minimizedAffinity -3.38486767
REMARK minimizedRMSD -1
REMARK  1 active torsions:
REMARK  status: ('A' for Active; 'I' for Inactive)
REMARK    1  A    between atoms: C1_2  and  C2_3 
ROOT
ATOM      1  C2  UNL d   1       0.727   2.042  -0.088  0.00  0.00    -0.077 A 
ATOM      2  C3  UNL d   1       2.082   2.295   0.169  0.00  0.00     0.002 A 
ATOM      3  C4  UNL d   1       2.457   3.345   1.010  0.00  0.00     0.002 A 
ATOM      4  C5  UNL d   1       1.484   4.146   1.604  0.00  0.00    -0.004 A 
ATOM      5  C6  UNL d   1       0.134   3.903   1.353  0.00  0.00     0.002 A 
ATOM      6  C7  UNL d   1      -0.243   2.856   0.511  0.00  0.00     0.002 A 
ENDROOT
BRANCH   1   7
ATOM      7  C1  UNL d   1       0.319   0.880  -0.956  0.00  0.00     0.055 C 
ATOM      8  C   UNL d   1       0.528  -0.446  -0.239  0.00  0.00     0.019 C 
ENDBRANCH   1   7
TORSDOF 1
ENDMDL
