MODEL 1
REMARK minimizedAffinity -3.12166119
REMARK minimizedRMSD -1
REMARK  1 active torsions:
REMARK  status: ('A' for Active; 'I' for Inactive)
REMARK    1  A    between atoms: C1_2  and  C2_3 
ROOT
ATOM      1  C2  UNL d   1       0.110  -0.025   0.091  0.00  0.00    -0.077 A 
ATOM      2  C3  UNL d   1       1.078  -0.868  -0.472  0.00  0.00     0.002 A 
ATOM      3  C4  UNL d   1       1.029  -2.246  -0.250  0.00  0.00     0.002 A 
ATOM      4  C5  UNL d   1       0.013  -2.792   0.530  0.00  0.00    -0.004 A 
ATOM      5  C6  UNL d   1      -0.954  -1.961   1.096  0.00  0.00     0.002 A 
ATOM      6  C7  UNL d   1      -0.906  -0.584   0.877  0.00  0.00     0.002 A 
ENDROOT
BRANCH   1   7
ATOM      7  C1  UNL d   1       0.133   1.455  -0.188  0.00  0.00     0.055 C 
ATOM      8  C   UNL d   1       1.416   2.095   0.323  0.00  0.00     0.019 C 
ENDBRANCH   1   7
TORSDOF 1
ENDMDL
