MODEL 1
REMARK minimizedAffinity 15.7882423
REMARK minimizedRMSD -1
REMARK  1 active torsions:
REMARK  status: ('A' for Active; 'I' for Inactive)
REMARK    1  A    between atoms: C1_2  and  C2_3 
ROOT
ATOM      1  C2  UNL d   1      -3.780   0.678   3.992  0.00  0.00    -0.081 A 
ATOM      2  C3  UNL d   1      -4.175  -0.232   3.003  0.00  0.00     0.006 A 
ATOM      3  C4  UNL d   1      -4.117  -1.607   3.242  0.00  0.00     0.002 A 
ATOM      4  C5  UNL d   1      -3.671  -2.095   4.475  0.00  0.00    -0.080 A 
ATOM      5  C6  UNL d   1      -3.632  -3.568   4.755  0.00  0.00     0.076 C 
ATOM      6  C7  UNL d   1      -3.260  -1.187   5.456  0.00  0.00     0.002 A 
ATOM      7  C8  UNL d   1      -3.317   0.188   5.218  0.00  0.00     0.006 A 
ENDROOT
BRANCH   1   8
ATOM      8  C1  UNL d   1      -3.903   2.162   3.761  0.00  0.00     0.054 C 
ATOM      9  C   UNL d   1      -5.264   2.680   4.204  0.00  0.00     0.018 C 
ENDBRANCH   1   8
TORSDOF 1
ENDMDL
