MODEL 1
REMARK minimizedAffinity 12.5834808
REMARK minimizedRMSD -1
REMARK  1 active torsions:
REMARK  status: ('A' for Active; 'I' for Inactive)
REMARK    1  A    between atoms: C1_2  and  C2_3 
ROOT
ATOM      1  C2  UNL d   1      -3.917   1.493   4.426  0.00  0.00    -0.081 A 
ATOM      2  C3  UNL d   1      -4.103   0.869   3.186  0.00  0.00     0.006 A 
ATOM      3  C4  UNL d   1      -3.966  -0.515   3.063  0.00  0.00     0.002 A 
ATOM      4  C5  UNL d   1      -3.649  -1.299   4.177  0.00  0.00    -0.080 A 
ATOM      5  C6  UNL d   1      -3.530  -2.790   4.064  0.00  0.00     0.076 C 
ATOM      6  C7  UNL d   1      -3.446  -0.674   5.412  0.00  0.00     0.002 A 
ATOM      7  C8  UNL d   1      -3.582   0.710   5.536  0.00  0.00     0.006 A 
ENDROOT
BRANCH   1   8
ATOM      8  C1  UNL d   1      -4.127   2.978   4.576  0.00  0.00     0.054 C 
ATOM      9  C   UNL d   1      -4.525   3.340   6.000  0.00  0.00     0.018 C 
ENDBRANCH   1   8
TORSDOF 1
ENDMDL
