MODEL 1
REMARK minimizedAffinity 12.5359211
REMARK minimizedRMSD -1
REMARK  1 active torsions:
REMARK  status: ('A' for Active; 'I' for Inactive)
REMARK    1  A    between atoms: C1_2  and  C2_3 
ROOT
ATOM      1  C2  UNL d   1      -3.562  -0.279   4.730  0.00  0.00    -0.081 A 
ATOM      2  C3  UNL d   1      -3.840   0.365   3.518  0.00  0.00     0.006 A 
ATOM      3  C4  UNL d   1      -4.394  -0.344   2.450  0.00  0.00     0.002 A 
ATOM      4  C5  UNL d   1      -4.685  -1.707   2.577  0.00  0.00    -0.080 A 
ATOM      5  C6  UNL d   1      -5.307  -2.473   1.448  0.00  0.00     0.076 C 
ATOM      6  C7  UNL d   1      -4.391  -2.354   3.782  0.00  0.00     0.002 A 
ATOM      7  C8  UNL d   1      -3.837  -1.646   4.850  0.00  0.00     0.006 A 
ENDROOT
BRANCH   1   8
ATOM      8  C1  UNL d   1      -3.026   0.497   5.905  0.00  0.00     0.054 C 
ATOM      9  C   UNL d   1      -3.669   1.873   6.000  0.00  0.00     0.018 C 
ENDBRANCH   1   8
TORSDOF 1
ENDMDL
