MODEL 1
REMARK minimizedAffinity 17.9681377
REMARK minimizedRMSD -1
REMARK  1 active torsions:
REMARK  status: ('A' for Active; 'I' for Inactive)
REMARK    1  A    between atoms: C1_2  and  C2_3 
ROOT
ATOM      1  C2  UNL d   1      -3.451   0.077   4.845  0.00  0.00    -0.081 A 
ATOM      2  C3  UNL d   1      -3.718   1.158   5.695  0.00  0.00     0.006 A 
ATOM      3  C4  UNL d   1      -4.261   2.340   5.188  0.00  0.00     0.002 A 
ATOM      4  C5  UNL d   1      -4.554   2.460   3.826  0.00  0.00    -0.080 A 
ATOM      5  C6  UNL d   1      -5.165   3.713   3.273  0.00  0.00     0.076 C 
ATOM      6  C7  UNL d   1      -4.271   1.387   2.973  0.00  0.00     0.002 A 
ATOM      7  C8  UNL d   1      -3.727   0.204   3.480  0.00  0.00     0.006 A 
ENDROOT
BRANCH   1   8
ATOM      8  C1  UNL d   1      -2.926  -1.222   5.399  0.00  0.00     0.054 C 
ATOM      9  C   UNL d   1      -3.687  -2.413   4.834  0.00  0.00     0.018 C 
ENDBRANCH   1   8
TORSDOF 1
ENDMDL
