MODEL 1
REMARK minimizedAffinity 14.7684469
REMARK minimizedRMSD -1
REMARK  1 active torsions:
REMARK  status: ('A' for Active; 'I' for Inactive)
REMARK    1  A    between atoms: C1_2  and  C2_3 
ROOT
ATOM      1  C2  UNL d   1       1.224  -2.392  -2.168  0.00  0.00    -0.081 A 
ATOM      2  C3  UNL d   1       1.841  -2.666  -0.942  0.00  0.00     0.006 A 
ATOM      3  C4  UNL d   1       2.555  -1.671  -0.270  0.00  0.00     0.002 A 
ATOM      4  C5  UNL d   1       2.657  -0.384  -0.809  0.00  0.00    -0.080 A 
ATOM      5  C6  UNL d   1       3.395   0.701  -0.083  0.00  0.00     0.076 C 
ATOM      6  C7  UNL d   1       2.055  -0.114  -2.042  0.00  0.00     0.002 A 
ATOM      7  C8  UNL d   1       1.341  -1.109  -2.715  0.00  0.00     0.006 A 
ENDROOT
BRANCH   1   8
ATOM      8  C1  UNL d   1       0.399  -3.444  -2.864  0.00  0.00     0.054 C 
ATOM      9  C   UNL d   1      -0.895  -2.860  -3.413  0.00  0.00     0.018 C 
ENDBRANCH   1   8
TORSDOF 1
ENDMDL
