MODEL 1
REMARK minimizedAffinity 21.7015018
REMARK minimizedRMSD -1
REMARK  1 active torsions:
REMARK  status: ('A' for Active; 'I' for Inactive)
REMARK    1  A    between atoms: C1_2  and  C2_3 
ROOT
ATOM      1  C2  UNL d   1      -3.241  -0.614   4.296  0.00  0.00    -0.081 A 
ATOM      2  C3  UNL d   1      -3.363  -0.252   5.643  0.00  0.00     0.006 A 
ATOM      3  C4  UNL d   1      -3.673   1.063   5.999  0.00  0.00     0.002 A 
ATOM      4  C5  UNL d   1      -3.873   2.036   5.014  0.00  0.00    -0.080 A 
ATOM      5  C6  UNL d   1      -4.235   3.444   5.382  0.00  0.00     0.076 C 
ATOM      6  C7  UNL d   1      -3.734   1.679   3.669  0.00  0.00     0.002 A 
ATOM      7  C8  UNL d   1      -3.424   0.365   3.312  0.00  0.00     0.006 A 
ENDROOT
BRANCH   1   8
ATOM      8  C1  UNL d   1      -2.972  -2.045   3.908  0.00  0.00     0.054 C 
ATOM      9  C   UNL d   1      -3.700  -3.014   4.827  0.00  0.00     0.018 C 
ENDBRANCH   1   8
TORSDOF 1
ENDMDL
