MODEL 1
REMARK minimizedAffinity 6.05081797
REMARK minimizedRMSD -1
REMARK  1 active torsions:
REMARK  status: ('A' for Active; 'I' for Inactive)
REMARK    1  A    between atoms: C1_2  and  C2_3 
ROOT
ATOM      1  C2  UNL d   1       2.554  -1.065  -1.479  0.00  0.00    -0.081 A 
ATOM      2  C3  UNL d   1       2.038  -1.513  -2.701  0.00  0.00     0.006 A 
ATOM      3  C4  UNL d   1       1.627  -2.840  -2.853  0.00  0.00     0.002 A 
ATOM      4  C5  UNL d   1       1.718  -3.738  -1.784  0.00  0.00    -0.080 A 
ATOM      5  C6  UNL d   1       1.253  -5.156  -1.924  0.00  0.00     0.076 C 
ATOM      6  C7  UNL d   1       2.251  -3.295  -0.568  0.00  0.00     0.002 A 
ATOM      7  C8  UNL d   1       2.662  -1.969  -0.416  0.00  0.00     0.006 A 
ENDROOT
BRANCH   1   8
ATOM      8  C1  UNL d   1       2.938   0.381  -1.293  0.00  0.00     0.054 C 
ATOM      9  C   UNL d   1       3.795   0.570  -0.050  0.00  0.00     0.018 C 
ENDBRANCH   1   8
TORSDOF 1
ENDMDL
