MODEL 1
REMARK minimizedAffinity 8.41578102
REMARK minimizedRMSD -1
REMARK  1 active torsions:
REMARK  status: ('A' for Active; 'I' for Inactive)
REMARK    1  A    between atoms: C1_2  and  C2_3 
ROOT
ATOM      1  C2  UNL d   1      -1.646   1.743   2.774  0.00  0.00    -0.081 A 
ATOM      2  C3  UNL d   1      -2.079   3.072   2.696  0.00  0.00     0.006 A 
ATOM      3  C4  UNL d   1      -3.329   3.441   3.200  0.00  0.00     0.002 A 
ATOM      4  C5  UNL d   1      -4.162   2.489   3.797  0.00  0.00    -0.080 A 
ATOM      5  C6  UNL d   1      -5.493   2.877   4.369  0.00  0.00     0.076 C 
ATOM      6  C7  UNL d   1      -3.737   1.157   3.859  0.00  0.00     0.002 A 
ATOM      7  C8  UNL d   1      -2.489   0.788   3.354  0.00  0.00     0.006 A 
ENDROOT
BRANCH   1   8
ATOM      8  C1  UNL d   1      -0.273   1.355   2.289  0.00  0.00     0.054 C 
ATOM      9  C   UNL d   1       0.650   1.021   3.453  0.00  0.00     0.018 C 
ENDBRANCH   1   8
TORSDOF 1
ENDMDL
