MODEL 1
REMARK minimizedAffinity 9.18024349
REMARK minimizedRMSD -1
REMARK  1 active torsions:
REMARK  status: ('A' for Active; 'I' for Inactive)
REMARK    1  A    between atoms: C1_2  and  C2_3 
ROOT
ATOM      1  C2  UNL d   1       2.246  -1.523  -1.093  0.00  0.00    -0.081 A 
ATOM      2  C3  UNL d   1       1.510  -1.734  -2.266  0.00  0.00     0.006 A 
ATOM      3  C4  UNL d   1       1.045  -3.011  -2.589  0.00  0.00     0.002 A 
ATOM      4  C5  UNL d   1       1.299  -4.095  -1.743  0.00  0.00    -0.080 A 
ATOM      5  C6  UNL d   1       0.779  -5.465  -2.063  0.00  0.00     0.076 C 
ATOM      6  C7  UNL d   1       2.049  -3.887  -0.580  0.00  0.00     0.002 A 
ATOM      7  C8  UNL d   1       2.515  -2.611  -0.256  0.00  0.00     0.006 A 
ENDROOT
BRANCH   1   8
ATOM      8  C1  UNL d   1       2.694  -0.136  -0.709  0.00  0.00     0.054 C 
ATOM      9  C   UNL d   1       3.775  -0.180   0.362  0.00  0.00     0.018 C 
ENDBRANCH   1   8
TORSDOF 1
ENDMDL
