MODEL 1
REMARK minimizedAffinity 18.0806084
REMARK minimizedRMSD -1
REMARK  1 active torsions:
REMARK  status: ('A' for Active; 'I' for Inactive)
REMARK    1  A    between atoms: C1_2  and  C2_3 
ROOT
ATOM      1  C2  UNL d   1      -4.062  -3.424  -5.347  0.00  0.00    -0.081 A 
ATOM      2  C3  UNL d   1      -3.927  -3.965  -4.063  0.00  0.00     0.006 A 
ATOM      3  C4  UNL d   1      -2.678  -3.999  -3.437  0.00  0.00     0.002 A 
ATOM      4  C5  UNL d   1      -1.547  -3.486  -4.081  0.00  0.00    -0.080 A 
ATOM      5  C6  UNL d   1      -0.207  -3.489  -3.408  0.00  0.00     0.076 C 
ATOM      6  C7  UNL d   1      -1.679  -2.961  -5.371  0.00  0.00     0.002 A 
ATOM      7  C8  UNL d   1      -2.927  -2.928  -5.998  0.00  0.00     0.006 A 
ENDROOT
BRANCH   1   8
ATOM      8  C1  UNL d   1      -5.418  -3.327  -5.999  0.00  0.00     0.054 C 
ATOM      9  C   UNL d   1      -5.937  -1.897  -5.986  0.00  0.00     0.018 C 
ENDBRANCH   1   8
TORSDOF 1
ENDMDL
