MODEL 1
REMARK minimizedAffinity 12.5761051
REMARK minimizedRMSD -1
REMARK  1 active torsions:
REMARK  status: ('A' for Active; 'I' for Inactive)
REMARK    1  A    between atoms: C1_2  and  C2_3 
ROOT
ATOM      1  C2  UNL d   1       1.559  -2.904  -1.844  0.00  0.00    -0.081 A 
ATOM      2  C3  UNL d   1       2.282  -3.129  -0.665  0.00  0.00     0.006 A 
ATOM      3  C4  UNL d   1       2.771  -2.054   0.081  0.00  0.00     0.002 A 
ATOM      4  C5  UNL d   1       2.541  -0.738  -0.334  0.00  0.00    -0.080 A 
ATOM      5  C6  UNL d   1       3.035   0.425   0.474  0.00  0.00     0.076 C 
ATOM      6  C7  UNL d   1       1.834  -0.514  -1.520  0.00  0.00     0.002 A 
ATOM      7  C8  UNL d   1       1.345  -1.588  -2.267  0.00  0.00     0.006 A 
ENDROOT
BRANCH   1   8
ATOM      8  C1  UNL d   1       0.974  -4.059  -2.616  0.00  0.00     0.054 C 
ATOM      9  C   UNL d   1      -0.515  -3.863  -2.861  0.00  0.00     0.018 C 
ENDBRANCH   1   8
TORSDOF 1
ENDMDL
