MODEL 1
REMARK minimizedAffinity 19.5742836
REMARK minimizedRMSD -1
REMARK  1 active torsions:
REMARK  status: ('A' for Active; 'I' for Inactive)
REMARK    1  A    between atoms: C1_2  and  C2_3 
ROOT
ATOM      1  C2  UNL d   1      -3.485   0.473   3.579  0.00  0.00    -0.081 A 
ATOM      2  C3  UNL d   1      -3.258   0.172   4.927  0.00  0.00     0.006 A 
ATOM      3  C4  UNL d   1      -3.616  -1.076   5.444  0.00  0.00     0.002 A 
ATOM      4  C5  UNL d   1      -4.199  -2.045   4.621  0.00  0.00    -0.080 A 
ATOM      5  C6  UNL d   1      -4.560  -3.398   5.156  0.00  0.00     0.076 C 
ATOM      6  C7  UNL d   1      -4.442  -1.738   3.278  0.00  0.00     0.002 A 
ATOM      7  C8  UNL d   1      -4.085  -0.491   2.760  0.00  0.00     0.006 A 
ENDROOT
BRANCH   1   8
ATOM      8  C1  UNL d   1      -3.041   1.793   3.003  0.00  0.00     0.054 C 
ATOM      9  C   UNL d   1      -1.576   1.754   2.594  0.00  0.00     0.018 C 
ENDBRANCH   1   8
TORSDOF 1
ENDMDL
