MODEL 1
REMARK minimizedAffinity 19.3460331
REMARK minimizedRMSD -1
REMARK  1 active torsions:
REMARK  status: ('A' for Active; 'I' for Inactive)
REMARK    1  A    between atoms: C1_2  and  C2_3 
ROOT
ATOM      1  C2  UNL d   1      -2.389   3.596  -5.293  0.00  0.00    -0.081 A 
ATOM      2  C3  UNL d   1      -2.333   4.995  -5.297  0.00  0.00     0.006 A 
ATOM      3  C4  UNL d   1      -3.484   5.749  -5.538  0.00  0.00     0.002 A 
ATOM      4  C5  UNL d   1      -4.711   5.118  -5.770  0.00  0.00    -0.080 A 
ATOM      5  C6  UNL d   1      -5.960   5.916  -5.999  0.00  0.00     0.076 C 
ATOM      6  C7  UNL d   1      -4.763   3.720  -5.783  0.00  0.00     0.002 A 
ATOM      7  C8  UNL d   1      -3.613   2.965  -5.543  0.00  0.00     0.006 A 
ENDROOT
BRANCH   1   8
ATOM      8  C1  UNL d   1      -1.163   2.781  -4.970  0.00  0.00     0.054 C 
ATOM      9  C   UNL d   1      -1.529   1.347  -4.616  0.00  0.00     0.018 C 
ENDBRANCH   1   8
TORSDOF 1
ENDMDL
