MODEL 1
REMARK minimizedAffinity 15.4034929
REMARK minimizedRMSD -1
REMARK  1 active torsions:
REMARK  status: ('A' for Active; 'I' for Inactive)
REMARK    1  A    between atoms: C1_2  and  C2_3 
ROOT
ATOM      1  C2  UNL d   1      -1.428   2.823  -4.219  0.00  0.00    -0.081 A 
ATOM      2  C3  UNL d   1      -1.966   2.742  -5.509  0.00  0.00     0.006 A 
ATOM      3  C4  UNL d   1      -2.786   3.761  -6.000  0.00  0.00     0.002 A 
ATOM      4  C5  UNL d   1      -3.075   4.881  -5.213  0.00  0.00    -0.080 A 
ATOM      5  C6  UNL d   1      -3.928   5.996  -5.739  0.00  0.00     0.076 C 
ATOM      6  C7  UNL d   1      -2.551   4.954  -3.917  0.00  0.00     0.002 A 
ATOM      7  C8  UNL d   1      -1.732   3.935  -3.426  0.00  0.00     0.006 A 
ENDROOT
BRANCH   1   8
ATOM      8  C1  UNL d   1      -0.491   1.757  -3.711  0.00  0.00     0.054 C 
ATOM      9  C   UNL d   1       0.887   1.885  -4.343  0.00  0.00     0.018 C 
ENDBRANCH   1   8
TORSDOF 1
ENDMDL
