MODEL 1
REMARK minimizedAffinity 15.6091604
REMARK minimizedRMSD -1
REMARK  1 active torsions:
REMARK  status: ('A' for Active; 'I' for Inactive)
REMARK    1  A    between atoms: C1_2  and  C2_3 
ROOT
ATOM      1  C2  UNL d   1      -4.313  -0.494   3.017  0.00  0.00    -0.081 A 
ATOM      2  C3  UNL d   1      -5.436  -1.133   2.477  0.00  0.00     0.006 A 
ATOM      3  C4  UNL d   1      -5.977  -2.260   3.099  0.00  0.00     0.002 A 
ATOM      4  C5  UNL d   1      -5.410  -2.763   4.275  0.00  0.00    -0.080 A 
ATOM      5  C6  UNL d   1      -6.000  -3.954   4.970  0.00  0.00     0.076 C 
ATOM      6  C7  UNL d   1      -4.278  -2.135   4.806  0.00  0.00     0.002 A 
ATOM      7  C8  UNL d   1      -3.736  -1.008   4.183  0.00  0.00     0.006 A 
ENDROOT
BRANCH   1   8
ATOM      8  C1  UNL d   1      -3.766   0.760   2.384  0.00  0.00     0.054 C 
ATOM      9  C   UNL d   1      -3.285   1.747   3.438  0.00  0.00     0.018 C 
ENDBRANCH   1   8
TORSDOF 1
ENDMDL
