MODEL 1
REMARK minimizedAffinity 19.9002457
REMARK minimizedRMSD -1
REMARK  1 active torsions:
REMARK  status: ('A' for Active; 'I' for Inactive)
REMARK    1  A    between atoms: C1_2  and  C2_3 
ROOT
ATOM      1  C2  UNL d   1      -3.807  -0.182   3.211  0.00  0.00    -0.081 A 
ATOM      2  C3  UNL d   1      -3.358  -0.498   4.500  0.00  0.00     0.006 A 
ATOM      3  C4  UNL d   1      -3.681  -1.727   5.080  0.00  0.00     0.002 A 
ATOM      4  C5  UNL d   1      -4.450  -2.663   4.380  0.00  0.00    -0.080 A 
ATOM      5  C6  UNL d   1      -4.778  -3.998   4.979  0.00  0.00     0.076 C 
ATOM      6  C7  UNL d   1      -4.913  -2.340   3.099  0.00  0.00     0.002 A 
ATOM      7  C8  UNL d   1      -4.591  -1.111   2.519  0.00  0.00     0.006 A 
ENDROOT
BRANCH   1   8
ATOM      8  C1  UNL d   1      -3.406   1.116   2.558  0.00  0.00     0.054 C 
ATOM      9  C   UNL d   1      -1.955   1.081   2.101  0.00  0.00     0.018 C 
ENDBRANCH   1   8
TORSDOF 1
ENDMDL
