MODEL 1
REMARK minimizedAffinity 16.2252598
REMARK minimizedRMSD -1
REMARK  1 active torsions:
REMARK  status: ('A' for Active; 'I' for Inactive)
REMARK    1  A    between atoms: C1_2  and  C2_3 
ROOT
ATOM      1  C2  UNL d   1      -1.439   0.962   2.322  0.00  0.00    -0.081 A 
ATOM      2  C3  UNL d   1      -0.497  -0.004   1.947  0.00  0.00     0.006 A 
ATOM      3  C4  UNL d   1       0.861   0.319   1.880  0.00  0.00     0.002 A 
ATOM      4  C5  UNL d   1       1.300   1.610   2.195  0.00  0.00    -0.080 A 
ATOM      5  C6  UNL d   1       2.757   1.961   2.156  0.00  0.00     0.076 C 
ATOM      6  C7  UNL d   1       0.357   2.580   2.552  0.00  0.00     0.002 A 
ATOM      7  C8  UNL d   1      -1.001   2.258   2.618  0.00  0.00     0.006 A 
ENDROOT
BRANCH   1   8
ATOM      8  C1  UNL d   1      -2.896   0.600   2.458  0.00  0.00     0.054 C 
ATOM      9  C   UNL d   1      -3.108  -0.443   3.545  0.00  0.00     0.018 C 
ENDBRANCH   1   8
TORSDOF 1
ENDMDL
