MODEL 1
REMARK minimizedAffinity 6.10125685
REMARK minimizedRMSD -1
REMARK  0 active torsions:
REMARK  status: ('A' for Active; 'I' for Inactive)
ROOT
ATOM      1  C   UNL d   1      -0.579  -4.219   0.366  0.00  0.00     0.124 A 
ATOM      2  C1  UNL d   1       0.734  -4.182  -0.081  0.00  0.00     0.062 A 
ATOM      3  C2  UNL d   1       1.639  -3.284   0.478  0.00  0.00     0.162 A 
ATOM      4  C3  UNL d   1       1.234  -2.416   1.492  0.00  0.00    -0.034 A 
ATOM      5  C4  UNL d   1      -0.088  -2.458   1.936  0.00  0.00     0.162 A 
ATOM      6  C5  UNL d   1      -0.989  -3.357   1.374  0.00  0.00     0.062 A 
ATOM      7  F   UNL d   1      -2.258  -3.391   1.808  0.00  0.00    -0.097 F 
ATOM      8  F1  UNL d   1      -0.511  -1.638   2.909  0.00  0.00    -0.096 F 
ATOM      9  I   UNL d   1       2.585  -1.072   2.330  0.00  0.00    -0.060 I 
ATOM     10  F2  UNL d   1       2.902  -3.271   0.026  0.00  0.00    -0.096 F 
ATOM     11  F3  UNL d   1       1.132  -5.013  -1.055  0.00  0.00    -0.097 F 
ATOM     12  F4  UNL d   1      -1.448  -5.083  -0.174  0.00  0.00    -0.092 F 
ENDROOT
TORSDOF 0
ENDMDL
