MODEL 1
REMARK minimizedAffinity 21.8568058
REMARK minimizedRMSD -1
REMARK  0 active torsions:
REMARK  status: ('A' for Active; 'I' for Inactive)
ROOT
ATOM      1  C   UNL d   1       2.216   2.944  -3.659  0.00  0.00     0.124 A 
ATOM      2  C1  UNL d   1       0.855   2.744  -3.473  0.00  0.00     0.062 A 
ATOM      3  C2  UNL d   1      -0.068   3.545  -4.140  0.00  0.00     0.162 A 
ATOM      4  C3  UNL d   1       0.368   4.554  -5.000  0.00  0.00    -0.034 A 
ATOM      5  C4  UNL d   1       1.738   4.749  -5.180  0.00  0.00     0.162 A 
ATOM      6  C5  UNL d   1       2.656   3.946  -4.512  0.00  0.00     0.062 A 
ATOM      7  F   UNL d   1       3.970   4.141  -4.692  0.00  0.00    -0.097 F 
ATOM      8  F1  UNL d   1       2.191   5.710  -6.000  0.00  0.00    -0.096 F 
ATOM      9  I   UNL d   1      -1.008   5.753  -5.999  0.00  0.00    -0.060 I 
ATOM     10  F2  UNL d   1      -1.377   3.329  -3.943  0.00  0.00    -0.096 F 
ATOM     11  F3  UNL d   1       0.427   1.777  -2.649  0.00  0.00    -0.097 F 
ATOM     12  F4  UNL d   1       3.101   2.173  -3.015  0.00  0.00    -0.092 F 
ENDROOT
TORSDOF 0
ENDMDL
