MODEL 1
REMARK minimizedAffinity 21.2669277
REMARK minimizedRMSD -1
REMARK  0 active torsions:
REMARK  status: ('A' for Active; 'I' for Inactive)
ROOT
ATOM      1  C   UNL d   1       1.813   3.377  -3.052  0.00  0.00     0.124 A 
ATOM      2  C1  UNL d   1       2.260   4.131  -4.128  0.00  0.00     0.062 A 
ATOM      3  C2  UNL d   1       1.347   4.763  -4.967  0.00  0.00     0.162 A 
ATOM      4  C3  UNL d   1      -0.023   4.645  -4.733  0.00  0.00    -0.034 A 
ATOM      5  C4  UNL d   1      -0.465   3.885  -3.649  0.00  0.00     0.162 A 
ATOM      6  C5  UNL d   1       0.452   3.255  -2.813  0.00  0.00     0.062 A 
ATOM      7  F   UNL d   1       0.018   2.527  -1.773  0.00  0.00    -0.097 F 
ATOM      8  F1  UNL d   1      -1.775   3.750  -3.394  0.00  0.00    -0.096 F 
ATOM      9  I   UNL d   1      -1.391   5.589  -5.985  0.00  0.00    -0.060 I 
ATOM     10  F2  UNL d   1       1.808   5.485  -6.000  0.00  0.00    -0.096 F 
ATOM     11  F3  UNL d   1       3.575   4.250  -4.361  0.00  0.00    -0.097 F 
ATOM     12  F4  UNL d   1       2.694   2.769  -2.246  0.00  0.00    -0.092 F 
ENDROOT
TORSDOF 0
ENDMDL
