MODEL 1
REMARK minimizedAffinity 12.6175356
REMARK minimizedRMSD -1
REMARK  0 active torsions:
REMARK  status: ('A' for Active; 'I' for Inactive)
ROOT
ATOM      1  C   UNL d   1      -4.768   0.062   3.882  0.00  0.00     0.124 A 
ATOM      2  C1  UNL d   1      -4.567  -0.392   2.586  0.00  0.00     0.062 A 
ATOM      3  C2  UNL d   1      -3.287  -0.724   2.151  0.00  0.00     0.162 A 
ATOM      4  C3  UNL d   1      -2.197  -0.604   3.013  0.00  0.00    -0.034 A 
ATOM      5  C4  UNL d   1      -2.407  -0.146   4.315  0.00  0.00     0.162 A 
ATOM      6  C5  UNL d   1      -3.688   0.185   4.745  0.00  0.00     0.062 A 
ATOM      7  F   UNL d   1      -3.880   0.623   5.998  0.00  0.00    -0.097 F 
ATOM      8  F1  UNL d   1      -1.382  -0.019   5.170  0.00  0.00    -0.096 F 
ATOM      9  I   UNL d   1      -0.282  -1.100   2.366  0.00  0.00    -0.060 I 
ATOM     10  F2  UNL d   1      -3.123  -1.160   0.893  0.00  0.00    -0.096 F 
ATOM     11  F3  UNL d   1      -5.608  -0.510   1.750  0.00  0.00    -0.097 F 
ATOM     12  F4  UNL d   1      -6.000   0.382   4.298  0.00  0.00    -0.092 F 
ENDROOT
TORSDOF 0
ENDMDL
