MODEL 1
REMARK minimizedAffinity 21.3994122
REMARK minimizedRMSD -1
REMARK  0 active torsions:
REMARK  status: ('A' for Active; 'I' for Inactive)
ROOT
ATOM      1  C   UNL d   1       2.842   3.798   1.920  0.00  0.00     0.124 A 
ATOM      2  C1  UNL d   1       4.071   3.345   2.379  0.00  0.00     0.062 A 
ATOM      3  C2  UNL d   1       4.388   1.991   2.310  0.00  0.00     0.162 A 
ATOM      4  C3  UNL d   1       3.476   1.081   1.777  0.00  0.00    -0.034 A 
ATOM      5  C4  UNL d   1       2.242   1.544   1.318  0.00  0.00     0.162 A 
ATOM      6  C5  UNL d   1       1.929   2.898   1.390  0.00  0.00     0.062 A 
ATOM      7  F   UNL d   1       0.741   3.334   0.945  0.00  0.00    -0.097 F 
ATOM      8  F1  UNL d   1       1.341   0.696   0.800  0.00  0.00    -0.096 F 
ATOM      9  I   UNL d   1       3.947  -0.944   1.671  0.00  0.00    -0.060 I 
ATOM     10  F2  UNL d   1       5.583   1.582   2.761  0.00  0.00    -0.096 F 
ATOM     11  F3  UNL d   1       4.955   4.213   2.893  0.00  0.00    -0.097 F 
ATOM     12  F4  UNL d   1       2.539   5.101   1.989  0.00  0.00    -0.092 F 
ENDROOT
TORSDOF 0
ENDMDL
