MODEL 1
REMARK minimizedAffinity 18.1330147
REMARK minimizedRMSD -1
REMARK  0 active torsions:
REMARK  status: ('A' for Active; 'I' for Inactive)
ROOT
ATOM      1  C   UNL d   1       2.660   1.987  -2.556  0.00  0.00     0.124 A 
ATOM      2  C1  UNL d   1       3.291   2.512  -3.675  0.00  0.00     0.062 A 
ATOM      3  C2  UNL d   1       2.728   3.588  -4.356  0.00  0.00     0.162 A 
ATOM      4  C3  UNL d   1       1.528   4.147  -3.918  0.00  0.00    -0.034 A 
ATOM      5  C4  UNL d   1       0.898   3.613  -2.792  0.00  0.00     0.162 A 
ATOM      6  C5  UNL d   1       1.465   2.538  -2.115  0.00  0.00     0.062 A 
ATOM      7  F   UNL d   1       0.854   2.032  -1.034  0.00  0.00    -0.097 F 
ATOM      8  F1  UNL d   1      -0.257   4.127  -2.344  0.00  0.00    -0.096 F 
ATOM      9  I   UNL d   1       0.683   5.757  -4.932  0.00  0.00    -0.060 I 
ATOM     10  F2  UNL d   1       3.360   4.075  -5.434  0.00  0.00    -0.096 F 
ATOM     11  F3  UNL d   1       4.445   1.981  -4.103  0.00  0.00    -0.097 F 
ATOM     12  F4  UNL d   1       3.203   0.951  -1.904  0.00  0.00    -0.092 F 
ENDROOT
TORSDOF 0
ENDMDL
