MODEL 1
REMARK minimizedAffinity 2.85633564
REMARK minimizedRMSD -1
REMARK  0 active torsions:
REMARK  status: ('A' for Active; 'I' for Inactive)
ROOT
ATOM      1  C   UNL d   1      -5.995   0.932   0.245  0.00  0.00     0.124 A 
ATOM      2  C1  UNL d   1      -5.993  -0.282  -0.427  0.00  0.00     0.062 A 
ATOM      3  C2  UNL d   1      -5.994  -0.312  -1.819  0.00  0.00     0.162 A 
ATOM      4  C3  UNL d   1      -5.995   0.877  -2.548  0.00  0.00    -0.034 A 
ATOM      5  C4  UNL d   1      -5.998   2.094  -1.865  0.00  0.00     0.162 A 
ATOM      6  C5  UNL d   1      -5.998   2.119  -0.474  0.00  0.00     0.062 A 
ATOM      7  F   UNL d   1      -6.000   3.293   0.174  0.00  0.00    -0.097 F 
ATOM      8  F1  UNL d   1      -6.000   3.256  -2.535  0.00  0.00    -0.096 F 
ATOM      9  I   UNL d   1      -5.996   0.837  -4.629  0.00  0.00    -0.060 I 
ATOM     10  F2  UNL d   1      -5.992  -1.500  -2.442  0.00  0.00    -0.096 F 
ATOM     11  F3  UNL d   1      -5.991  -1.430   0.265  0.00  0.00    -0.097 F 
ATOM     12  F4  UNL d   1      -5.995   0.958   1.584  0.00  0.00    -0.092 F 
ENDROOT
TORSDOF 0
ENDMDL
