MODEL 1
REMARK minimizedAffinity 16.8823471
REMARK minimizedRMSD -1
REMARK  0 active torsions:
REMARK  status: ('A' for Active; 'I' for Inactive)
ROOT
ATOM      1  C   UNL d   1       2.724   1.678  -2.486  0.00  0.00     0.124 A 
ATOM      2  C1  UNL d   1       3.563   2.409  -3.315  0.00  0.00     0.062 A 
ATOM      3  C2  UNL d   1       3.074   3.511  -4.009  0.00  0.00     0.162 A 
ATOM      4  C3  UNL d   1       1.738   3.891  -3.876  0.00  0.00    -0.034 A 
ATOM      5  C4  UNL d   1       0.900   3.150  -3.041  0.00  0.00     0.162 A 
ATOM      6  C5  UNL d   1       1.394   2.049  -2.349  0.00  0.00     0.062 A 
ATOM      7  F   UNL d   1       0.582   1.344  -1.548  0.00  0.00    -0.097 F 
ATOM      8  F1  UNL d   1      -0.389   3.487  -2.890  0.00  0.00    -0.096 F 
ATOM      9  I   UNL d   1       1.003   5.539  -4.913  0.00  0.00    -0.060 I 
ATOM     10  F2  UNL d   1       3.907   4.199  -4.804  0.00  0.00    -0.096 F 
ATOM     11  F3  UNL d   1       4.848   2.052  -3.449  0.00  0.00    -0.097 F 
ATOM     12  F4  UNL d   1       3.197   0.617  -1.819  0.00  0.00    -0.092 F 
ENDROOT
TORSDOF 0
ENDMDL
