MODEL 1
REMARK minimizedAffinity 22.42593
REMARK minimizedRMSD -1
REMARK  0 active torsions:
REMARK  status: ('A' for Active; 'I' for Inactive)
ROOT
ATOM      1  C   UNL d   1      -1.926  -1.334   2.433  0.00  0.00     0.124 A 
ATOM      2  C1  UNL d   1      -2.908  -1.627   1.497  0.00  0.00     0.062 A 
ATOM      3  C2  UNL d   1      -4.072  -0.866   1.442  0.00  0.00     0.162 A 
ATOM      4  C3  UNL d   1      -4.261   0.197   2.325  0.00  0.00    -0.034 A 
ATOM      5  C4  UNL d   1      -3.269   0.485   3.265  0.00  0.00     0.162 A 
ATOM      6  C5  UNL d   1      -2.108  -0.278   3.316  0.00  0.00     0.062 A 
ATOM      7  F   UNL d   1      -1.160   0.006   4.222  0.00  0.00    -0.097 F 
ATOM      8  F1  UNL d   1      -3.418   1.500   4.130  0.00  0.00    -0.096 F 
ATOM      9  I   UNL d   1      -6.000   1.337   2.246  0.00  0.00    -0.060 I 
ATOM     10  F2  UNL d   1      -5.004  -1.171   0.527  0.00  0.00    -0.096 F 
ATOM     11  F3  UNL d   1      -2.735  -2.646   0.643  0.00  0.00    -0.097 F 
ATOM     12  F4  UNL d   1      -0.808  -2.068   2.485  0.00  0.00    -0.092 F 
ENDROOT
TORSDOF 0
ENDMDL
