MODEL 1
REMARK minimizedAffinity 14.9363251
REMARK minimizedRMSD -1
REMARK  0 active torsions:
REMARK  status: ('A' for Active; 'I' for Inactive)
ROOT
ATOM      1  C   UNL d   1       1.508   1.831  -0.290  0.00  0.00     0.124 A 
ATOM      2  C1  UNL d   1       1.755   3.188  -0.134  0.00  0.00     0.062 A 
ATOM      3  C2  UNL d   1       1.657   4.047  -1.224  0.00  0.00     0.162 A 
ATOM      4  C3  UNL d   1       1.310   3.552  -2.481  0.00  0.00    -0.034 A 
ATOM      5  C4  UNL d   1       1.064   2.186  -2.631  0.00  0.00     0.162 A 
ATOM      6  C5  UNL d   1       1.163   1.332  -1.538  0.00  0.00     0.062 A 
ATOM      7  F   UNL d   1       0.924   0.021  -1.691  0.00  0.00    -0.097 F 
ATOM      8  F1  UNL d   1       0.727   1.677  -3.825  0.00  0.00    -0.096 F 
ATOM      9  I   UNL d   1       1.162   4.834  -4.114  0.00  0.00    -0.060 I 
ATOM     10  F2  UNL d   1       1.901   5.354  -1.044  0.00  0.00    -0.096 F 
ATOM     11  F3  UNL d   1       2.090   3.673   1.070  0.00  0.00    -0.097 F 
ATOM     12  F4  UNL d   1       1.604   1.006   0.761  0.00  0.00    -0.092 F 
ENDROOT
TORSDOF 0
ENDMDL
