MODEL 1
REMARK minimizedAffinity 10.6970425
REMARK minimizedRMSD -1
REMARK  0 active torsions:
REMARK  status: ('A' for Active; 'I' for Inactive)
ROOT
ATOM      1  C   UNL d   1      -5.981   1.971  -4.657  0.00  0.00     0.124 A 
ATOM      2  C1  UNL d   1      -5.975   2.666  -3.455  0.00  0.00     0.062 A 
ATOM      3  C2  UNL d   1      -5.960   1.975  -2.247  0.00  0.00     0.162 A 
ATOM      4  C3  UNL d   1      -5.950   0.581  -2.234  0.00  0.00    -0.034 A 
ATOM      5  C4  UNL d   1      -5.957  -0.112  -3.446  0.00  0.00     0.162 A 
ATOM      6  C5  UNL d   1      -5.972   0.583  -4.651  0.00  0.00     0.062 A 
ATOM      7  F   UNL d   1      -5.978  -0.090  -5.811  0.00  0.00    -0.097 F 
ATOM      8  F1  UNL d   1      -5.948  -1.453  -3.470  0.00  0.00    -0.096 F 
ATOM      9  I   UNL d   1      -5.928  -0.456  -0.429  0.00  0.00    -0.060 I 
ATOM     10  F2  UNL d   1      -5.955   2.673  -1.101  0.00  0.00    -0.096 F 
ATOM     11  F3  UNL d   1      -5.985   4.007  -3.458  0.00  0.00    -0.097 F 
ATOM     12  F4  UNL d   1      -5.997   2.638  -5.818  0.00  0.00    -0.092 F 
ENDROOT
TORSDOF 0
ENDMDL
