MODEL 1
REMARK minimizedAffinity 18.8850861
REMARK minimizedRMSD -1
REMARK  0 active torsions:
REMARK  status: ('A' for Active; 'I' for Inactive)
ROOT
ATOM      1  C   UNL d   1      -1.834  -1.812   1.379  0.00  0.00     0.124 A 
ATOM      2  C1  UNL d   1      -3.081  -1.331   1.751  0.00  0.00     0.062 A 
ATOM      3  C2  UNL d   1      -4.102  -2.216   2.084  0.00  0.00     0.162 A 
ATOM      4  C3  UNL d   1      -3.880  -3.592   2.046  0.00  0.00    -0.034 A 
ATOM      5  C4  UNL d   1      -2.624  -4.069   1.670  0.00  0.00     0.162 A 
ATOM      6  C5  UNL d   1      -1.606  -3.180   1.338  0.00  0.00     0.062 A 
ATOM      7  F   UNL d   1      -0.402  -3.648   0.979  0.00  0.00    -0.097 F 
ATOM      8  F1  UNL d   1      -2.376  -5.387   1.623  0.00  0.00    -0.096 F 
ATOM      9  I   UNL d   1      -5.405  -4.919   2.542  0.00  0.00    -0.060 I 
ATOM     10  F2  UNL d   1      -5.298  -1.722   2.440  0.00  0.00    -0.096 F 
ATOM     11  F3  UNL d   1      -3.304  -0.009   1.790  0.00  0.00    -0.097 F 
ATOM     12  F4  UNL d   1      -0.853  -0.958   1.059  0.00  0.00    -0.092 F 
ENDROOT
TORSDOF 0
ENDMDL
