MODEL 1
REMARK minimizedAffinity 26.0582695
REMARK minimizedRMSD -1
REMARK  0 active torsions:
REMARK  status: ('A' for Active; 'I' for Inactive)
ROOT
ATOM      1  C   UNL d   1      -6.000   2.264  -3.947  0.00  0.00     0.124 A 
ATOM      2  C1  UNL d   1      -6.000   0.881  -4.056  0.00  0.00     0.062 A 
ATOM      3  C2  UNL d   1      -5.998   0.089  -2.911  0.00  0.00     0.162 A 
ATOM      4  C3  UNL d   1      -5.998   0.679  -1.647  0.00  0.00    -0.034 A 
ATOM      5  C4  UNL d   1      -5.997   2.071  -1.546  0.00  0.00     0.162 A 
ATOM      6  C5  UNL d   1      -5.998   2.858  -2.693  0.00  0.00     0.062 A 
ATOM      7  F   UNL d   1      -5.998   4.195  -2.586  0.00  0.00    -0.097 F 
ATOM      8  F1  UNL d   1      -5.997   2.671  -0.346  0.00  0.00    -0.096 F 
ATOM      9  I   UNL d   1      -5.997  -0.502   0.067  0.00  0.00    -0.060 I 
ATOM     10  F2  UNL d   1      -5.999  -1.246  -3.046  0.00  0.00    -0.096 F 
ATOM     11  F3  UNL d   1      -6.000   0.304  -5.266  0.00  0.00    -0.097 F 
ATOM     12  F4  UNL d   1      -6.000   3.024  -5.050  0.00  0.00    -0.092 F 
ENDROOT
TORSDOF 0
ENDMDL
