MODEL 1
REMARK minimizedAffinity 13.8571482
REMARK minimizedRMSD -1
REMARK  0 active torsions:
REMARK  status: ('A' for Active; 'I' for Inactive)
ROOT
ATOM      1  C   UNL d   1       1.885   3.178  -3.390  0.00  0.00     0.124 A 
ATOM      2  C1  UNL d   1       0.513   3.102  -3.195  0.00  0.00     0.062 A 
ATOM      3  C2  UNL d   1      -0.345   3.907  -3.938  0.00  0.00     0.162 A 
ATOM      4  C3  UNL d   1       0.167   4.795  -4.885  0.00  0.00    -0.034 A 
ATOM      5  C4  UNL d   1       1.548   4.866  -5.075  0.00  0.00     0.162 A 
ATOM      6  C5  UNL d   1       2.401   4.059  -4.329  0.00  0.00     0.062 A 
ATOM      7  F   UNL d   1       3.727   4.134  -4.519  0.00  0.00    -0.097 F 
ATOM      8  F1  UNL d   1       2.073   5.708  -5.977  0.00  0.00    -0.096 F 
ATOM      9  I   UNL d   1      -1.113   6.000  -5.999  0.00  0.00    -0.060 I 
ATOM     10  F2  UNL d   1      -1.666   3.813  -3.729  0.00  0.00    -0.096 F 
ATOM     11  F3  UNL d   1       0.013   2.252  -2.287  0.00  0.00    -0.097 F 
ATOM     12  F4  UNL d   1       2.709   2.403  -2.672  0.00  0.00    -0.092 F 
ENDROOT
TORSDOF 0
ENDMDL
