MODEL 1
REMARK minimizedAffinity 20.2343998
REMARK minimizedRMSD -1
REMARK  0 active torsions:
REMARK  status: ('A' for Active; 'I' for Inactive)
ROOT
ATOM      1  C   UNL d   1       1.924   2.347   0.284  0.00  0.00     0.124 A 
ATOM      2  C1  UNL d   1       1.992   3.733   0.236  0.00  0.00     0.062 A 
ATOM      3  C2  UNL d   1       1.760   4.404  -0.961  0.00  0.00     0.162 A 
ATOM      4  C3  UNL d   1       1.457   3.691  -2.120  0.00  0.00    -0.034 A 
ATOM      5  C4  UNL d   1       1.392   2.298  -2.065  0.00  0.00     0.162 A 
ATOM      6  C5  UNL d   1       1.624   1.631  -0.866  0.00  0.00     0.062 A 
ATOM      7  F   UNL d   1       1.558   0.293  -0.822  0.00  0.00    -0.097 F 
ATOM      8  F1  UNL d   1       1.103   1.581  -3.161  0.00  0.00    -0.096 F 
ATOM      9  I   UNL d   1       1.110   4.691  -3.912  0.00  0.00    -0.060 I 
ATOM     10  F2  UNL d   1       1.832   5.744  -0.977  0.00  0.00    -0.096 F 
ATOM     11  F3  UNL d   1       2.282   4.427   1.346  0.00  0.00    -0.097 F 
ATOM     12  F4  UNL d   1       2.148   1.704   1.437  0.00  0.00    -0.092 F 
ENDROOT
TORSDOF 0
ENDMDL
