MODEL 1
REMARK minimizedAffinity 15.78368
REMARK minimizedRMSD -1
REMARK  0 active torsions:
REMARK  status: ('A' for Active; 'I' for Inactive)
ROOT
ATOM      1  C   UNL d   1       1.910   1.504  -1.801  0.00  0.00     0.124 A 
ATOM      2  C1  UNL d   1       0.561   1.818  -1.892  0.00  0.00     0.062 A 
ATOM      3  C2  UNL d   1       0.145   2.902  -2.659  0.00  0.00     0.162 A 
ATOM      4  C3  UNL d   1       1.079   3.681  -3.342  0.00  0.00    -0.034 A 
ATOM      5  C4  UNL d   1       2.434   3.360  -3.244  0.00  0.00     0.162 A 
ATOM      6  C5  UNL d   1       2.845   2.275  -2.476  0.00  0.00     0.062 A 
ATOM      7  F   UNL d   1       4.149   1.974  -2.388  0.00  0.00    -0.097 F 
ATOM      8  F1  UNL d   1       3.359   4.088  -3.887  0.00  0.00    -0.096 F 
ATOM      9  I   UNL d   1       0.461   5.303  -4.490  0.00  0.00    -0.060 I 
ATOM     10  F2  UNL d   1      -1.165   3.182  -2.730  0.00  0.00    -0.096 F 
ATOM     11  F3  UNL d   1      -0.345   1.075  -1.240  0.00  0.00    -0.097 F 
ATOM     12  F4  UNL d   1       2.307   0.461  -1.061  0.00  0.00    -0.092 F 
ENDROOT
TORSDOF 0
ENDMDL
