MODEL 1
REMARK minimizedAffinity 14.6057844
REMARK minimizedRMSD -1
REMARK  0 active torsions:
REMARK  status: ('A' for Active; 'I' for Inactive)
ROOT
ATOM      1  C   UNL d   1       2.865   0.911  -1.637  0.00  0.00     0.124 A 
ATOM      2  C1  UNL d   1       1.613   1.476  -1.440  0.00  0.00     0.062 A 
ATOM      3  C2  UNL d   1       1.260   2.645  -2.108  0.00  0.00     0.162 A 
ATOM      4  C3  UNL d   1       2.160   3.257  -2.980  0.00  0.00    -0.034 A 
ATOM      5  C4  UNL d   1       3.418   2.682  -3.173  0.00  0.00     0.162 A 
ATOM      6  C5  UNL d   1       3.766   1.514  -2.503  0.00  0.00     0.062 A 
ATOM      7  F   UNL d   1       4.976   0.969  -2.695  0.00  0.00    -0.097 F 
ATOM      8  F1  UNL d   1       4.308   3.244  -4.004  0.00  0.00    -0.096 F 
ATOM      9  I   UNL d   1       1.636   5.005  -3.981  0.00  0.00    -0.060 I 
ATOM     10  F2  UNL d   1       0.043   3.170  -1.899  0.00  0.00    -0.096 F 
ATOM     11  F3  UNL d   1       0.741   0.896  -0.604  0.00  0.00    -0.097 F 
ATOM     12  F4  UNL d   1       3.202  -0.214  -0.993  0.00  0.00    -0.092 F 
ENDROOT
TORSDOF 0
ENDMDL
