MODEL 1
REMARK minimizedAffinity 17.4115849
REMARK minimizedRMSD -1
REMARK  0 active torsions:
REMARK  status: ('A' for Active; 'I' for Inactive)
ROOT
ATOM      1  C   UNL d   1       3.761  -0.234   2.385  0.00  0.00     0.124 A 
ATOM      2  C1  UNL d   1       2.852   0.670   1.851  0.00  0.00     0.062 A 
ATOM      3  C2  UNL d   1       1.490   0.385   1.868  0.00  0.00     0.162 A 
ATOM      4  C3  UNL d   1       1.027  -0.808   2.423  0.00  0.00    -0.034 A 
ATOM      5  C4  UNL d   1       1.947  -1.712   2.957  0.00  0.00     0.162 A 
ATOM      6  C5  UNL d   1       3.308  -1.423   2.937  0.00  0.00     0.062 A 
ATOM      7  F   UNL d   1       4.184  -2.297   3.453  0.00  0.00    -0.097 F 
ATOM      8  F1  UNL d   1       1.537  -2.869   3.498  0.00  0.00    -0.096 F 
ATOM      9  I   UNL d   1      -1.009  -1.237   2.451  0.00  0.00    -0.060 I 
ATOM     10  F2  UNL d   1       0.634   1.276   1.345  0.00  0.00    -0.096 F 
ATOM     11  F3  UNL d   1       3.287   1.819   1.316  0.00  0.00    -0.097 F 
ATOM     12  F4  UNL d   1       5.071   0.042   2.366  0.00  0.00    -0.092 F 
ENDROOT
TORSDOF 0
ENDMDL
