MODEL 1
REMARK minimizedAffinity 6.8170085
REMARK minimizedRMSD -1
REMARK  0 active torsions:
REMARK  status: ('A' for Active; 'I' for Inactive)
ROOT
ATOM      1  C   UNL d   1       3.023   5.958  -0.858  0.00  0.00    -0.002 A 
ATOM      2  C1  UNL d   1       2.015   5.956  -1.813  0.00  0.00     0.010 A 
ATOM      3  C2  UNL d   1       2.326   5.967  -3.174  0.00  0.00     0.041 A 
ATOM      4  C3  UNL d   1       3.680   5.978  -3.563  0.00  0.00    -0.075 A 
ATOM      5  S   UNL d   1       4.299   5.992  -5.173  0.00  0.00     0.015 SA
ATOM      6  C4  UNL d   1       5.915   6.000  -4.631  0.00  0.00     0.022 A 
ATOM      7  C5  UNL d   1       5.999   5.993  -3.259  0.00  0.00     0.026 A 
ATOM      8  C6  UNL d   1       4.712   5.980  -2.621  0.00  0.00    -0.082 A 
ATOM      9  C7  UNL d   1       4.364   5.969  -1.249  0.00  0.00     0.045 A 
ENDROOT
TORSDOF 0
ENDMDL
