MODEL 1
REMARK minimizedAffinity 4.2389431
REMARK minimizedRMSD -1
REMARK  0 active torsions:
REMARK  status: ('A' for Active; 'I' for Inactive)
ROOT
ATOM      1  C   UNL d   1      -5.760  -3.467  -1.643  0.00  0.00    -0.002 A 
ATOM      2  C1  UNL d   1      -5.231  -2.401  -2.357  0.00  0.00     0.010 A 
ATOM      3  C2  UNL d   1      -4.930  -2.535  -3.714  0.00  0.00     0.041 A 
ATOM      4  C3  UNL d   1      -5.173  -3.770  -4.347  0.00  0.00    -0.075 A 
ATOM      5  S   UNL d   1      -4.882  -4.166  -6.000  0.00  0.00     0.015 SA
ATOM      6  C4  UNL d   1      -5.454  -5.759  -5.797  0.00  0.00     0.022 A 
ATOM      7  C5  UNL d   1      -5.861  -6.000  -4.506  0.00  0.00     0.026 A 
ATOM      8  C6  UNL d   1      -5.706  -4.858  -3.649  0.00  0.00    -0.082 A 
ATOM      9  C7  UNL d   1      -6.000  -4.690  -2.274  0.00  0.00     0.045 A 
ENDROOT
TORSDOF 0
ENDMDL
