MODEL 1
REMARK minimizedAffinity 4.64972448
REMARK minimizedRMSD -1
REMARK  0 active torsions:
REMARK  status: ('A' for Active; 'I' for Inactive)
ROOT
ATOM      1  C   UNL d   1      -5.968  -3.994  -1.364  0.00  0.00    -0.002 A 
ATOM      2  C1  UNL d   1      -5.531  -5.308  -1.275  0.00  0.00     0.010 A 
ATOM      3  C2  UNL d   1      -5.117  -5.998  -2.416  0.00  0.00     0.041 A 
ATOM      4  C3  UNL d   1      -5.149  -5.338  -3.660  0.00  0.00    -0.075 A 
ATOM      5  S   UNL d   1      -4.689  -5.984  -5.191  0.00  0.00     0.015 SA
ATOM      6  C4  UNL d   1      -5.061  -4.531  -6.000  0.00  0.00     0.022 A 
ATOM      7  C5  UNL d   1      -5.526  -3.566  -5.138  0.00  0.00     0.026 A 
ATOM      8  C6  UNL d   1      -5.584  -4.015  -3.776  0.00  0.00    -0.082 A 
ATOM      9  C7  UNL d   1      -5.998  -3.343  -2.601  0.00  0.00     0.045 A 
ENDROOT
TORSDOF 0
ENDMDL
