MODEL 1
REMARK minimizedAffinity -3.11457086
REMARK minimizedRMSD -1
REMARK  0 active torsions:
REMARK  status: ('A' for Active; 'I' for Inactive)
ROOT
ATOM      1  C   UNL d   1      -5.507  -5.211  -1.255  0.00  0.00    -0.002 A 
ATOM      2  C1  UNL d   1      -5.904  -3.889  -1.397  0.00  0.00     0.010 A 
ATOM      3  C2  UNL d   1      -5.999  -3.308  -2.663  0.00  0.00     0.041 A 
ATOM      4  C3  UNL d   1      -5.688  -4.086  -3.795  0.00  0.00    -0.075 A 
ATOM      5  S   UNL d   1      -5.735  -3.587  -5.445  0.00  0.00     0.015 SA
ATOM      6  C4  UNL d   1      -5.230  -5.117  -6.000  0.00  0.00     0.022 A 
ATOM      7  C5  UNL d   1      -5.026  -5.999  -4.965  0.00  0.00     0.026 A 
ATOM      8  C6  UNL d   1      -5.287  -5.420  -3.678  0.00  0.00    -0.082 A 
ATOM      9  C7  UNL d   1      -5.199  -5.980  -2.380  0.00  0.00     0.045 A 
ENDROOT
TORSDOF 0
ENDMDL
