MODEL 1
REMARK minimizedAffinity 11.7690964
REMARK minimizedRMSD -1
REMARK  0 active torsions:
REMARK  status: ('A' for Active; 'I' for Inactive)
ROOT
ATOM      1  C   UNL d   1       3.090  -1.880  -2.728  0.00  0.00    -0.002 A 
ATOM      2  C1  UNL d   1       2.213  -0.894  -3.157  0.00  0.00     0.010 A 
ATOM      3  C2  UNL d   1       2.584  -0.004  -4.167  0.00  0.00     0.041 A 
ATOM      4  C3  UNL d   1       3.862  -0.125  -4.747  0.00  0.00    -0.075 A 
ATOM      5  S   UNL d   1       4.532   0.851  -6.000  0.00  0.00     0.015 SA
ATOM      6  C4  UNL d   1       5.997  -0.019  -5.997  0.00  0.00     0.022 A 
ATOM      7  C5  UNL d   1       5.993  -1.033  -5.069  0.00  0.00     0.026 A 
ATOM      8  C6  UNL d   1       4.762  -1.111  -4.333  0.00  0.00    -0.082 A 
ATOM      9  C7  UNL d   1       4.357  -1.997  -3.306  0.00  0.00     0.045 A 
ENDROOT
TORSDOF 0
ENDMDL
