MODEL 1
REMARK minimizedAffinity 9.12491989
REMARK minimizedRMSD -1
REMARK  0 active torsions:
REMARK  status: ('A' for Active; 'I' for Inactive)
ROOT
ATOM      1  C   UNL d   1      -5.636  -5.957  -4.135  0.00  0.00    -0.002 A 
ATOM      2  C1  UNL d   1      -5.708  -5.113  -5.235  0.00  0.00     0.010 A 
ATOM      3  C2  UNL d   1      -5.818  -3.732  -5.065  0.00  0.00     0.041 A 
ATOM      4  C3  UNL d   1      -5.853  -3.207  -3.758  0.00  0.00    -0.075 A 
ATOM      5  S   UNL d   1      -5.982  -1.548  -3.307  0.00  0.00     0.015 SA
ATOM      6  C4  UNL d   1      -5.944  -1.920  -1.644  0.00  0.00     0.022 A 
ATOM      7  C5  UNL d   1      -5.835  -3.272  -1.420  0.00  0.00     0.026 A 
ATOM      8  C6  UNL d   1      -5.780  -4.036  -2.635  0.00  0.00    -0.082 A 
ATOM      9  C7  UNL d   1      -5.670  -5.432  -2.840  0.00  0.00     0.045 A 
ENDROOT
TORSDOF 0
ENDMDL
