MODEL 1
REMARK minimizedAffinity 5.19549656
REMARK minimizedRMSD -1
REMARK  1 active torsions:
REMARK  status: ('A' for Active; 'I' for Inactive)
REMARK    1  A    between atoms: C1_2  and  C2_3 
ROOT
ATOM      1  C2  UNL d   1       1.947  -2.174   3.749  0.00  0.00    -0.073 A 
ATOM      2  C3  UNL d   1       3.193  -1.917   4.332  0.00  0.00    -0.002 A 
ATOM      3  C4  UNL d   1       3.608  -2.636   5.454  0.00  0.00     0.004 A 
ATOM      4  C5  UNL d   1       2.786  -3.622   5.999  0.00  0.00    -0.004 A 
ATOM      5  C6  UNL d   1       1.543  -3.902   5.424  0.00  0.00    -0.075 A 
ATOM      6  C7  UNL d   1       0.646  -4.958   6.000  0.00  0.00     0.076 C 
ATOM      7  C8  UNL d   1       1.131  -3.173   4.299  0.00  0.00     0.001 A 
ENDROOT
BRANCH   1   8
ATOM      8  C1  UNL d   1       1.497  -1.404   2.535  0.00  0.00     0.053 C 
ATOM      9  C   UNL d   1       2.203  -0.063   2.416  0.00  0.00     0.018 C 
ENDBRANCH   1   8
TORSDOF 1
ENDMDL
