MODEL 1
REMARK minimizedAffinity 9.5477562
REMARK minimizedRMSD -1
REMARK  1 active torsions:
REMARK  status: ('A' for Active; 'I' for Inactive)
REMARK    1  A    between atoms: C1_2  and  C2_3 
ROOT
ATOM      1  C2  UNL d   1       2.545  -0.412   2.781  0.00  0.00    -0.073 A 
ATOM      2  C3  UNL d   1       2.307   0.938   3.062  0.00  0.00    -0.002 A 
ATOM      3  C4  UNL d   1       2.372   1.892   2.044  0.00  0.00     0.004 A 
ATOM      4  C5  UNL d   1       2.668   1.505   0.738  0.00  0.00    -0.004 A 
ATOM      5  C6  UNL d   1       2.898   0.159   0.435  0.00  0.00    -0.075 A 
ATOM      6  C7  UNL d   1       3.220  -0.274  -0.965  0.00  0.00     0.076 C 
ATOM      7  C8  UNL d   1       2.833  -0.792   1.463  0.00  0.00     0.001 A 
ENDROOT
BRANCH   1   8
ATOM      8  C1  UNL d   1       2.470  -1.446   3.875  0.00  0.00     0.053 C 
ATOM      9  C   UNL d   1       3.766  -2.228   4.010  0.00  0.00     0.018 C 
ENDBRANCH   1   8
TORSDOF 1
ENDMDL
