MODEL 1
REMARK minimizedAffinity 6.76722479
REMARK minimizedRMSD -1
REMARK  1 active torsions:
REMARK  status: ('A' for Active; 'I' for Inactive)
REMARK    1  A    between atoms: C1_2  and  C2_3 
ROOT
ATOM      1  C2  UNL d   1       2.224  -1.701   3.505  0.00  0.00    -0.073 A 
ATOM      2  C3  UNL d   1       1.871  -0.582   4.269  0.00  0.00    -0.002 A 
ATOM      3  C4  UNL d   1       1.966   0.700   3.726  0.00  0.00     0.004 A 
ATOM      4  C5  UNL d   1       2.407   0.876   2.414  0.00  0.00    -0.004 A 
ATOM      5  C6  UNL d   1       2.753  -0.230   1.632  0.00  0.00    -0.075 A 
ATOM      6  C7  UNL d   1       3.231  -0.057   0.220  0.00  0.00     0.076 C 
ATOM      7  C8  UNL d   1       2.657  -1.514   2.185  0.00  0.00     0.001 A 
ENDROOT
BRANCH   1   8
ATOM      8  C1  UNL d   1       2.117  -3.088   4.085  0.00  0.00     0.053 C 
ATOM      9  C   UNL d   1       2.764  -4.131   3.189  0.00  0.00     0.018 C 
ENDBRANCH   1   8
TORSDOF 1
ENDMDL
