MODEL 1
REMARK minimizedAffinity 8.94439125
REMARK minimizedRMSD -1
REMARK  1 active torsions:
REMARK  status: ('A' for Active; 'I' for Inactive)
REMARK    1  A    between atoms: C1_2  and  C2_3 
ROOT
ATOM      1  C2  UNL d   1      -1.311  -2.606  -1.883  0.00  0.00    -0.073 A 
ATOM      2  C3  UNL d   1      -1.122  -3.145  -0.605  0.00  0.00    -0.002 A 
ATOM      3  C4  UNL d   1      -2.202  -3.669   0.106  0.00  0.00     0.004 A 
ATOM      4  C5  UNL d   1      -3.479  -3.666  -0.455  0.00  0.00    -0.004 A 
ATOM      5  C6  UNL d   1      -3.686  -3.143  -1.735  0.00  0.00    -0.075 A 
ATOM      6  C7  UNL d   1      -5.054  -3.130  -2.352  0.00  0.00     0.076 C 
ATOM      7  C8  UNL d   1      -2.597  -2.616  -2.442  0.00  0.00     0.001 A 
ENDROOT
BRANCH   1   8
ATOM      8  C1  UNL d   1      -0.146  -2.045  -2.657  0.00  0.00     0.053 C 
ATOM      9  C   UNL d   1       1.163  -2.725  -2.290  0.00  0.00     0.018 C 
ENDBRANCH   1   8
TORSDOF 1
ENDMDL
