MODEL 1
REMARK minimizedAffinity 2.57401013
REMARK minimizedRMSD -1
REMARK  1 active torsions:
REMARK  status: ('A' for Active; 'I' for Inactive)
REMARK    1  A    between atoms: C1_2  and  C2_3 
ROOT
ATOM      1  C2  UNL d   1       0.681  -0.851   1.569  0.00  0.00    -0.073 A 
ATOM      2  C3  UNL d   1       1.647  -1.297   2.477  0.00  0.00    -0.002 A 
ATOM      3  C4  UNL d   1       2.620  -0.420   2.959  0.00  0.00     0.004 A 
ATOM      4  C5  UNL d   1       2.632   0.911   2.544  0.00  0.00    -0.004 A 
ATOM      5  C6  UNL d   1       1.667   1.379   1.646  0.00  0.00    -0.075 A 
ATOM      6  C7  UNL d   1       1.667   2.808   1.188  0.00  0.00     0.076 C 
ATOM      7  C8  UNL d   1       0.695   0.491   1.164  0.00  0.00     0.001 A 
ENDROOT
BRANCH   1   8
ATOM      8  C1  UNL d   1      -0.375  -1.793   1.050  0.00  0.00     0.053 C 
ATOM      9  C   UNL d   1      -0.016  -2.356  -0.316  0.00  0.00     0.018 C 
ENDBRANCH   1   8
TORSDOF 1
ENDMDL
