MODEL 1
REMARK minimizedAffinity 2.40634656
REMARK minimizedRMSD -1
REMARK  0 active torsions:
REMARK  status: ('A' for Active; 'I' for Inactive)
ROOT
ATOM      1  O1  BZF d   1      -0.853   0.363  -0.267  0.00  0.00    -0.204 OA
ATOM      2  C2  BZF d   1      -0.432  -0.086  -1.504  0.00  0.00     0.174 A 
ATOM      3  C3  BZF d   1      -0.754  -1.384  -1.676  0.00  0.00    -0.012 A 
ATOM      4  C3A BZF d   1      -1.499  -1.745  -0.509  0.00  0.00    -0.107 A 
ATOM      5  C4  BZF d   1      -2.105  -2.900  -0.102  0.00  0.00     0.055 A 
ATOM      6  C5  BZF d   1      -2.687  -2.943   1.125  0.00  0.00    -0.016 A 
ATOM      7  C6  BZF d   1      -2.677  -1.854   1.972  0.00  0.00     0.022 A 
ATOM      8  C7  BZF d   1      -2.093  -0.686   1.610  0.00  0.00     0.029 A 
ATOM      9  C7A BZF d   1      -1.533  -0.629   0.357  0.00  0.00     0.058 A 
ENDROOT
TORSDOF 0
ENDMDL
