MODEL 1
REMARK minimizedAffinity 12.2021646
REMARK minimizedRMSD -1
REMARK  0 active torsions:
REMARK  status: ('A' for Active; 'I' for Inactive)
ROOT
ATOM      1  O1  BZF d   1      -3.321   1.061   0.969  0.00  0.00    -0.204 OA
ATOM      2  C2  BZF d   1      -3.637   0.238   2.032  0.00  0.00     0.174 A 
ATOM      3  C3  BZF d   1      -2.755  -0.778   2.129  0.00  0.00    -0.012 A 
ATOM      4  C3A BZF d   1      -1.777  -0.525   1.116  0.00  0.00    -0.107 A 
ATOM      5  C4  BZF d   1      -0.640  -1.173   0.726  0.00  0.00     0.055 A 
ATOM      6  C5  BZF d   1       0.052  -0.706  -0.346  0.00  0.00    -0.016 A 
ATOM      7  C6  BZF d   1      -0.367   0.402  -1.054  0.00  0.00     0.022 A 
ATOM      8  C7  BZF d   1      -1.486   1.081  -0.702  0.00  0.00     0.029 A 
ATOM      9  C7A BZF d   1      -2.169   0.631   0.401  0.00  0.00     0.058 A 
ENDROOT
TORSDOF 0
ENDMDL
