MODEL 1
REMARK minimizedAffinity -5.8734026
REMARK minimizedRMSD -1
REMARK  0 active torsions:
REMARK  status: ('A' for Active; 'I' for Inactive)
ROOT
ATOM      1  O1  BZF d   1      -2.091  -1.303   1.984  0.00  0.00    -0.204 OA
ATOM      2  C2  BZF d   1      -2.030   0.074   1.895  0.00  0.00     0.174 A 
ATOM      3  C3  BZF d   1      -1.069   0.456   1.029  0.00  0.00    -0.012 A 
ATOM      4  C3A BZF d   1      -0.556  -0.761   0.477  0.00  0.00    -0.107 A 
ATOM      5  C4  BZF d   1       0.406  -1.037  -0.452  0.00  0.00     0.055 A 
ATOM      6  C5  BZF d   1       0.717  -2.334  -0.715  0.00  0.00    -0.016 A 
ATOM      7  C6  BZF d   1       0.091  -3.377  -0.064  0.00  0.00     0.022 A 
ATOM      8  C7  BZF d   1      -0.873  -3.152   0.862  0.00  0.00     0.029 A 
ATOM      9  C7A BZF d   1      -1.213  -1.844   1.105  0.00  0.00     0.058 A 
ENDROOT
TORSDOF 0
ENDMDL
