MODEL 1
REMARK minimizedAffinity -5.02000093
REMARK minimizedRMSD -1
REMARK  0 active torsions:
REMARK  status: ('A' for Active; 'I' for Inactive)
ROOT
ATOM      1  O1  BZF d   1       1.607   0.024   0.010  0.00  0.00    -0.204 OA
ATOM      2  C2  BZF d   1       1.043   1.243   0.336  0.00  0.00     0.174 A 
ATOM      3  C3  BZF d   1      -0.252   1.094   0.679  0.00  0.00    -0.012 A 
ATOM      4  C3A BZF d   1      -0.491  -0.316   0.648  0.00  0.00    -0.107 A 
ATOM      5  C4  BZF d   1      -1.586  -1.089   0.910  0.00  0.00     0.055 A 
ATOM      6  C5  BZF d   1      -1.508  -2.432   0.715  0.00  0.00    -0.016 A 
ATOM      7  C6  BZF d   1      -0.355  -3.033   0.256  0.00  0.00     0.022 A 
ATOM      8  C7  BZF d   1       0.759  -2.309  -0.012  0.00  0.00     0.029 A 
ATOM      9  C7A BZF d   1       0.694  -0.956   0.215  0.00  0.00     0.058 A 
ENDROOT
TORSDOF 0
ENDMDL
