MODEL 1
REMARK minimizedAffinity -4.23589706
REMARK minimizedRMSD -1
REMARK  0 active torsions:
REMARK  status: ('A' for Active; 'I' for Inactive)
ROOT
ATOM      1  O1  BZF d   1       0.823   0.175  -0.726  0.00  0.00    -0.204 OA
ATOM      2  C2  BZF d   1       0.173   1.273  -0.197  0.00  0.00     0.174 A 
ATOM      3  C3  BZF d   1      -0.895   0.891   0.532  0.00  0.00    -0.012 A 
ATOM      4  C3A BZF d   1      -0.861  -0.539   0.529  0.00  0.00    -0.107 A 
ATOM      5  C4  BZF d   1      -1.651  -1.498   1.096  0.00  0.00     0.055 A 
ATOM      6  C5  BZF d   1      -1.388  -2.807   0.840  0.00  0.00    -0.016 A 
ATOM      7  C6  BZF d   1      -0.347  -3.191   0.020  0.00  0.00     0.022 A 
ATOM      8  C7  BZF d   1       0.467  -2.276  -0.561  0.00  0.00     0.029 A 
ATOM      9  C7A BZF d   1       0.223  -0.954  -0.278  0.00  0.00     0.058 A 
ENDROOT
TORSDOF 0
ENDMDL
