MODEL 1
REMARK minimizedAffinity -6.25034046
REMARK minimizedRMSD -1
REMARK  0 active torsions:
REMARK  status: ('A' for Active; 'I' for Inactive)
ROOT
ATOM      1  O1  BZF d   1      -0.093   0.030  -0.743  0.00  0.00    -0.204 OA
ATOM      2  C2  BZF d   1      -0.788   0.983  -0.023  0.00  0.00     0.174 A 
ATOM      3  C3  BZF d   1      -1.346   0.438   1.078  0.00  0.00    -0.012 A 
ATOM      4  C3A BZF d   1      -0.900  -0.921   1.093  0.00  0.00    -0.107 A 
ATOM      5  C4  BZF d   1      -1.104  -1.967   1.946  0.00  0.00     0.055 A 
ATOM      6  C5  BZF d   1      -0.586  -3.184   1.635  0.00  0.00    -0.016 A 
ATOM      7  C6  BZF d   1       0.137  -3.392   0.479  0.00  0.00     0.022 A 
ATOM      8  C7  BZF d   1       0.370  -2.383  -0.396  0.00  0.00     0.029 A 
ATOM      9  C7A BZF d   1      -0.125  -1.144  -0.069  0.00  0.00     0.058 A 
ENDROOT
TORSDOF 0
ENDMDL
