MODEL 1
REMARK minimizedAffinity -5.3735528
REMARK minimizedRMSD -1
REMARK  0 active torsions:
REMARK  status: ('A' for Active; 'I' for Inactive)
ROOT
ATOM      1  O1  BZF d   1      -0.076   0.727  -0.915  0.00  0.00    -0.204 OA
ATOM      2  C2  BZF d   1       0.457   0.349  -2.132  0.00  0.00     0.174 A 
ATOM      3  C3  BZF d   1       0.748  -0.968  -2.139  0.00  0.00    -0.012 A 
ATOM      4  C3A BZF d   1       0.286  -1.462  -0.878  0.00  0.00    -0.107 A 
ATOM      5  C4  BZF d   1       0.279  -2.699  -0.300  0.00  0.00     0.055 A 
ATOM      6  C5  BZF d   1      -0.177  -2.831   0.973  0.00  0.00    -0.016 A 
ATOM      7  C6  BZF d   1      -0.628  -1.747   1.699  0.00  0.00     0.022 A 
ATOM      8  C7  BZF d   1      -0.645  -0.501   1.166  0.00  0.00     0.029 A 
ATOM      9  C7A BZF d   1      -0.215  -0.370  -0.132  0.00  0.00     0.058 A 
ENDROOT
TORSDOF 0
ENDMDL
