MODEL 1
REMARK minimizedAffinity -2.275213
REMARK minimizedRMSD -1
REMARK  0 active torsions:
REMARK  status: ('A' for Active; 'I' for Inactive)
ROOT
ATOM      1  O1  BZF d   1      -1.113   0.690   0.156  0.00  0.00    -0.204 OA
ATOM      2  C2  BZF d   1      -0.332   1.361  -0.765  0.00  0.00     0.174 A 
ATOM      3  C3  BZF d   1       0.711   0.599  -1.154  0.00  0.00    -0.012 A 
ATOM      4  C3A BZF d   1       0.521  -0.660  -0.500  0.00  0.00    -0.107 A 
ATOM      5  C4  BZF d   1       1.219  -1.834  -0.503  0.00  0.00     0.055 A 
ATOM      6  C5  BZF d   1       0.807  -2.849   0.301  0.00  0.00    -0.016 A 
ATOM      7  C6  BZF d   1      -0.293  -2.723   1.123  0.00  0.00     0.022 A 
ATOM      8  C7  BZF d   1      -1.020  -1.580   1.157  0.00  0.00     0.029 A 
ATOM      9  C7A BZF d   1      -0.626  -0.564   0.321  0.00  0.00     0.058 A 
ENDROOT
TORSDOF 0
ENDMDL
