MODEL 1
REMARK minimizedAffinity -3.97182441
REMARK minimizedRMSD -1
REMARK  0 active torsions:
REMARK  status: ('A' for Active; 'I' for Inactive)
ROOT
ATOM      1  O1  BZF d   1       0.135  -3.317   0.870  0.00  0.00    -0.204 OA
ATOM      2  C2  BZF d   1       1.472  -3.279   0.526  0.00  0.00     0.174 A 
ATOM      3  C3  BZF d   1       1.834  -2.035   0.151  0.00  0.00    -0.012 A 
ATOM      4  C3A BZF d   1       0.672  -1.226   0.357  0.00  0.00    -0.107 A 
ATOM      5  C4  BZF d   1       0.409   0.102   0.181  0.00  0.00     0.055 A 
ATOM      6  C5  BZF d   1      -0.850   0.562   0.405  0.00  0.00    -0.016 A 
ATOM      7  C6  BZF d   1      -1.870  -0.279   0.800  0.00  0.00     0.022 A 
ATOM      8  C7  BZF d   1      -1.657  -1.604   0.992  0.00  0.00     0.029 A 
ATOM      9  C7A BZF d   1      -0.378  -2.065   0.798  0.00  0.00     0.058 A 
ENDROOT
TORSDOF 0
ENDMDL
