MODEL 1
REMARK minimizedAffinity -4.61482239
REMARK minimizedRMSD -1
REMARK  0 active torsions:
REMARK  status: ('A' for Active; 'I' for Inactive)
ROOT
ATOM      1  O1  BZF d   1      -1.720   0.356   0.354  0.00  0.00    -0.204 OA
ATOM      2  C2  BZF d   1      -0.797   1.359   0.132  0.00  0.00     0.174 A 
ATOM      3  C3  BZF d   1       0.460   0.873   0.186  0.00  0.00    -0.012 A 
ATOM      4  C3A BZF d   1       0.311  -0.538   0.368  0.00  0.00    -0.107 A 
ATOM      5  C4  BZF d   1       1.198  -1.570   0.480  0.00  0.00     0.055 A 
ATOM      6  C5  BZF d   1       0.729  -2.822   0.723  0.00  0.00    -0.016 A 
ATOM      7  C6  BZF d   1      -0.619  -3.077   0.865  0.00  0.00     0.022 A 
ATOM      8  C7  BZF d   1      -1.538  -2.087   0.758  0.00  0.00     0.029 A 
ATOM      9  C7A BZF d   1      -1.069  -0.826   0.479  0.00  0.00     0.058 A 
ENDROOT
TORSDOF 0
ENDMDL
