MODEL 1
REMARK minimizedAffinity -5.02190542
REMARK minimizedRMSD -1
REMARK  0 active torsions:
REMARK  status: ('A' for Active; 'I' for Inactive)
ROOT
ATOM      1  O1  BZF d   1      -0.429  -1.075  -1.068  0.00  0.00    -0.204 OA
ATOM      2  C2  BZF d   1      -0.370  -1.632   0.195  0.00  0.00     0.174 A 
ATOM      3  C3  BZF d   1      -0.068  -0.694   1.117  0.00  0.00    -0.012 A 
ATOM      4  C3A BZF d   1      -0.021   0.541   0.396  0.00  0.00    -0.107 A 
ATOM      5  C4  BZF d   1       0.216   1.834   0.764  0.00  0.00     0.055 A 
ATOM      6  C5  BZF d   1       0.262   2.796  -0.195  0.00  0.00    -0.016 A 
ATOM      7  C6  BZF d   1       0.081   2.500  -1.530  0.00  0.00     0.022 A 
ATOM      8  C7  BZF d   1      -0.162   1.232  -1.943  0.00  0.00     0.029 A 
ATOM      9  C7A BZF d   1      -0.242   0.263  -0.973  0.00  0.00     0.058 A 
ENDROOT
TORSDOF 0
ENDMDL
