MODEL 1
REMARK minimizedAffinity -4.95110321
REMARK minimizedRMSD -1
REMARK  0 active torsions:
REMARK  status: ('A' for Active; 'I' for Inactive)
ROOT
ATOM      1  O1  BZF d   1       0.242  -0.204  -1.318  0.00  0.00    -0.204 OA
ATOM      2  C2  BZF d   1       0.105   0.929  -0.540  0.00  0.00     0.174 A 
ATOM      3  C3  BZF d   1      -0.570   0.652   0.594  0.00  0.00    -0.012 A 
ATOM      4  C3A BZF d   1      -0.795  -0.761   0.563  0.00  0.00    -0.107 A 
ATOM      5  C4  BZF d   1      -1.402  -1.634   1.419  0.00  0.00     0.055 A 
ATOM      6  C5  BZF d   1      -1.518  -2.939   1.059  0.00  0.00    -0.016 A 
ATOM      7  C6  BZF d   1      -1.044  -3.404  -0.150  0.00  0.00     0.022 A 
ATOM      8  C7  BZF d   1      -0.430  -2.576  -1.030  0.00  0.00     0.029 A 
ATOM      9  C7A BZF d   1      -0.282  -1.263  -0.655  0.00  0.00     0.058 A 
ENDROOT
TORSDOF 0
ENDMDL
