MODEL 1
REMARK minimizedAffinity -3.97200966
REMARK minimizedRMSD -1
REMARK  0 active torsions:
REMARK  status: ('A' for Active; 'I' for Inactive)
ROOT
ATOM      1  O1  BZF d   1      -1.076   0.721   0.329  0.00  0.00    -0.204 OA
ATOM      2  C2  BZF d   1      -0.103   1.116  -0.570  0.00  0.00     0.174 A 
ATOM      3  C3  BZF d   1       0.749   0.103  -0.828  0.00  0.00    -0.012 A 
ATOM      4  C3A BZF d   1       0.226  -1.020  -0.112  0.00  0.00    -0.107 A 
ATOM      5  C4  BZF d   1       0.623  -2.321   0.014  0.00  0.00     0.055 A 
ATOM      6  C5  BZF d   1      -0.066  -3.144   0.847  0.00  0.00    -0.016 A 
ATOM      7  C6  BZF d   1      -1.152  -2.700   1.572  0.00  0.00     0.022 A 
ATOM      8  C7  BZF d   1      -1.587  -1.420   1.476  0.00  0.00     0.029 A 
ATOM      9  C7A BZF d   1      -0.912  -0.594   0.610  0.00  0.00     0.058 A 
ENDROOT
TORSDOF 0
ENDMDL
