MODEL 1
REMARK minimizedAffinity -6.32904148
REMARK minimizedRMSD -1
REMARK  0 active torsions:
REMARK  status: ('A' for Active; 'I' for Inactive)
ROOT
ATOM      1  O1  BZF d   1      -0.719  -1.452   1.391  0.00  0.00    -0.204 OA
ATOM      2  C2  BZF d   1      -0.597  -2.813   1.190  0.00  0.00     0.174 A 
ATOM      3  C3  BZF d   1      -0.196  -3.076  -0.070  0.00  0.00    -0.012 A 
ATOM      4  C3A BZF d   1       0.030  -1.796  -0.668  0.00  0.00    -0.107 A 
ATOM      5  C4  BZF d   1       0.455  -1.399  -1.904  0.00  0.00     0.055 A 
ATOM      6  C5  BZF d   1       0.499  -0.072  -2.192  0.00  0.00    -0.016 A 
ATOM      7  C6  BZF d   1       0.120   0.884  -1.273  0.00  0.00     0.022 A 
ATOM      8  C7  BZF d   1      -0.304   0.538  -0.032  0.00  0.00     0.029 A 
ATOM      9  C7A BZF d   1      -0.318  -0.801   0.273  0.00  0.00     0.058 A 
ENDROOT
TORSDOF 0
ENDMDL
