MODEL 1
REMARK minimizedAffinity -4.01363659
REMARK minimizedRMSD -1
REMARK  0 active torsions:
REMARK  status: ('A' for Active; 'I' for Inactive)
ROOT
ATOM      1  O1  BZF d   1       1.421   4.229   1.960  0.00  0.00    -0.204 OA
ATOM      2  C2  BZF d   1       0.146   4.410   2.458  0.00  0.00     0.174 A 
ATOM      3  C3  BZF d   1      -0.749   3.683   1.758  0.00  0.00    -0.012 A 
ATOM      4  C3A BZF d   1       0.028   2.934   0.819  0.00  0.00    -0.107 A 
ATOM      5  C4  BZF d   1      -0.290   2.018  -0.144  0.00  0.00     0.055 A 
ATOM      6  C5  BZF d   1       0.696   1.528  -0.940  0.00  0.00    -0.016 A 
ATOM      7  C6  BZF d   1       2.008   1.934  -0.806  0.00  0.00     0.022 A 
ATOM      8  C7  BZF d   1       2.372   2.836   0.138  0.00  0.00     0.029 A 
ATOM      9  C7A BZF d   1       1.383   3.309   0.966  0.00  0.00     0.058 A 
ENDROOT
TORSDOF 0
ENDMDL
