MODEL 1
REMARK minimizedAffinity -6.11652517
REMARK minimizedRMSD -1
REMARK  0 active torsions:
REMARK  status: ('A' for Active; 'I' for Inactive)
ROOT
ATOM      1  O1  BZF d   1       0.542  -0.741  -2.178  0.00  0.00    -0.204 OA
ATOM      2  C2  BZF d   1       0.858  -1.795  -3.012  0.00  0.00     0.174 A 
ATOM      3  C3  BZF d   1       0.722  -2.972  -2.368  0.00  0.00    -0.012 A 
ATOM      4  C3A BZF d   1       0.206  -2.637  -1.076  0.00  0.00    -0.107 A 
ATOM      5  C4  BZF d   1      -0.153  -3.378   0.013  0.00  0.00     0.055 A 
ATOM      6  C5  BZF d   1      -0.551  -2.739   1.145  0.00  0.00    -0.016 A 
ATOM      7  C6  BZF d   1      -0.597  -1.363   1.223  0.00  0.00     0.022 A 
ATOM      8  C7  BZF d   1      -0.256  -0.585   0.167  0.00  0.00     0.029 A 
ATOM      9  C7A BZF d   1       0.115  -1.228  -0.989  0.00  0.00     0.058 A 
ENDROOT
TORSDOF 0
ENDMDL
