MODEL 1
REMARK minimizedAffinity -5.03539944
REMARK minimizedRMSD -1
REMARK  0 active torsions:
REMARK  status: ('A' for Active; 'I' for Inactive)
ROOT
ATOM      1  O1  BZF d   1       0.102  -0.511  -2.105  0.00  0.00    -0.204 OA
ATOM      2  C2  BZF d   1       0.016   0.720  -1.484  0.00  0.00     0.174 A 
ATOM      3  C3  BZF d   1      -0.170   0.574  -0.156  0.00  0.00    -0.012 A 
ATOM      4  C3A BZF d   1      -0.110  -0.837   0.079  0.00  0.00    -0.107 A 
ATOM      5  C4  BZF d   1      -0.209  -1.606   1.203  0.00  0.00     0.055 A 
ATOM      6  C5  BZF d   1      -0.181  -2.959   1.081  0.00  0.00    -0.016 A 
ATOM      7  C6  BZF d   1      -0.060  -3.576  -0.147  0.00  0.00     0.022 A 
ATOM      8  C7  BZF d   1       0.047  -2.854  -1.289  0.00  0.00     0.029 A 
ATOM      9  C7A BZF d   1       0.052  -1.486  -1.167  0.00  0.00     0.058 A 
ENDROOT
TORSDOF 0
ENDMDL
