MODEL 1
REMARK minimizedAffinity -3.8707521
REMARK minimizedRMSD -1
REMARK  0 active torsions:
REMARK  status: ('A' for Active; 'I' for Inactive)
ROOT
ATOM      1  C   UNL d   1      -0.320  -2.886   0.944  0.00  0.00     0.023 A 
ATOM      2  C1  UNL d   1      -0.661  -1.889   1.858  0.00  0.00     0.003 A 
ATOM      3  C2  UNL d   1      -0.441  -0.546   1.543  0.00  0.00     0.048 A 
ATOM      4  C3  UNL d   1       0.119  -0.208   0.312  0.00  0.00     0.023 A 
ATOM      5  C4  UNL d   1       0.461  -1.202  -0.606  0.00  0.00     0.048 A 
ATOM      6  C5  UNL d   1       0.240  -2.543  -0.286  0.00  0.00     0.003 A 
ATOM      7  I   UNL d   1       0.447   1.790  -0.160  0.00  0.00    -0.146 I 
ENDROOT
TORSDOF 0
ENDMDL
