MODEL 1
REMARK minimizedAffinity -0.716841161
REMARK minimizedRMSD -1
REMARK  0 active torsions:
REMARK  status: ('A' for Active; 'I' for Inactive)
ROOT
ATOM      1  C   UNL d   1       0.211   0.889  -1.094  0.00  0.00     0.023 A 
ATOM      2  C1  UNL d   1      -0.118   0.687   0.246  0.00  0.00     0.003 A 
ATOM      3  C2  UNL d   1      -0.383  -0.602   0.715  0.00  0.00     0.048 A 
ATOM      4  C3  UNL d   1      -0.315  -1.684  -0.162  0.00  0.00     0.023 A 
ATOM      5  C4  UNL d   1       0.015  -1.487  -1.504  0.00  0.00     0.048 A 
ATOM      6  C5  UNL d   1       0.278  -0.197  -1.968  0.00  0.00     0.003 A 
ATOM      7  I   UNL d   1      -0.709  -3.603   0.534  0.00  0.00    -0.146 I 
ENDROOT
TORSDOF 0
ENDMDL
