MODEL 1
REMARK minimizedAffinity -1.61038482
REMARK minimizedRMSD -1
REMARK  0 active torsions:
REMARK  status: ('A' for Active; 'I' for Inactive)
ROOT
ATOM      1  C   UNL d   1       0.690  -1.798  -0.485  0.00  0.00     0.023 A 
ATOM      2  C1  UNL d   1       0.641  -1.217   0.782  0.00  0.00     0.003 A 
ATOM      3  C2  UNL d   1       0.659   0.173   0.915  0.00  0.00     0.048 A 
ATOM      4  C3  UNL d   1       0.723   0.976  -0.224  0.00  0.00     0.023 A 
ATOM      5  C4  UNL d   1       0.771   0.398  -1.493  0.00  0.00     0.048 A 
ATOM      6  C5  UNL d   1       0.754  -0.992  -1.621  0.00  0.00     0.003 A 
ATOM      7  I   UNL d   1       0.748   3.045  -0.029  0.00  0.00    -0.146 I 
ENDROOT
TORSDOF 0
ENDMDL
