MODEL 1
REMARK minimizedAffinity -1.44270682
REMARK minimizedRMSD -1
REMARK  0 active torsions:
REMARK  status: ('A' for Active; 'I' for Inactive)
ROOT
ATOM      1  C   UNL d   1      -0.435  -1.228   2.285  0.00  0.00     0.023 A 
ATOM      2  C1  UNL d   1      -0.740  -0.297   1.292  0.00  0.00     0.003 A 
ATOM      3  C2  UNL d   1      -0.602  -0.641  -0.054  0.00  0.00     0.048 A 
ATOM      4  C3  UNL d   1      -0.161  -1.917  -0.401  0.00  0.00     0.023 A 
ATOM      5  C4  UNL d   1       0.144  -2.853   0.590  0.00  0.00     0.048 A 
ATOM      6  C5  UNL d   1       0.006  -2.504   1.935  0.00  0.00     0.003 A 
ATOM      7  I   UNL d   1       0.045  -2.431  -2.404  0.00  0.00    -0.146 I 
ENDROOT
TORSDOF 0
ENDMDL
