MODEL 1
REMARK minimizedAffinity -3.89414763
REMARK minimizedRMSD -1
REMARK  0 active torsions:
REMARK  status: ('A' for Active; 'I' for Inactive)
ROOT
ATOM      1  C   UNL d   1       0.014   1.255  -1.360  0.00  0.00     0.023 A 
ATOM      2  C1  UNL d   1       0.243   0.162  -2.196  0.00  0.00     0.003 A 
ATOM      3  C2  UNL d   1       0.334  -1.123  -1.659  0.00  0.00     0.048 A 
ATOM      4  C3  UNL d   1       0.193  -1.309  -0.284  0.00  0.00     0.023 A 
ATOM      5  C4  UNL d   1      -0.037  -0.219   0.557  0.00  0.00     0.048 A 
ATOM      6  C5  UNL d   1      -0.126   1.065   0.015  0.00  0.00     0.003 A 
ATOM      7  I   UNL d   1       0.327  -3.221   0.519  0.00  0.00    -0.146 I 
ENDROOT
TORSDOF 0
ENDMDL
