MODEL 1
REMARK minimizedAffinity -3.95834947
REMARK minimizedRMSD -1
REMARK  0 active torsions:
REMARK  status: ('A' for Active; 'I' for Inactive)
ROOT
ATOM      1  C   UNL d   1      -1.164  -2.422   0.674  0.00  0.00     0.023 A 
ATOM      2  C1  UNL d   1       0.207  -2.371   0.420  0.00  0.00     0.003 A 
ATOM      3  C2  UNL d   1       0.866  -1.140   0.388  0.00  0.00     0.048 A 
ATOM      4  C3  UNL d   1       0.149   0.035   0.611  0.00  0.00     0.023 A 
ATOM      5  C4  UNL d   1      -1.222  -0.012   0.867  0.00  0.00     0.048 A 
ATOM      6  C5  UNL d   1      -1.878  -1.245   0.897  0.00  0.00     0.003 A 
ATOM      7  I   UNL d   1       1.129   1.867   0.564  0.00  0.00    -0.146 I 
ENDROOT
TORSDOF 0
ENDMDL
