MODEL 1
REMARK minimizedAffinity -4.06407166
REMARK minimizedRMSD -1
REMARK  0 active torsions:
REMARK  status: ('A' for Active; 'I' for Inactive)
ROOT
ATOM      1  C   UNL d   1      -0.441  -3.488  -0.901  0.00  0.00     0.023 A 
ATOM      2  C1  UNL d   1      -0.671  -2.939   0.361  0.00  0.00     0.003 A 
ATOM      3  C2  UNL d   1      -0.466  -1.575   0.578  0.00  0.00     0.048 A 
ATOM      4  C3  UNL d   1      -0.032  -0.766  -0.472  0.00  0.00     0.023 A 
ATOM      5  C4  UNL d   1       0.198  -1.310  -1.736  0.00  0.00     0.048 A 
ATOM      6  C5  UNL d   1      -0.007  -2.675  -1.948  0.00  0.00     0.003 A 
ATOM      7  I   UNL d   1       0.273   1.265  -0.151  0.00  0.00    -0.146 I 
ENDROOT
TORSDOF 0
ENDMDL
