MODEL 1
REMARK minimizedAffinity 1.49964333
REMARK minimizedRMSD -1
REMARK  0 active torsions:
REMARK  status: ('A' for Active; 'I' for Inactive)
ROOT
ATOM      1  C   UNL d   1      -0.905  -1.330   2.282  0.00  0.00     0.023 A 
ATOM      2  C1  UNL d   1      -1.210  -2.275   1.301  0.00  0.00     0.003 A 
ATOM      3  C2  UNL d   1      -0.727  -2.113   0.001  0.00  0.00     0.048 A 
ATOM      4  C3  UNL d   1       0.061  -1.006  -0.311  0.00  0.00     0.023 A 
ATOM      5  C4  UNL d   1       0.369  -0.059   0.667  0.00  0.00     0.048 A 
ATOM      6  C5  UNL d   1      -0.117  -0.224   1.965  0.00  0.00     0.003 A 
ATOM      7  I   UNL d   1       0.782  -0.763  -2.246  0.00  0.00    -0.146 I 
ENDROOT
TORSDOF 0
ENDMDL
