MODEL 1
REMARK minimizedAffinity -4.20655632
REMARK minimizedRMSD -1
REMARK  0 active torsions:
REMARK  status: ('A' for Active; 'I' for Inactive)
ROOT
ATOM      1  C   UNL d   1      -0.131  -3.169  -0.500  0.00  0.00     0.023 A 
ATOM      2  C1  UNL d   1       0.162  -2.329  -1.574  0.00  0.00     0.003 A 
ATOM      3  C2  UNL d   1       0.438  -0.978  -1.350  0.00  0.00     0.048 A 
ATOM      4  C3  UNL d   1       0.420  -0.475  -0.050  0.00  0.00     0.023 A 
ATOM      5  C4  UNL d   1       0.128  -1.312   1.028  0.00  0.00     0.048 A 
ATOM      6  C5  UNL d   1      -0.149  -2.662   0.799  0.00  0.00     0.003 A 
ATOM      7  I   UNL d   1       0.831   1.535   0.285  0.00  0.00    -0.146 I 
ENDROOT
TORSDOF 0
ENDMDL
