MODEL 1
REMARK minimizedAffinity -1.55091846
REMARK minimizedRMSD -1
REMARK  0 active torsions:
REMARK  status: ('A' for Active; 'I' for Inactive)
ROOT
ATOM      1  C   UNL d   1      -0.347  -0.798  -0.558  0.00  0.00     0.023 A 
ATOM      2  C1  UNL d   1      -0.449  -0.468   0.794  0.00  0.00     0.003 A 
ATOM      3  C2  UNL d   1      -0.217   0.843   1.213  0.00  0.00     0.048 A 
ATOM      4  C3  UNL d   1       0.115   1.821   0.276  0.00  0.00     0.023 A 
ATOM      5  C4  UNL d   1       0.217   1.496  -1.078  0.00  0.00     0.048 A 
ATOM      6  C5  UNL d   1      -0.014   0.183  -1.492  0.00  0.00     0.003 A 
ATOM      7  I   UNL d   1       0.460   3.773   0.898  0.00  0.00    -0.146 I 
ENDROOT
TORSDOF 0
ENDMDL
