MODEL 1
REMARK minimizedAffinity -1.67781806
REMARK minimizedRMSD -1
REMARK  0 active torsions:
REMARK  status: ('A' for Active; 'I' for Inactive)
ROOT
ATOM      1  C   UNL d   1      -1.128  -2.478   0.550  0.00  0.00     0.023 A 
ATOM      2  C1  UNL d   1      -1.838  -1.280   0.638  0.00  0.00     0.003 A 
ATOM      3  C2  UNL d   1      -1.154  -0.063   0.666  0.00  0.00     0.048 A 
ATOM      4  C3  UNL d   1       0.239  -0.050   0.604  0.00  0.00     0.023 A 
ATOM      5  C4  UNL d   1       0.953  -1.246   0.514  0.00  0.00     0.048 A 
ATOM      6  C5  UNL d   1       0.266  -2.461   0.488  0.00  0.00     0.003 A 
ATOM      7  I   UNL d   1       1.258   1.761   0.645  0.00  0.00    -0.146 I 
ENDROOT
TORSDOF 0
ENDMDL
