MODEL 1
REMARK minimizedAffinity -2.2411468
REMARK minimizedRMSD -1
REMARK  0 active torsions:
REMARK  status: ('A' for Active; 'I' for Inactive)
ROOT
ATOM      1  C   UNL d   1      -0.641  -1.674   0.646  0.00  0.00     0.023 A 
ATOM      2  C1  UNL d   1       0.410  -1.432  -0.239  0.00  0.00     0.003 A 
ATOM      3  C2  UNL d   1       0.936  -0.144  -0.365  0.00  0.00     0.048 A 
ATOM      4  C3  UNL d   1       0.407   0.896   0.399  0.00  0.00     0.023 A 
ATOM      5  C4  UNL d   1      -0.644   0.658   1.286  0.00  0.00     0.048 A 
ATOM      6  C5  UNL d   1      -1.168  -0.630   1.407  0.00  0.00     0.003 A 
ATOM      7  I   UNL d   1       1.188   2.813   0.214  0.00  0.00    -0.146 I 
ENDROOT
TORSDOF 0
ENDMDL
