MODEL 1
REMARK minimizedAffinity 19.5531349
REMARK minimizedRMSD -1
REMARK  2 active torsions:
REMARK  status: ('A' for Active; 'I' for Inactive)
REMARK    1  A    between atoms: C2'_3  and  C1'_4 
REMARK    2  A    between atoms: C1'_4  and  C1_5 
ROOT
ATOM      1  C1  I4B d   1      -1.046  -1.751  -0.968  0.00  0.00    -0.075 A 
ATOM      2  C2  I4B d   1      -2.123  -1.161  -0.355  0.00  0.00     0.003 A 
ATOM      3  C3  I4B d   1      -2.724  -1.772   0.773  0.00  0.00     0.002 A 
ATOM      4  C4  I4B d   1      -2.252  -2.989   1.219  0.00  0.00    -0.004 A 
ATOM      5  C5  I4B d   1      -1.145  -3.574   0.610  0.00  0.00     0.002 A 
ATOM      6  C6  I4B d   1      -0.531  -2.946  -0.483  0.00  0.00     0.003 A 
ENDROOT
BRANCH   1   7
ATOM      7  C1' I4B d   1      -0.456  -1.095  -2.176  0.00  0.00     0.060 C 
BRANCH   7   8
ATOM      8  C2' I4B d   1      -1.402  -1.320  -3.338  0.00  0.00    -0.013 C 
ATOM      9  C4' I4B d   1      -1.719  -0.027  -4.042  0.00  0.00     0.013 C 
ATOM     10  C3' I4B d   1      -0.762  -2.302  -4.273  0.00  0.00     0.013 C 
ENDBRANCH   7   8
ENDBRANCH   1   7
TORSDOF 2
ENDMDL
