MODEL 1
REMARK minimizedAffinity 2.4678297
REMARK minimizedRMSD -1
REMARK  2 active torsions:
REMARK  status: ('A' for Active; 'I' for Inactive)
REMARK    1  A    between atoms: C2'_3  and  C1'_4 
REMARK    2  A    between atoms: C1'_4  and  C1_5 
ROOT
ATOM      1  C1  I4B d   1      -1.985  -3.184   2.673  0.00  0.00    -0.075 A 
ATOM      2  C2  I4B d   1      -1.420  -4.405   2.945  0.00  0.00     0.003 A 
ATOM      3  C3  I4B d   1      -0.643  -5.065   1.962  0.00  0.00     0.002 A 
ATOM      4  C4  I4B d   1      -0.500  -4.496   0.713  0.00  0.00    -0.004 A 
ATOM      5  C5  I4B d   1      -1.055  -3.248   0.447  0.00  0.00     0.002 A 
ATOM      6  C6  I4B d   1      -1.791  -2.581   1.437  0.00  0.00     0.003 A 
ENDROOT
BRANCH   1   7
ATOM      7  C1' I4B d   1      -2.826  -2.529   3.723  0.00  0.00     0.060 C 
BRANCH   7   8
ATOM      8  C2' I4B d   1      -1.979  -1.479   4.412  0.00  0.00    -0.013 C 
ATOM      9  C4' I4B d   1      -2.826  -0.342   4.920  0.00  0.00     0.013 C 
ATOM     10  C3' I4B d   1      -1.238  -2.146   5.534  0.00  0.00     0.013 C 
ENDBRANCH   7   8
ENDBRANCH   1   7
TORSDOF 2
ENDMDL
