MODEL 1
REMARK minimizedAffinity 12.9212151
REMARK minimizedRMSD -1
REMARK  2 active torsions:
REMARK  status: ('A' for Active; 'I' for Inactive)
REMARK    1  A    between atoms: C2'_3  and  C1'_4 
REMARK    2  A    between atoms: C1'_4  and  C1_5 
ROOT
ATOM      1  C1  I4B d   1      -0.560   0.835  -3.714  0.00  0.00    -0.075 A 
ATOM      2  C2  I4B d   1      -1.911   0.778  -3.475  0.00  0.00     0.003 A 
ATOM      3  C3  I4B d   1      -2.751   1.843  -3.880  0.00  0.00     0.002 A 
ATOM      4  C4  I4B d   1      -2.197   2.960  -4.471  0.00  0.00    -0.004 A 
ATOM      5  C5  I4B d   1      -0.830   3.006  -4.733  0.00  0.00     0.002 A 
ATOM      6  C6  I4B d   1      -0.008   1.932  -4.363  0.00  0.00     0.003 A 
ENDROOT
BRANCH   1   7
ATOM      7  C1' I4B d   1       0.303  -0.293  -3.243  0.00  0.00     0.060 C 
BRANCH   7   8
ATOM      8  C2' I4B d   1      -0.593  -1.327  -2.594  0.00  0.00    -0.013 C 
ATOM      9  C4' I4B d   1      -0.626  -2.601  -3.396  0.00  0.00     0.013 C 
ATOM     10  C3' I4B d   1      -0.085  -1.574  -1.205  0.00  0.00     0.013 C 
ENDBRANCH   7   8
ENDBRANCH   1   7
TORSDOF 2
ENDMDL
