MODEL 1
REMARK minimizedAffinity 13.9401188
REMARK minimizedRMSD -1
REMARK  2 active torsions:
REMARK  status: ('A' for Active; 'I' for Inactive)
REMARK    1  A    between atoms: C2'_3  and  C1'_4 
REMARK    2  A    between atoms: C1'_4  and  C1_5 
ROOT
ATOM      1  C1  I4B d   1      -0.692  -3.352  -1.315  0.00  0.00    -0.075 A 
ATOM      2  C2  I4B d   1      -1.178  -4.375  -2.091  0.00  0.00     0.003 A 
ATOM      3  C3  I4B d   1      -1.012  -5.720  -1.683  0.00  0.00     0.002 A 
ATOM      4  C4  I4B d   1      -0.315  -5.999  -0.526  0.00  0.00    -0.004 A 
ATOM      5  C5  I4B d   1       0.158  -4.960   0.271  0.00  0.00     0.002 A 
ATOM      6  C6  I4B d   1      -0.042  -3.628  -0.119  0.00  0.00     0.003 A 
ENDROOT
BRANCH   1   7
ATOM      7  C1' I4B d   1      -0.855  -1.944  -1.793  0.00  0.00     0.060 C 
BRANCH   7   8
ATOM      8  C2' I4B d   1       0.348  -1.598  -2.645  0.00  0.00    -0.013 C 
ATOM      9  C4' I4B d   1      -0.055  -1.315  -4.068  0.00  0.00     0.013 C 
ATOM     10  C3' I4B d   1       1.026  -0.410  -2.028  0.00  0.00     0.013 C 
ENDBRANCH   7   8
ENDBRANCH   1   7
TORSDOF 2
ENDMDL
