MODEL 1
REMARK minimizedAffinity 11.9876127
REMARK minimizedRMSD -1
REMARK  2 active torsions:
REMARK  status: ('A' for Active; 'I' for Inactive)
REMARK    1  A    between atoms: C2'_3  and  C1'_4 
REMARK    2  A    between atoms: C1'_4  and  C1_5 
ROOT
ATOM      1  C1  I4B d   1       0.620  -2.521   2.666  0.00  0.00    -0.075 A 
ATOM      2  C2  I4B d   1       1.665  -2.185   3.490  0.00  0.00     0.003 A 
ATOM      3  C3  I4B d   1       1.423  -1.832   4.840  0.00  0.00     0.002 A 
ATOM      4  C4  I4B d   1       0.125  -1.780   5.307  0.00  0.00    -0.004 A 
ATOM      5  C5  I4B d   1      -0.931  -2.144   4.476  0.00  0.00     0.002 A 
ATOM      6  C6  I4B d   1      -0.682  -2.529   3.151  0.00  0.00     0.003 A 
ENDROOT
BRANCH   1   7
ATOM      7  C1' I4B d   1       0.908  -2.857   1.237  0.00  0.00     0.060 C 
BRANCH   7   8
ATOM      8  C2' I4B d   1      -0.395  -3.269   0.582  0.00  0.00    -0.013 C 
ATOM      9  C4' I4B d   1      -0.854  -2.238  -0.414  0.00  0.00     0.013 C 
ATOM     10  C3' I4B d   1      -0.182  -4.600  -0.075  0.00  0.00     0.013 C 
ENDBRANCH   7   8
ENDBRANCH   1   7
TORSDOF 2
ENDMDL
