MODEL 1
REMARK minimizedAffinity 14.1336079
REMARK minimizedRMSD -1
REMARK  2 active torsions:
REMARK  status: ('A' for Active; 'I' for Inactive)
REMARK    1  A    between atoms: C2'_3  and  C1'_4 
REMARK    2  A    between atoms: C1'_4  and  C1_5 
ROOT
ATOM      1  C1  I4B d   1      -1.297  -1.516  -0.780  0.00  0.00    -0.075 A 
ATOM      2  C2  I4B d   1      -0.451  -2.593  -0.687  0.00  0.00     0.003 A 
ATOM      3  C3  I4B d   1      -0.637  -3.559   0.332  0.00  0.00     0.002 A 
ATOM      4  C4  I4B d   1      -1.643  -3.383   1.260  0.00  0.00    -0.004 A 
ATOM      5  C5  I4B d   1      -2.514  -2.302   1.150  0.00  0.00     0.002 A 
ATOM      6  C6  I4B d   1      -2.347  -1.369   0.116  0.00  0.00     0.003 A 
ENDROOT
BRANCH   1   7
ATOM      7  C1' I4B d   1      -1.051  -0.498  -1.849  0.00  0.00     0.060 C 
BRANCH   7   8
ATOM      8  C2' I4B d   1       0.431  -0.497  -2.160  0.00  0.00    -0.013 C 
ATOM      9  C4' I4B d   1       0.681  -0.728  -3.627  0.00  0.00     0.013 C 
ATOM     10  C3' I4B d   1       0.996   0.820  -1.716  0.00  0.00     0.013 C 
ENDBRANCH   7   8
ENDBRANCH   1   7
TORSDOF 2
ENDMDL
