MODEL 1
REMARK minimizedAffinity 20.6759911
REMARK minimizedRMSD -1
REMARK  2 active torsions:
REMARK  status: ('A' for Active; 'I' for Inactive)
REMARK    1  A    between atoms: C2'_3  and  C1'_4 
REMARK    2  A    between atoms: C1'_4  and  C1_5 
ROOT
ATOM      1  C1  I4B d   1      -0.812  -1.703  -2.397  0.00  0.00    -0.075 A 
ATOM      2  C2  I4B d   1      -0.503  -3.026  -2.203  0.00  0.00     0.003 A 
ATOM      3  C3  I4B d   1      -0.958  -3.702  -1.044  0.00  0.00     0.002 A 
ATOM      4  C4  I4B d   1      -1.672  -3.007  -0.089  0.00  0.00    -0.004 A 
ATOM      5  C5  I4B d   1      -2.004  -1.672  -0.299  0.00  0.00     0.002 A 
ATOM      6  C6  I4B d   1      -1.582  -1.019  -1.466  0.00  0.00     0.003 A 
ENDROOT
BRANCH   1   7
ATOM      7  C1' I4B d   1      -0.287  -1.012  -3.616  0.00  0.00     0.060 C 
BRANCH   7   8
ATOM      8  C2' I4B d   1       0.262   0.334  -3.189  0.00  0.00    -0.013 C 
ATOM      9  C4' I4B d   1       1.702   0.224  -2.762  0.00  0.00     0.013 C 
ATOM     10  C3' I4B d   1       0.109   1.282  -4.340  0.00  0.00     0.013 C 
ENDBRANCH   7   8
ENDBRANCH   1   7
TORSDOF 2
ENDMDL
