MODEL 1
REMARK minimizedAffinity 17.8590221
REMARK minimizedRMSD -1
REMARK  2 active torsions:
REMARK  status: ('A' for Active; 'I' for Inactive)
REMARK    1  A    between atoms: C2'_3  and  C1'_4 
REMARK    2  A    between atoms: C1'_4  and  C1_5 
ROOT
ATOM      1  C1  I4B d   1      -0.339  -3.406   0.090  0.00  0.00    -0.075 A 
ATOM      2  C2  I4B d   1      -0.666  -4.516  -0.649  0.00  0.00     0.003 A 
ATOM      3  C3  I4B d   1      -0.485  -5.811  -0.108  0.00  0.00     0.002 A 
ATOM      4  C4  I4B d   1       0.070  -5.952   1.147  0.00  0.00    -0.004 A 
ATOM      5  C5  I4B d   1       0.380  -4.826   1.904  0.00  0.00     0.002 A 
ATOM      6  C6  I4B d   1       0.163  -3.544   1.378  0.00  0.00     0.003 A 
ENDROOT
BRANCH   1   7
ATOM      7  C1' I4B d   1      -0.512  -2.054  -0.525  0.00  0.00     0.060 C 
BRANCH   7   8
ATOM      8  C2' I4B d   1      -1.939  -1.947  -1.024  0.00  0.00    -0.013 C 
ATOM      9  C4' I4B d   1      -2.823  -1.273  -0.008  0.00  0.00     0.013 C 
ATOM     10  C3' I4B d   1      -1.922  -1.187  -2.317  0.00  0.00     0.013 C 
ENDBRANCH   7   8
ENDBRANCH   1   7
TORSDOF 2
ENDMDL
