MODEL 1
REMARK minimizedAffinity 16.3994522
REMARK minimizedRMSD -1
REMARK  2 active torsions:
REMARK  status: ('A' for Active; 'I' for Inactive)
REMARK    1  A    between atoms: C2'_3  and  C1'_4 
REMARK    2  A    between atoms: C1'_4  and  C1_5 
ROOT
ATOM      1  C1  I4B d   1      -3.863   0.228   4.434  0.00  0.00    -0.075 A 
ATOM      2  C2  I4B d   1      -3.093   1.096   5.168  0.00  0.00     0.003 A 
ATOM      3  C3  I4B d   1      -3.705   2.076   5.985  0.00  0.00     0.002 A 
ATOM      4  C4  I4B d   1      -5.081   2.186   6.000  0.00  0.00    -0.004 A 
ATOM      5  C5  I4B d   1      -5.861   1.291   5.273  0.00  0.00     0.002 A 
ATOM      6  C6  I4B d   1      -5.249   0.298   4.495  0.00  0.00     0.003 A 
ENDROOT
BRANCH   1   7
ATOM      7  C1' I4B d   1      -3.183  -0.774   3.556  0.00  0.00     0.060 C 
BRANCH   7   8
ATOM      8  C2' I4B d   1      -2.851  -0.094   2.243  0.00  0.00    -0.013 C 
ATOM      9  C4' I4B d   1      -3.488  -0.811   1.082  0.00  0.00     0.013 C 
ATOM     10  C3' I4B d   1      -3.321   1.327   2.325  0.00  0.00     0.013 C 
ENDBRANCH   7   8
ENDBRANCH   1   7
TORSDOF 2
ENDMDL
