MODEL 1
REMARK minimizedAffinity 19.257618
REMARK minimizedRMSD -1
REMARK  2 active torsions:
REMARK  status: ('A' for Active; 'I' for Inactive)
REMARK    1  A    between atoms: C2'_3  and  C1'_4 
REMARK    2  A    between atoms: C1'_4  and  C1_5 
ROOT
ATOM      1  C1  I4B d   1      -3.460   0.707   5.528  0.00  0.00    -0.075 A 
ATOM      2  C2  I4B d   1      -4.564  -0.106   5.457  0.00  0.00     0.003 A 
ATOM      3  C3  I4B d   1      -5.859   0.435   5.645  0.00  0.00     0.002 A 
ATOM      4  C4  I4B d   1      -6.000   1.773   5.950  0.00  0.00    -0.004 A 
ATOM      5  C5  I4B d   1      -4.881   2.599   6.000  0.00  0.00     0.002 A 
ATOM      6  C6  I4B d   1      -3.604   2.066   5.775  0.00  0.00     0.003 A 
ENDROOT
BRANCH   1   7
ATOM      7  C1' I4B d   1      -2.105   0.097   5.357  0.00  0.00     0.060 C 
BRANCH   7   8
ATOM      8  C2' I4B d   1      -2.276  -1.231   4.648  0.00  0.00    -0.013 C 
ATOM      9  C4' I4B d   1      -2.584  -1.034   3.187  0.00  0.00     0.013 C 
ATOM     10  C3' I4B d   1      -1.016  -2.022   4.834  0.00  0.00     0.013 C 
ENDBRANCH   7   8
ENDBRANCH   1   7
TORSDOF 2
ENDMDL
