MODEL 1
REMARK minimizedAffinity 21.3869534
REMARK minimizedRMSD -1
REMARK  2 active torsions:
REMARK  status: ('A' for Active; 'I' for Inactive)
REMARK    1  A    between atoms: C2'_3  and  C1'_4 
REMARK    2  A    between atoms: C1'_4  and  C1_5 
ROOT
ATOM      1  C1  I4B d   1       0.859  -0.649  -2.543  0.00  0.00    -0.075 A 
ATOM      2  C2  I4B d   1       1.051   0.452  -1.747  0.00  0.00     0.003 A 
ATOM      3  C3  I4B d   1       2.301   1.119  -1.742  0.00  0.00     0.002 A 
ATOM      4  C4  I4B d   1       3.338   0.624  -2.506  0.00  0.00    -0.004 A 
ATOM      5  C5  I4B d   1       3.134  -0.480  -3.329  0.00  0.00     0.002 A 
ATOM      6  C6  I4B d   1       1.883  -1.113  -3.358  0.00  0.00     0.003 A 
ENDROOT
BRANCH   1   7
ATOM      7  C1' I4B d   1      -0.463  -1.349  -2.498  0.00  0.00     0.060 C 
BRANCH   7   8
ATOM      8  C2' I4B d   1      -0.640  -1.922  -1.106  0.00  0.00    -0.013 C 
ATOM      9  C4' I4B d   1      -1.926  -1.447  -0.481  0.00  0.00     0.013 C 
ATOM     10  C3' I4B d   1      -0.611  -3.417  -1.215  0.00  0.00     0.013 C 
ENDBRANCH   7   8
ENDBRANCH   1   7
TORSDOF 2
ENDMDL
