MODEL 1
REMARK minimizedAffinity 9.97329426
REMARK minimizedRMSD -1
REMARK  2 active torsions:
REMARK  status: ('A' for Active; 'I' for Inactive)
REMARK    1  A    between atoms: C2'_3  and  C1'_4 
REMARK    2  A    between atoms: C1'_4  and  C1_5 
ROOT
ATOM      1  C1  I4B d   1      -0.189  -0.368  -2.138  0.00  0.00    -0.075 A 
ATOM      2  C2  I4B d   1      -0.309  -0.337  -0.771  0.00  0.00     0.003 A 
ATOM      3  C3  I4B d   1      -1.321  -1.090  -0.128  0.00  0.00     0.002 A 
ATOM      4  C4  I4B d   1      -2.216  -1.815  -0.888  0.00  0.00    -0.004 A 
ATOM      5  C5  I4B d   1      -2.079  -1.863  -2.272  0.00  0.00     0.002 A 
ATOM      6  C6  I4B d   1      -1.051  -1.145  -2.901  0.00  0.00     0.003 A 
ENDROOT
BRANCH   1   7
ATOM      7  C1' I4B d   1       0.870   0.466  -2.788  0.00  0.00     0.060 C 
BRANCH   7   8
ATOM      8  C2' I4B d   1       2.060   0.522  -1.851  0.00  0.00    -0.013 C 
ATOM      9  C4' I4B d   1       3.311   0.029  -2.528  0.00  0.00     0.013 C 
ATOM     10  C3' I4B d   1       2.217   1.939  -1.387  0.00  0.00     0.013 C 
ENDBRANCH   7   8
ENDBRANCH   1   7
TORSDOF 2
ENDMDL
