MODEL 1
REMARK minimizedAffinity -1.82274365
REMARK minimizedRMSD -1
REMARK  0 active torsions:
REMARK  status: ('A' for Active; 'I' for Inactive)
ROOT
ATOM      1  C1  BNZ d   1       0.439  -1.933  -0.907  0.00  0.00     0.000 A 
ATOM      2  C2  BNZ d   1      -0.006  -2.160   0.368  0.00  0.00     0.000 A 
ATOM      3  C3  BNZ d   1      -0.224  -1.121   1.229  0.00  0.00     0.000 A 
ATOM      4  C4  BNZ d   1       0.042   0.139   0.828  0.00  0.00     0.000 A 
ATOM      5  C5  BNZ d   1       0.500   0.384  -0.451  0.00  0.00     0.000 A 
ATOM      6  C6  BNZ d   1       0.681  -0.661  -1.327  0.00  0.00     0.000 A 
ENDROOT
TORSDOF 0
ENDMDL
