MODEL 1
REMARK minimizedAffinity -2.93708682
REMARK minimizedRMSD -1
REMARK  0 active torsions:
REMARK  status: ('A' for Active; 'I' for Inactive)
ROOT
ATOM      1  C1  BNZ d   1      -1.727   0.205   1.131  0.00  0.00     0.000 A 
ATOM      2  C2  BNZ d   1      -2.922  -0.464   1.109  0.00  0.00     0.000 A 
ATOM      3  C3  BNZ d   1      -4.105   0.215   1.193  0.00  0.00     0.000 A 
ATOM      4  C4  BNZ d   1      -4.092   1.556   1.338  0.00  0.00     0.000 A 
ATOM      5  C5  BNZ d   1      -2.895   2.243   1.371  0.00  0.00     0.000 A 
ATOM      6  C6  BNZ d   1      -1.706   1.560   1.248  0.00  0.00     0.000 A 
ENDROOT
TORSDOF 0
ENDMDL
