MODEL 1
REMARK minimizedAffinity -3.02147341
REMARK minimizedRMSD -1
REMARK  0 active torsions:
REMARK  status: ('A' for Active; 'I' for Inactive)
ROOT
ATOM      1  C1  BNZ d   1       0.907   0.621   0.322  0.00  0.00     0.000 A 
ATOM      2  C2  BNZ d   1       0.087  -0.398   0.728  0.00  0.00     0.000 A 
ATOM      3  C3  BNZ d   1      -0.469  -1.254  -0.182  0.00  0.00     0.000 A 
ATOM      4  C4  BNZ d   1      -0.237  -1.066  -1.497  0.00  0.00     0.000 A 
ATOM      5  C5  BNZ d   1       0.581  -0.038  -1.923  0.00  0.00     0.000 A 
ATOM      6  C6  BNZ d   1       1.170   0.797  -1.002  0.00  0.00     0.000 A 
ENDROOT
TORSDOF 0
ENDMDL
