MODEL 1
REMARK minimizedAffinity -3.256598
REMARK minimizedRMSD -1
REMARK  0 active torsions:
REMARK  status: ('A' for Active; 'I' for Inactive)
ROOT
ATOM      1  C1  BNZ d   1       0.255  -0.312  -1.067  0.00  0.00     0.000 A 
ATOM      2  C2  BNZ d   1       1.095  -0.394  -2.145  0.00  0.00     0.000 A 
ATOM      3  C3  BNZ d   1       2.290   0.270  -2.154  0.00  0.00     0.000 A 
ATOM      4  C4  BNZ d   1       2.624   1.047  -1.104  0.00  0.00     0.000 A 
ATOM      5  C5  BNZ d   1       1.783   1.148  -0.013  0.00  0.00     0.000 A 
ATOM      6  C6  BNZ d   1       0.599   0.447   0.009  0.00  0.00     0.000 A 
ENDROOT
TORSDOF 0
ENDMDL
