MODEL 1
REMARK minimizedAffinity -2.78876567
REMARK minimizedRMSD -1
REMARK  0 active torsions:
REMARK  status: ('A' for Active; 'I' for Inactive)
ROOT
ATOM      1  C1  BNZ d   1      -1.699  -0.906   1.643  0.00  0.00     0.000 A 
ATOM      2  C2  BNZ d   1      -3.067  -0.960   1.671  0.00  0.00     0.000 A 
ATOM      3  C3  BNZ d   1      -3.796   0.052   2.229  0.00  0.00     0.000 A 
ATOM      4  C4  BNZ d   1      -3.157   1.097   2.794  0.00  0.00     0.000 A 
ATOM      5  C5  BNZ d   1      -1.778   1.161   2.782  0.00  0.00     0.000 A 
ATOM      6  C6  BNZ d   1      -1.048   0.159   2.184  0.00  0.00     0.000 A 
ENDROOT
TORSDOF 0
ENDMDL
