MODEL 1
REMARK minimizedAffinity -4.49561644
REMARK minimizedRMSD -1
REMARK  0 active torsions:
REMARK  status: ('A' for Active; 'I' for Inactive)
ROOT
ATOM      1  C1  BNZ d   1       1.788  -0.991  -2.300  0.00  0.00     0.000 A 
ATOM      2  C2  BNZ d   1       2.364   0.240  -2.465  0.00  0.00     0.000 A 
ATOM      3  C3  BNZ d   1       1.985   1.300  -1.690  0.00  0.00     0.000 A 
ATOM      4  C4  BNZ d   1       1.003   1.138  -0.779  0.00  0.00     0.000 A 
ATOM      5  C5  BNZ d   1       0.406  -0.095  -0.607  0.00  0.00     0.000 A 
ATOM      6  C6  BNZ d   1       0.817  -1.169  -1.363  0.00  0.00     0.000 A 
ENDROOT
TORSDOF 0
ENDMDL
