MODEL 1
REMARK minimizedAffinity -4.11132431
REMARK minimizedRMSD -1
REMARK  0 active torsions:
REMARK  status: ('A' for Active; 'I' for Inactive)
ROOT
ATOM      1  C1  BNZ d   1       0.144  -0.324  -0.756  0.00  0.00     0.000 A 
ATOM      2  C2  BNZ d   1       0.869  -0.616  -1.880  0.00  0.00     0.000 A 
ATOM      3  C3  BNZ d   1       1.854   0.226  -2.317  0.00  0.00     0.000 A 
ATOM      4  C4  BNZ d   1       2.084   1.377  -1.653  0.00  0.00     0.000 A 
ATOM      5  C5  BNZ d   1       1.354   1.690  -0.523  0.00  0.00     0.000 A 
ATOM      6  C6  BNZ d   1       0.391   0.821  -0.064  0.00  0.00     0.000 A 
ENDROOT
TORSDOF 0
ENDMDL
