MODEL 1
REMARK minimizedAffinity -4.81183386
REMARK minimizedRMSD -1
REMARK  0 active torsions:
REMARK  status: ('A' for Active; 'I' for Inactive)
ROOT
ATOM      1  C1  BNZ d   1       0.049  -0.491  -0.116  0.00  0.00     0.000 A 
ATOM      2  C2  BNZ d   1       0.686  -0.969  -1.230  0.00  0.00     0.000 A 
ATOM      3  C3  BNZ d   1       1.619  -0.212  -1.882  0.00  0.00     0.000 A 
ATOM      4  C4  BNZ d   1       1.885   1.036  -1.443  0.00  0.00     0.000 A 
ATOM      5  C5  BNZ d   1       1.244   1.535  -0.326  0.00  0.00     0.000 A 
ATOM      6  C6  BNZ d   1       0.334   0.756   0.350  0.00  0.00     0.000 A 
ENDROOT
TORSDOF 0
ENDMDL
