MODEL 1
REMARK minimizedAffinity -4.11988258
REMARK minimizedRMSD -1
REMARK  0 active torsions:
REMARK  status: ('A' for Active; 'I' for Inactive)
ROOT
ATOM      1  C1  BNZ d   1       1.003   0.173  -1.431  0.00  0.00     0.000 A 
ATOM      2  C2  BNZ d   1       1.985  -0.155  -2.328  0.00  0.00     0.000 A 
ATOM      3  C3  BNZ d   1       2.341  -1.459  -2.531  0.00  0.00     0.000 A 
ATOM      4  C4  BNZ d   1       1.744  -2.429  -1.810  0.00  0.00     0.000 A 
ATOM      5  C5  BNZ d   1       0.758  -2.114  -0.895  0.00  0.00     0.000 A 
ATOM      6  C6  BNZ d   1       0.375  -0.804  -0.721  0.00  0.00     0.000 A 
ENDROOT
TORSDOF 0
ENDMDL
