MODEL 1
REMARK minimizedAffinity -3.74722338
REMARK minimizedRMSD -1
REMARK  0 active torsions:
REMARK  status: ('A' for Active; 'I' for Inactive)
ROOT
ATOM      1  C1  BNZ d   1       0.410   0.773   0.035  0.00  0.00     0.000 A 
ATOM      2  C2  BNZ d   1       0.735   0.288  -1.204  0.00  0.00     0.000 A 
ATOM      3  C3  BNZ d   1       0.428  -0.996  -1.556  0.00  0.00     0.000 A 
ATOM      4  C4  BNZ d   1      -0.167  -1.806  -0.656  0.00  0.00     0.000 A 
ATOM      5  C5  BNZ d   1      -0.493  -1.335   0.600  0.00  0.00     0.000 A 
ATOM      6  C6  BNZ d   1      -0.217  -0.029   0.937  0.00  0.00     0.000 A 
ENDROOT
TORSDOF 0
ENDMDL
