MODEL 1
REMARK minimizedAffinity -2.70616293
REMARK minimizedRMSD -1
REMARK  0 active torsions:
REMARK  status: ('A' for Active; 'I' for Inactive)
ROOT
ATOM      1  C1  BNZ d   1       0.007   0.178   0.483  0.00  0.00     0.000 A 
ATOM      2  C2  BNZ d   1       0.788   1.171  -0.045  0.00  0.00     0.000 A 
ATOM      3  C3  BNZ d   1       1.639   0.914  -1.084  0.00  0.00     0.000 A 
ATOM      4  C4  BNZ d   1       1.737  -0.342  -1.565  0.00  0.00     0.000 A 
ATOM      5  C5  BNZ d   1       0.963  -1.356  -1.037  0.00  0.00     0.000 A 
ATOM      6  C6  BNZ d   1       0.079  -1.086  -0.018  0.00  0.00     0.000 A 
ENDROOT
TORSDOF 0
ENDMDL
