MODEL 1
REMARK minimizedAffinity -1.74049687
REMARK minimizedRMSD -1
REMARK  0 active torsions:
REMARK  status: ('A' for Active; 'I' for Inactive)
ROOT
ATOM      1  C1  BNZ d   1       0.480  -1.348  -1.011  0.00  0.00     0.000 A 
ATOM      2  C2  BNZ d   1       0.519   0.020  -1.006  0.00  0.00     0.000 A 
ATOM      3  C3  BNZ d   1       0.018   0.731   0.049  0.00  0.00     0.000 A 
ATOM      4  C4  BNZ d   1      -0.556   0.074   1.078  0.00  0.00     0.000 A 
ATOM      5  C5  BNZ d   1      -0.611  -1.305   1.083  0.00  0.00     0.000 A 
ATOM      6  C6  BNZ d   1      -0.071  -2.018   0.038  0.00  0.00     0.000 A 
ENDROOT
TORSDOF 0
ENDMDL
