MODEL 1
REMARK minimizedAffinity -1.53245199
REMARK minimizedRMSD -1
REMARK  0 active torsions:
REMARK  status: ('A' for Active; 'I' for Inactive)
ROOT
ATOM      1  C1  BNZ d   1       0.383   0.436  -0.006  0.00  0.00     0.000 A 
ATOM      2  C2  BNZ d   1       1.082   1.532  -0.435  0.00  0.00     0.000 A 
ATOM      3  C3  BNZ d   1       2.168   1.394  -1.254  0.00  0.00     0.000 A 
ATOM      4  C4  BNZ d   1       2.577   0.159  -1.608  0.00  0.00     0.000 A 
ATOM      5  C5  BNZ d   1       1.889  -0.957  -1.176  0.00  0.00     0.000 A 
ATOM      6  C6  BNZ d   1       0.773  -0.812  -0.384  0.00  0.00     0.000 A 
ENDROOT
TORSDOF 0
ENDMDL
