MODEL 1
REMARK minimizedAffinity -2.1767261
REMARK minimizedRMSD -1
REMARK  0 active torsions:
REMARK  status: ('A' for Active; 'I' for Inactive)
ROOT
ATOM      1  C1  BNZ d   1       1.594  -1.602  -2.051  0.00  0.00     0.000 A 
ATOM      2  C2  BNZ d   1       0.763  -1.578  -0.963  0.00  0.00     0.000 A 
ATOM      3  C3  BNZ d   1       0.376  -0.391  -0.404  0.00  0.00     0.000 A 
ATOM      4  C4  BNZ d   1       0.852   0.765  -0.909  0.00  0.00     0.000 A 
ATOM      5  C5  BNZ d   1       1.698   0.756  -2.000  0.00  0.00     0.000 A 
ATOM      6  C6  BNZ d   1       2.054  -0.438  -2.584  0.00  0.00     0.000 A 
ENDROOT
TORSDOF 0
ENDMDL
