MODEL 1
REMARK minimizedAffinity -3.8043251
REMARK minimizedRMSD -1
REMARK  0 active torsions:
REMARK  status: ('A' for Active; 'I' for Inactive)
ROOT
ATOM      1  C1  BNZ d   1       0.324   0.401  -0.177  0.00  0.00     0.000 A 
ATOM      2  C2  BNZ d   1       0.860   1.446  -0.882  0.00  0.00     0.000 A 
ATOM      3  C3  BNZ d   1       1.525   1.230  -2.057  0.00  0.00     0.000 A 
ATOM      4  C4  BNZ d   1       1.689  -0.032  -2.504  0.00  0.00     0.000 A 
ATOM      5  C5  BNZ d   1       1.162  -1.097  -1.800  0.00  0.00     0.000 A 
ATOM      6  C6  BNZ d   1       0.460  -0.872  -0.638  0.00  0.00     0.000 A 
ENDROOT
TORSDOF 0
ENDMDL
