MODEL 1
REMARK minimizedAffinity -4.17268133
REMARK minimizedRMSD -1
REMARK  0 active torsions:
REMARK  status: ('A' for Active; 'I' for Inactive)
ROOT
ATOM      1  C1  BNZ d   1       0.773  -0.783  -2.467  0.00  0.00     0.000 A 
ATOM      2  C2  BNZ d   1       1.708   0.106  -2.926  0.00  0.00     0.000 A 
ATOM      3  C3  BNZ d   1       2.059   1.199  -2.183  0.00  0.00     0.000 A 
ATOM      4  C4  BNZ d   1       1.446   1.423  -1.003  0.00  0.00     0.000 A 
ATOM      5  C5  BNZ d   1       0.495   0.540  -0.531  0.00  0.00     0.000 A 
ATOM      6  C6  BNZ d   1       0.173  -0.579  -1.263  0.00  0.00     0.000 A 
ENDROOT
TORSDOF 0
ENDMDL
