MODEL 1
REMARK minimizedAffinity -0.637635827
REMARK minimizedRMSD -1
REMARK  0 active torsions:
REMARK  status: ('A' for Active; 'I' for Inactive)
ROOT
ATOM      1  C   UNL d   1       1.181  -3.074   0.380  0.00  0.00     0.023 A 
ATOM      2  C1  UNL d   1      -0.185  -2.858   0.562  0.00  0.00     0.003 A 
ATOM      3  C2  UNL d   1      -0.713  -1.571   0.438  0.00  0.00     0.048 A 
ATOM      4  C3  UNL d   1       0.131  -0.505   0.131  0.00  0.00     0.023 A 
ATOM      5  C4  UNL d   1       1.498  -0.716  -0.053  0.00  0.00     0.048 A 
ATOM      6  C5  UNL d   1       2.021  -2.004   0.072  0.00  0.00     0.003 A 
ATOM      7  I   UNL d   1      -0.652   1.412  -0.054  0.00  0.00    -0.146 I 
ENDROOT
TORSDOF 0
ENDMDL
