MODEL 1
REMARK minimizedAffinity 0.120311305
REMARK minimizedRMSD -1
REMARK  0 active torsions:
REMARK  status: ('A' for Active; 'I' for Inactive)
ROOT
ATOM      1  C   UNL d   1       1.563   3.042  -0.934  0.00  0.00     0.023 A 
ATOM      2  C1  UNL d   1       2.426   1.954  -0.808  0.00  0.00     0.003 A 
ATOM      3  C2  UNL d   1       1.948   0.733  -0.328  0.00  0.00     0.048 A 
ATOM      4  C3  UNL d   1       0.604   0.607   0.022  0.00  0.00     0.023 A 
ATOM      5  C4  UNL d   1      -0.264   1.693  -0.104  0.00  0.00     0.048 A 
ATOM      6  C5  UNL d   1       0.219   2.912  -0.583  0.00  0.00     0.003 A 
ATOM      7  I   UNL d   1      -0.111  -1.209   0.736  0.00  0.00    -0.146 I 
ENDROOT
TORSDOF 0
ENDMDL
