MODEL 1
REMARK minimizedAffinity 10.7355156
REMARK minimizedRMSD -1
REMARK  0 active torsions:
REMARK  status: ('A' for Active; 'I' for Inactive)
ROOT
ATOM      1  C   UNL d   1      -2.276   2.987  -2.667  0.00  0.00     0.023 A 
ATOM      2  C1  UNL d   1      -1.198   3.567  -1.997  0.00  0.00     0.003 A 
ATOM      3  C2  UNL d   1      -0.084   4.008  -2.714  0.00  0.00     0.048 A 
ATOM      4  C3  UNL d   1      -0.055   3.868  -4.101  0.00  0.00     0.023 A 
ATOM      5  C4  UNL d   1      -1.131   3.289  -4.776  0.00  0.00     0.048 A 
ATOM      6  C5  UNL d   1      -2.242   2.848  -4.055  0.00  0.00     0.003 A 
ATOM      7  I   UNL d   1       1.602   4.524  -5.171  0.00  0.00    -0.146 I 
ENDROOT
TORSDOF 0
ENDMDL
