MODEL 1
REMARK minimizedAffinity 8.85127354
REMARK minimizedRMSD -1
REMARK  0 active torsions:
REMARK  status: ('A' for Active; 'I' for Inactive)
ROOT
ATOM      1  C   UNL d   1      -1.509   2.338  -2.964  0.00  0.00     0.023 A 
ATOM      2  C1  UNL d   1      -0.646   1.474  -3.640  0.00  0.00     0.003 A 
ATOM      3  C2  UNL d   1       0.336   1.989  -4.489  0.00  0.00     0.048 A 
ATOM      4  C3  UNL d   1       0.451   3.369  -4.656  0.00  0.00     0.023 A 
ATOM      5  C4  UNL d   1      -0.409   4.237  -3.981  0.00  0.00     0.048 A 
ATOM      6  C5  UNL d   1      -1.390   3.717  -3.135  0.00  0.00     0.003 A 
ATOM      7  I   UNL d   1       1.913   4.137  -5.918  0.00  0.00    -0.146 I 
ENDROOT
TORSDOF 0
ENDMDL
