MODEL 1
REMARK minimizedAffinity -2.63471556
REMARK minimizedRMSD -1
REMARK  0 active torsions:
REMARK  status: ('A' for Active; 'I' for Inactive)
ROOT
ATOM      1  C   UNL d   1       4.686  -5.126  -5.456  0.00  0.00     0.023 A 
ATOM      2  C1  UNL d   1       4.121  -3.972  -6.000  0.00  0.00     0.003 A 
ATOM      3  C2  UNL d   1       4.492  -2.716  -5.514  0.00  0.00     0.048 A 
ATOM      4  C3  UNL d   1       5.428  -2.621  -4.485  0.00  0.00     0.023 A 
ATOM      5  C4  UNL d   1       5.996  -3.773  -3.938  0.00  0.00     0.048 A 
ATOM      6  C5  UNL d   1       5.622  -5.026  -4.426  0.00  0.00     0.003 A 
ATOM      7  I   UNL d   1       5.982  -0.753  -3.761  0.00  0.00    -0.146 I 
ENDROOT
TORSDOF 0
ENDMDL
