MODEL 1
REMARK minimizedAffinity 7.35221624
REMARK minimizedRMSD -1
REMARK  0 active torsions:
REMARK  status: ('A' for Active; 'I' for Inactive)
ROOT
ATOM      1  C   UNL d   1       1.767   4.072   0.313  0.00  0.00     0.023 A 
ATOM      2  C1  UNL d   1       1.290   3.216  -0.679  0.00  0.00     0.003 A 
ATOM      3  C2  UNL d   1       2.180   2.425  -1.408  0.00  0.00     0.048 A 
ATOM      4  C3  UNL d   1       3.546   2.494  -1.139  0.00  0.00     0.023 A 
ATOM      5  C4  UNL d   1       4.029   3.348  -0.146  0.00  0.00     0.048 A 
ATOM      6  C5  UNL d   1       3.135   4.138   0.579  0.00  0.00     0.003 A 
ATOM      7  I   UNL d   1       4.873   1.316  -2.222  0.00  0.00    -0.146 I 
ENDROOT
TORSDOF 0
ENDMDL
