MODEL 1
REMARK minimizedAffinity 0.664165258
REMARK minimizedRMSD -1
REMARK  0 active torsions:
REMARK  status: ('A' for Active; 'I' for Inactive)
ROOT
ATOM      1  C   UNL d   1      -0.430   1.099  -1.926  0.00  0.00     0.023 A 
ATOM      2  C1  UNL d   1       0.413   0.038  -2.259  0.00  0.00     0.003 A 
ATOM      3  C2  UNL d   1       0.742  -0.921  -1.299  0.00  0.00     0.048 A 
ATOM      4  C3  UNL d   1       0.224  -0.815  -0.009  0.00  0.00     0.023 A 
ATOM      5  C4  UNL d   1      -0.621   0.243   0.328  0.00  0.00     0.048 A 
ATOM      6  C5  UNL d   1      -0.946   1.201  -0.634  0.00  0.00     0.003 A 
ATOM      7  I   UNL d   1       0.711  -2.243   1.420  0.00  0.00    -0.146 I 
ENDROOT
TORSDOF 0
ENDMDL
