MODEL 1
REMARK minimizedAffinity 8.36981773
REMARK minimizedRMSD -1
REMARK  0 active torsions:
REMARK  status: ('A' for Active; 'I' for Inactive)
ROOT
ATOM      1  C   UNL d   1      -3.922   1.665   0.266  0.00  0.00     0.023 A 
ATOM      2  C1  UNL d   1      -2.725   1.219   0.827  0.00  0.00     0.003 A 
ATOM      3  C2  UNL d   1      -1.514   1.797   0.441  0.00  0.00     0.048 A 
ATOM      4  C3  UNL d   1      -1.507   2.821  -0.505  0.00  0.00     0.023 A 
ATOM      5  C4  UNL d   1      -2.702   3.271  -1.068  0.00  0.00     0.048 A 
ATOM      6  C5  UNL d   1      -3.910   2.690  -0.680  0.00  0.00     0.003 A 
ATOM      7  I   UNL d   1       0.295   3.682  -1.080  0.00  0.00    -0.146 I 
ENDROOT
TORSDOF 0
ENDMDL
