MODEL 1
REMARK minimizedAffinity 6.53322411
REMARK minimizedRMSD -1
REMARK  0 active torsions:
REMARK  status: ('A' for Active; 'I' for Inactive)
ROOT
ATOM      1  C   UNL d   1       2.672   3.369  -0.499  0.00  0.00     0.023 A 
ATOM      2  C1  UNL d   1       2.255   2.078  -0.824  0.00  0.00     0.003 A 
ATOM      3  C2  UNL d   1       1.144   1.889  -1.647  0.00  0.00     0.048 A 
ATOM      4  C3  UNL d   1       0.454   2.995  -2.143  0.00  0.00     0.023 A 
ATOM      5  C4  UNL d   1       0.868   4.288  -1.822  0.00  0.00     0.048 A 
ATOM      6  C5  UNL d   1       1.980   4.473  -0.997  0.00  0.00     0.003 A 
ATOM      7  I   UNL d   1      -1.201   2.715  -3.369  0.00  0.00    -0.146 I 
ENDROOT
TORSDOF 0
ENDMDL
