MODEL 1
REMARK minimizedAffinity 3.85072756
REMARK minimizedRMSD -1
REMARK  0 active torsions:
REMARK  status: ('A' for Active; 'I' for Inactive)
ROOT
ATOM      1  C   UNL d   1      -0.382  -1.112   0.939  0.00  0.00     0.023 A 
ATOM      2  C1  UNL d   1       0.904  -1.246   0.418  0.00  0.00     0.003 A 
ATOM      3  C2  UNL d   1       1.566  -0.134  -0.106  0.00  0.00     0.048 A 
ATOM      4  C3  UNL d   1       0.936   1.110  -0.104  0.00  0.00     0.023 A 
ATOM      5  C4  UNL d   1      -0.351   1.249   0.418  0.00  0.00     0.048 A 
ATOM      6  C5  UNL d   1      -1.009   0.134   0.939  0.00  0.00     0.003 A 
ATOM      7  I   UNL d   1       1.919   2.767  -0.883  0.00  0.00    -0.146 I 
ENDROOT
TORSDOF 0
ENDMDL
