MODEL 1
REMARK minimizedAffinity 6.16008329
REMARK minimizedRMSD -1
REMARK  0 active torsions:
REMARK  status: ('A' for Active; 'I' for Inactive)
ROOT
ATOM      1  C   UNL d   1       5.960  -5.335  -4.877  0.00  0.00     0.023 A 
ATOM      2  C1  UNL d   1       6.000  -3.945  -4.775  0.00  0.00     0.003 A 
ATOM      3  C2  UNL d   1       4.813  -3.216  -4.676  0.00  0.00     0.048 A 
ATOM      4  C3  UNL d   1       3.589  -3.884  -4.678  0.00  0.00     0.023 A 
ATOM      5  C4  UNL d   1       3.544  -5.276  -4.779  0.00  0.00     0.048 A 
ATOM      6  C5  UNL d   1       4.733  -6.000  -4.879  0.00  0.00     0.003 A 
ATOM      7  I   UNL d   1       1.821  -2.802  -4.530  0.00  0.00    -0.146 I 
ENDROOT
TORSDOF 0
ENDMDL
