MODEL 1
REMARK minimizedAffinity 1.59352219
REMARK minimizedRMSD -1
REMARK  0 active torsions:
REMARK  status: ('A' for Active; 'I' for Inactive)
ROOT
ATOM      1  C   UNL d   1      -4.883  -4.162  -3.003  0.00  0.00     0.023 A 
ATOM      2  C1  UNL d   1      -4.257  -3.382  -2.030  0.00  0.00     0.003 A 
ATOM      3  C2  UNL d   1      -4.020  -3.908  -0.759  0.00  0.00     0.048 A 
ATOM      4  C3  UNL d   1      -4.410  -5.214  -0.467  0.00  0.00     0.023 A 
ATOM      5  C4  UNL d   1      -5.035  -5.999  -1.437  0.00  0.00     0.048 A 
ATOM      6  C5  UNL d   1      -5.271  -5.468  -2.707  0.00  0.00     0.003 A 
ATOM      7  I   UNL d   1      -4.057  -5.999   1.425  0.00  0.00    -0.146 I 
ENDROOT
TORSDOF 0
ENDMDL
