MODEL 1
REMARK minimizedAffinity 10.8673229
REMARK minimizedRMSD -1
REMARK  0 active torsions:
REMARK  status: ('A' for Active; 'I' for Inactive)
ROOT
ATOM      1  C   UNL d   1      -0.582  -2.232   1.800  0.00  0.00     0.023 A 
ATOM      2  C1  UNL d   1      -0.410  -1.156   2.671  0.00  0.00     0.003 A 
ATOM      3  C2  UNL d   1       0.794  -0.449   2.679  0.00  0.00     0.048 A 
ATOM      4  C3  UNL d   1       1.821  -0.822   1.813  0.00  0.00     0.023 A 
ATOM      5  C4  UNL d   1       1.653  -1.897   0.939  0.00  0.00     0.048 A 
ATOM      6  C5  UNL d   1       0.448  -2.602   0.935  0.00  0.00     0.003 A 
ATOM      7  I   UNL d   1       3.614   0.230   1.823  0.00  0.00    -0.146 I 
ENDROOT
TORSDOF 0
ENDMDL
