MODEL 1
REMARK minimizedAffinity 15.13696
REMARK minimizedRMSD -1
REMARK  0 active torsions:
REMARK  status: ('A' for Active; 'I' for Inactive)
ROOT
ATOM      1  C   UNL d   1      -2.053  -4.083  -3.284  0.00  0.00     0.023 A 
ATOM      2  C1  UNL d   1      -2.348  -5.443  -3.379  0.00  0.00     0.003 A 
ATOM      3  C2  UNL d   1      -3.363  -5.995  -2.594  0.00  0.00     0.048 A 
ATOM      4  C3  UNL d   1      -4.080  -5.181  -1.718  0.00  0.00     0.023 A 
ATOM      5  C4  UNL d   1      -3.788  -3.819  -1.620  0.00  0.00     0.048 A 
ATOM      6  C5  UNL d   1      -2.772  -3.272  -2.405  0.00  0.00     0.003 A 
ATOM      7  I   UNL d   1      -5.591  -6.000  -0.549  0.00  0.00    -0.146 I 
ENDROOT
TORSDOF 0
ENDMDL
