MODEL 1
REMARK minimizedAffinity 3.62798429
REMARK minimizedRMSD -1
REMARK  0 active torsions:
REMARK  status: ('A' for Active; 'I' for Inactive)
ROOT
ATOM      1  C   UNL d   1      -4.514  -4.442   3.530  0.00  0.00     0.023 A 
ATOM      2  C1  UNL d   1      -4.080  -3.779   2.382  0.00  0.00     0.003 A 
ATOM      3  C2  UNL d   1      -4.483  -4.225   1.122  0.00  0.00     0.048 A 
ATOM      4  C3  UNL d   1      -5.322  -5.334   1.017  0.00  0.00     0.023 A 
ATOM      5  C4  UNL d   1      -5.760  -6.000   2.163  0.00  0.00     0.048 A 
ATOM      6  C5  UNL d   1      -5.353  -5.551   3.420  0.00  0.00     0.003 A 
ATOM      7  I   UNL d   1      -5.923  -5.999  -0.858  0.00  0.00    -0.146 I 
ENDROOT
TORSDOF 0
ENDMDL
