MODEL 1
REMARK minimizedAffinity 1.87022448
REMARK minimizedRMSD -1
REMARK  0 active torsions:
REMARK  status: ('A' for Active; 'I' for Inactive)
ROOT
ATOM      1  C   UNL d   1      -0.544  -0.552   0.520  0.00  0.00     0.023 A 
ATOM      2  C1  UNL d   1       0.756  -1.057   0.483  0.00  0.00     0.003 A 
ATOM      3  C2  UNL d   1       1.805  -0.258   0.024  0.00  0.00     0.048 A 
ATOM      4  C3  UNL d   1       1.547   1.047  -0.396  0.00  0.00     0.023 A 
ATOM      5  C4  UNL d   1       0.248   1.557  -0.361  0.00  0.00     0.048 A 
ATOM      6  C5  UNL d   1      -0.797   0.754   0.098  0.00  0.00     0.003 A 
ATOM      7  I   UNL d   1       3.106   2.238  -1.080  0.00  0.00    -0.146 I 
ENDROOT
TORSDOF 0
ENDMDL
