MODEL 1
REMARK minimizedAffinity 4.90762424
REMARK minimizedRMSD -1
REMARK  0 active torsions:
REMARK  status: ('A' for Active; 'I' for Inactive)
ROOT
ATOM      1  C   UNL d   1      -4.463  -4.421  -3.436  0.00  0.00     0.023 A 
ATOM      2  C1  UNL d   1      -3.982  -3.751  -2.311  0.00  0.00     0.003 A 
ATOM      3  C2  UNL d   1      -4.315  -4.202  -1.033  0.00  0.00     0.048 A 
ATOM      4  C3  UNL d   1      -5.128  -5.326  -0.886  0.00  0.00     0.023 A 
ATOM      5  C4  UNL d   1      -5.611  -6.000  -2.009  0.00  0.00     0.048 A 
ATOM      6  C5  UNL d   1      -5.276  -5.544  -3.285  0.00  0.00     0.003 A 
ATOM      7  I   UNL d   1      -5.625  -6.000   1.016  0.00  0.00    -0.146 I 
ENDROOT
TORSDOF 0
ENDMDL
