MODEL 1
REMARK minimizedAffinity 11.2705326
REMARK minimizedRMSD -1
REMARK  0 active torsions:
REMARK  status: ('A' for Active; 'I' for Inactive)
ROOT
ATOM      1  C   UNL d   1      -1.318   0.395   1.139  0.00  0.00     0.023 A 
ATOM      2  C1  UNL d   1      -0.560   1.228   0.315  0.00  0.00     0.003 A 
ATOM      3  C2  UNL d   1       0.810   1.005   0.166  0.00  0.00     0.048 A 
ATOM      4  C3  UNL d   1       1.417  -0.052   0.844  0.00  0.00     0.023 A 
ATOM      5  C4  UNL d   1       0.662  -0.888   1.669  0.00  0.00     0.048 A 
ATOM      6  C5  UNL d   1      -0.708  -0.661   1.815  0.00  0.00     0.003 A 
ATOM      7  I   UNL d   1       3.456  -0.385   0.625  0.00  0.00    -0.146 I 
ENDROOT
TORSDOF 0
ENDMDL
