MODEL 1
REMARK minimizedAffinity 13.3583469
REMARK minimizedRMSD -1
REMARK  3 active torsions:
REMARK  status: ('A' for Active; 'I' for Inactive)
REMARK    1  A    between atoms: C3'_2  and  C2'_3 
REMARK    2  A    between atoms: C2'_3  and  C1'_4 
REMARK    3  A    between atoms: C1'_4  and  C1_5 
ROOT
ATOM      1  C1  N4B d   1       4.481  -2.141  -3.841  0.00  0.00    -0.075 A 
ATOM      2  C2  N4B d   1       4.791  -0.829  -3.421  0.00  0.00     0.002 A 
ATOM      3  C3  N4B d   1       4.681   0.219  -4.302  0.00  0.00     0.002 A 
ATOM      4  C4  N4B d   1       4.282  -0.023  -5.608  0.00  0.00    -0.004 A 
ATOM      5  C5  N4B d   1       3.960  -1.289  -5.999  0.00  0.00     0.002 A 
ATOM      6  C6  N4B d   1       4.062  -2.351  -5.123  0.00  0.00     0.002 A 
ENDROOT
BRANCH   1   7
ATOM      7  C1' N4B d   1       4.669  -3.329  -2.939  0.00  0.00     0.057 C 
BRANCH   7   8
ATOM      8  C2' N4B d   1       5.993  -3.188  -2.194  0.00  0.00     0.009 C 
BRANCH   8   9
ATOM      9  C3' N4B d   1       5.999  -1.982  -1.270  0.00  0.00     0.004 C 
ATOM     10  C4' N4B d   1       5.827  -2.354   0.172  0.00  0.00     0.003 C 
ENDBRANCH   8   9
ENDBRANCH   7   8
ENDBRANCH   1   7
TORSDOF 3
ENDMDL
