MODEL 1
REMARK minimizedAffinity 6.4469552
REMARK minimizedRMSD -1
REMARK  3 active torsions:
REMARK  status: ('A' for Active; 'I' for Inactive)
REMARK    1  A    between atoms: C3'_2  and  C2'_3 
REMARK    2  A    between atoms: C2'_3  and  C1'_4 
REMARK    3  A    between atoms: C1'_4  and  C1_5 
ROOT
ATOM      1  C1  N4B d   1       3.237  -2.601  -3.717  0.00  0.00    -0.075 A 
ATOM      2  C2  N4B d   1       4.007  -2.824  -2.554  0.00  0.00     0.002 A 
ATOM      3  C3  N4B d   1       5.377  -2.868  -2.636  0.00  0.00     0.002 A 
ATOM      4  C4  N4B d   1       5.996  -2.712  -3.867  0.00  0.00    -0.004 A 
ATOM      5  C5  N4B d   1       5.246  -2.472  -4.982  0.00  0.00     0.002 A 
ATOM      6  C6  N4B d   1       3.868  -2.421  -4.913  0.00  0.00     0.002 A 
ENDROOT
BRANCH   1   7
ATOM      7  C1' N4B d   1       1.733  -2.630  -3.691  0.00  0.00     0.057 C 
BRANCH   7   8
ATOM      8  C2' N4B d   1       1.262  -2.891  -2.263  0.00  0.00     0.009 C 
BRANCH   8   9
ATOM      9  C3' N4B d   1      -0.153  -2.387  -2.031  0.00  0.00     0.004 C 
ATOM     10  C4' N4B d   1      -0.686  -2.756  -0.679  0.00  0.00     0.003 C 
ENDBRANCH   8   9
ENDBRANCH   7   8
ENDBRANCH   1   7
TORSDOF 3
ENDMDL
