MODEL 1
REMARK minimizedAffinity 10.314929
REMARK minimizedRMSD -1
REMARK  3 active torsions:
REMARK  status: ('A' for Active; 'I' for Inactive)
REMARK    1  A    between atoms: C3'_2  and  C2'_3 
REMARK    2  A    between atoms: C2'_3  and  C1'_4 
REMARK    3  A    between atoms: C1'_4  and  C1_5 
ROOT
ATOM      1  C1  N4B d   1       0.148  -3.358  -3.910  0.00  0.00    -0.075 A 
ATOM      2  C2  N4B d   1      -0.077  -3.792  -5.235  0.00  0.00     0.002 A 
ATOM      3  C3  N4B d   1       0.974  -4.234  -6.000  0.00  0.00     0.002 A 
ATOM      4  C4  N4B d   1       2.256  -4.235  -5.471  0.00  0.00    -0.004 A 
ATOM      5  C5  N4B d   1       2.461  -3.838  -4.181  0.00  0.00     0.002 A 
ATOM      6  C6  N4B d   1       1.414  -3.395  -3.399  0.00  0.00     0.002 A 
ENDROOT
BRANCH   1   7
ATOM      7  C1' N4B d   1      -0.955  -2.786  -3.063  0.00  0.00     0.057 C 
BRANCH   7   8
ATOM      8  C2' N4B d   1      -0.380  -1.701  -2.157  0.00  0.00     0.009 C 
BRANCH   8   9
ATOM      9  C3' N4B d   1      -0.182  -2.194  -0.735  0.00  0.00     0.004 C 
ATOM     10  C4' N4B d   1      -1.266  -1.737   0.195  0.00  0.00     0.003 C 
ENDBRANCH   8   9
ENDBRANCH   7   8
ENDBRANCH   1   7
TORSDOF 3
ENDMDL
