MODEL 1
REMARK minimizedAffinity -0.0156108644
REMARK minimizedRMSD -1
REMARK  3 active torsions:
REMARK  status: ('A' for Active; 'I' for Inactive)
REMARK    1  A    between atoms: C3'_2  and  C2'_3 
REMARK    2  A    between atoms: C2'_3  and  C1'_4 
REMARK    3  A    between atoms: C1'_4  and  C1_5 
ROOT
ATOM      1  C1  N4B d   1       3.851  -2.593  -2.754  0.00  0.00    -0.075 A 
ATOM      2  C2  N4B d   1       4.522  -2.238  -1.563  0.00  0.00     0.002 A 
ATOM      3  C3  N4B d   1       5.594  -2.981  -1.131  0.00  0.00     0.002 A 
ATOM      4  C4  N4B d   1       5.999  -4.089  -1.861  0.00  0.00    -0.004 A 
ATOM      5  C5  N4B d   1       5.361  -4.410  -3.023  0.00  0.00     0.002 A 
ATOM      6  C6  N4B d   1       4.285  -3.670  -3.471  0.00  0.00     0.002 A 
ENDROOT
BRANCH   1   7
ATOM      7  C1' N4B d   1       2.622  -1.863  -3.220  0.00  0.00     0.057 C 
BRANCH   7   8
ATOM      8  C2' N4B d   1       1.401  -2.753  -3.010  0.00  0.00     0.009 C 
BRANCH   8   9
ATOM      9  C3' N4B d   1       0.176  -1.951  -2.603  0.00  0.00     0.004 C 
ATOM     10  C4' N4B d   1      -1.108  -2.591  -3.038  0.00  0.00     0.003 C 
ENDBRANCH   8   9
ENDBRANCH   7   8
ENDBRANCH   1   7
TORSDOF 3
ENDMDL
