MODEL 1
REMARK minimizedAffinity 2.2048409
REMARK minimizedRMSD -1
REMARK  3 active torsions:
REMARK  status: ('A' for Active; 'I' for Inactive)
REMARK    1  A    between atoms: C3'_2  and  C2'_3 
REMARK    2  A    between atoms: C2'_3  and  C1'_4 
REMARK    3  A    between atoms: C1'_4  and  C1_5 
ROOT
ATOM      1  C1  N4B d   1       3.305  -2.732  -3.712  0.00  0.00    -0.075 A 
ATOM      2  C2  N4B d   1       4.012  -3.739  -3.019  0.00  0.00     0.002 A 
ATOM      3  C3  N4B d   1       5.347  -3.574  -2.743  0.00  0.00     0.002 A 
ATOM      4  C4  N4B d   1       5.998  -2.425  -3.166  0.00  0.00    -0.004 A 
ATOM      5  C5  N4B d   1       5.302  -1.446  -3.813  0.00  0.00     0.002 A 
ATOM      6  C6  N4B d   1       3.959  -1.596  -4.093  0.00  0.00     0.002 A 
ENDROOT
BRANCH   1   7
ATOM      7  C1' N4B d   1       1.865  -2.905  -4.112  0.00  0.00     0.057 C 
BRANCH   7   8
ATOM      8  C2' N4B d   1       1.016  -1.866  -3.385  0.00  0.00     0.009 C 
BRANCH   8   9
ATOM      9  C3' N4B d   1       0.790  -2.235  -1.929  0.00  0.00     0.004 C 
ATOM     10  C4' N4B d   1      -0.660  -2.231  -1.547  0.00  0.00     0.003 C 
ENDBRANCH   8   9
ENDBRANCH   7   8
ENDBRANCH   1   7
TORSDOF 3
ENDMDL
