MODEL 1
REMARK minimizedAffinity 8.11649418
REMARK minimizedRMSD -1
REMARK  3 active torsions:
REMARK  status: ('A' for Active; 'I' for Inactive)
REMARK    1  A    between atoms: C3'_2  and  C2'_3 
REMARK    2  A    between atoms: C2'_3  and  C1'_4 
REMARK    3  A    between atoms: C1'_4  and  C1_5 
ROOT
ATOM      1  C1  N4B d   1       2.379   4.175  -0.347  0.00  0.00    -0.075 A 
ATOM      2  C2  N4B d   1       1.815   5.108   0.552  0.00  0.00     0.002 A 
ATOM      3  C3  N4B d   1       0.679   4.787   1.253  0.00  0.00     0.002 A 
ATOM      4  C4  N4B d   1       0.081   3.551   1.060  0.00  0.00    -0.004 A 
ATOM      5  C5  N4B d   1       0.645   2.646   0.209  0.00  0.00     0.002 A 
ATOM      6  C6  N4B d   1       1.789   2.954  -0.499  0.00  0.00     0.002 A 
ENDROOT
BRANCH   1   7
ATOM      7  C1' N4B d   1       3.571   4.514  -1.199  0.00  0.00     0.057 C 
BRANCH   7   8
ATOM      8  C2' N4B d   1       4.691   5.041  -0.308  0.00  0.00     0.009 C 
BRANCH   8   9
ATOM      9  C3' N4B d   1       5.702   5.861  -1.091  0.00  0.00     0.004 C 
ATOM     10  C4' N4B d   1       5.962   5.309  -2.461  0.00  0.00     0.003 C 
ENDBRANCH   8   9
ENDBRANCH   7   8
ENDBRANCH   1   7
TORSDOF 3
ENDMDL
