MODEL 1
REMARK minimizedAffinity 9.5209713
REMARK minimizedRMSD -1
REMARK  3 active torsions:
REMARK  status: ('A' for Active; 'I' for Inactive)
REMARK    1  A    between atoms: C3'_2  and  C2'_3 
REMARK    2  A    between atoms: C2'_3  and  C1'_4 
REMARK    3  A    between atoms: C1'_4  and  C1_5 
ROOT
ATOM      1  C1  N4B d   1       3.338   5.062  -1.493  0.00  0.00    -0.075 A 
ATOM      2  C2  N4B d   1       4.233   5.818  -0.705  0.00  0.00     0.002 A 
ATOM      3  C3  N4B d   1       5.551   5.924  -1.074  0.00  0.00     0.002 A 
ATOM      4  C4  N4B d   1       6.000   5.270  -2.212  0.00  0.00    -0.004 A 
ATOM      5  C5  N4B d   1       5.123   4.563  -2.982  0.00  0.00     0.002 A 
ATOM      6  C6  N4B d   1       3.795   4.451  -2.625  0.00  0.00     0.002 A 
ENDROOT
BRANCH   1   7
ATOM      7  C1' N4B d   1       1.907   4.846  -1.083  0.00  0.00     0.057 C 
BRANCH   7   8
ATOM      8  C2' N4B d   1       1.850   3.755  -0.018  0.00  0.00     0.009 C 
BRANCH   8   9
ATOM      9  C3' N4B d   1       0.561   3.811   0.784  0.00  0.00     0.004 C 
ATOM     10  C4' N4B d   1       0.391   5.106   1.521  0.00  0.00     0.003 C 
ENDBRANCH   8   9
ENDBRANCH   7   8
ENDBRANCH   1   7
TORSDOF 3
ENDMDL
