MODEL 1
REMARK minimizedAffinity 15.2418289
REMARK minimizedRMSD -1
REMARK  3 active torsions:
REMARK  status: ('A' for Active; 'I' for Inactive)
REMARK    1  A    between atoms: C3'_2  and  C2'_3 
REMARK    2  A    between atoms: C2'_3  and  C1'_4 
REMARK    3  A    between atoms: C1'_4  and  C1_5 
ROOT
ATOM      1  C1  N4B d   1       4.695  -3.121   4.325  0.00  0.00    -0.075 A 
ATOM      2  C2  N4B d   1       4.168  -2.402   5.421  0.00  0.00     0.002 A 
ATOM      3  C3  N4B d   1       3.103  -1.554   5.237  0.00  0.00     0.002 A 
ATOM      4  C4  N4B d   1       2.564  -1.395   3.969  0.00  0.00    -0.004 A 
ATOM      5  C5  N4B d   1       3.063  -2.112   2.921  0.00  0.00     0.002 A 
ATOM      6  C6  N4B d   1       4.130  -2.971   3.092  0.00  0.00     0.002 A 
ENDROOT
BRANCH   1   7
ATOM      7  C1' N4B d   1       5.912  -3.994   4.461  0.00  0.00     0.057 C 
BRANCH   7   8
ATOM      8  C2' N4B d   1       5.970  -4.557   5.878  0.00  0.00     0.009 C 
BRANCH   8   9
ATOM      9  C3' N4B d   1       5.272  -5.902   5.984  0.00  0.00     0.004 C 
ATOM     10  C4' N4B d   1       3.777  -5.783   5.969  0.00  0.00     0.003 C 
ENDBRANCH   8   9
ENDBRANCH   7   8
ENDBRANCH   1   7
TORSDOF 3
ENDMDL
