MODEL 1
REMARK minimizedAffinity 7.18788195
REMARK minimizedRMSD -1
REMARK  3 active torsions:
REMARK  status: ('A' for Active; 'I' for Inactive)
REMARK    1  A    between atoms: C3'_2  and  C2'_3 
REMARK    2  A    between atoms: C2'_3  and  C1'_4 
REMARK    3  A    between atoms: C1'_4  and  C1_5 
ROOT
ATOM      1  C1  N4B d   1       3.864  -1.444  -3.916  0.00  0.00    -0.075 A 
ATOM      2  C2  N4B d   1       3.193  -0.385  -4.565  0.00  0.00     0.002 A 
ATOM      3  C3  N4B d   1       3.894   0.722  -4.978  0.00  0.00     0.002 A 
ATOM      4  C4  N4B d   1       5.258   0.799  -4.736  0.00  0.00    -0.004 A 
ATOM      5  C5  N4B d   1       5.903  -0.240  -4.131  0.00  0.00     0.002 A 
ATOM      6  C6  N4B d   1       5.211  -1.360  -3.715  0.00  0.00     0.002 A 
ENDROOT
BRANCH   1   7
ATOM      7  C1' N4B d   1       3.126  -2.636  -3.370  0.00  0.00     0.057 C 
BRANCH   7   8
ATOM      8  C2' N4B d   1       1.635  -2.316  -3.308  0.00  0.00     0.009 C 
BRANCH   8   9
ATOM      9  C3' N4B d   1       1.142  -2.182  -1.878  0.00  0.00     0.004 C 
ATOM     10  C4' N4B d   1      -0.306  -1.801  -1.796  0.00  0.00     0.003 C 
ENDBRANCH   8   9
ENDBRANCH   7   8
ENDBRANCH   1   7
TORSDOF 3
ENDMDL
