MODEL 1
REMARK minimizedAffinity -1.82069421
REMARK minimizedRMSD -1
REMARK  3 active torsions:
REMARK  status: ('A' for Active; 'I' for Inactive)
REMARK    1  A    between atoms: C3'_2  and  C2'_3 
REMARK    2  A    between atoms: C2'_3  and  C1'_4 
REMARK    3  A    between atoms: C1'_4  and  C1_5 
ROOT
ATOM      1  C1  N4B d   1       1.160  -1.018   3.240  0.00  0.00    -0.075 A 
ATOM      2  C2  N4B d   1       1.854   0.170   2.922  0.00  0.00     0.002 A 
ATOM      3  C3  N4B d   1       1.881   0.623   1.625  0.00  0.00     0.002 A 
ATOM      4  C4  N4B d   1       1.239  -0.102   0.632  0.00  0.00    -0.004 A 
ATOM      5  C5  N4B d   1       0.550  -1.235   0.953  0.00  0.00     0.002 A 
ATOM      6  C6  N4B d   1       0.511  -1.699   2.252  0.00  0.00     0.002 A 
ENDROOT
BRANCH   1   7
ATOM      7  C1' N4B d   1       1.175  -1.598   4.628  0.00  0.00     0.057 C 
BRANCH   7   8
ATOM      8  C2' N4B d   1       2.079  -2.827   4.647  0.00  0.00     0.009 C 
BRANCH   8   9
ATOM      9  C3' N4B d   1       1.425  -4.003   5.351  0.00  0.00     0.004 C 
ATOM     10  C4' N4B d   1       2.187  -5.283   5.175  0.00  0.00     0.003 C 
ENDBRANCH   8   9
ENDBRANCH   7   8
ENDBRANCH   1   7
TORSDOF 3
ENDMDL
