MODEL 1
REMARK minimizedAffinity 5.97536612
REMARK minimizedRMSD -1
REMARK  3 active torsions:
REMARK  status: ('A' for Active; 'I' for Inactive)
REMARK    1  A    between atoms: C3'_2  and  C2'_3 
REMARK    2  A    between atoms: C2'_3  and  C1'_4 
REMARK    3  A    between atoms: C1'_4  and  C1_5 
ROOT
ATOM      1  C1  N4B d   1       2.040  -3.872   3.412  0.00  0.00    -0.075 A 
ATOM      2  C2  N4B d   1       1.759  -4.679   2.287  0.00  0.00     0.002 A 
ATOM      3  C3  N4B d   1       1.190  -4.123   1.168  0.00  0.00     0.002 A 
ATOM      4  C4  N4B d   1       0.877  -2.771   1.157  0.00  0.00    -0.004 A 
ATOM      5  C5  N4B d   1       1.175  -1.994   2.237  0.00  0.00     0.002 A 
ATOM      6  C6  N4B d   1       1.751  -2.539   3.368  0.00  0.00     0.002 A 
ENDROOT
BRANCH   1   7
ATOM      7  C1' N4B d   1       2.583  -4.452   4.689  0.00  0.00     0.057 C 
BRANCH   7   8
ATOM      8  C2' N4B d   1       3.864  -3.715   5.069  0.00  0.00     0.009 C 
BRANCH   8   9
ATOM      9  C3' N4B d   1       4.501  -3.029   3.873  0.00  0.00     0.004 C 
ATOM     10  C4' N4B d   1       5.999  -3.054   3.918  0.00  0.00     0.003 C 
ENDBRANCH   8   9
ENDBRANCH   7   8
ENDBRANCH   1   7
TORSDOF 3
ENDMDL
