MODEL 1
REMARK minimizedAffinity 0.766278088
REMARK minimizedRMSD -1
REMARK  3 active torsions:
REMARK  status: ('A' for Active; 'I' for Inactive)
REMARK    1  A    between atoms: C3'_2  and  C2'_3 
REMARK    2  A    between atoms: C2'_3  and  C1'_4 
REMARK    3  A    between atoms: C1'_4  and  C1_5 
ROOT
ATOM      1  C1  N4B d   1       3.408   5.934  -2.416  0.00  0.00    -0.075 A 
ATOM      2  C2  N4B d   1       4.521   5.957  -1.547  0.00  0.00     0.002 A 
ATOM      3  C3  N4B d   1       5.794   5.997  -2.062  0.00  0.00     0.002 A 
ATOM      4  C4  N4B d   1       5.978   5.996  -3.436  0.00  0.00    -0.004 A 
ATOM      5  C5  N4B d   1       4.897   5.999  -4.269  0.00  0.00     0.002 A 
ATOM      6  C6  N4B d   1       3.613   5.963  -3.765  0.00  0.00     0.002 A 
ENDROOT
BRANCH   1   7
ATOM      7  C1' N4B d   1       2.001   5.803  -1.901  0.00  0.00     0.057 C 
BRANCH   7   8
ATOM      8  C2' N4B d   1       1.967   4.747  -0.800  0.00  0.00     0.009 C 
BRANCH   8   9
ATOM      9  C3' N4B d   1       2.667   3.466  -1.219  0.00  0.00     0.004 C 
ATOM     10  C4' N4B d   1       2.651   2.418  -0.147  0.00  0.00     0.003 C 
ENDBRANCH   8   9
ENDBRANCH   7   8
ENDBRANCH   1   7
TORSDOF 3
ENDMDL
