MODEL 1
REMARK minimizedAffinity -5.33748627
REMARK minimizedRMSD -1
REMARK  0 active torsions:
REMARK  status: ('A' for Active; 'I' for Inactive)
ROOT
ATOM      1  O1  BZF d   1      -1.089  -0.545  -0.046  0.00  0.00    -0.204 OA
ATOM      2  C2  BZF d   1      -1.252   0.665  -0.691  0.00  0.00     0.174 A 
ATOM      3  C3  BZF d   1      -0.068   1.295  -0.833  0.00  0.00    -0.012 A 
ATOM      4  C3A BZF d   1       0.908   0.382  -0.321  0.00  0.00    -0.107 A 
ATOM      5  C4  BZF d   1       2.268   0.429  -0.204  0.00  0.00     0.055 A 
ATOM      6  C5  BZF d   1       2.914  -0.598   0.408  0.00  0.00    -0.016 A 
ATOM      7  C6  BZF d   1       2.233  -1.684   0.917  0.00  0.00     0.022 A 
ATOM      8  C7  BZF d   1       0.884  -1.778   0.819  0.00  0.00     0.029 A 
ATOM      9  C7A BZF d   1       0.231  -0.757   0.173  0.00  0.00     0.058 A 
ENDROOT
TORSDOF 0
ENDMDL
