MODEL 1
REMARK minimizedAffinity 0.18845576
REMARK minimizedRMSD -1
REMARK  0 active torsions:
REMARK  status: ('A' for Active; 'I' for Inactive)
ROOT
ATOM      1  O1  BZF d   1      -3.981  -5.258   2.179  0.00  0.00    -0.204 OA
ATOM      2  C2  BZF d   1      -2.676  -4.827   2.039  0.00  0.00     0.174 A 
ATOM      3  C3  BZF d   1      -2.323  -4.788   0.738  0.00  0.00    -0.012 A 
ATOM      4  C3A BZF d   1      -3.508  -5.134   0.015  0.00  0.00    -0.107 A 
ATOM      5  C4  BZF d   1      -3.797  -5.251  -1.314  0.00  0.00     0.055 A 
ATOM      6  C5  BZF d   1      -5.032  -5.678  -1.687  0.00  0.00    -0.016 A 
ATOM      7  C6  BZF d   1      -6.000  -5.999  -0.758  0.00  0.00     0.022 A 
ATOM      8  C7  BZF d   1      -5.762  -5.893   0.572  0.00  0.00     0.029 A 
ATOM      9  C7A BZF d   1      -4.525  -5.431   0.951  0.00  0.00     0.058 A 
ENDROOT
TORSDOF 0
ENDMDL
