MODEL 1
REMARK minimizedAffinity -2.5641377
REMARK minimizedRMSD -1
REMARK  0 active torsions:
REMARK  status: ('A' for Active; 'I' for Inactive)
ROOT
ATOM      1  O1  BZF d   1       2.391  -1.686   0.680  0.00  0.00    -0.204 OA
ATOM      2  C2  BZF d   1       1.771  -2.809   1.192  0.00  0.00     0.174 A 
ATOM      3  C3  BZF d   1       0.434  -2.640   1.234  0.00  0.00    -0.012 A 
ATOM      4  C3A BZF d   1       0.197  -1.365   0.631  0.00  0.00    -0.107 A 
ATOM      5  C4  BZF d   1      -0.934  -0.646   0.367  0.00  0.00     0.055 A 
ATOM      6  C5  BZF d   1      -0.817   0.598  -0.166  0.00  0.00    -0.016 A 
ATOM      7  C6  BZF d   1       0.413   1.157  -0.442  0.00  0.00     0.022 A 
ATOM      8  C7  BZF d   1       1.563   0.481  -0.203  0.00  0.00     0.029 A 
ATOM      9  C7A BZF d   1       1.447  -0.790   0.305  0.00  0.00     0.058 A 
ENDROOT
TORSDOF 0
ENDMDL
