MODEL 1
REMARK minimizedAffinity -4.72812271
REMARK minimizedRMSD -1
REMARK  0 active torsions:
REMARK  status: ('A' for Active; 'I' for Inactive)
ROOT
ATOM      1  O1  BZF d   1      -1.099   0.495   0.630  0.00  0.00    -0.204 OA
ATOM      2  C2  BZF d   1      -0.412   1.175  -0.357  0.00  0.00     0.174 A 
ATOM      3  C3  BZF d   1       0.801   0.622  -0.562  0.00  0.00    -0.012 A 
ATOM      4  C3A BZF d   1       0.840  -0.527   0.289  0.00  0.00    -0.107 A 
ATOM      5  C4  BZF d   1       1.777  -1.493   0.520  0.00  0.00     0.055 A 
ATOM      6  C5  BZF d   1       1.535  -2.436   1.468  0.00  0.00    -0.016 A 
ATOM      7  C6  BZF d   1       0.370  -2.439   2.206  0.00  0.00     0.022 A 
ATOM      8  C7  BZF d   1      -0.592  -1.505   2.010  0.00  0.00     0.029 A 
ATOM      9  C7A BZF d   1      -0.364  -0.570   1.030  0.00  0.00     0.058 A 
ENDROOT
TORSDOF 0
ENDMDL
