MODEL 1
REMARK minimizedAffinity -4.67333221
REMARK minimizedRMSD -1
REMARK  0 active torsions:
REMARK  status: ('A' for Active; 'I' for Inactive)
ROOT
ATOM      1  O1  BZF d   1       2.120  -1.827   0.512  0.00  0.00    -0.204 OA
ATOM      2  C2  BZF d   1       1.641  -2.893   1.250  0.00  0.00     0.174 A 
ATOM      3  C3  BZF d   1       0.353  -2.694   1.597  0.00  0.00    -0.012 A 
ATOM      4  C3A BZF d   1      -0.023  -1.467   0.963  0.00  0.00    -0.107 A 
ATOM      5  C4  BZF d   1      -1.184  -0.750   0.919  0.00  0.00     0.055 A 
ATOM      6  C5  BZF d   1      -1.199   0.444   0.271  0.00  0.00    -0.016 A 
ATOM      7  C6  BZF d   1      -0.071   0.954  -0.338  0.00  0.00     0.022 A 
ATOM      8  C7  BZF d   1       1.103   0.276  -0.326  0.00  0.00     0.029 A 
ATOM      9  C7A BZF d   1       1.112  -0.947   0.300  0.00  0.00     0.058 A 
ENDROOT
TORSDOF 0
ENDMDL
