MODEL 1
REMARK minimizedAffinity -5.33428955
REMARK minimizedRMSD -1
REMARK  0 active torsions:
REMARK  status: ('A' for Active; 'I' for Inactive)
ROOT
ATOM      1  O1  BZF d   1       1.817  -1.664   0.437  0.00  0.00    -0.204 OA
ATOM      2  C2  BZF d   1       0.820  -2.472   0.948  0.00  0.00     0.174 A 
ATOM      3  C3  BZF d   1      -0.375  -1.849   0.896  0.00  0.00    -0.012 A 
ATOM      4  C3A BZF d   1      -0.122  -0.607   0.232  0.00  0.00    -0.107 A 
ATOM      5  C4  BZF d   1      -0.918   0.442  -0.131  0.00  0.00     0.055 A 
ATOM      6  C5  BZF d   1      -0.348   1.537  -0.701  0.00  0.00    -0.016 A 
ATOM      7  C6  BZF d   1       1.012   1.618  -0.917  0.00  0.00     0.022 A 
ATOM      8  C7  BZF d   1       1.841   0.601  -0.578  0.00  0.00     0.029 A 
ATOM      9  C7A BZF d   1       1.264  -0.520  -0.033  0.00  0.00     0.058 A 
ENDROOT
TORSDOF 0
ENDMDL
