MODEL 1
REMARK minimizedAffinity 0.85727334
REMARK minimizedRMSD -1
REMARK  0 active torsions:
REMARK  status: ('A' for Active; 'I' for Inactive)
ROOT
ATOM      1  O1  BZF d   1       0.270  -1.259   1.880  0.00  0.00    -0.204 OA
ATOM      2  C2  BZF d   1       1.508  -1.865   1.788  0.00  0.00     0.174 A 
ATOM      3  C3  BZF d   1       2.156  -1.464   0.675  0.00  0.00    -0.012 A 
ATOM      4  C3A BZF d   1       1.305  -0.480   0.078  0.00  0.00    -0.107 A 
ATOM      5  C4  BZF d   1       1.408   0.295  -1.041  0.00  0.00     0.055 A 
ATOM      6  C5  BZF d   1       0.370   1.102  -1.383  0.00  0.00    -0.016 A 
ATOM      7  C6  BZF d   1      -0.787   1.154  -0.633  0.00  0.00     0.022 A 
ATOM      8  C7  BZF d   1      -0.933   0.408   0.489  0.00  0.00     0.029 A 
ATOM      9  C7A BZF d   1       0.127  -0.384   0.855  0.00  0.00     0.058 A 
ENDROOT
TORSDOF 0
ENDMDL
