MODEL 1
REMARK minimizedAffinity -4.48461723
REMARK minimizedRMSD -1
REMARK  0 active torsions:
REMARK  status: ('A' for Active; 'I' for Inactive)
ROOT
ATOM      1  O1  BZF d   1      -1.181   0.318   0.470  0.00  0.00    -0.204 OA
ATOM      2  C2  BZF d   1      -0.381   0.989  -0.434  0.00  0.00     0.174 A 
ATOM      3  C3  BZF d   1       0.844   0.430  -0.497  0.00  0.00    -0.012 A 
ATOM      4  C3A BZF d   1       0.778  -0.716   0.358  0.00  0.00    -0.107 A 
ATOM      5  C4  BZF d   1       1.677  -1.686   0.699  0.00  0.00     0.055 A 
ATOM      6  C5  BZF d   1       1.322  -2.623   1.616  0.00  0.00    -0.016 A 
ATOM      7  C6  BZF d   1       0.079  -2.618   2.216  0.00  0.00     0.022 A 
ATOM      8  C7  BZF d   1      -0.848  -1.678   1.907  0.00  0.00     0.029 A 
ATOM      9  C7A BZF d   1      -0.503  -0.749   0.956  0.00  0.00     0.058 A 
ENDROOT
TORSDOF 0
ENDMDL
