MODEL 1
REMARK minimizedAffinity -5.39047861
REMARK minimizedRMSD -1
REMARK  0 active torsions:
REMARK  status: ('A' for Active; 'I' for Inactive)
ROOT
ATOM      1  O1  BZF d   1      -0.567   0.336   0.174  0.00  0.00    -0.204 OA
ATOM      2  C2  BZF d   1       0.385   0.853  -0.683  0.00  0.00     0.174 A 
ATOM      3  C3  BZF d   1       1.504   0.101  -0.665  0.00  0.00    -0.012 A 
ATOM      4  C3A BZF d   1       1.202  -1.004   0.192  0.00  0.00    -0.107 A 
ATOM      5  C4  BZF d   1       1.908  -2.101   0.594  0.00  0.00     0.055 A 
ATOM      6  C5  BZF d   1       1.350  -2.952   1.494  0.00  0.00    -0.016 A 
ATOM      7  C6  BZF d   1       0.092  -2.735   2.016  0.00  0.00     0.022 A 
ATOM      8  C7  BZF d   1      -0.650  -1.664   1.643  0.00  0.00     0.029 A 
ATOM      9  C7A BZF d   1      -0.102  -0.819   0.708  0.00  0.00     0.058 A 
ENDROOT
TORSDOF 0
ENDMDL
