MODEL 1
REMARK minimizedAffinity -4.67910957
REMARK minimizedRMSD -1
REMARK  0 active torsions:
REMARK  status: ('A' for Active; 'I' for Inactive)
ROOT
ATOM      1  O1  BZF d   1      -1.110  -1.085   1.791  0.00  0.00    -0.204 OA
ATOM      2  C2  BZF d   1      -0.996  -1.909   2.893  0.00  0.00     0.174 A 
ATOM      3  C3  BZF d   1       0.179  -2.570   2.877  0.00  0.00    -0.012 A 
ATOM      4  C3A BZF d   1       0.881  -2.062   1.739  0.00  0.00    -0.107 A 
ATOM      5  C4  BZF d   1       2.111  -2.318   1.203  0.00  0.00     0.055 A 
ATOM      6  C5  BZF d   1       2.467  -1.705   0.043  0.00  0.00    -0.016 A 
ATOM      7  C6  BZF d   1       1.617  -0.836  -0.609  0.00  0.00     0.022 A 
ATOM      8  C7  BZF d   1       0.389  -0.548  -0.114  0.00  0.00     0.029 A 
ATOM      9  C7A BZF d   1       0.039  -1.140   1.076  0.00  0.00     0.058 A 
ENDROOT
TORSDOF 0
ENDMDL
