MODEL 1
REMARK minimizedAffinity -4.12067127
REMARK minimizedRMSD -1
REMARK  0 active torsions:
REMARK  status: ('A' for Active; 'I' for Inactive)
ROOT
ATOM      1  O1  BZF d   1      -0.759   0.329   0.358  0.00  0.00    -0.204 OA
ATOM      2  C2  BZF d   1       0.133   0.799  -0.586  0.00  0.00     0.174 A 
ATOM      3  C3  BZF d   1       1.244   0.035  -0.617  0.00  0.00    -0.012 A 
ATOM      4  C3A BZF d   1       0.994  -1.031   0.304  0.00  0.00    -0.107 A 
ATOM      5  C4  BZF d   1       1.718  -2.119   0.699  0.00  0.00     0.055 A 
ATOM      6  C5  BZF d   1       1.218  -2.927   1.671  0.00  0.00    -0.016 A 
ATOM      7  C6  BZF d   1       0.002  -2.673   2.272  0.00  0.00     0.022 A 
ATOM      8  C7  BZF d   1      -0.754  -1.609   1.910  0.00  0.00     0.029 A 
ATOM      9  C7A BZF d   1      -0.267  -0.809   0.904  0.00  0.00     0.058 A 
ENDROOT
TORSDOF 0
ENDMDL
