MODEL 1
REMARK minimizedAffinity -3.95091844
REMARK minimizedRMSD -1
REMARK  0 active torsions:
REMARK  status: ('A' for Active; 'I' for Inactive)
ROOT
ATOM      1  O1  BZF d   1       1.240   0.869  -0.442  0.00  0.00    -0.204 OA
ATOM      2  C2  BZF d   1      -0.033   1.265  -0.806  0.00  0.00     0.174 A 
ATOM      3  C3  BZF d   1      -0.925   0.282  -0.573  0.00  0.00    -0.012 A 
ATOM      4  C3A BZF d   1      -0.178  -0.763   0.057  0.00  0.00    -0.107 A 
ATOM      5  C4  BZF d   1      -0.512  -1.995   0.542  0.00  0.00     0.055 A 
ATOM      6  C5  BZF d   1       0.467  -2.801   1.029  0.00  0.00    -0.016 A 
ATOM      7  C6  BZF d   1       1.790  -2.410   1.042  0.00  0.00     0.022 A 
ATOM      8  C7  BZF d   1       2.170  -1.195   0.576  0.00  0.00     0.029 A 
ATOM      9  C7A BZF d   1       1.178  -0.365   0.113  0.00  0.00     0.058 A 
ENDROOT
TORSDOF 0
ENDMDL
