MODEL 1
REMARK minimizedAffinity -5.23214388
REMARK minimizedRMSD -1
REMARK  0 active torsions:
REMARK  status: ('A' for Active; 'I' for Inactive)
ROOT
ATOM      1  O1  BZF d   1      -0.874   0.175   0.587  0.00  0.00    -0.204 OA
ATOM      2  C2  BZF d   1      -0.020   0.863  -0.253  0.00  0.00     0.174 A 
ATOM      3  C3  BZF d   1       1.203   0.294  -0.263  0.00  0.00    -0.012 A 
ATOM      4  C3A BZF d   1       1.082  -0.873   0.555  0.00  0.00    -0.107 A 
ATOM      5  C4  BZF d   1       1.953  -1.860   0.918  0.00  0.00     0.055 A 
ATOM      6  C5  BZF d   1       1.541  -2.818   1.789  0.00  0.00    -0.016 A 
ATOM      7  C6  BZF d   1       0.267  -2.817   2.320  0.00  0.00     0.022 A 
ATOM      8  C7  BZF d   1      -0.634  -1.862   1.985  0.00  0.00     0.029 A 
ATOM      9  C7A BZF d   1      -0.231  -0.911   1.080  0.00  0.00     0.058 A 
ENDROOT
TORSDOF 0
ENDMDL
