MODEL 1
REMARK minimizedAffinity -4.97441387
REMARK minimizedRMSD -1
REMARK  0 active torsions:
REMARK  status: ('A' for Active; 'I' for Inactive)
ROOT
ATOM      1  O1  BZF d   1      -1.181  -0.833   2.045  0.00  0.00    -0.204 OA
ATOM      2  C2  BZF d   1      -0.900  -1.888   2.891  0.00  0.00     0.174 A 
ATOM      3  C3  BZF d   1       0.235  -2.513   2.515  0.00  0.00    -0.012 A 
ATOM      4  C3A BZF d   1       0.740  -1.747   1.417  0.00  0.00    -0.107 A 
ATOM      5  C4  BZF d   1       1.849  -1.856   0.627  0.00  0.00     0.055 A 
ATOM      6  C5  BZF d   1       2.012  -0.988  -0.406  0.00  0.00    -0.016 A 
ATOM      7  C6  BZF d   1       1.086  -0.003  -0.679  0.00  0.00     0.022 A 
ATOM      8  C7  BZF d   1      -0.026   0.148   0.080  0.00  0.00     0.029 A 
ATOM      9  C7A BZF d   1      -0.178  -0.707   1.144  0.00  0.00     0.058 A 
ENDROOT
TORSDOF 0
ENDMDL
