MODEL 1
REMARK minimizedAffinity -3.87350082
REMARK minimizedRMSD -1
REMARK  1 active torsions:
REMARK  status: ('A' for Active; 'I' for Inactive)
REMARK    1  A    between atoms: C3_4  and  O_7 
ROOT
ATOM      1  C   UNL d   1      -0.143   2.158   4.075  0.00  0.00    -0.033 A 
ATOM      2  C1  UNL d   1      -0.588   1.240   3.121  0.00  0.00     0.039 A 
ATOM      3  C2  UNL d   1      -1.809   1.438   2.475  0.00  0.00    -0.080 A 
ATOM      4  C3  UNL d   1      -2.575   2.557   2.790  0.00  0.00     0.150 A 
ATOM      5  C4  UNL d   1      -2.137   3.478   3.736  0.00  0.00    -0.007 A 
ATOM      6  C5  UNL d   1      -0.917   3.277   4.381  0.00  0.00     0.039 A 
ENDROOT
BRANCH   4   7
ATOM      7  O   UNL d   1      -3.776   2.791   2.189  0.00  0.00    -0.526 OA
ATOM      8  H5  UNL d   1      -3.964   2.057   1.580  0.00  0.00     0.418 HD
ENDBRANCH   4   7
TORSDOF 1
ENDMDL
