MODEL 1
REMARK minimizedAffinity -2.86766624
REMARK minimizedRMSD -1
REMARK  1 active torsions:
REMARK  status: ('A' for Active; 'I' for Inactive)
REMARK    1  A    between atoms: C3_4  and  O_7 
ROOT
ATOM      1  C   UNL d   1       0.533   0.143   1.144  0.00  0.00    -0.033 A 
ATOM      2  C1  UNL d   1      -0.449   0.435   0.195  0.00  0.00     0.039 A 
ATOM      3  C2  UNL d   1      -1.511   1.280   0.524  0.00  0.00    -0.080 A 
ATOM      4  C3  UNL d   1      -1.579   1.825   1.803  0.00  0.00     0.150 A 
ATOM      5  C4  UNL d   1      -0.602   1.541   2.752  0.00  0.00    -0.007 A 
ATOM      6  C5  UNL d   1       0.457   0.697   2.422  0.00  0.00     0.039 A 
ENDROOT
BRANCH   4   7
ATOM      7  O   UNL d   1      -2.599   2.651   2.173  0.00  0.00    -0.526 OA
ATOM      8  H5  UNL d   1      -3.214   2.734   1.425  0.00  0.00     0.418 HD
ENDBRANCH   4   7
TORSDOF 1
ENDMDL
