MODEL 1
REMARK minimizedAffinity -4.53492355
REMARK minimizedRMSD -1
REMARK  1 active torsions:
REMARK  status: ('A' for Active; 'I' for Inactive)
REMARK    1  A    between atoms: C3_4  and  O_7 
ROOT
ATOM      1  C   UNL d   1      -2.205  -0.346   1.135  0.00  0.00    -0.033 A 
ATOM      2  C1  UNL d   1      -0.881  -0.436   0.701  0.00  0.00     0.039 A 
ATOM      3  C2  UNL d   1       0.164  -0.110   1.569  0.00  0.00    -0.080 A 
ATOM      4  C3  UNL d   1      -0.129   0.302   2.866  0.00  0.00     0.150 A 
ATOM      5  C4  UNL d   1      -1.445   0.390   3.306  0.00  0.00    -0.007 A 
ATOM      6  C5  UNL d   1      -2.487   0.065   2.438  0.00  0.00     0.039 A 
ENDROOT
BRANCH   4   7
ATOM      7  O   UNL d   1       0.857   0.635   3.747  0.00  0.00    -0.526 OA
ATOM      8  H5  UNL d   1       1.713   0.555   3.295  0.00  0.00     0.418 HD
ENDBRANCH   4   7
TORSDOF 1
ENDMDL
