MODEL 1
REMARK minimizedAffinity -1.97846138
REMARK minimizedRMSD -1
REMARK  1 active torsions:
REMARK  status: ('A' for Active; 'I' for Inactive)
REMARK    1  A    between atoms: C3_4  and  O_7 
ROOT
ATOM      1  C   UNL d   1       0.073   0.178  -0.264  0.00  0.00    -0.033 A 
ATOM      2  C1  UNL d   1      -1.151  -0.439   0.004  0.00  0.00     0.039 A 
ATOM      3  C2  UNL d   1      -1.563  -0.634   1.324  0.00  0.00    -0.080 A 
ATOM      4  C3  UNL d   1      -0.744  -0.206   2.365  0.00  0.00     0.150 A 
ATOM      5  C4  UNL d   1       0.475   0.413   2.106  0.00  0.00    -0.007 A 
ATOM      6  C5  UNL d   1       0.885   0.605   0.787  0.00  0.00     0.039 A 
ENDROOT
BRANCH   4   7
ATOM      7  O   UNL d   1      -1.101  -0.379   3.669  0.00  0.00    -0.526 OA
ATOM      8  H5  UNL d   1      -1.953  -0.846   3.696  0.00  0.00     0.418 HD
ENDBRANCH   4   7
TORSDOF 1
ENDMDL
