MODEL 1
REMARK minimizedAffinity -3.05768228
REMARK minimizedRMSD -1
REMARK  1 active torsions:
REMARK  status: ('A' for Active; 'I' for Inactive)
REMARK    1  A    between atoms: C3_4  and  O_7 
ROOT
ATOM      1  C   UNL d   1      -0.007  -0.245  -0.217  0.00  0.00    -0.033 A 
ATOM      2  C1  UNL d   1      -0.361  -1.550   0.131  0.00  0.00     0.039 A 
ATOM      3  C2  UNL d   1      -0.613  -1.874   1.466  0.00  0.00    -0.080 A 
ATOM      4  C3  UNL d   1      -0.510  -0.885   2.440  0.00  0.00     0.150 A 
ATOM      5  C4  UNL d   1      -0.162   0.418   2.100  0.00  0.00    -0.007 A 
ATOM      6  C5  UNL d   1       0.090   0.739   0.767  0.00  0.00     0.039 A 
ENDROOT
BRANCH   4   7
ATOM      7  O   UNL d   1      -0.743  -1.155   3.756  0.00  0.00    -0.526 OA
ATOM      8  H5  UNL d   1      -0.945  -2.101   3.846  0.00  0.00     0.418 HD
ENDBRANCH   4   7
TORSDOF 1
ENDMDL
