MODEL 1
REMARK minimizedAffinity -4.44613314
REMARK minimizedRMSD -1
REMARK  1 active torsions:
REMARK  status: ('A' for Active; 'I' for Inactive)
REMARK    1  A    between atoms: C3_4  and  O_7 
ROOT
ATOM      1  C   UNL d   1       0.400  -0.749   1.716  0.00  0.00    -0.033 A 
ATOM      2  C1  UNL d   1       0.741  -0.771   0.362  0.00  0.00     0.039 A 
ATOM      3  C2  UNL d   1      -0.055  -0.107  -0.572  0.00  0.00    -0.080 A 
ATOM      4  C3  UNL d   1      -1.189   0.577  -0.140  0.00  0.00     0.150 A 
ATOM      5  C4  UNL d   1      -1.533   0.607   1.208  0.00  0.00    -0.007 A 
ATOM      6  C5  UNL d   1      -0.736  -0.059   2.139  0.00  0.00     0.039 A 
ENDROOT
BRANCH   4   7
ATOM      7  O   UNL d   1      -2.000   1.237  -1.015  0.00  0.00    -0.526 OA
ATOM      8  H5  UNL d   1      -1.654   1.105  -1.913  0.00  0.00     0.418 HD
ENDBRANCH   4   7
TORSDOF 1
ENDMDL
