MODEL 1
REMARK minimizedAffinity -4.58424759
REMARK minimizedRMSD -1
REMARK  1 active torsions:
REMARK  status: ('A' for Active; 'I' for Inactive)
REMARK    1  A    between atoms: C3_4  and  O_7 
ROOT
ATOM      1  C   UNL d   1      -0.031  -0.363   2.598  0.00  0.00    -0.033 A 
ATOM      2  C1  UNL d   1       1.289  -0.107   2.222  0.00  0.00     0.039 A 
ATOM      3  C2  UNL d   1       1.619   0.022   0.871  0.00  0.00    -0.080 A 
ATOM      4  C3  UNL d   1       0.622  -0.106  -0.091  0.00  0.00     0.150 A 
ATOM      5  C4  UNL d   1      -0.696  -0.357   0.277  0.00  0.00    -0.007 A 
ATOM      6  C5  UNL d   1      -1.023  -0.487   1.626  0.00  0.00     0.039 A 
ENDROOT
BRANCH   4   7
ATOM      7  O   UNL d   1       0.896   0.007  -1.422  0.00  0.00    -0.526 OA
ATOM      8  H5  UNL d   1       1.851   0.152  -1.528  0.00  0.00     0.418 HD
ENDBRANCH   4   7
TORSDOF 1
ENDMDL
