MODEL 1
REMARK minimizedAffinity -5.11144972
REMARK minimizedRMSD -1
REMARK  1 active torsions:
REMARK  status: ('A' for Active; 'I' for Inactive)
REMARK    1  A    between atoms: C3_4  and  O_7 
ROOT
ATOM      1  C   UNL d   1       0.239   0.783   0.134  0.00  0.00    -0.033 A 
ATOM      2  C1  UNL d   1      -1.033   0.220   0.256  0.00  0.00     0.039 A 
ATOM      3  C2  UNL d   1      -1.382  -0.476   1.414  0.00  0.00    -0.080 A 
ATOM      4  C3  UNL d   1      -0.451  -0.602   2.442  0.00  0.00     0.150 A 
ATOM      5  C4  UNL d   1       0.816  -0.040   2.329  0.00  0.00    -0.007 A 
ATOM      6  C5  UNL d   1       1.163   0.654   1.171  0.00  0.00     0.039 A 
ENDROOT
BRANCH   4   7
ATOM      7  O   UNL d   1      -0.744  -1.276   3.590  0.00  0.00    -0.526 OA
ATOM      8  H5  UNL d   1      -1.644  -1.635   3.515  0.00  0.00     0.418 HD
ENDBRANCH   4   7
TORSDOF 1
ENDMDL
