MODEL 1
REMARK minimizedAffinity -5.2726593
REMARK minimizedRMSD -1
REMARK  1 active torsions:
REMARK  status: ('A' for Active; 'I' for Inactive)
REMARK    1  A    between atoms: C3_4  and  O_7 
ROOT
ATOM      1  C   UNL d   1       0.192  -0.065   2.589  0.00  0.00    -0.033 A 
ATOM      2  C1  UNL d   1      -1.055  -0.425   2.074  0.00  0.00     0.039 A 
ATOM      3  C2  UNL d   1      -1.328  -0.252   0.716  0.00  0.00    -0.080 A 
ATOM      4  C3  UNL d   1      -0.347   0.279  -0.116  0.00  0.00     0.150 A 
ATOM      5  C4  UNL d   1       0.899   0.636   0.388  0.00  0.00    -0.007 A 
ATOM      6  C5  UNL d   1       1.170   0.464   1.745  0.00  0.00     0.039 A 
ENDROOT
BRANCH   4   7
ATOM      7  O   UNL d   1      -0.568   0.470  -1.448  0.00  0.00    -0.526 OA
ATOM      8  H5  UNL d   1      -1.481   0.205  -1.649  0.00  0.00     0.418 HD
ENDBRANCH   4   7
TORSDOF 1
ENDMDL
