MODEL 1
REMARK minimizedAffinity -4.57795715
REMARK minimizedRMSD -1
REMARK  1 active torsions:
REMARK  status: ('A' for Active; 'I' for Inactive)
REMARK    1  A    between atoms: C3_4  and  O_7 
ROOT
ATOM      1  C   UNL d   1      -0.654   0.424  -0.203  0.00  0.00    -0.033 A 
ATOM      2  C1  UNL d   1       0.661   0.149   0.179  0.00  0.00     0.039 A 
ATOM      3  C2  UNL d   1       0.935  -0.296   1.474  0.00  0.00    -0.080 A 
ATOM      4  C3  UNL d   1      -0.113  -0.463   2.375  0.00  0.00     0.150 A 
ATOM      5  C4  UNL d   1      -1.426  -0.195   2.000  0.00  0.00    -0.007 A 
ATOM      6  C5  UNL d   1      -1.697   0.250   0.707  0.00  0.00     0.039 A 
ENDROOT
BRANCH   4   7
ATOM      7  O   UNL d   1       0.105  -0.891   3.651  0.00  0.00    -0.526 OA
ATOM      8  H5  UNL d   1       1.062  -1.008   3.776  0.00  0.00     0.418 HD
ENDBRANCH   4   7
TORSDOF 1
ENDMDL
