MODEL 1
REMARK minimizedAffinity -2.21133518
REMARK minimizedRMSD -1
REMARK  1 active torsions:
REMARK  status: ('A' for Active; 'I' for Inactive)
REMARK    1  A    between atoms: C3_4  and  O_7 
ROOT
ATOM      1  C   UNL d   1       1.287  -0.028   2.370  0.00  0.00    -0.033 A 
ATOM      2  C1  UNL d   1       1.363  -0.138   0.980  0.00  0.00     0.039 A 
ATOM      3  C2  UNL d   1       0.201  -0.072   0.208  0.00  0.00    -0.080 A 
ATOM      4  C3  UNL d   1      -1.028   0.105   0.837  0.00  0.00     0.150 A 
ATOM      5  C4  UNL d   1      -1.110   0.220   2.221  0.00  0.00    -0.007 A 
ATOM      6  C5  UNL d   1       0.051   0.153   2.990  0.00  0.00     0.039 A 
ENDROOT
BRANCH   4   7
ATOM      7  O   UNL d   1      -2.189   0.170   0.127  0.00  0.00    -0.526 OA
ATOM      8  H5  UNL d   1      -1.981   0.047  -0.815  0.00  0.00     0.418 HD
ENDBRANCH   4   7
TORSDOF 1
ENDMDL
