MODEL 1
REMARK minimizedAffinity -2.94365287
REMARK minimizedRMSD -1
REMARK  1 active torsions:
REMARK  status: ('A' for Active; 'I' for Inactive)
REMARK    1  A    between atoms: C3_4  and  O_7 
ROOT
ATOM      1  C   UNL d   1      -0.032  -1.474  -2.487  0.00  0.00    -0.033 A 
ATOM      2  C1  UNL d   1       0.666  -2.379  -3.288  0.00  0.00     0.039 A 
ATOM      3  C2  UNL d   1       2.059  -2.445  -3.219  0.00  0.00    -0.080 A 
ATOM      4  C3  UNL d   1       2.741  -1.603  -2.345  0.00  0.00     0.150 A 
ATOM      5  C4  UNL d   1       2.051  -0.701  -1.541  0.00  0.00    -0.007 A 
ATOM      6  C5  UNL d   1       0.660  -0.636  -1.612  0.00  0.00     0.039 A 
ENDROOT
BRANCH   4   7
ATOM      7  O   UNL d   1       4.100  -1.627  -2.246  0.00  0.00    -0.526 OA
ATOM      8  H5  UNL d   1       4.443  -2.278  -2.881  0.00  0.00     0.418 HD
ENDBRANCH   4   7
TORSDOF 1
ENDMDL
