MODEL 1
REMARK minimizedAffinity -4.3773036
REMARK minimizedRMSD -1
REMARK  1 active torsions:
REMARK  status: ('A' for Active; 'I' for Inactive)
REMARK    1  A    between atoms: C3_4  and  O_7 
ROOT
ATOM      1  C   UNL d   1       1.317  -0.021   1.588  0.00  0.00    -0.033 A 
ATOM      2  C1  UNL d   1       0.742  -0.054   0.316  0.00  0.00     0.039 A 
ATOM      3  C2  UNL d   1      -0.638   0.093   0.168  0.00  0.00    -0.080 A 
ATOM      4  C3  UNL d   1      -1.431   0.274   1.298  0.00  0.00     0.150 A 
ATOM      5  C4  UNL d   1      -0.864   0.311   2.568  0.00  0.00    -0.007 A 
ATOM      6  C5  UNL d   1       0.514   0.163   2.713  0.00  0.00     0.039 A 
ENDROOT
BRANCH   4   7
ATOM      7  O   UNL d   1      -2.784   0.417   1.204  0.00  0.00    -0.526 OA
ATOM      8  H5  UNL d   1      -3.037   0.342   0.269  0.00  0.00     0.418 HD
ENDBRANCH   4   7
TORSDOF 1
ENDMDL
