MODEL 1
REMARK minimizedAffinity -4.29705191
REMARK minimizedRMSD -1
REMARK  1 active torsions:
REMARK  status: ('A' for Active; 'I' for Inactive)
REMARK    1  A    between atoms: C3_4  and  O_7 
ROOT
ATOM      1  C   UNL d   1       2.145  -2.000  -3.486  0.00  0.00    -0.033 A 
ATOM      2  C1  UNL d   1       0.749  -1.972  -3.524  0.00  0.00     0.039 A 
ATOM      3  C2  UNL d   1       0.046  -1.052  -2.744  0.00  0.00    -0.080 A 
ATOM      4  C3  UNL d   1       0.748  -0.167  -1.931  0.00  0.00     0.150 A 
ATOM      5  C4  UNL d   1       2.139  -0.187  -1.890  0.00  0.00    -0.007 A 
ATOM      6  C5  UNL d   1       2.840  -1.106  -2.670  0.00  0.00     0.039 A 
ENDROOT
BRANCH   4   7
ATOM      7  O   UNL d   1       0.105   0.745  -1.148  0.00  0.00    -0.526 OA
ATOM      8  H5  UNL d   1      -0.853   0.623  -1.257  0.00  0.00     0.418 HD
ENDBRANCH   4   7
TORSDOF 1
ENDMDL
