MODEL 1
REMARK minimizedAffinity -3.13132954
REMARK minimizedRMSD -1
REMARK  1 active torsions:
REMARK  status: ('A' for Active; 'I' for Inactive)
REMARK    1  A    between atoms: N_2  and  C1_3 
ROOT
ATOM      1  C1  UNL d   1       3.230   0.603  -1.529  0.00  0.00     0.143 A 
ATOM      2  C2  UNL d   1       2.696   1.599  -0.704  0.00  0.00    -0.057 A 
ATOM      3  C3  UNL d   1       1.657   1.319   0.192  0.00  0.00     0.033 A 
ATOM      4  C4  UNL d   1       1.112   0.041   0.258  0.00  0.00    -0.042 A 
ATOM      5  C5  UNL d   1       1.610  -0.958  -0.571  0.00  0.00     0.033 A 
ATOM      6  C6  UNL d   1       2.652  -0.674  -1.459  0.00  0.00    -0.057 A 
ENDROOT
BRANCH   1   7
ATOM      7  N   UNL d   1       4.196   0.841  -2.510  0.00  0.00    -0.732 N 
ATOM      8  C   UNL d   1       4.178   0.106  -3.756  0.00  0.00     0.284 C 
ATOM      9  H3  UNL d   1       4.408   1.831  -2.614  0.00  0.00     0.395 HD
ENDBRANCH   1   7
TORSDOF 1
ENDMDL
