MODEL 1
REMARK minimizedAffinity -1.80681932
REMARK minimizedRMSD -1
REMARK  1 active torsions:
REMARK  status: ('A' for Active; 'I' for Inactive)
REMARK    1  A    between atoms: N_2  and  C1_3 
ROOT
ATOM      1  C1  UNL d   1       3.542   0.877  -1.015  0.00  0.00     0.143 A 
ATOM      2  C2  UNL d   1       2.737   1.844  -0.404  0.00  0.00    -0.057 A 
ATOM      3  C3  UNL d   1       1.616   1.483   0.354  0.00  0.00     0.033 A 
ATOM      4  C4  UNL d   1       1.264   0.145   0.490  0.00  0.00    -0.042 A 
ATOM      5  C5  UNL d   1       2.035  -0.832  -0.129  0.00  0.00     0.033 A 
ATOM      6  C6  UNL d   1       3.156  -0.466  -0.879  0.00  0.00    -0.057 A 
ENDROOT
BRANCH   1   7
ATOM      7  N   UNL d   1       4.612   1.177  -1.862  0.00  0.00    -0.732 N 
ATOM      8  C   UNL d   1       4.722   0.548  -3.161  0.00  0.00     0.284 C 
ATOM      9  H3  UNL d   1       4.843   2.167  -1.859  0.00  0.00     0.395 HD
ENDBRANCH   1   7
TORSDOF 1
ENDMDL
