MODEL 1
REMARK minimizedAffinity 3.65077472
REMARK minimizedRMSD -1
REMARK  1 active torsions:
REMARK  status: ('A' for Active; 'I' for Inactive)
REMARK    1  A    between atoms: N_2  and  C1_3 
ROOT
ATOM      1  C1  UNL d   1       3.451   1.533  -1.077  0.00  0.00     0.143 A 
ATOM      2  C2  UNL d   1       4.101   1.641   0.157  0.00  0.00    -0.057 A 
ATOM      3  C3  UNL d   1       5.357   2.250   0.264  0.00  0.00     0.033 A 
ATOM      4  C4  UNL d   1       6.000   2.737  -0.869  0.00  0.00    -0.042 A 
ATOM      5  C5  UNL d   1       5.383   2.618  -2.110  0.00  0.00     0.033 A 
ATOM      6  C6  UNL d   1       4.126   2.014  -2.209  0.00  0.00    -0.057 A 
ENDROOT
BRANCH   1   7
ATOM      7  N   UNL d   1       2.246   0.850  -1.264  0.00  0.00    -0.732 N 
ATOM      8  C   UNL d   1       1.864  -0.227  -0.376  0.00  0.00     0.284 C 
ATOM      9  H3  UNL d   1       1.482   1.473  -1.515  0.00  0.00     0.395 HD
ENDBRANCH   1   7
TORSDOF 1
ENDMDL
