MODEL 1
REMARK minimizedAffinity 0.372831047
REMARK minimizedRMSD -1
REMARK  1 active torsions:
REMARK  status: ('A' for Active; 'I' for Inactive)
REMARK    1  A    between atoms: N_2  and  C1_3 
ROOT
ATOM      1  C1  UNL d   1       3.288   0.743  -1.488  0.00  0.00     0.143 A 
ATOM      2  C2  UNL d   1       2.573   0.483  -0.314  0.00  0.00    -0.057 A 
ATOM      3  C3  UNL d   1       1.897  -0.729  -0.129  0.00  0.00     0.033 A 
ATOM      4  C4  UNL d   1       1.902  -1.695  -1.131  0.00  0.00    -0.042 A 
ATOM      5  C5  UNL d   1       2.585  -1.447  -2.316  0.00  0.00     0.033 A 
ATOM      6  C6  UNL d   1       3.263  -0.238  -2.492  0.00  0.00    -0.057 A 
ENDROOT
BRANCH   1   7
ATOM      7  N   UNL d   1       3.898   1.968  -1.772  0.00  0.00    -0.732 N 
ATOM      8  C   UNL d   1       5.136   2.343  -1.124  0.00  0.00     0.284 C 
ATOM      9  H3  UNL d   1       3.860   2.200  -2.762  0.00  0.00     0.395 HD
ENDBRANCH   1   7
TORSDOF 1
ENDMDL
