MODEL 1
REMARK minimizedAffinity -0.601812303
REMARK minimizedRMSD -1
REMARK  1 active torsions:
REMARK  status: ('A' for Active; 'I' for Inactive)
REMARK    1  A    between atoms: N_2  and  C1_3 
ROOT
ATOM      1  C1  UNL d   1       2.252   0.391  -0.330  0.00  0.00     0.143 A 
ATOM      2  C2  UNL d   1       2.376  -0.277   0.894  0.00  0.00    -0.057 A 
ATOM      3  C3  UNL d   1       1.619  -1.421   1.176  0.00  0.00     0.033 A 
ATOM      4  C4  UNL d   1       0.702  -1.902   0.248  0.00  0.00    -0.042 A 
ATOM      5  C5  UNL d   1       0.544  -1.240  -0.964  0.00  0.00     0.033 A 
ATOM      6  C6  UNL d   1       1.307  -0.102  -1.243  0.00  0.00    -0.057 A 
ENDROOT
BRANCH   1   7
ATOM      7  N   UNL d   1       2.904   1.589  -0.631  0.00  0.00    -0.732 N 
ATOM      8  C   UNL d   1       4.254   1.583  -1.152  0.00  0.00     0.284 C 
ATOM      9  H3  UNL d   1       2.288   2.264  -1.079  0.00  0.00     0.395 HD
ENDBRANCH   1   7
TORSDOF 1
ENDMDL
