MODEL 1
REMARK minimizedAffinity 5.47612429
REMARK minimizedRMSD -1
REMARK  1 active torsions:
REMARK  status: ('A' for Active; 'I' for Inactive)
REMARK    1  A    between atoms: N_2  and  C1_3 
ROOT
ATOM      1  C1  UNL d   1       0.428  -1.690   1.000  0.00  0.00     0.143 A 
ATOM      2  C2  UNL d   1      -0.845  -2.204   0.733  0.00  0.00    -0.057 A 
ATOM      3  C3  UNL d   1      -1.378  -2.187  -0.562  0.00  0.00     0.033 A 
ATOM      4  C4  UNL d   1      -0.657  -1.626  -1.610  0.00  0.00    -0.042 A 
ATOM      5  C5  UNL d   1       0.600  -1.086  -1.364  0.00  0.00     0.033 A 
ATOM      6  C6  UNL d   1       1.130  -1.113  -0.070  0.00  0.00    -0.057 A 
ENDROOT
BRANCH   1   7
ATOM      7  N   UNL d   1       0.973  -1.589   2.282  0.00  0.00    -0.732 N 
ATOM      8  C   UNL d   1       0.114  -1.520   3.445  0.00  0.00     0.284 C 
ATOM      9  H3  UNL d   1       1.791  -2.181   2.404  0.00  0.00     0.395 HD
ENDBRANCH   1   7
TORSDOF 1
ENDMDL
