MODEL 1
REMARK minimizedAffinity 1.9733727
REMARK minimizedRMSD -1
REMARK  2 active torsions:
REMARK  status: ('A' for Active; 'I' for Inactive)
REMARK    1  A    between atoms: C1_2  and  C2_3 
REMARK    2  A    between atoms: C2_3  and  C3_4 
ROOT
ATOM      1  C3  UNL d   1       5.070  -2.752  -5.062  0.00  0.00    -0.075 A 
ATOM      2  C4  UNL d   1       3.772  -2.901  -4.551  0.00  0.00     0.002 A 
ATOM      3  C5  UNL d   1       3.227  -1.934  -3.707  0.00  0.00     0.002 A 
ATOM      4  C6  UNL d   1       3.975  -0.812  -3.354  0.00  0.00    -0.004 A 
ATOM      5  C7  UNL d   1       5.271  -0.662  -3.842  0.00  0.00     0.002 A 
ATOM      6  C8  UNL d   1       5.817  -1.626  -4.691  0.00  0.00     0.002 A 
ENDROOT
BRANCH   1   7
ATOM      7  C2  UNL d   1       5.654  -3.781  -6.000  0.00  0.00     0.056 C 
BRANCH   7   8
ATOM      8  C1  UNL d   1       4.945  -5.138  -5.957  0.00  0.00     0.007 C 
ATOM      9  C   UNL d   1       5.359  -5.995  -4.768  0.00  0.00     0.009 C 
ENDBRANCH   7   8
ENDBRANCH   1   7
TORSDOF 2
ENDMDL
