MODEL 1
REMARK minimizedAffinity 0.913523674
REMARK minimizedRMSD -1
REMARK  2 active torsions:
REMARK  status: ('A' for Active; 'I' for Inactive)
REMARK    1  A    between atoms: C1_2  and  C2_3 
REMARK    2  A    between atoms: C2_3  and  C3_4 
ROOT
ATOM      1  C3  UNL d   1       2.959  -4.136   0.374  0.00  0.00    -0.075 A 
ATOM      2  C4  UNL d   1       2.266  -3.312  -0.525  0.00  0.00     0.002 A 
ATOM      3  C5  UNL d   1       1.223  -3.826  -1.296  0.00  0.00     0.002 A 
ATOM      4  C6  UNL d   1       0.868  -5.169  -1.187  0.00  0.00    -0.004 A 
ATOM      5  C7  UNL d   1       1.561  -6.000  -0.309  0.00  0.00     0.002 A 
ATOM      6  C8  UNL d   1       2.601  -5.487   0.467  0.00  0.00     0.002 A 
ENDROOT
BRANCH   1   7
ATOM      7  C2  UNL d   1       4.069  -3.579   1.233  0.00  0.00     0.056 C 
BRANCH   7   8
ATOM      8  C1  UNL d   1       3.684  -3.389   2.704  0.00  0.00     0.007 C 
ATOM      9  C   UNL d   1       2.727  -2.227   2.929  0.00  0.00     0.009 C 
ENDBRANCH   7   8
ENDBRANCH   1   7
TORSDOF 2
ENDMDL
