MODEL 1
REMARK minimizedAffinity 11.2441626
REMARK minimizedRMSD -1
REMARK  2 active torsions:
REMARK  status: ('A' for Active; 'I' for Inactive)
REMARK    1  A    between atoms: C1_2  and  C2_3 
REMARK    2  A    between atoms: C2_3  and  C3_4 
ROOT
ATOM      1  C3  UNL d   1      -0.437  -0.927  -1.678  0.00  0.00    -0.075 A 
ATOM      2  C4  UNL d   1       0.480  -1.935  -2.008  0.00  0.00     0.002 A 
ATOM      3  C5  UNL d   1       0.723  -2.989  -1.127  0.00  0.00     0.002 A 
ATOM      4  C6  UNL d   1       0.060  -3.044   0.097  0.00  0.00    -0.004 A 
ATOM      5  C7  UNL d   1      -0.840  -2.039   0.443  0.00  0.00     0.002 A 
ATOM      6  C8  UNL d   1      -1.088  -0.985  -0.438  0.00  0.00     0.002 A 
ENDROOT
BRANCH   1   7
ATOM      7  C2  UNL d   1      -0.725   0.201  -2.639  0.00  0.00     0.056 C 
BRANCH   7   8
ATOM      8  C1  UNL d   1      -2.210   0.362  -2.985  0.00  0.00     0.007 C 
ATOM      9  C   UNL d   1      -2.708   1.793  -2.840  0.00  0.00     0.009 C 
ENDBRANCH   7   8
ENDBRANCH   1   7
TORSDOF 2
ENDMDL
