MODEL 1
REMARK minimizedAffinity 2.98844028
REMARK minimizedRMSD -1
REMARK  2 active torsions:
REMARK  status: ('A' for Active; 'I' for Inactive)
REMARK    1  A    between atoms: C1_2  and  C2_3 
REMARK    2  A    between atoms: C2_3  and  C3_4 
ROOT
ATOM      1  C3  UNL d   1      -0.707  -2.988  -0.835  0.00  0.00    -0.075 A 
ATOM      2  C4  UNL d   1      -0.022  -4.184  -1.098  0.00  0.00     0.002 A 
ATOM      3  C5  UNL d   1      -0.421  -5.376  -0.493  0.00  0.00     0.002 A 
ATOM      4  C6  UNL d   1      -1.499  -5.386   0.389  0.00  0.00    -0.004 A 
ATOM      5  C7  UNL d   1      -2.176  -4.202   0.670  0.00  0.00     0.002 A 
ATOM      6  C8  UNL d   1      -1.782  -3.008   0.063  0.00  0.00     0.002 A 
ENDROOT
BRANCH   1   7
ATOM      7  C2  UNL d   1      -0.299  -1.700  -1.510  0.00  0.00     0.056 C 
BRANCH   7   8
ATOM      8  C1  UNL d   1      -1.442  -0.692  -1.672  0.00  0.00     0.007 C 
ATOM      9  C   UNL d   1      -1.076   0.493  -2.556  0.00  0.00     0.009 C 
ENDBRANCH   7   8
ENDBRANCH   1   7
TORSDOF 2
ENDMDL
