MODEL 1
REMARK minimizedAffinity -5.63077831
REMARK minimizedRMSD -1
REMARK  2 active torsions:
REMARK  status: ('A' for Active; 'I' for Inactive)
REMARK    1  A    between atoms: C1_2  and  C2_3 
REMARK    2  A    between atoms: C2_3  and  C3_4 
ROOT
ATOM      1  C3  UNL d   1       2.119   0.022   0.631  0.00  0.00    -0.075 A 
ATOM      2  C4  UNL d   1       1.909   1.408   0.585  0.00  0.00     0.002 A 
ATOM      3  C5  UNL d   1       0.684   1.925   0.163  0.00  0.00     0.002 A 
ATOM      4  C6  UNL d   1      -0.341   1.065  -0.227  0.00  0.00    -0.004 A 
ATOM      5  C7  UNL d   1      -0.137  -0.313  -0.201  0.00  0.00     0.002 A 
ATOM      6  C8  UNL d   1       1.086  -0.833   0.225  0.00  0.00     0.002 A 
ENDROOT
BRANCH   1   7
ATOM      7  C2  UNL d   1       3.433  -0.544   1.115  0.00  0.00     0.056 C 
BRANCH   7   8
ATOM      8  C1  UNL d   1       3.322  -1.362   2.406  0.00  0.00     0.007 C 
ATOM      9  C   UNL d   1       2.372  -0.749   3.426  0.00  0.00     0.009 C 
ENDBRANCH   7   8
ENDBRANCH   1   7
TORSDOF 2
ENDMDL
