MODEL 1
REMARK minimizedAffinity 6.66648197
REMARK minimizedRMSD -1
REMARK  0 active torsions:
REMARK  status: ('A' for Active; 'I' for Inactive)
ROOT
ATOM      1  C1  BNZ d   1       1.688   0.346   3.577  0.00  0.00     0.000 A 
ATOM      2  C2  BNZ d   1       1.501  -0.752   4.374  0.00  0.00     0.000 A 
ATOM      3  C3  BNZ d   1       1.437  -2.006   3.833  0.00  0.00     0.000 A 
ATOM      4  C4  BNZ d   1       1.520  -2.157   2.496  0.00  0.00     0.000 A 
ATOM      5  C5  BNZ d   1       1.699  -1.059   1.678  0.00  0.00     0.000 A 
ATOM      6  C6  BNZ d   1       1.802   0.198   2.229  0.00  0.00     0.000 A 
ENDROOT
TORSDOF 0
ENDMDL
