MODEL 1
REMARK minimizedAffinity -1.07258356
REMARK minimizedRMSD -1
REMARK  0 active torsions:
REMARK  status: ('A' for Active; 'I' for Inactive)
ROOT
ATOM      1  C1  BNZ d   1      -5.006  -3.087  -5.245  0.00  0.00     0.000 A 
ATOM      2  C2  BNZ d   1      -5.938  -3.748  -5.999  0.00  0.00     0.000 A 
ATOM      3  C3  BNZ d   1      -6.000  -5.113  -5.998  0.00  0.00     0.000 A 
ATOM      4  C4  BNZ d   1      -5.105  -5.817  -5.275  0.00  0.00     0.000 A 
ATOM      5  C5  BNZ d   1      -4.152  -5.166  -4.517  0.00  0.00     0.000 A 
ATOM      6  C6  BNZ d   1      -4.118  -3.790  -4.490  0.00  0.00     0.000 A 
ENDROOT
TORSDOF 0
ENDMDL
