MODEL 1
REMARK minimizedAffinity -0.798585534
REMARK minimizedRMSD -1
REMARK  0 active torsions:
REMARK  status: ('A' for Active; 'I' for Inactive)
ROOT
ATOM      1  C1  BNZ d   1      -5.981  -5.190  -4.049  0.00  0.00     0.000 A 
ATOM      2  C2  BNZ d   1      -6.000  -3.821  -4.059  0.00  0.00     0.000 A 
ATOM      3  C3  BNZ d   1      -5.361  -3.119  -5.043  0.00  0.00     0.000 A 
ATOM      4  C4  BNZ d   1      -4.670  -3.785  -5.991  0.00  0.00     0.000 A 
ATOM      5  C5  BNZ d   1      -4.634  -5.165  -5.989  0.00  0.00     0.000 A 
ATOM      6  C6  BNZ d   1      -5.311  -5.869  -5.020  0.00  0.00     0.000 A 
ENDROOT
TORSDOF 0
ENDMDL
