MODEL 1
REMARK minimizedAffinity 2.57146287
REMARK minimizedRMSD -1
REMARK  0 active torsions:
REMARK  status: ('A' for Active; 'I' for Inactive)
ROOT
ATOM      1  C1  BNZ d   1       2.137  -1.115   1.834  0.00  0.00     0.000 A 
ATOM      2  C2  BNZ d   1       1.659   0.145   2.076  0.00  0.00     0.000 A 
ATOM      3  C3  BNZ d   1       2.302   1.245   1.581  0.00  0.00     0.000 A 
ATOM      4  C4  BNZ d   1       3.442   1.086   0.879  0.00  0.00     0.000 A 
ATOM      5  C5  BNZ d   1       3.942  -0.177   0.634  0.00  0.00     0.000 A 
ATOM      6  C6  BNZ d   1       3.272  -1.284   1.101  0.00  0.00     0.000 A 
ENDROOT
TORSDOF 0
ENDMDL
