MODEL 1
REMARK minimizedAffinity 5.3748951
REMARK minimizedRMSD -1
REMARK  0 active torsions:
REMARK  status: ('A' for Active; 'I' for Inactive)
ROOT
ATOM      1  C1  BNZ d   1       2.833  -0.164   1.576  0.00  0.00     0.000 A 
ATOM      2  C2  BNZ d   1       3.772   0.230   0.660  0.00  0.00     0.000 A 
ATOM      3  C3  BNZ d   1       3.694   1.454   0.059  0.00  0.00     0.000 A 
ATOM      4  C4  BNZ d   1       2.656   2.267   0.342  0.00  0.00     0.000 A 
ATOM      5  C5  BNZ d   1       1.695   1.881   1.256  0.00  0.00     0.000 A 
ATOM      6  C6  BNZ d   1       1.798   0.664   1.889  0.00  0.00     0.000 A 
ENDROOT
TORSDOF 0
ENDMDL
