MODEL 1
REMARK minimizedAffinity 0.59677434
REMARK minimizedRMSD -1
REMARK  0 active torsions:
REMARK  status: ('A' for Active; 'I' for Inactive)
ROOT
ATOM      1  C1  BNZ d   1       1.914  -1.990   4.536  0.00  0.00     0.000 A 
ATOM      2  C2  BNZ d   1       2.539  -2.388   3.384  0.00  0.00     0.000 A 
ATOM      3  C3  BNZ d   1       2.631  -1.546   2.311  0.00  0.00     0.000 A 
ATOM      4  C4  BNZ d   1       2.064  -0.324   2.376  0.00  0.00     0.000 A 
ATOM      5  C5  BNZ d   1       1.423   0.088   3.527  0.00  0.00     0.000 A 
ATOM      6  C6  BNZ d   1       1.366  -0.747   4.619  0.00  0.00     0.000 A 
ENDROOT
TORSDOF 0
ENDMDL
