MODEL 1
REMARK minimizedAffinity -2.13431811
REMARK minimizedRMSD -1
REMARK  0 active torsions:
REMARK  status: ('A' for Active; 'I' for Inactive)
ROOT
ATOM      1  C1  BNZ d   1       0.680   1.478   1.902  0.00  0.00     0.000 A 
ATOM      2  C2  BNZ d   1       0.792   2.695   1.283  0.00  0.00     0.000 A 
ATOM      3  C3  BNZ d   1       1.990   3.117   0.780  0.00  0.00     0.000 A 
ATOM      4  C4  BNZ d   1       3.083   2.341   0.931  0.00  0.00     0.000 A 
ATOM      5  C5  BNZ d   1       2.989   1.116   1.561  0.00  0.00     0.000 A 
ATOM      6  C6  BNZ d   1       1.773   0.677   2.032  0.00  0.00     0.000 A 
ENDROOT
TORSDOF 0
ENDMDL
