MODEL 1
REMARK minimizedAffinity -0.0670598373
REMARK minimizedRMSD -1
REMARK  0 active torsions:
REMARK  status: ('A' for Active; 'I' for Inactive)
ROOT
ATOM      1  C   UNL d   1       1.980   0.390   2.283  0.00  0.00    -0.002 A 
ATOM      2  C1  UNL d   1       2.718  -0.239   1.290  0.00  0.00     0.010 A 
ATOM      3  C2  UNL d   1       2.110  -0.641   0.100  0.00  0.00     0.041 A 
ATOM      4  C3  UNL d   1       0.734  -0.398  -0.079  0.00  0.00    -0.075 A 
ATOM      5  S   UNL d   1      -0.224  -0.802  -1.454  0.00  0.00     0.015 SA
ATOM      6  C4  UNL d   1      -1.635  -0.148  -0.757  0.00  0.00     0.022 A 
ATOM      7  C5  UNL d   1      -1.400   0.369   0.494  0.00  0.00     0.026 A 
ATOM      8  C6  UNL d   1      -0.031   0.235   0.906  0.00  0.00    -0.082 A 
ATOM      9  C7  UNL d   1       0.615   0.630   2.102  0.00  0.00     0.045 A 
ENDROOT
TORSDOF 0
ENDMDL
