MODEL 1
REMARK minimizedAffinity -0.460026115
REMARK minimizedRMSD -1
REMARK  0 active torsions:
REMARK  status: ('A' for Active; 'I' for Inactive)
ROOT
ATOM      1  C   UNL d   1      -2.089   0.039   1.427  0.00  0.00    -0.002 A 
ATOM      2  C1  UNL d   1      -2.433  -0.446   0.174  0.00  0.00     0.010 A 
ATOM      3  C2  UNL d   1      -1.489  -0.493  -0.854  0.00  0.00     0.041 A 
ATOM      4  C3  UNL d   1      -0.179  -0.043  -0.596  0.00  0.00    -0.075 A 
ATOM      5  S   UNL d   1       1.144  -0.009  -1.701  0.00  0.00     0.015 SA
ATOM      6  C4  UNL d   1       2.198   0.649  -0.534  0.00  0.00     0.022 A 
ATOM      7  C5  UNL d   1       1.572   0.844   0.674  0.00  0.00     0.026 A 
ATOM      8  C6  UNL d   1       0.192   0.448   0.659  0.00  0.00    -0.082 A 
ATOM      9  C7  UNL d   1      -0.789   0.484   1.679  0.00  0.00     0.045 A 
ENDROOT
TORSDOF 0
ENDMDL
