MODEL 1
REMARK minimizedAffinity -2.99746442
REMARK minimizedRMSD -1
REMARK  0 active torsions:
REMARK  status: ('A' for Active; 'I' for Inactive)
ROOT
ATOM      1  C   UNL d   1      -1.204  -0.623   3.717  0.00  0.00    -0.002 A 
ATOM      2  C1  UNL d   1       0.067  -1.019   3.323  0.00  0.00     0.010 A 
ATOM      3  C2  UNL d   1       0.546  -0.703   2.050  0.00  0.00     0.041 A 
ATOM      4  C3  UNL d   1      -0.281   0.025   1.172  0.00  0.00    -0.075 A 
ATOM      5  S   UNL d   1       0.095   0.525  -0.435  0.00  0.00     0.015 SA
ATOM      6  C4  UNL d   1      -1.422   1.276  -0.635  0.00  0.00     0.022 A 
ATOM      7  C5  UNL d   1      -2.208   1.158   0.486  0.00  0.00     0.026 A 
ATOM      8  C6  UNL d   1      -1.563   0.435   1.546  0.00  0.00    -0.082 A 
ATOM      9  C7  UNL d   1      -2.021   0.099   2.843  0.00  0.00     0.045 A 
ENDROOT
TORSDOF 0
ENDMDL
