MODEL 1
REMARK minimizedAffinity 4.6048274
REMARK minimizedRMSD -1
REMARK  0 active torsions:
REMARK  status: ('A' for Active; 'I' for Inactive)
ROOT
ATOM      1  C   UNL d   1      -1.947  -0.725  -0.195  0.00  0.00    -0.002 A 
ATOM      2  C1  UNL d   1      -1.707   0.295  -1.105  0.00  0.00     0.010 A 
ATOM      3  C2  UNL d   1      -0.405   0.731  -1.357  0.00  0.00     0.041 A 
ATOM      4  C3  UNL d   1       0.663   0.118  -0.673  0.00  0.00    -0.075 A 
ATOM      5  S   UNL d   1       2.341   0.486  -0.821  0.00  0.00     0.015 SA
ATOM      6  C4  UNL d   1       2.779  -0.702   0.320  0.00  0.00     0.022 A 
ATOM      7  C5  UNL d   1       1.684  -1.373   0.812  0.00  0.00     0.026 A 
ATOM      8  C6  UNL d   1       0.447  -0.912   0.247  0.00  0.00    -0.082 A 
ATOM      9  C7  UNL d   1      -0.885  -1.331   0.481  0.00  0.00     0.045 A 
ENDROOT
TORSDOF 0
ENDMDL
