MODEL 1
REMARK minimizedAffinity 1.41567147
REMARK minimizedRMSD -1
REMARK  0 active torsions:
REMARK  status: ('A' for Active; 'I' for Inactive)
ROOT
ATOM      1  C   UNL d   1      -2.090  -0.159   0.113  0.00  0.00    -0.002 A 
ATOM      2  C1  UNL d   1      -0.853  -0.699  -0.213  0.00  0.00     0.010 A 
ATOM      3  C2  UNL d   1       0.110  -0.914   0.775  0.00  0.00     0.041 A 
ATOM      4  C3  UNL d   1      -0.194  -0.577   2.108  0.00  0.00    -0.075 A 
ATOM      5  S   UNL d   1       0.830  -0.753   3.484  0.00  0.00     0.015 SA
ATOM      6  C4  UNL d   1      -0.351  -0.118   4.537  0.00  0.00     0.022 A 
ATOM      7  C5  UNL d   1      -1.504   0.226   3.872  0.00  0.00     0.026 A 
ATOM      8  C6  UNL d   1      -1.433  -0.034   2.461  0.00  0.00    -0.082 A 
ATOM      9  C7  UNL d   1      -2.388   0.174   1.437  0.00  0.00     0.045 A 
ENDROOT
TORSDOF 0
ENDMDL
