MODEL 1
REMARK minimizedAffinity 3.53759241
REMARK minimizedRMSD -1
REMARK  2 active torsions:
REMARK  status: ('A' for Active; 'I' for Inactive)
REMARK    1  A    between atoms: C1_2  and  C2_3 
REMARK    2  A    between atoms: C2_3  and  C3_4 
ROOT
ATOM      1  C3  UNL d   1       0.017   0.886   0.425  0.00  0.00    -0.075 A 
ATOM      2  C4  UNL d   1       1.040   0.751   1.375  0.00  0.00     0.002 A 
ATOM      3  C5  UNL d   1       2.363   1.037   1.036  0.00  0.00     0.002 A 
ATOM      4  C6  UNL d   1       2.680   1.452  -0.255  0.00  0.00    -0.004 A 
ATOM      5  C7  UNL d   1       1.674   1.574  -1.211  0.00  0.00     0.002 A 
ATOM      6  C8  UNL d   1       0.349   1.292  -0.874  0.00  0.00     0.002 A 
ENDROOT
BRANCH   1   7
ATOM      7  C2  UNL d   1      -1.421   0.606   0.793  0.00  0.00     0.056 C 
BRANCH   7   8
ATOM      8  C1  UNL d   1      -1.886   1.309   2.073  0.00  0.00     0.007 C 
ATOM      9  C   UNL d   1      -3.401   1.402   2.190  0.00  0.00     0.009 C 
ENDBRANCH   7   8
ENDBRANCH   1   7
TORSDOF 2
ENDMDL
