MODEL 1
REMARK minimizedAffinity -5.88432074
REMARK minimizedRMSD -1
REMARK  2 active torsions:
REMARK  status: ('A' for Active; 'I' for Inactive)
REMARK    1  A    between atoms: C1_2  and  C2_3 
REMARK    2  A    between atoms: C2_3  and  C3_4 
ROOT
ATOM      1  C3  UNL d   1       1.023   0.092  -1.772  0.00  0.00    -0.075 A 
ATOM      2  C4  UNL d   1       0.162  -0.600  -0.908  0.00  0.00     0.002 A 
ATOM      3  C5  UNL d   1      -0.147  -0.081   0.349  0.00  0.00     0.002 A 
ATOM      4  C6  UNL d   1       0.407   1.128   0.762  0.00  0.00    -0.004 A 
ATOM      5  C7  UNL d   1       1.276   1.816  -0.081  0.00  0.00     0.002 A 
ATOM      6  C8  UNL d   1       1.584   1.302  -1.342  0.00  0.00     0.002 A 
ENDROOT
BRANCH   1   7
ATOM      7  C2  UNL d   1       1.338  -0.450  -3.146  0.00  0.00     0.056 C 
BRANCH   7   8
ATOM      8  C1  UNL d   1       2.367  -1.585  -3.148  0.00  0.00     0.007 C 
ATOM      9  C   UNL d   1       1.975  -2.752  -2.252  0.00  0.00     0.009 C 
ENDBRANCH   7   8
ENDBRANCH   1   7
TORSDOF 2
ENDMDL
