MODEL 1
REMARK minimizedAffinity -3.4194603
REMARK minimizedRMSD -1
REMARK  2 active torsions:
REMARK  status: ('A' for Active; 'I' for Inactive)
REMARK    1  A    between atoms: C1_2  and  C2_3 
REMARK    2  A    between atoms: C2_3  and  C3_4 
ROOT
ATOM      1  C3  UNL d   1       0.856   0.328  -0.595  0.00  0.00    -0.075 A 
ATOM      2  C4  UNL d   1       1.377  -0.292  -1.741  0.00  0.00     0.002 A 
ATOM      3  C5  UNL d   1       2.704  -0.085  -2.117  0.00  0.00     0.002 A 
ATOM      4  C6  UNL d   1       3.524   0.750  -1.361  0.00  0.00    -0.004 A 
ATOM      5  C7  UNL d   1       3.013   1.384  -0.230  0.00  0.00     0.002 A 
ATOM      6  C8  UNL d   1       1.686   1.175   0.151  0.00  0.00     0.002 A 
ENDROOT
BRANCH   1   7
ATOM      7  C2  UNL d   1      -0.571   0.085  -0.167  0.00  0.00     0.056 C 
BRANCH   7   8
ATOM      8  C1  UNL d   1      -0.712  -0.427   1.271  0.00  0.00     0.007 C 
ATOM      9  C   UNL d   1      -1.824   0.264   2.048  0.00  0.00     0.009 C 
ENDBRANCH   7   8
ENDBRANCH   1   7
TORSDOF 2
ENDMDL
