MODEL 1
REMARK minimizedAffinity -5.7605567
REMARK minimizedRMSD -1
REMARK  2 active torsions:
REMARK  status: ('A' for Active; 'I' for Inactive)
REMARK    1  A    between atoms: C1_2  and  C2_3 
REMARK    2  A    between atoms: C2_3  and  C3_4 
ROOT
ATOM      1  C3  UNL d   1       0.140   0.022   0.240  0.00  0.00    -0.075 A 
ATOM      2  C4  UNL d   1       0.407  -0.985  -0.699  0.00  0.00     0.002 A 
ATOM      3  C5  UNL d   1       1.272  -0.746  -1.767  0.00  0.00     0.002 A 
ATOM      4  C6  UNL d   1       1.871   0.503  -1.917  0.00  0.00    -0.004 A 
ATOM      5  C7  UNL d   1       1.600   1.516  -1.000  0.00  0.00     0.002 A 
ATOM      6  C8  UNL d   1       0.739   1.278   0.073  0.00  0.00     0.002 A 
ENDROOT
BRANCH   1   7
ATOM      7  C2  UNL d   1      -0.771  -0.239   1.415  0.00  0.00     0.056 C 
BRANCH   7   8
ATOM      8  C1  UNL d   1      -2.218  -0.559   1.023  0.00  0.00     0.007 C 
ATOM      9  C   UNL d   1      -3.227   0.426   1.598  0.00  0.00     0.009 C 
ENDBRANCH   7   8
ENDBRANCH   1   7
TORSDOF 2
ENDMDL
