MODEL 1
REMARK minimizedAffinity -4.30489063
REMARK minimizedRMSD -1
REMARK  2 active torsions:
REMARK  status: ('A' for Active; 'I' for Inactive)
REMARK    1  A    between atoms: C1_2  and  C2_3 
REMARK    2  A    between atoms: C2_3  and  C3_4 
ROOT
ATOM      1  C3  UNL d   1       1.128  -1.318  -1.677  0.00  0.00    -0.075 A 
ATOM      2  C4  UNL d   1       0.405  -0.653  -0.675  0.00  0.00     0.002 A 
ATOM      3  C5  UNL d   1       0.436   0.739  -0.585  0.00  0.00     0.002 A 
ATOM      4  C6  UNL d   1       1.195   1.482  -1.487  0.00  0.00    -0.004 A 
ATOM      5  C7  UNL d   1       1.930   0.831  -2.475  0.00  0.00     0.002 A 
ATOM      6  C8  UNL d   1       1.898  -0.562  -2.570  0.00  0.00     0.002 A 
ENDROOT
BRANCH   1   7
ATOM      7  C2  UNL d   1       1.075  -2.822  -1.797  0.00  0.00     0.056 C 
BRANCH   7   8
ATOM      8  C1  UNL d   1       1.439  -3.564  -0.507  0.00  0.00     0.007 C 
ATOM      9  C   UNL d   1       2.766  -4.307  -0.595  0.00  0.00     0.009 C 
ENDBRANCH   7   8
ENDBRANCH   1   7
TORSDOF 2
ENDMDL
