MODEL 1
REMARK minimizedAffinity -5.78866529
REMARK minimizedRMSD -1
REMARK  2 active torsions:
REMARK  status: ('A' for Active; 'I' for Inactive)
REMARK    1  A    between atoms: C1_2  and  C2_3 
REMARK    2  A    between atoms: C2_3  and  C3_4 
ROOT
ATOM      1  C3  UNL d   1       0.601  -0.336  -0.757  0.00  0.00    -0.075 A 
ATOM      2  C4  UNL d   1       1.312   0.311  -1.777  0.00  0.00     0.002 A 
ATOM      3  C5  UNL d   1       1.816  -0.412  -2.858  0.00  0.00     0.002 A 
ATOM      4  C6  UNL d   1       1.625  -1.791  -2.928  0.00  0.00    -0.004 A 
ATOM      5  C7  UNL d   1       0.934  -2.447  -1.911  0.00  0.00     0.002 A 
ATOM      6  C8  UNL d   1       0.425  -1.724  -0.831  0.00  0.00     0.002 A 
ENDROOT
BRANCH   1   7
ATOM      7  C2  UNL d   1       0.027   0.445   0.401  0.00  0.00     0.056 C 
BRANCH   7   8
ATOM      8  C1  UNL d   1      -0.698  -0.418   1.438  0.00  0.00     0.007 C 
ATOM      9  C   UNL d   1      -2.110   0.066   1.741  0.00  0.00     0.009 C 
ENDBRANCH   7   8
ENDBRANCH   1   7
TORSDOF 2
ENDMDL
