MODEL 1
REMARK minimizedAffinity -4.92283297
REMARK minimizedRMSD -1
REMARK  2 active torsions:
REMARK  status: ('A' for Active; 'I' for Inactive)
REMARK    1  A    between atoms: C1_2  and  C2_3 
REMARK    2  A    between atoms: C2_3  and  C3_4 
ROOT
ATOM      1  C3  UNL d   1       0.675  -0.219  -1.019  0.00  0.00    -0.075 A 
ATOM      2  C4  UNL d   1       1.163  -1.483  -0.656  0.00  0.00     0.002 A 
ATOM      3  C5  UNL d   1       1.883  -2.254  -1.569  0.00  0.00     0.002 A 
ATOM      4  C6  UNL d   1       2.115  -1.776  -2.857  0.00  0.00    -0.004 A 
ATOM      5  C7  UNL d   1       1.621  -0.529  -3.234  0.00  0.00     0.002 A 
ATOM      6  C8  UNL d   1       0.904   0.245  -2.321  0.00  0.00     0.002 A 
ENDROOT
BRANCH   1   7
ATOM      7  C2  UNL d   1      -0.080   0.632  -0.026  0.00  0.00     0.056 C 
BRANCH   7   8
ATOM      8  C1  UNL d   1      -0.403  -0.083   1.290  0.00  0.00     0.007 C 
ATOM      9  C   UNL d   1      -1.866  -0.487   1.410  0.00  0.00     0.009 C 
ENDBRANCH   7   8
ENDBRANCH   1   7
TORSDOF 2
ENDMDL
