MODEL 1
REMARK minimizedAffinity -1.39221001
REMARK minimizedRMSD -1
REMARK  2 active torsions:
REMARK  status: ('A' for Active; 'I' for Inactive)
REMARK    1  A    between atoms: C1_2  and  C2_3 
REMARK    2  A    between atoms: C2_3  and  C3_4 
ROOT
ATOM      1  C3  UNL d   1      -1.500   0.207   0.199  0.00  0.00    -0.075 A 
ATOM      2  C4  UNL d   1      -1.121   1.228  -0.685  0.00  0.00     0.002 A 
ATOM      3  C5  UNL d   1       0.226   1.536  -0.876  0.00  0.00     0.002 A 
ATOM      4  C6  UNL d   1       1.209   0.836  -0.180  0.00  0.00    -0.004 A 
ATOM      5  C7  UNL d   1       0.843  -0.169   0.713  0.00  0.00     0.002 A 
ATOM      6  C8  UNL d   1      -0.504  -0.482   0.903  0.00  0.00     0.002 A 
ENDROOT
BRANCH   1   7
ATOM      7  C2  UNL d   1      -2.955  -0.151   0.388  0.00  0.00     0.056 C 
BRANCH   7   8
ATOM      8  C1  UNL d   1      -3.822   1.009   0.889  0.00  0.00     0.007 C 
ATOM      9  C   UNL d   1      -3.605   1.327   2.363  0.00  0.00     0.009 C 
ENDBRANCH   7   8
ENDBRANCH   1   7
TORSDOF 2
ENDMDL
