MODEL 1
REMARK minimizedAffinity -3.59138298
REMARK minimizedRMSD -1
REMARK  2 active torsions:
REMARK  status: ('A' for Active; 'I' for Inactive)
REMARK    1  A    between atoms: C1_2  and  C2_3 
REMARK    2  A    between atoms: C2_3  and  C3_4 
ROOT
ATOM      1  C3  UNL d   1       0.355   0.025  -0.112  0.00  0.00    -0.075 A 
ATOM      2  C4  UNL d   1       1.557   0.707  -0.352  0.00  0.00     0.002 A 
ATOM      3  C5  UNL d   1       2.353   0.375  -1.449  0.00  0.00     0.002 A 
ATOM      4  C6  UNL d   1       1.964  -0.647  -2.312  0.00  0.00    -0.004 A 
ATOM      5  C7  UNL d   1       0.781  -1.343  -2.073  0.00  0.00     0.002 A 
ATOM      6  C8  UNL d   1      -0.020  -1.009  -0.980  0.00  0.00     0.002 A 
ENDROOT
BRANCH   1   7
ATOM      7  C2  UNL d   1      -0.526   0.400   1.056  0.00  0.00     0.056 C 
BRANCH   7   8
ATOM      8  C1  UNL d   1      -1.604   1.434   0.717  0.00  0.00     0.007 C 
ATOM      9  C   UNL d   1      -2.818   1.357   1.633  0.00  0.00     0.009 C 
ENDBRANCH   7   8
ENDBRANCH   1   7
TORSDOF 2
ENDMDL
