MODEL 1
REMARK minimizedAffinity 0.500097811
REMARK minimizedRMSD -1
REMARK  2 active torsions:
REMARK  status: ('A' for Active; 'I' for Inactive)
REMARK    1  A    between atoms: C1_2  and  C2_3 
REMARK    2  A    between atoms: C2_3  and  C3_4 
ROOT
ATOM      1  C3  UNL d   1       0.644   0.217   0.530  0.00  0.00    -0.075 A 
ATOM      2  C4  UNL d   1       1.128  -1.096   0.628  0.00  0.00     0.002 A 
ATOM      3  C5  UNL d   1       0.256  -2.181   0.538  0.00  0.00     0.002 A 
ATOM      4  C6  UNL d   1      -1.109  -1.969   0.361  0.00  0.00    -0.004 A 
ATOM      5  C7  UNL d   1      -1.604  -0.669   0.279  0.00  0.00     0.002 A 
ATOM      6  C8  UNL d   1      -0.733   0.419   0.363  0.00  0.00     0.002 A 
ENDROOT
BRANCH   1   7
ATOM      7  C2  UNL d   1       1.586   1.395   0.596  0.00  0.00     0.056 C 
BRANCH   7   8
ATOM      8  C1  UNL d   1       1.822   2.082  -0.754  0.00  0.00     0.007 C 
ATOM      9  C   UNL d   1       2.248   1.116  -1.852  0.00  0.00     0.009 C 
ENDBRANCH   7   8
ENDBRANCH   1   7
TORSDOF 2
ENDMDL
