MODEL 1
REMARK minimizedAffinity -5.27724457
REMARK minimizedRMSD -1
REMARK  2 active torsions:
REMARK  status: ('A' for Active; 'I' for Inactive)
REMARK    1  A    between atoms: C1_2  and  C2_3 
REMARK    2  A    between atoms: C2_3  and  C3_4 
ROOT
ATOM      1  C3  UNL d   1      -0.178  -0.277  -0.267  0.00  0.00    -0.075 A 
ATOM      2  C4  UNL d   1       0.315   0.777  -1.049  0.00  0.00     0.002 A 
ATOM      3  C5  UNL d   1       1.178   0.524  -2.116  0.00  0.00     0.002 A 
ATOM      4  C6  UNL d   1       1.566  -0.782  -2.407  0.00  0.00    -0.004 A 
ATOM      5  C7  UNL d   1       1.095  -1.835  -1.626  0.00  0.00     0.002 A 
ATOM      6  C8  UNL d   1       0.228  -1.585  -0.561  0.00  0.00     0.002 A 
ENDROOT
BRANCH   1   7
ATOM      7  C2  UNL d   1      -1.135  -0.012   0.871  0.00  0.00     0.056 C 
BRANCH   7   8
ATOM      8  C1  UNL d   1      -2.605   0.066   0.444  0.00  0.00     0.007 C 
ATOM      9  C   UNL d   1      -3.504   0.697   1.499  0.00  0.00     0.009 C 
ENDBRANCH   7   8
ENDBRANCH   1   7
TORSDOF 2
ENDMDL
