MODEL 1
REMARK minimizedAffinity 13.7196617
REMARK minimizedRMSD -1
REMARK  0 active torsions:
REMARK  status: ('A' for Active; 'I' for Inactive)
ROOT
ATOM      1  C1  DEN d   1       3.575  -5.778   1.726  0.00  0.00     0.130 A 
ATOM      2  C2  DEN d   1       2.140  -5.602   1.929  0.00  0.00    -0.031 A 
ATOM      3  C3  DEN d   1       1.891  -5.524   3.383  0.00  0.00     0.027 A 
ATOM      4  C4  DEN d   1       3.581  -5.654   5.327  0.00  0.00     0.027 A 
ATOM      5  C5  DEN d   1       4.911  -5.810   5.650  0.00  0.00    -0.003 A 
ATOM      6  C6  DEN d   1       5.876  -6.000   4.697  0.00  0.00     0.001 A 
ATOM      7  C7  DEN d   1       5.532  -5.992   3.371  0.00  0.00     0.017 A 
ATOM      8  C8  DEN d   1       4.192  -5.842   3.038  0.00  0.00    -0.094 A 
ATOM      9  C9  DEN d   1       3.233  -5.639   4.016  0.00  0.00    -0.072 A 
ENDROOT
TORSDOF 0
ENDMDL
