MODEL 1
REMARK minimizedAffinity -0.607145071
REMARK minimizedRMSD -1
REMARK  0 active torsions:
REMARK  status: ('A' for Active; 'I' for Inactive)
ROOT
ATOM      1  C1  DEN d   1       5.426   5.668   1.140  0.00  0.00     0.130 A 
ATOM      2  C2  DEN d   1       4.795   5.095   2.326  0.00  0.00    -0.031 A 
ATOM      3  C3  DEN d   1       3.444   4.633   1.946  0.00  0.00     0.027 A 
ATOM      4  C4  DEN d   1       2.277   4.745  -0.351  0.00  0.00     0.027 A 
ATOM      5  C5  DEN d   1       2.410   5.155  -1.659  0.00  0.00    -0.003 A 
ATOM      6  C6  DEN d   1       3.535   5.790  -2.114  0.00  0.00     0.001 A 
ATOM      7  C7  DEN d   1       4.591   5.994  -1.264  0.00  0.00     0.017 A 
ATOM      8  C8  DEN d   1       4.461   5.589   0.058  0.00  0.00    -0.094 A 
ATOM      9  C9  DEN d   1       3.320   4.938   0.496  0.00  0.00    -0.072 A 
ENDROOT
TORSDOF 0
ENDMDL
