MODEL 1
REMARK minimizedAffinity -0.569032788
REMARK minimizedRMSD -1
REMARK  0 active torsions:
REMARK  status: ('A' for Active; 'I' for Inactive)
ROOT
ATOM      1  C1  DEN d   1      -6.000   5.930   3.667  0.00  0.00     0.130 A 
ATOM      2  C2  DEN d   1      -5.858   5.960   2.213  0.00  0.00    -0.031 A 
ATOM      3  C3  DEN d   1      -4.416   5.995   1.897  0.00  0.00     0.027 A 
ATOM      4  C4  DEN d   1      -2.400   5.999   3.506  0.00  0.00     0.027 A 
ATOM      5  C5  DEN d   1      -2.021   5.992   4.830  0.00  0.00    -0.003 A 
ATOM      6  C6  DEN d   1      -2.934   5.999   5.851  0.00  0.00     0.001 A 
ATOM      7  C7  DEN d   1      -4.273   5.967   5.564  0.00  0.00     0.017 A 
ATOM      8  C8  DEN d   1      -4.663   5.981   4.232  0.00  0.00    -0.094 A 
ATOM      9  C9  DEN d   1      -3.725   5.962   3.214  0.00  0.00    -0.072 A 
ENDROOT
TORSDOF 0
ENDMDL
