MODEL 1
REMARK minimizedAffinity 1.49714458
REMARK minimizedRMSD -1
REMARK  0 active torsions:
REMARK  status: ('A' for Active; 'I' for Inactive)
ROOT
ATOM      1  C1  DEN d   1       4.701   4.223  -3.930  0.00  0.00     0.130 A 
ATOM      2  C2  DEN d   1       3.436   4.170  -3.203  0.00  0.00    -0.031 A 
ATOM      3  C3  DEN d   1       2.912   2.793  -3.299  0.00  0.00     0.027 A 
ATOM      4  C4  DEN d   1       3.932   0.747  -4.493  0.00  0.00     0.027 A 
ATOM      5  C5  DEN d   1       4.990   0.306  -5.257  0.00  0.00    -0.003 A 
ATOM      6  C6  DEN d   1       6.000   1.140  -5.658  0.00  0.00     0.001 A 
ATOM      7  C7  DEN d   1       5.997   2.450  -5.258  0.00  0.00     0.017 A 
ATOM      8  C8  DEN d   1       4.930   2.905  -4.494  0.00  0.00    -0.094 A 
ATOM      9  C9  DEN d   1       3.925   2.043  -4.089  0.00  0.00    -0.072 A 
ENDROOT
TORSDOF 0
ENDMDL
