MODEL 1
REMARK minimizedAffinity 13.0455666
REMARK minimizedRMSD -1
REMARK  0 active torsions:
REMARK  status: ('A' for Active; 'I' for Inactive)
ROOT
ATOM      1  C1  DEN d   1       2.705   1.965   0.234  0.00  0.00     0.130 A 
ATOM      2  C2  DEN d   1       2.887   2.202   1.663  0.00  0.00    -0.031 A 
ATOM      3  C3  DEN d   1       1.575   2.567   2.236  0.00  0.00     0.027 A 
ATOM      4  C4  DEN d   1      -0.708   2.782   1.055  0.00  0.00     0.027 A 
ATOM      5  C5  DEN d   1      -1.359   2.690  -0.155  0.00  0.00    -0.003 A 
ATOM      6  C6  DEN d   1      -0.700   2.386  -1.317  0.00  0.00     0.001 A 
ATOM      7  C7  DEN d   1       0.643   2.118  -1.286  0.00  0.00     0.017 A 
ATOM      8  C8  DEN d   1       1.307   2.216  -0.070  0.00  0.00    -0.094 A 
ATOM      9  C9  DEN d   1       0.622   2.513   1.095  0.00  0.00    -0.072 A 
ENDROOT
TORSDOF 0
ENDMDL
