MODEL 1
REMARK minimizedAffinity 3.74218822
REMARK minimizedRMSD -1
REMARK  0 active torsions:
REMARK  status: ('A' for Active; 'I' for Inactive)
ROOT
ATOM      1  C1  DEN d   1       0.773  -0.054  -1.883  0.00  0.00     0.130 A 
ATOM      2  C2  DEN d   1       2.033  -0.787  -1.791  0.00  0.00    -0.031 A 
ATOM      3  C3  DEN d   1       2.737  -0.335  -0.574  0.00  0.00     0.027 A 
ATOM      4  C4  DEN d   1       2.000   1.416   1.171  0.00  0.00     0.027 A 
ATOM      5  C5  DEN d   1       1.012   2.313   1.513  0.00  0.00    -0.003 A 
ATOM      6  C6  DEN d   1      -0.100   2.506   0.736  0.00  0.00     0.001 A 
ATOM      7  C7  DEN d   1      -0.272   1.761  -0.400  0.00  0.00     0.017 A 
ATOM      8  C8  DEN d   1       0.723   0.860  -0.756  0.00  0.00    -0.094 A 
ATOM      9  C9  DEN d   1       1.834   0.670   0.049  0.00  0.00    -0.072 A 
ENDROOT
TORSDOF 0
ENDMDL
