MODEL 1
REMARK minimizedAffinity 11.0638638
REMARK minimizedRMSD -1
REMARK  0 active torsions:
REMARK  status: ('A' for Active; 'I' for Inactive)
ROOT
ATOM      1  C1  DEN d   1      -1.468  -0.613  -1.002  0.00  0.00     0.130 A 
ATOM      2  C2  DEN d   1      -1.079  -1.738  -1.848  0.00  0.00    -0.031 A 
ATOM      3  C3  DEN d   1       0.335  -1.552  -2.233  0.00  0.00     0.027 A 
ATOM      4  C4  DEN d   1       1.951   0.356  -1.600  0.00  0.00     0.027 A 
ATOM      5  C5  DEN d   1       2.072   1.542  -0.911  0.00  0.00    -0.003 A 
ATOM      6  C6  DEN d   1       1.021   2.106  -0.237  0.00  0.00     0.001 A 
ATOM      7  C7  DEN d   1      -0.186   1.460  -0.200  0.00  0.00     0.017 A 
ATOM      8  C8  DEN d   1      -0.319   0.267  -0.899  0.00  0.00    -0.094 A 
ATOM      9  C9  DEN d   1       0.759  -0.292  -1.565  0.00  0.00    -0.072 A 
ENDROOT
TORSDOF 0
ENDMDL
