MODEL 1
REMARK minimizedAffinity 11.9517384
REMARK minimizedRMSD -1
REMARK  0 active torsions:
REMARK  status: ('A' for Active; 'I' for Inactive)
ROOT
ATOM      1  C1  DEN d   1       0.982  -2.965  -1.522  0.00  0.00     0.130 A 
ATOM      2  C2  DEN d   1       2.383  -2.797  -1.898  0.00  0.00    -0.031 A 
ATOM      3  C3  DEN d   1       2.716  -1.362  -1.795  0.00  0.00     0.027 A 
ATOM      4  C4  DEN d   1       1.206   0.606  -1.088  0.00  0.00     0.027 A 
ATOM      5  C5  DEN d   1      -0.064   0.959  -0.689  0.00  0.00    -0.003 A 
ATOM      6  C6  DEN d   1      -1.075   0.042  -0.574  0.00  0.00     0.001 A 
ATOM      7  C7  DEN d   1      -0.822  -1.282  -0.817  0.00  0.00     0.017 A 
ATOM      8  C8  DEN d   1       0.455  -1.645  -1.227  0.00  0.00    -0.094 A 
ATOM      9  C9  DEN d   1       1.466  -0.705  -1.325  0.00  0.00    -0.072 A 
ENDROOT
TORSDOF 0
ENDMDL
