MODEL 1
REMARK minimizedAffinity 10.3733959
REMARK minimizedRMSD -1
REMARK  0 active torsions:
REMARK  status: ('A' for Active; 'I' for Inactive)
ROOT
ATOM      1  C1  DEN d   1       2.718  -1.643  -1.546  0.00  0.00     0.130 A 
ATOM      2  C2  DEN d   1       1.968  -2.627  -0.769  0.00  0.00    -0.031 A 
ATOM      3  C3  DEN d   1       0.667  -2.030  -0.410  0.00  0.00     0.027 A 
ATOM      4  C4  DEN d   1      -0.259   0.309  -0.981  0.00  0.00     0.027 A 
ATOM      5  C5  DEN d   1       0.017   1.502  -1.610  0.00  0.00    -0.003 A 
ATOM      6  C6  DEN d   1       1.216   1.742  -2.228  0.00  0.00     0.001 A 
ATOM      7  C7  DEN d   1       2.167   0.756  -2.269  0.00  0.00     0.017 A 
ATOM      8  C8  DEN d   1       1.899  -0.447  -1.630  0.00  0.00    -0.094 A 
ATOM      9  C9  DEN d   1       0.676  -0.674  -1.021  0.00  0.00    -0.072 A 
ENDROOT
TORSDOF 0
ENDMDL
