MODEL 1
REMARK minimizedAffinity -1.2366904
REMARK minimizedRMSD -1
REMARK  0 active torsions:
REMARK  status: ('A' for Active; 'I' for Inactive)
ROOT
ATOM      1  C1  DEN d   1      -0.162   0.060  -0.454  0.00  0.00     0.130 A 
ATOM      2  C2  DEN d   1       0.127   1.116  -1.420  0.00  0.00    -0.031 A 
ATOM      3  C3  DEN d   1       1.351   0.740  -2.155  0.00  0.00     0.027 A 
ATOM      4  C4  DEN d   1       2.816  -1.367  -1.897  0.00  0.00     0.027 A 
ATOM      5  C5  DEN d   1       2.978  -2.543  -1.199  0.00  0.00    -0.003 A 
ATOM      6  C6  DEN d   1       2.131  -2.915  -0.189  0.00  0.00     0.001 A 
ATOM      7  C7  DEN d   1       1.056  -2.124   0.122  0.00  0.00     0.017 A 
ATOM      8  C8  DEN d   1       0.891  -0.933  -0.573  0.00  0.00    -0.094 A 
ATOM      9  C9  DEN d   1       1.751  -0.581  -1.599  0.00  0.00    -0.072 A 
ENDROOT
TORSDOF 0
ENDMDL
