MODEL 1
REMARK minimizedAffinity 1.16096222
REMARK minimizedRMSD -1
REMARK  0 active torsions:
REMARK  status: ('A' for Active; 'I' for Inactive)
ROOT
ATOM      1  C1  DEN d   1       1.197   1.071  -2.570  0.00  0.00     0.130 A 
ATOM      2  C2  DEN d   1       1.907   2.342  -2.685  0.00  0.00    -0.031 A 
ATOM      3  C3  DEN d   1       3.298   2.131  -2.237  0.00  0.00     0.027 A 
ATOM      4  C4  DEN d   1       4.418  -0.031  -1.387  0.00  0.00     0.027 A 
ATOM      5  C5  DEN d   1       4.215  -1.363  -1.101  0.00  0.00    -0.003 A 
ATOM      6  C6  DEN d   1       2.993  -1.964  -1.252  0.00  0.00     0.001 A 
ATOM      7  C7  DEN d   1       1.938  -1.243  -1.743  0.00  0.00     0.017 A 
ATOM      8  C8  DEN d   1       2.133   0.103  -2.026  0.00  0.00    -0.094 A 
ATOM      9  C9  DEN d   1       3.379   0.689  -1.879  0.00  0.00    -0.072 A 
ENDROOT
TORSDOF 0
ENDMDL
