MODEL 1
REMARK minimizedAffinity 4.01266861
REMARK minimizedRMSD -1
REMARK  0 active torsions:
REMARK  status: ('A' for Active; 'I' for Inactive)
ROOT
ATOM      1  C1  DEN d   1       0.467  -1.894  -0.844  0.00  0.00     0.130 A 
ATOM      2  C2  DEN d   1       0.999  -1.657  -2.184  0.00  0.00    -0.031 A 
ATOM      3  C3  DEN d   1       2.164  -2.544  -2.376  0.00  0.00     0.027 A 
ATOM      4  C4  DEN d   1       3.188  -4.255  -0.739  0.00  0.00     0.027 A 
ATOM      5  C5  DEN d   1       3.088  -4.802   0.521  0.00  0.00    -0.003 A 
ATOM      6  C6  DEN d   1       2.137  -4.396   1.420  0.00  0.00     0.001 A 
ATOM      7  C7  DEN d   1       1.219  -3.448   1.054  0.00  0.00     0.017 A 
ATOM      8  C8  DEN d   1       1.317  -2.887  -0.212  0.00  0.00    -0.094 A 
ATOM      9  C9  DEN d   1       2.278  -3.319  -1.111  0.00  0.00    -0.072 A 
ENDROOT
TORSDOF 0
ENDMDL
