MODEL 1
REMARK minimizedAffinity 11.5637703
REMARK minimizedRMSD -1
REMARK  0 active torsions:
REMARK  status: ('A' for Active; 'I' for Inactive)
ROOT
ATOM      1  C1  DEN d   1      -2.337  -0.605  -0.395  0.00  0.00     0.130 A 
ATOM      2  C2  DEN d   1      -1.504  -0.696   0.801  0.00  0.00    -0.031 A 
ATOM      3  C3  DEN d   1      -2.354  -1.159   1.916  0.00  0.00     0.027 A 
ATOM      4  C4  DEN d   1      -4.866  -1.745   1.905  0.00  0.00     0.027 A 
ATOM      5  C5  DEN d   1      -6.000  -1.811   1.126  0.00  0.00    -0.003 A 
ATOM      6  C6  DEN d   1      -6.000  -1.451  -0.195  0.00  0.00     0.001 A 
ATOM      7  C7  DEN d   1      -4.832  -1.050  -0.790  0.00  0.00     0.017 A 
ATOM      8  C8  DEN d   1      -3.687  -0.974  -0.009  0.00  0.00    -0.094 A 
ATOM      9  C9  DEN d   1      -3.704  -1.354   1.322  0.00  0.00    -0.072 A 
ENDROOT
TORSDOF 0
ENDMDL
