MODEL 1
REMARK minimizedAffinity 6.54702091
REMARK minimizedRMSD -1
REMARK  0 active torsions:
REMARK  status: ('A' for Active; 'I' for Inactive)
ROOT
ATOM      1  C1  DEN d   1       0.262   1.298  -0.941  0.00  0.00     0.130 A 
ATOM      2  C2  DEN d   1       0.589   2.583  -1.552  0.00  0.00    -0.031 A 
ATOM      3  C3  DEN d   1       1.782   2.393  -2.402  0.00  0.00     0.027 A 
ATOM      4  C4  DEN d   1       3.143   0.245  -2.832  0.00  0.00     0.027 A 
ATOM      5  C5  DEN d   1       3.255  -1.093  -2.525  0.00  0.00    -0.003 A 
ATOM      6  C6  DEN d   1       2.406  -1.715  -1.650  0.00  0.00     0.001 A 
ATOM      7  C7  DEN d   1       1.377  -1.008  -1.084  0.00  0.00     0.017 A 
ATOM      8  C8  DEN d   1       1.261   0.343  -1.383  0.00  0.00    -0.094 A 
ATOM      9  C9  DEN d   1       2.123   0.950  -2.281  0.00  0.00    -0.072 A 
ENDROOT
TORSDOF 0
ENDMDL
