MODEL 1
REMARK minimizedAffinity -1.92244446
REMARK minimizedRMSD -1
REMARK  0 active torsions:
REMARK  status: ('A' for Active; 'I' for Inactive)
ROOT
ATOM      1  C1  DEN d   1       3.089  -3.238  -0.095  0.00  0.00     0.130 A 
ATOM      2  C2  DEN d   1       1.977  -3.922   0.561  0.00  0.00    -0.031 A 
ATOM      3  C3  DEN d   1       0.748  -3.145   0.303  0.00  0.00     0.027 A 
ATOM      4  C4  DEN d   1       0.459  -0.964  -1.043  0.00  0.00     0.027 A 
ATOM      5  C5  DEN d   1       1.118  -0.001  -1.775  0.00  0.00    -0.003 A 
ATOM      6  C6  DEN d   1       2.473  -0.031  -1.968  0.00  0.00     0.001 A 
ATOM      7  C7  DEN d   1       3.209  -1.070  -1.460  0.00  0.00     0.017 A 
ATOM      8  C8  DEN d   1       2.553  -2.040  -0.715  0.00  0.00    -0.094 A 
ATOM      9  C9  DEN d   1       1.180  -1.999  -0.541  0.00  0.00    -0.072 A 
ENDROOT
TORSDOF 0
ENDMDL
