MODEL 1
REMARK minimizedAffinity 7.52261162
REMARK minimizedRMSD -1
REMARK  0 active torsions:
REMARK  status: ('A' for Active; 'I' for Inactive)
ROOT
ATOM      1  C1  DEN d   1       3.175  -3.405   0.127  0.00  0.00     0.130 A 
ATOM      2  C2  DEN d   1       2.127  -4.264   0.670  0.00  0.00    -0.031 A 
ATOM      3  C3  DEN d   1       0.854  -3.902   0.013  0.00  0.00     0.027 A 
ATOM      4  C4  DEN d   1       0.411  -2.107  -1.786  0.00  0.00     0.027 A 
ATOM      5  C5  DEN d   1       0.988  -1.119  -2.552  0.00  0.00    -0.003 A 
ATOM      6  C6  DEN d   1       2.317  -0.803  -2.455  0.00  0.00     0.001 A 
ATOM      7  C7  DEN d   1       3.124  -1.513  -1.605  0.00  0.00     0.017 A 
ATOM      8  C8  DEN d   1       2.547  -2.506  -0.824  0.00  0.00    -0.094 A 
ATOM      9  C9  DEN d   1       1.204  -2.818  -0.945  0.00  0.00    -0.072 A 
ENDROOT
TORSDOF 0
ENDMDL
