MODEL 1
REMARK minimizedAffinity 16.3176746
REMARK minimizedRMSD -1
REMARK  0 active torsions:
REMARK  status: ('A' for Active; 'I' for Inactive)
ROOT
ATOM      1  C1  DEN d   1      -0.497  -0.022   2.786  0.00  0.00     0.130 A 
ATOM      2  C2  DEN d   1       0.446   1.025   2.402  0.00  0.00    -0.031 A 
ATOM      3  C3  DEN d   1      -0.305   2.289   2.270  0.00  0.00     0.027 A 
ATOM      4  C4  DEN d   1      -2.822   2.726   2.625  0.00  0.00     0.027 A 
ATOM      5  C5  DEN d   1      -4.029   2.143   2.946  0.00  0.00    -0.003 A 
ATOM      6  C6  DEN d   1      -4.147   0.803   3.201  0.00  0.00     0.001 A 
ATOM      7  C7  DEN d   1      -3.032   0.008   3.183  0.00  0.00     0.017 A 
ATOM      8  C8  DEN d   1      -1.813   0.586   2.853  0.00  0.00    -0.094 A 
ATOM      9  C9  DEN d   1      -1.712   1.946   2.610  0.00  0.00    -0.072 A 
ENDROOT
TORSDOF 0
ENDMDL
