MODEL 1
REMARK minimizedAffinity -5.29872942
REMARK minimizedRMSD -1
REMARK  0 active torsions:
REMARK  status: ('A' for Active; 'I' for Inactive)
ROOT
ATOM      1  C1  DEN d   1      -0.662  -0.063   0.502  0.00  0.00     0.130 A 
ATOM      2  C2  DEN d   1      -0.476  -1.267  -0.303  0.00  0.00    -0.031 A 
ATOM      3  C3  DEN d   1       0.838  -1.173  -0.969  0.00  0.00     0.027 A 
ATOM      4  C4  DEN d   1       2.597   0.709  -0.830  0.00  0.00     0.027 A 
ATOM      5  C5  DEN d   1       2.883   1.940  -0.282  0.00  0.00    -0.003 A 
ATOM      6  C6  DEN d   1       2.000   2.600   0.531  0.00  0.00     0.001 A 
ATOM      7  C7  DEN d   1       0.807   2.011   0.857  0.00  0.00     0.017 A 
ATOM      8  C8  DEN d   1       0.509   0.773   0.303  0.00  0.00    -0.094 A 
ATOM      9  C9  DEN d   1       1.419   0.117  -0.507  0.00  0.00    -0.072 A 
ENDROOT
TORSDOF 0
ENDMDL
