MODEL 1
REMARK minimizedAffinity 5.81955051
REMARK minimizedRMSD -1
REMARK  0 active torsions:
REMARK  status: ('A' for Active; 'I' for Inactive)
ROOT
ATOM      1  C1  DEN d   1      -2.055   2.746   2.506  0.00  0.00     0.130 A 
ATOM      2  C2  DEN d   1      -2.809   1.500   2.393  0.00  0.00    -0.031 A 
ATOM      3  C3  DEN d   1      -1.859   0.419   2.064  0.00  0.00     0.027 A 
ATOM      4  C4  DEN d   1       0.695   0.551   1.724  0.00  0.00     0.027 A 
ATOM      5  C5  DEN d   1       1.782   1.396   1.706  0.00  0.00    -0.003 A 
ATOM      6  C6  DEN d   1       1.664   2.744   1.918  0.00  0.00     0.001 A 
ATOM      7  C7  DEN d   1       0.436   3.281   2.202  0.00  0.00     0.017 A 
ATOM      8  C8  DEN d   1      -0.667   2.437   2.214  0.00  0.00    -0.094 A 
ATOM      9  C9  DEN d   1      -0.524   1.075   2.010  0.00  0.00    -0.072 A 
ENDROOT
TORSDOF 0
ENDMDL
