MODEL 1
REMARK minimizedAffinity 1.77963364
REMARK minimizedRMSD -1
REMARK  0 active torsions:
REMARK  status: ('A' for Active; 'I' for Inactive)
ROOT
ATOM      1  C1  DEN d   1       0.445   0.214   1.873  0.00  0.00     0.130 A 
ATOM      2  C2  DEN d   1       0.640   1.557   2.412  0.00  0.00    -0.031 A 
ATOM      3  C3  DEN d   1       1.819   2.149   1.747  0.00  0.00     0.027 A 
ATOM      4  C4  DEN d   1       3.350   1.122  -0.056  0.00  0.00     0.027 A 
ATOM      5  C5  DEN d   1       3.589   0.001  -0.821  0.00  0.00    -0.003 A 
ATOM      6  C6  DEN d   1       2.823  -1.130  -0.717  0.00  0.00     0.001 A 
ATOM      7  C7  DEN d   1       1.754  -1.150   0.138  0.00  0.00     0.017 A 
ATOM      8  C8  DEN d   1       1.511  -0.026   0.918  0.00  0.00    -0.094 A 
ATOM      9  C9  DEN d   1       2.289   1.112   0.790  0.00  0.00    -0.072 A 
ENDROOT
TORSDOF 0
ENDMDL
