MODEL 1
REMARK minimizedAffinity 6.81682873
REMARK minimizedRMSD -1
REMARK  0 active torsions:
REMARK  status: ('A' for Active; 'I' for Inactive)
ROOT
ATOM      1  C1  DEN d   1       0.233   0.168   1.497  0.00  0.00     0.130 A 
ATOM      2  C2  DEN d   1      -0.425   1.063   2.445  0.00  0.00    -0.031 A 
ATOM      3  C3  DEN d   1       0.357   2.314   2.511  0.00  0.00     0.027 A 
ATOM      4  C4  DEN d   1       2.510   2.950   1.240  0.00  0.00     0.027 A 
ATOM      5  C5  DEN d   1       3.449   2.511   0.334  0.00  0.00    -0.003 A 
ATOM      6  C6  DEN d   1       3.402   1.258  -0.218  0.00  0.00     0.001 A 
ATOM      7  C7  DEN d   1       2.368   0.416   0.097  0.00  0.00     0.017 A 
ATOM      8  C8  DEN d   1       1.421   0.849   1.016  0.00  0.00    -0.094 A 
ATOM      9  C9  DEN d   1       1.480   2.123   1.554  0.00  0.00    -0.072 A 
ENDROOT
TORSDOF 0
ENDMDL
