MODEL 1
REMARK minimizedAffinity 7.29047251
REMARK minimizedRMSD -1
REMARK  0 active torsions:
REMARK  status: ('A' for Active; 'I' for Inactive)
ROOT
ATOM      1  C1  DEN d   1       0.580   0.939  -2.494  0.00  0.00     0.130 A 
ATOM      2  C2  DEN d   1       0.002  -0.344  -2.883  0.00  0.00    -0.031 A 
ATOM      3  C3  DEN d   1       0.008  -1.226  -1.699  0.00  0.00     0.027 A 
ATOM      4  C4  DEN d   1       0.849  -0.731   0.688  0.00  0.00     0.027 A 
ATOM      5  C5  DEN d   1       1.435   0.217   1.498  0.00  0.00    -0.003 A 
ATOM      6  C6  DEN d   1       1.804   1.450   1.030  0.00  0.00     0.001 A 
ATOM      7  C7  DEN d   1       1.551   1.784  -0.275  0.00  0.00     0.017 A 
ATOM      8  C8  DEN d   1       0.968   0.831  -1.099  0.00  0.00    -0.094 A 
ATOM      9  C9  DEN d   1       0.591  -0.405  -0.603  0.00  0.00    -0.072 A 
ENDROOT
TORSDOF 0
ENDMDL
