MODEL 1
REMARK minimizedAffinity 2.44209027
REMARK minimizedRMSD -1
REMARK  0 active torsions:
REMARK  status: ('A' for Active; 'I' for Inactive)
ROOT
ATOM      1  C1  DEN d   1      -2.809  -5.771  -1.906  0.00  0.00     0.130 A 
ATOM      2  C2  DEN d   1      -2.050  -4.604  -1.465  0.00  0.00    -0.031 A 
ATOM      3  C3  DEN d   1      -2.774  -3.395  -1.905  0.00  0.00     0.027 A 
ATOM      4  C4  DEN d   1      -4.989  -3.217  -3.216  0.00  0.00     0.027 A 
ATOM      5  C5  DEN d   1      -5.996  -3.936  -3.820  0.00  0.00    -0.003 A 
ATOM      6  C6  DEN d   1      -5.994  -5.305  -3.859  0.00  0.00     0.001 A 
ATOM      7  C7  DEN d   1      -4.987  -6.000  -3.242  0.00  0.00     0.017 A 
ATOM      8  C8  DEN d   1      -3.964  -5.282  -2.637  0.00  0.00    -0.094 A 
ATOM      9  C9  DEN d   1      -3.991  -3.898  -2.598  0.00  0.00    -0.072 A 
ENDROOT
TORSDOF 0
ENDMDL
