MODEL 1
REMARK minimizedAffinity 9.56436062
REMARK minimizedRMSD -1
REMARK  0 active torsions:
REMARK  status: ('A' for Active; 'I' for Inactive)
ROOT
ATOM      1  C1  DEN d   1      -1.628   0.169   3.165  0.00  0.00     0.130 A 
ATOM      2  C2  DEN d   1      -2.885   0.903   3.049  0.00  0.00    -0.031 A 
ATOM      3  C3  DEN d   1      -2.579   2.256   2.544  0.00  0.00     0.027 A 
ATOM      4  C4  DEN d   1      -0.293   3.280   1.929  0.00  0.00     0.027 A 
ATOM      5  C5  DEN d   1       1.063   3.045   1.872  0.00  0.00    -0.003 A 
ATOM      6  C6  DEN d   1       1.617   1.858   2.270  0.00  0.00     0.001 A 
ATOM      7  C7  DEN d   1       0.805   0.842   2.702  0.00  0.00     0.017 A 
ATOM      8  C8  DEN d   1      -0.563   1.073   2.769  0.00  0.00    -0.094 A 
ATOM      9  C9  DEN d   1      -1.104   2.277   2.350  0.00  0.00    -0.072 A 
ENDROOT
TORSDOF 0
ENDMDL
