MODEL 1
REMARK minimizedAffinity 8.02141571
REMARK minimizedRMSD -1
REMARK  0 active torsions:
REMARK  status: ('A' for Active; 'I' for Inactive)
ROOT
ATOM      1  C1  DEN d   1       1.950  -0.401  -0.211  0.00  0.00     0.130 A 
ATOM      2  C2  DEN d   1       2.330   0.774   0.568  0.00  0.00    -0.031 A 
ATOM      3  C3  DEN d   1       1.874   1.973  -0.163  0.00  0.00     0.027 A 
ATOM      4  C4  DEN d   1       0.617   2.122  -2.411  0.00  0.00     0.027 A 
ATOM      5  C5  DEN d   1       0.085   1.392  -3.450  0.00  0.00    -0.003 A 
ATOM      6  C6  DEN d   1       0.167   0.025  -3.499  0.00  0.00     0.001 A 
ATOM      7  C7  DEN d   1       0.755  -0.657  -2.467  0.00  0.00     0.017 A 
ATOM      8  C8  DEN d   1       1.300   0.073  -1.419  0.00  0.00    -0.094 A 
ATOM      9  C9  DEN d   1       1.197   1.454  -1.382  0.00  0.00    -0.072 A 
ENDROOT
TORSDOF 0
ENDMDL
