MODEL 1
REMARK minimizedAffinity 14.7367125
REMARK minimizedRMSD -1
REMARK  0 active torsions:
REMARK  status: ('A' for Active; 'I' for Inactive)
ROOT
ATOM      1  C1  DEN d   1       5.946   1.865  -4.521  0.00  0.00     0.130 A 
ATOM      2  C2  DEN d   1       5.926   1.491  -3.109  0.00  0.00    -0.031 A 
ATOM      3  C3  DEN d   1       5.909   2.732  -2.308  0.00  0.00     0.027 A 
ATOM      4  C4  DEN d   1       5.906   5.182  -3.112  0.00  0.00     0.027 A 
ATOM      5  C5  DEN d   1       5.930   6.000  -4.221  0.00  0.00    -0.003 A 
ATOM      6  C6  DEN d   1       5.995   5.502  -5.495  0.00  0.00     0.001 A 
ATOM      7  C7  DEN d   1       5.993   4.146  -5.694  0.00  0.00     0.017 A 
ATOM      8  C8  DEN d   1       5.976   3.315  -4.582  0.00  0.00    -0.094 A 
ATOM      9  C9  DEN d   1       5.897   3.838  -3.302  0.00  0.00    -0.072 A 
ENDROOT
TORSDOF 0
ENDMDL
