MODEL 1
REMARK minimizedAffinity 1.20329845
REMARK minimizedRMSD -1
REMARK  0 active torsions:
REMARK  status: ('A' for Active; 'I' for Inactive)
ROOT
ATOM      1  C1  DEN d   1      -2.429  -2.980  -1.517  0.00  0.00     0.130 A 
ATOM      2  C2  DEN d   1      -2.574  -4.039  -0.522  0.00  0.00    -0.031 A 
ATOM      3  C3  DEN d   1      -1.457  -3.920   0.437  0.00  0.00     0.027 A 
ATOM      4  C4  DEN d   1       0.469  -2.205   0.479  0.00  0.00     0.027 A 
ATOM      5  C5  DEN d   1       1.021  -1.121  -0.166  0.00  0.00    -0.003 A 
ATOM      6  C6  DEN d   1       0.486  -0.606  -1.317  0.00  0.00     0.001 A 
ATOM      7  C7  DEN d   1      -0.662  -1.147  -1.833  0.00  0.00     0.017 A 
ATOM      8  C8  DEN d   1      -1.220  -2.245  -1.192  0.00  0.00    -0.094 A 
ATOM      9  C9  DEN d   1      -0.671  -2.743  -0.023  0.00  0.00    -0.072 A 
ENDROOT
TORSDOF 0
ENDMDL
