MODEL 1
REMARK minimizedAffinity 9.88819504
REMARK minimizedRMSD -1
REMARK  0 active torsions:
REMARK  status: ('A' for Active; 'I' for Inactive)
ROOT
ATOM      1  C1  DEN d   1       3.235   0.875   1.401  0.00  0.00     0.130 A 
ATOM      2  C2  DEN d   1       3.817   1.690   0.337  0.00  0.00    -0.031 A 
ATOM      3  C3  DEN d   1       2.919   2.838   0.099  0.00  0.00     0.027 A 
ATOM      4  C4  DEN d   1       0.699   3.433   1.271  0.00  0.00     0.027 A 
ATOM      5  C5  DEN d   1      -0.205   3.034   2.230  0.00  0.00    -0.003 A 
ATOM      6  C6  DEN d   1      -0.045   1.880   2.950  0.00  0.00     0.001 A 
ATOM      7  C7  DEN d   1       1.068   1.106   2.754  0.00  0.00     0.017 A 
ATOM      8  C8  DEN d   1       1.981   1.498   1.784  0.00  0.00    -0.094 A 
ATOM      9  C9  DEN d   1       1.807   2.674   1.075  0.00  0.00    -0.072 A 
ENDROOT
TORSDOF 0
ENDMDL
