MODEL 1
REMARK minimizedAffinity 12.4672022
REMARK minimizedRMSD -1
REMARK  0 active torsions:
REMARK  status: ('A' for Active; 'I' for Inactive)
ROOT
ATOM      1  C1  DEN d   1       3.278   0.717   1.261  0.00  0.00     0.130 A 
ATOM      2  C2  DEN d   1       3.798   1.430   0.097  0.00  0.00    -0.031 A 
ATOM      3  C3  DEN d   1       2.867   2.533  -0.215  0.00  0.00     0.027 A 
ATOM      4  C4  DEN d   1       0.686   3.205   0.988  0.00  0.00     0.027 A 
ATOM      5  C5  DEN d   1      -0.169   2.891   2.021  0.00  0.00    -0.003 A 
ATOM      6  C6  DEN d   1       0.045   1.818   2.845  0.00  0.00     0.001 A 
ATOM      7  C7  DEN d   1       1.165   1.047   2.678  0.00  0.00     0.017 A 
ATOM      8  C8  DEN d   1       2.028   1.354   1.634  0.00  0.00    -0.094 A 
ATOM      9  C9  DEN d   1       1.801   2.450   0.820  0.00  0.00    -0.072 A 
ENDROOT
TORSDOF 0
ENDMDL
