MODEL 1
REMARK minimizedAffinity 9.0645237
REMARK minimizedRMSD -1
REMARK  0 active torsions:
REMARK  status: ('A' for Active; 'I' for Inactive)
ROOT
ATOM      1  C1  DEN d   1       0.013   0.366   1.588  0.00  0.00     0.130 A 
ATOM      2  C2  DEN d   1      -0.815   1.195   2.459  0.00  0.00    -0.031 A 
ATOM      3  C3  DEN d   1      -0.116   2.479   2.667  0.00  0.00     0.027 A 
ATOM      4  C4  DEN d   1       2.155   3.261   1.726  0.00  0.00     0.027 A 
ATOM      5  C5  DEN d   1       3.232   2.899   0.947  0.00  0.00    -0.003 A 
ATOM      6  C6  DEN d   1       3.326   1.665   0.360  0.00  0.00     0.001 A 
ATOM      7  C7  DEN d   1       2.305   0.764   0.506  0.00  0.00     0.017 A 
ATOM      8  C8  DEN d   1       1.219   1.119   1.295  0.00  0.00    -0.094 A 
ATOM      9  C9  DEN d   1       1.136   2.375   1.870  0.00  0.00    -0.072 A 
ENDROOT
TORSDOF 0
ENDMDL
