MODEL 1
REMARK minimizedAffinity -5.82568741
REMARK minimizedRMSD -1
REMARK  3 active torsions:
REMARK  status: ('A' for Active; 'I' for Inactive)
REMARK    1  A    between atoms: C3'_2  and  C2'_3 
REMARK    2  A    between atoms: C2'_3  and  C1'_4 
REMARK    3  A    between atoms: C1'_4  and  C1_5 
ROOT
ATOM      1  C1  N4B d   1       0.313  -0.285   0.177  0.00  0.00    -0.075 A 
ATOM      2  C2  N4B d   1       0.647  -1.333  -0.709  0.00  0.00     0.002 A 
ATOM      3  C3  N4B d   1       1.623  -2.237  -0.368  0.00  0.00     0.002 A 
ATOM      4  C4  N4B d   1       2.289  -2.102   0.841  0.00  0.00    -0.004 A 
ATOM      5  C5  N4B d   1       1.943  -1.103   1.703  0.00  0.00     0.002 A 
ATOM      6  C6  N4B d   1       0.961  -0.190   1.374  0.00  0.00     0.002 A 
ENDROOT
BRANCH   1   7
ATOM      7  C1' N4B d   1      -0.687   0.777  -0.190  0.00  0.00     0.057 C 
BRANCH   7   8
ATOM      8  C2' N4B d   1      -1.578   1.063   1.015  0.00  0.00     0.009 C 
BRANCH   8   9
ATOM      9  C3' N4B d   1      -3.047   0.840   0.702  0.00  0.00     0.004 C 
ATOM     10  C4' N4B d   1      -3.825   0.343   1.884  0.00  0.00     0.003 C 
ENDBRANCH   8   9
ENDBRANCH   7   8
ENDBRANCH   1   7
TORSDOF 3
ENDMDL
