MODEL 1
REMARK minimizedAffinity -4.66631699
REMARK minimizedRMSD -1
REMARK  3 active torsions:
REMARK  status: ('A' for Active; 'I' for Inactive)
REMARK    1  A    between atoms: C3'_2  and  C2'_3 
REMARK    2  A    between atoms: C2'_3  and  C1'_4 
REMARK    3  A    between atoms: C1'_4  and  C1_5 
ROOT
ATOM      1  C1  N4B d   1      -0.454   0.549  -0.310  0.00  0.00    -0.075 A 
ATOM      2  C2  N4B d   1      -0.560  -0.665  -1.023  0.00  0.00     0.002 A 
ATOM      3  C3  N4B d   1       0.476  -1.567  -1.001  0.00  0.00     0.002 A 
ATOM      4  C4  N4B d   1       1.630  -1.269  -0.292  0.00  0.00    -0.004 A 
ATOM      5  C5  N4B d   1       1.714  -0.105   0.415  0.00  0.00     0.002 A 
ATOM      6  C6  N4B d   1       0.679   0.808   0.405  0.00  0.00     0.002 A 
ENDROOT
BRANCH   1   7
ATOM      7  C1' N4B d   1      -1.524   1.604  -0.374  0.00  0.00     0.057 C 
BRANCH   7   8
ATOM      8  C2' N4B d   1      -2.893   0.931  -0.332  0.00  0.00     0.009 C 
BRANCH   8   9
ATOM      9  C3' N4B d   1      -3.768   1.491   0.776  0.00  0.00     0.004 C 
ATOM     10  C4' N4B d   1      -4.553   0.430   1.488  0.00  0.00     0.003 C 
ENDBRANCH   8   9
ENDBRANCH   7   8
ENDBRANCH   1   7
TORSDOF 3
ENDMDL
