MODEL 1
REMARK minimizedAffinity -3.53354263
REMARK minimizedRMSD -1
REMARK  2 active torsions:
REMARK  status: ('A' for Active; 'I' for Inactive)
REMARK    1  A    between atoms: C1_2  and  C2_3 
REMARK    2  A    between atoms: C2_3  and  C3_4 
ROOT
ATOM      1  C3  UNL d   1       0.268  -0.453   0.105  0.00  0.00    -0.075 A 
ATOM      2  C4  UNL d   1      -0.489  -1.394   0.818  0.00  0.00     0.002 A 
ATOM      3  C5  UNL d   1      -0.969  -2.542   0.187  0.00  0.00     0.002 A 
ATOM      4  C6  UNL d   1      -0.709  -2.758  -1.164  0.00  0.00    -0.004 A 
ATOM      5  C7  UNL d   1       0.028  -1.821  -1.887  0.00  0.00     0.002 A 
ATOM      6  C8  UNL d   1       0.513  -0.674  -1.256  0.00  0.00     0.002 A 
ENDROOT
BRANCH   1   7
ATOM      7  C2  UNL d   1       0.815   0.777   0.790  0.00  0.00     0.056 C 
BRANCH   7   8
ATOM      8  C1  UNL d   1       0.952   1.994  -0.130  0.00  0.00     0.007 C 
ATOM      9  C   UNL d   1       2.038   2.965   0.316  0.00  0.00     0.009 C 
ENDBRANCH   7   8
ENDBRANCH   1   7
TORSDOF 2
ENDMDL
