MODEL 1
REMARK minimizedAffinity -2.98989081
REMARK minimizedRMSD -1
REMARK  2 active torsions:
REMARK  status: ('A' for Active; 'I' for Inactive)
REMARK    1  A    between atoms: C1_2  and  C2_3 
REMARK    2  A    between atoms: C2_3  and  C3_4 
ROOT
ATOM      1  C3  UNL d   1       0.072   1.128   0.308  0.00  0.00    -0.075 A 
ATOM      2  C4  UNL d   1      -0.759   0.814   1.393  0.00  0.00     0.002 A 
ATOM      3  C5  UNL d   1      -1.156  -0.504   1.623  0.00  0.00     0.002 A 
ATOM      4  C6  UNL d   1      -0.738  -1.520   0.766  0.00  0.00    -0.004 A 
ATOM      5  C7  UNL d   1       0.074  -1.217  -0.325  0.00  0.00     0.002 A 
ATOM      6  C8  UNL d   1       0.477   0.100  -0.554  0.00  0.00     0.002 A 
ENDROOT
BRANCH   1   7
ATOM      7  C2  UNL d   1       0.530   2.547   0.071  0.00  0.00     0.056 C 
BRANCH   7   8
ATOM      8  C1  UNL d   1       2.015   2.781   0.367  0.00  0.00     0.007 C 
ATOM      9  C   UNL d   1       2.282   3.193   1.809  0.00  0.00     0.009 C 
ENDBRANCH   7   8
ENDBRANCH   1   7
TORSDOF 2
ENDMDL
