MODEL 1
REMARK minimizedAffinity -4.63636017
REMARK minimizedRMSD -1
REMARK  2 active torsions:
REMARK  status: ('A' for Active; 'I' for Inactive)
REMARK    1  A    between atoms: C1_2  and  C2_3 
REMARK    2  A    between atoms: C2_3  and  C3_4 
ROOT
ATOM      1  C3  UNL d   1      -0.405  -0.737   0.681  0.00  0.00    -0.075 A 
ATOM      2  C4  UNL d   1       0.896  -1.168   0.384  0.00  0.00     0.002 A 
ATOM      3  C5  UNL d   1       1.213  -2.526   0.401  0.00  0.00     0.002 A 
ATOM      4  C6  UNL d   1       0.239  -3.468   0.724  0.00  0.00    -0.004 A 
ATOM      5  C7  UNL d   1      -1.052  -3.050   1.038  0.00  0.00     0.002 A 
ATOM      6  C8  UNL d   1      -1.374  -1.692   1.017  0.00  0.00     0.002 A 
ENDROOT
BRANCH   1   7
ATOM      7  C2  UNL d   1      -0.762   0.730   0.636  0.00  0.00     0.056 C 
BRANCH   7   8
ATOM      8  C1  UNL d   1      -0.017   1.520  -0.445  0.00  0.00     0.007 C 
ATOM      9  C   UNL d   1       0.547   2.841   0.059  0.00  0.00     0.009 C 
ENDBRANCH   7   8
ENDBRANCH   1   7
TORSDOF 2
ENDMDL
