MODEL 1
REMARK minimizedAffinity -4.89560938
REMARK minimizedRMSD -1
REMARK  2 active torsions:
REMARK  status: ('A' for Active; 'I' for Inactive)
REMARK    1  A    between atoms: C1_2  and  C2_3 
REMARK    2  A    between atoms: C2_3  and  C3_4 
ROOT
ATOM      1  C3  UNL d   1       0.930   0.417   0.785  0.00  0.00    -0.075 A 
ATOM      2  C4  UNL d   1       1.883   1.354   1.207  0.00  0.00     0.002 A 
ATOM      3  C5  UNL d   1       1.845   2.666   0.733  0.00  0.00     0.002 A 
ATOM      4  C6  UNL d   1       0.863   3.053  -0.175  0.00  0.00    -0.004 A 
ATOM      5  C7  UNL d   1      -0.080   2.126  -0.614  0.00  0.00     0.002 A 
ATOM      6  C8  UNL d   1      -0.047   0.814  -0.138  0.00  0.00     0.002 A 
ENDROOT
BRANCH   1   7
ATOM      7  C2  UNL d   1       0.947  -0.996   1.317  0.00  0.00     0.056 C 
BRANCH   7   8
ATOM      8  C1  UNL d   1       0.332  -2.029   0.367  0.00  0.00     0.007 C 
ATOM      9  C   UNL d   1      -1.044  -2.508   0.809  0.00  0.00     0.009 C 
ENDBRANCH   7   8
ENDBRANCH   1   7
TORSDOF 2
ENDMDL
