MODEL 1
REMARK minimizedAffinity -5.17571163
REMARK minimizedRMSD -1
REMARK  2 active torsions:
REMARK  status: ('A' for Active; 'I' for Inactive)
REMARK    1  A    between atoms: C1_2  and  C2_3 
REMARK    2  A    between atoms: C2_3  and  C3_4 
ROOT
ATOM      1  C3  UNL d   1       0.369  -1.264   0.084  0.00  0.00    -0.075 A 
ATOM      2  C4  UNL d   1       0.078  -0.068   0.756  0.00  0.00     0.002 A 
ATOM      3  C5  UNL d   1      -0.189   1.100   0.041  0.00  0.00     0.002 A 
ATOM      4  C6  UNL d   1      -0.158   1.090  -1.351  0.00  0.00    -0.004 A 
ATOM      5  C7  UNL d   1       0.145  -0.088  -2.029  0.00  0.00     0.002 A 
ATOM      6  C8  UNL d   1       0.408  -1.259  -1.317  0.00  0.00     0.002 A 
ENDROOT
BRANCH   1   7
ATOM      7  C2  UNL d   1       0.629  -2.538   0.851  0.00  0.00     0.056 C 
BRANCH   7   8
ATOM      8  C1  UNL d   1      -0.436  -3.620   0.644  0.00  0.00     0.007 C 
ATOM      9  C   UNL d   1      -1.857  -3.072   0.642  0.00  0.00     0.009 C 
ENDBRANCH   7   8
ENDBRANCH   1   7
TORSDOF 2
ENDMDL
