MODEL 1
REMARK minimizedAffinity -3.27962065
REMARK minimizedRMSD -1
REMARK  2 active torsions:
REMARK  status: ('A' for Active; 'I' for Inactive)
REMARK    1  A    between atoms: C1_2  and  C2_3 
REMARK    2  A    between atoms: C2_3  and  C3_4 
ROOT
ATOM      1  C3  UNL d   1      -0.015   0.382   0.506  0.00  0.00    -0.075 A 
ATOM      2  C4  UNL d   1       0.769  -0.413  -0.342  0.00  0.00     0.002 A 
ATOM      3  C5  UNL d   1       0.450  -1.755  -0.551  0.00  0.00     0.002 A 
ATOM      4  C6  UNL d   1      -0.650  -2.320   0.092  0.00  0.00    -0.004 A 
ATOM      5  C7  UNL d   1      -1.426  -1.544   0.950  0.00  0.00     0.002 A 
ATOM      6  C8  UNL d   1      -1.111  -0.200   1.157  0.00  0.00     0.002 A 
ENDROOT
BRANCH   1   7
ATOM      7  C2  UNL d   1       0.308   1.843   0.713  0.00  0.00     0.056 C 
BRANCH   7   8
ATOM      8  C1  UNL d   1       0.713   2.580  -0.568  0.00  0.00     0.007 C 
ATOM      9  C   UNL d   1       1.865   3.554  -0.361  0.00  0.00     0.009 C 
ENDBRANCH   7   8
ENDBRANCH   1   7
TORSDOF 2
ENDMDL
