MODEL 1
REMARK minimizedAffinity -2.28969598
REMARK minimizedRMSD -1
REMARK  2 active torsions:
REMARK  status: ('A' for Active; 'I' for Inactive)
REMARK    1  A    between atoms: C1_2  and  C2_3 
REMARK    2  A    between atoms: C2_3  and  C3_4 
ROOT
ATOM      1  C3  UNL d   1       0.333  -0.134   0.761  0.00  0.00    -0.075 A 
ATOM      2  C4  UNL d   1       0.707  -1.272   0.033  0.00  0.00     0.002 A 
ATOM      3  C5  UNL d   1       0.638  -1.276  -1.361  0.00  0.00     0.002 A 
ATOM      4  C6  UNL d   1       0.186  -0.148  -2.041  0.00  0.00    -0.004 A 
ATOM      5  C7  UNL d   1      -0.204   0.983  -1.327  0.00  0.00     0.002 A 
ATOM      6  C8  UNL d   1      -0.132   0.991   0.067  0.00  0.00     0.002 A 
ENDROOT
BRANCH   1   7
ATOM      7  C2  UNL d   1       0.433  -0.113   2.268  0.00  0.00     0.056 C 
BRANCH   7   8
ATOM      8  C1  UNL d   1      -0.907  -0.308   2.985  0.00  0.00     0.007 C 
ATOM      9  C   UNL d   1      -0.755  -0.627   4.466  0.00  0.00     0.009 C 
ENDBRANCH   7   8
ENDBRANCH   1   7
TORSDOF 2
ENDMDL
