MODEL 1
REMARK minimizedAffinity -3.03608894
REMARK minimizedRMSD -1
REMARK  2 active torsions:
REMARK  status: ('A' for Active; 'I' for Inactive)
REMARK    1  A    between atoms: C1_2  and  C2_3 
REMARK    2  A    between atoms: C2_3  and  C3_4 
ROOT
ATOM      1  C3  UNL d   1      -0.251   0.643   0.162  0.00  0.00    -0.075 A 
ATOM      2  C4  UNL d   1      -1.573   0.291   0.473  0.00  0.00     0.002 A 
ATOM      3  C5  UNL d   1      -1.843  -0.838   1.246  0.00  0.00     0.002 A 
ATOM      4  C6  UNL d   1      -0.798  -1.635   1.709  0.00  0.00    -0.004 A 
ATOM      5  C7  UNL d   1       0.518  -1.304   1.393  0.00  0.00     0.002 A 
ATOM      6  C8  UNL d   1       0.791  -0.172   0.623  0.00  0.00     0.002 A 
ENDROOT
BRANCH   1   7
ATOM      7  C2  UNL d   1       0.048   1.880  -0.649  0.00  0.00     0.056 C 
BRANCH   7   8
ATOM      8  C1  UNL d   1       0.544   3.067   0.183  0.00  0.00     0.007 C 
ATOM      9  C   UNL d   1       2.051   3.271   0.102  0.00  0.00     0.009 C 
ENDBRANCH   7   8
ENDBRANCH   1   7
TORSDOF 2
ENDMDL
