MODEL 1
REMARK minimizedAffinity -2.30289984
REMARK minimizedRMSD -1
REMARK  2 active torsions:
REMARK  status: ('A' for Active; 'I' for Inactive)
REMARK    1  A    between atoms: C1_2  and  C2_3 
REMARK    2  A    between atoms: C2_3  and  C3_4 
ROOT
ATOM      1  C3  UNL d   1       0.482   0.762  -0.064  0.00  0.00    -0.075 A 
ATOM      2  C4  UNL d   1       0.183  -0.188   0.924  0.00  0.00     0.002 A 
ATOM      3  C5  UNL d   1       0.056  -1.538   0.594  0.00  0.00     0.002 A 
ATOM      4  C6  UNL d   1       0.216  -1.953  -0.726  0.00  0.00    -0.004 A 
ATOM      5  C7  UNL d   1       0.497  -1.016  -1.718  0.00  0.00     0.002 A 
ATOM      6  C8  UNL d   1       0.629   0.334  -1.390  0.00  0.00     0.002 A 
ENDROOT
BRANCH   1   7
ATOM      7  C2  UNL d   1       0.650   2.220   0.292  0.00  0.00     0.056 C 
BRANCH   7   8
ATOM      8  C1  UNL d   1       2.110   2.673   0.390  0.00  0.00     0.007 C 
ATOM      9  C   UNL d   1       2.341   3.724   1.467  0.00  0.00     0.009 C 
ENDBRANCH   7   8
ENDBRANCH   1   7
TORSDOF 2
ENDMDL
