MODEL 1
REMARK minimizedAffinity -5.32886553
REMARK minimizedRMSD -1
REMARK  2 active torsions:
REMARK  status: ('A' for Active; 'I' for Inactive)
REMARK    1  A    between atoms: C1_2  and  C2_3 
REMARK    2  A    between atoms: C2_3  and  C3_4 
ROOT
ATOM      1  C3  UNL d   1      -0.296  -0.124   0.007  0.00  0.00    -0.075 A 
ATOM      2  C4  UNL d   1      -0.189  -1.200  -0.886  0.00  0.00     0.002 A 
ATOM      3  C5  UNL d   1      -0.394  -2.508  -0.447  0.00  0.00     0.002 A 
ATOM      4  C6  UNL d   1      -0.699  -2.758   0.889  0.00  0.00    -0.004 A 
ATOM      5  C7  UNL d   1      -0.791  -1.698   1.789  0.00  0.00     0.002 A 
ATOM      6  C8  UNL d   1      -0.590  -0.388   1.351  0.00  0.00     0.002 A 
ENDROOT
BRANCH   1   7
ATOM      7  C2  UNL d   1      -0.103   1.296  -0.468  0.00  0.00     0.056 C 
BRANCH   7   8
ATOM      8  C1  UNL d   1       0.813   2.135   0.429  0.00  0.00     0.007 C 
ATOM      9  C   UNL d   1       1.916   2.850  -0.340  0.00  0.00     0.009 C 
ENDBRANCH   7   8
ENDBRANCH   1   7
TORSDOF 2
ENDMDL
