MODEL 1
REMARK minimizedAffinity -6.06341124
REMARK minimizedRMSD -1
REMARK  2 active torsions:
REMARK  status: ('A' for Active; 'I' for Inactive)
REMARK    1  A    between atoms: C1_2  and  C2_3 
REMARK    2  A    between atoms: C2_3  and  C3_4 
ROOT
ATOM      1  C3  UNL d   1       0.485  -1.299   0.184  0.00  0.00    -0.075 A 
ATOM      2  C4  UNL d   1      -0.680  -0.929   0.872  0.00  0.00     0.002 A 
ATOM      3  C5  UNL d   1      -0.974   0.417   1.094  0.00  0.00     0.002 A 
ATOM      4  C6  UNL d   1      -0.104   1.407   0.642  0.00  0.00    -0.004 A 
ATOM      5  C7  UNL d   1       1.064   1.050  -0.028  0.00  0.00     0.002 A 
ATOM      6  C8  UNL d   1       1.358  -0.295  -0.256  0.00  0.00     0.002 A 
ENDROOT
BRANCH   1   7
ATOM      7  C2  UNL d   1       0.794  -2.752  -0.086  0.00  0.00     0.056 C 
BRANCH   7   8
ATOM      8  C1  UNL d   1      -0.058  -3.376  -1.196  0.00  0.00     0.007 C 
ATOM      9  C   UNL d   1       0.318  -2.886  -2.589  0.00  0.00     0.009 C 
ENDBRANCH   7   8
ENDBRANCH   1   7
TORSDOF 2
ENDMDL
