MODEL 1
REMARK minimizedAffinity -4.91360903
REMARK minimizedRMSD -1
REMARK  2 active torsions:
REMARK  status: ('A' for Active; 'I' for Inactive)
REMARK    1  A    between atoms: C1_2  and  C2_3 
REMARK    2  A    between atoms: C2_3  and  C3_4 
ROOT
ATOM      1  C3  UNL d   1       0.601  -0.607   0.506  0.00  0.00    -0.075 A 
ATOM      2  C4  UNL d   1       0.933  -1.950   0.276  0.00  0.00     0.002 A 
ATOM      3  C5  UNL d   1      -0.037  -2.947   0.382  0.00  0.00     0.002 A 
ATOM      4  C6  UNL d   1      -1.345  -2.617   0.728  0.00  0.00    -0.004 A 
ATOM      5  C7  UNL d   1      -1.682  -1.288   0.975  0.00  0.00     0.002 A 
ATOM      6  C8  UNL d   1      -0.715  -0.288   0.866  0.00  0.00     0.002 A 
ENDROOT
BRANCH   1   7
ATOM      7  C2  UNL d   1       1.639   0.481   0.365  0.00  0.00     0.056 C 
BRANCH   7   8
ATOM      8  C1  UNL d   1       1.098   1.786  -0.228  0.00  0.00     0.007 C 
ATOM      9  C   UNL d   1       1.853   3.020   0.248  0.00  0.00     0.009 C 
ENDBRANCH   7   8
ENDBRANCH   1   7
TORSDOF 2
ENDMDL
