MODEL 1
REMARK minimizedAffinity 12.7130146
REMARK minimizedRMSD -1
REMARK  0 active torsions:
REMARK  status: ('A' for Active; 'I' for Inactive)
ROOT
ATOM      1  C1  DEN d   1      -0.923   1.958   0.450  0.00  0.00     0.130 A 
ATOM      2  C2  DEN d   1      -0.237   1.581  -0.782  0.00  0.00    -0.031 A 
ATOM      3  C3  DEN d   1      -1.187   0.821  -1.620  0.00  0.00     0.027 A 
ATOM      4  C4  DEN d   1      -3.642   0.200  -1.132  0.00  0.00     0.027 A 
ATOM      5  C5  DEN d   1      -4.661   0.290  -0.210  0.00  0.00    -0.003 A 
ATOM      6  C6  DEN d   1      -4.497   0.908   1.002  0.00  0.00     0.001 A 
ATOM      7  C7  DEN d   1      -3.299   1.500   1.305  0.00  0.00     0.017 A 
ATOM      8  C8  DEN d   1      -2.265   1.407   0.383  0.00  0.00    -0.094 A 
ATOM      9  C9  DEN d   1      -2.454   0.788  -0.842  0.00  0.00    -0.072 A 
ENDROOT
TORSDOF 0
ENDMDL
