MODEL 1
REMARK minimizedAffinity 4.74054718
REMARK minimizedRMSD -1
REMARK  0 active torsions:
REMARK  status: ('A' for Active; 'I' for Inactive)
ROOT
ATOM      1  C1  DEN d   1       3.528   0.832  -0.011  0.00  0.00     0.130 A 
ATOM      2  C2  DEN d   1       4.248   1.611  -1.015  0.00  0.00    -0.031 A 
ATOM      3  C3  DEN d   1       4.296   0.817  -2.260  0.00  0.00     0.027 A 
ATOM      4  C4  DEN d   1       3.326  -1.527  -2.728  0.00  0.00     0.027 A 
ATOM      5  C5  DEN d   1       2.641  -2.588  -2.179  0.00  0.00    -0.003 A 
ATOM      6  C6  DEN d   1       2.235  -2.598  -0.871  0.00  0.00     0.001 A 
ATOM      7  C7  DEN d   1       2.473  -1.506  -0.079  0.00  0.00     0.017 A 
ATOM      8  C8  DEN d   1       3.171  -0.435  -0.622  0.00  0.00    -0.094 A 
ATOM      9  C9  DEN d   1       3.561  -0.439  -1.951  0.00  0.00    -0.072 A 
ENDROOT
TORSDOF 0
ENDMDL
