MODEL 1
REMARK minimizedAffinity 0.857183874
REMARK minimizedRMSD -1
REMARK  0 active torsions:
REMARK  status: ('A' for Active; 'I' for Inactive)
ROOT
ATOM      1  C1  DEN d   1       2.367   1.877   6.000  0.00  0.00     0.130 A 
ATOM      2  C2  DEN d   1       3.686   1.252   5.960  0.00  0.00    -0.031 A 
ATOM      3  C3  DEN d   1       4.700   2.326   5.939  0.00  0.00     0.027 A 
ATOM      4  C4  DEN d   1       4.356   4.882   5.971  0.00  0.00     0.027 A 
ATOM      5  C5  DEN d   1       3.415   5.888   5.992  0.00  0.00    -0.003 A 
ATOM      6  C6  DEN d   1       2.070   5.631   5.983  0.00  0.00     0.001 A 
ATOM      7  C7  DEN d   1       1.628   4.334   5.998  0.00  0.00     0.017 A 
ATOM      8  C8  DEN d   1       2.570   3.315   5.969  0.00  0.00    -0.094 A 
ATOM      9  C9  DEN d   1       3.925   3.596   5.990  0.00  0.00    -0.072 A 
ENDROOT
TORSDOF 0
ENDMDL
