MODEL 1
REMARK minimizedAffinity 2.48316598
REMARK minimizedRMSD -1
REMARK  0 active torsions:
REMARK  status: ('A' for Active; 'I' for Inactive)
ROOT
ATOM      1  C1  DEN d   1       2.622   2.461   5.907  0.00  0.00     0.130 A 
ATOM      2  C2  DEN d   1       2.321   1.571   4.789  0.00  0.00    -0.031 A 
ATOM      3  C3  DEN d   1       2.554   2.318   3.536  0.00  0.00     0.027 A 
ATOM      4  C4  DEN d   1       3.353   4.750   3.221  0.00  0.00     0.027 A 
ATOM      5  C5  DEN d   1       3.724   5.903   3.876  0.00  0.00    -0.003 A 
ATOM      6  C6  DEN d   1       3.722   6.000   5.243  0.00  0.00     0.001 A 
ATOM      7  C7  DEN d   1       3.383   4.910   6.000  0.00  0.00     0.017 A 
ATOM      8  C8  DEN d   1       3.000   3.746   5.346  0.00  0.00    -0.094 A 
ATOM      9  C9  DEN d   1       3.021   3.664   3.964  0.00  0.00    -0.072 A 
ENDROOT
TORSDOF 0
ENDMDL
