MODEL 1
REMARK minimizedAffinity 12.3912859
REMARK minimizedRMSD -1
REMARK  0 active torsions:
REMARK  status: ('A' for Active; 'I' for Inactive)
ROOT
ATOM      1  C1  DEN d   1      -1.419   0.105  -3.494  0.00  0.00     0.130 A 
ATOM      2  C2  DEN d   1      -1.609  -0.766  -2.337  0.00  0.00    -0.031 A 
ATOM      3  C3  DEN d   1      -3.058  -1.002  -2.176  0.00  0.00     0.027 A 
ATOM      4  C4  DEN d   1      -5.015  -0.114  -3.603  0.00  0.00     0.027 A 
ATOM      5  C5  DEN d   1      -5.350   0.671  -4.683  0.00  0.00    -0.003 A 
ATOM      6  C6  DEN d   1      -4.409   1.345  -5.417  0.00  0.00     0.001 A 
ATOM      7  C7  DEN d   1      -3.082   1.209  -5.106  0.00  0.00     0.017 A 
ATOM      8  C8  DEN d   1      -2.737   0.425  -4.013  0.00  0.00    -0.094 A 
ATOM      9  C9  DEN d   1      -3.702  -0.257  -3.292  0.00  0.00    -0.072 A 
ENDROOT
TORSDOF 0
ENDMDL
