MODEL 1
REMARK minimizedAffinity 8.75058746
REMARK minimizedRMSD -1
REMARK  0 active torsions:
REMARK  status: ('A' for Active; 'I' for Inactive)
ROOT
ATOM      1  C1  DEN d   1      -3.356   2.174   0.784  0.00  0.00     0.130 A 
ATOM      2  C2  DEN d   1      -3.761   0.774   0.881  0.00  0.00    -0.031 A 
ATOM      3  C3  DEN d   1      -4.792   0.525  -0.146  0.00  0.00     0.027 A 
ATOM      4  C4  DEN d   1      -5.793   2.160  -1.872  0.00  0.00     0.027 A 
ATOM      5  C5  DEN d   1      -5.772   3.458  -2.331  0.00  0.00    -0.003 A 
ATOM      6  C6  DEN d   1      -4.976   4.420  -1.767  0.00  0.00     0.001 A 
ATOM      7  C7  DEN d   1      -4.134   4.087  -0.739  0.00  0.00     0.017 A 
ATOM      8  C8  DEN d   1      -4.155   2.781  -0.266  0.00  0.00    -0.094 A 
ATOM      9  C9  DEN d   1      -4.957   1.821  -0.857  0.00  0.00    -0.072 A 
ENDROOT
TORSDOF 0
ENDMDL
