MODEL 1
REMARK minimizedAffinity -2.8511076
REMARK minimizedRMSD -1
REMARK  0 active torsions:
REMARK  status: ('A' for Active; 'I' for Inactive)
ROOT
ATOM      1  C1  DEN d   1       2.994   2.353   5.987  0.00  0.00     0.130 A 
ATOM      2  C2  DEN d   1       3.616   1.502   4.977  0.00  0.00    -0.031 A 
ATOM      3  C3  DEN d   1       3.918   2.339   3.798  0.00  0.00     0.027 A 
ATOM      4  C4  DEN d   1       3.491   4.858   3.444  0.00  0.00     0.027 A 
ATOM      5  C5  DEN d   1       2.975   6.000   4.015  0.00  0.00    -0.003 A 
ATOM      6  C6  DEN d   1       2.403   6.000   5.260  0.00  0.00     0.001 A 
ATOM      7  C7  DEN d   1       2.374   4.843   5.993  0.00  0.00     0.017 A 
ATOM      8  C8  DEN d   1       2.886   3.686   5.421  0.00  0.00    -0.094 A 
ATOM      9  C9  DEN d   1       3.471   3.709   4.167  0.00  0.00    -0.072 A 
ENDROOT
TORSDOF 0
ENDMDL
