MODEL 1
REMARK minimizedAffinity 0.692741692
REMARK minimizedRMSD -1
REMARK  0 active torsions:
REMARK  status: ('A' for Active; 'I' for Inactive)
ROOT
ATOM      1  C1  DEN d   1      -4.420   2.724   3.299  0.00  0.00     0.130 A 
ATOM      2  C2  DEN d   1      -4.495   1.965   2.053  0.00  0.00    -0.031 A 
ATOM      3  C3  DEN d   1      -3.128   1.846   1.508  0.00  0.00     0.027 A 
ATOM      4  C4  DEN d   1      -0.913   2.755   2.468  0.00  0.00     0.027 A 
ATOM      5  C5  DEN d   1      -0.348   3.473   3.499  0.00  0.00    -0.003 A 
ATOM      6  C6  DEN d   1      -1.097   4.016   4.508  0.00  0.00     0.001 A 
ATOM      7  C7  DEN d   1      -2.452   3.811   4.534  0.00  0.00     0.017 A 
ATOM      8  C8  DEN d   1      -3.030   3.095   3.494  0.00  0.00    -0.094 A 
ATOM      9  C9  DEN d   1      -2.254   2.543   2.489  0.00  0.00    -0.072 A 
ENDROOT
TORSDOF 0
ENDMDL
