MODEL 1
REMARK minimizedAffinity 0.353196353
REMARK minimizedRMSD -1
REMARK  0 active torsions:
REMARK  status: ('A' for Active; 'I' for Inactive)
ROOT
ATOM      1  C1  DEN d   1       4.806   3.659   5.591  0.00  0.00     0.130 A 
ATOM      2  C2  DEN d   1       5.518   4.867   5.999  0.00  0.00    -0.031 A 
ATOM      3  C3  DEN d   1       4.573   5.999   5.930  0.00  0.00     0.027 A 
ATOM      4  C4  DEN d   1       2.089   6.000   5.239  0.00  0.00     0.027 A 
ATOM      5  C5  DEN d   1       1.045   5.215   4.799  0.00  0.00    -0.003 A 
ATOM      6  C6  DEN d   1       1.190   3.874   4.562  0.00  0.00     0.001 A 
ATOM      7  C7  DEN d   1       2.394   3.267   4.807  0.00  0.00     0.017 A 
ATOM      8  C8  DEN d   1       3.453   4.054   5.243  0.00  0.00    -0.094 A 
ATOM      9  C9  DEN d   1       3.283   5.406   5.488  0.00  0.00    -0.072 A 
ENDROOT
TORSDOF 0
ENDMDL
