MODEL 1
REMARK minimizedAffinity 9.16948605
REMARK minimizedRMSD -1
REMARK  0 active torsions:
REMARK  status: ('A' for Active; 'I' for Inactive)
ROOT
ATOM      1  C   UNL d   1      -4.519  -0.228   5.039  0.00  0.00     0.020 A 
ATOM      2  C1  UNL d   1      -4.519  -0.146   3.647  0.00  0.00     0.020 A 
ATOM      3  C2  UNL d   1      -4.980  -1.221   2.885  0.00  0.00     0.034 A 
ATOM      4  C3  UNL d   1      -5.443  -2.383   3.514  0.00  0.00     0.017 A 
ATOM      5  C4  UNL d   1      -5.443  -2.464   4.911  0.00  0.00     0.017 A 
ATOM      6  C5  UNL d   1      -4.980  -1.384   5.670  0.00  0.00     0.034 A 
ATOM      7 Cl   UNL d   1      -6.000  -3.864   5.758  0.00  0.00    -0.070 Cl
ATOM      8 Cl1  UNL d   1      -5.999  -3.673   2.508  0.00  0.00    -0.070 Cl
ENDROOT
TORSDOF 0
ENDMDL
