MODEL 1
REMARK minimizedAffinity 2.5550375
REMARK minimizedRMSD -1
REMARK  0 active torsions:
REMARK  status: ('A' for Active; 'I' for Inactive)
ROOT
ATOM      1  C   UNL d   1      -5.991   4.107  -4.988  0.00  0.00     0.020 A 
ATOM      2  C1  UNL d   1      -5.978   4.161  -3.595  0.00  0.00     0.020 A 
ATOM      3  C2  UNL d   1      -4.822   4.563  -2.923  0.00  0.00     0.034 A 
ATOM      4  C3  UNL d   1      -3.674   4.912  -3.643  0.00  0.00     0.017 A 
ATOM      5  C4  UNL d   1      -3.688   4.858  -5.042  0.00  0.00     0.017 A 
ATOM      6  C5  UNL d   1      -4.848   4.455  -5.710  0.00  0.00     0.034 A 
ATOM      7 Cl   UNL d   1      -2.311   5.274  -5.999  0.00  0.00    -0.070 Cl
ATOM      8 Cl1  UNL d   1      -2.280   5.400  -2.746  0.00  0.00    -0.070 Cl
ENDROOT
TORSDOF 0
ENDMDL
