MODEL 1
REMARK minimizedAffinity 6.3915391
REMARK minimizedRMSD -1
REMARK  0 active torsions:
REMARK  status: ('A' for Active; 'I' for Inactive)
ROOT
ATOM      1  C   UNL d   1      -1.597  -0.112  -1.869  0.00  0.00     0.020 A 
ATOM      2  C1  UNL d   1      -2.953  -0.161  -2.191  0.00  0.00     0.020 A 
ATOM      3  C2  UNL d   1      -3.629   1.008  -2.546  0.00  0.00     0.034 A 
ATOM      4  C3  UNL d   1      -2.950   2.231  -2.580  0.00  0.00     0.017 A 
ATOM      5  C4  UNL d   1      -1.589   2.279  -2.257  0.00  0.00     0.017 A 
ATOM      6  C5  UNL d   1      -0.917   1.106  -1.902  0.00  0.00     0.034 A 
ATOM      7 Cl   UNL d   1      -0.683   3.751  -2.277  0.00  0.00    -0.070 Cl
ATOM      8 Cl1  UNL d   1      -3.849   3.637  -3.028  0.00  0.00    -0.070 Cl
ENDROOT
TORSDOF 0
ENDMDL
