MODEL 1
REMARK minimizedAffinity 5.00795317
REMARK minimizedRMSD -1
REMARK  0 active torsions:
REMARK  status: ('A' for Active; 'I' for Inactive)
ROOT
ATOM      1  C   UNL d   1       1.205  -5.374  -1.298  0.00  0.00     0.020 A 
ATOM      2  C1  UNL d   1       1.121  -5.161  -2.673  0.00  0.00     0.020 A 
ATOM      3  C2  UNL d   1       2.275  -5.206  -3.458  0.00  0.00     0.034 A 
ATOM      4  C3  UNL d   1       3.518  -5.463  -2.868  0.00  0.00     0.017 A 
ATOM      5  C4  UNL d   1       3.601  -5.677  -1.487  0.00  0.00     0.017 A 
ATOM      6  C5  UNL d   1       2.442  -5.631  -0.706  0.00  0.00     0.034 A 
ATOM      7 Cl   UNL d   1       5.099  -6.000  -0.688  0.00  0.00    -0.070 Cl
ATOM      8 Cl1  UNL d   1       4.904  -5.504  -3.899  0.00  0.00    -0.070 Cl
ENDROOT
TORSDOF 0
ENDMDL
