MODEL 1
REMARK minimizedAffinity 12.2243757
REMARK minimizedRMSD -1
REMARK  0 active torsions:
REMARK  status: ('A' for Active; 'I' for Inactive)
ROOT
ATOM      1  C   UNL d   1      -1.732  -0.194  -1.836  0.00  0.00     0.020 A 
ATOM      2  C1  UNL d   1      -3.042  -0.182  -2.313  0.00  0.00     0.020 A 
ATOM      3  C2  UNL d   1      -3.651   1.028  -2.651  0.00  0.00     0.034 A 
ATOM      4  C3  UNL d   1      -2.950   2.232  -2.513  0.00  0.00     0.017 A 
ATOM      5  C4  UNL d   1      -1.635   2.219  -2.034  0.00  0.00     0.017 A 
ATOM      6  C5  UNL d   1      -1.030   1.004  -1.697  0.00  0.00     0.034 A 
ATOM      7 Cl   UNL d   1      -0.707   3.663  -1.836  0.00  0.00    -0.070 Cl
ATOM      8 Cl1  UNL d   1      -3.766   3.691  -2.950  0.00  0.00    -0.070 Cl
ENDROOT
TORSDOF 0
ENDMDL
