MODEL 1
REMARK minimizedAffinity 2.27248216
REMARK minimizedRMSD -1
REMARK  0 active torsions:
REMARK  status: ('A' for Active; 'I' for Inactive)
ROOT
ATOM      1  C   UNL d   1      -2.147   0.227  -1.523  0.00  0.00     0.020 A 
ATOM      2  C1  UNL d   1      -3.489   0.294  -1.896  0.00  0.00     0.020 A 
ATOM      3  C2  UNL d   1      -4.020   1.490  -2.383  0.00  0.00     0.034 A 
ATOM      4  C3  UNL d   1      -3.208   2.625  -2.498  0.00  0.00     0.017 A 
ATOM      5  C4  UNL d   1      -1.861   2.557  -2.124  0.00  0.00     0.017 A 
ATOM      6  C5  UNL d   1      -1.335   1.356  -1.637  0.00  0.00     0.034 A 
ATOM      7 Cl   UNL d   1      -0.798   3.914  -2.238  0.00  0.00    -0.070 Cl
ATOM      8 Cl1  UNL d   1      -3.931   4.071  -3.109  0.00  0.00    -0.070 Cl
ENDROOT
TORSDOF 0
ENDMDL
