MODEL 1
REMARK minimizedAffinity 1.98073316
REMARK minimizedRMSD -1
REMARK  0 active torsions:
REMARK  status: ('A' for Active; 'I' for Inactive)
ROOT
ATOM      1  C   UNL d   1      -0.444   4.896  -2.546  0.00  0.00     0.020 A 
ATOM      2  C1  UNL d   1      -0.063   5.493  -1.345  0.00  0.00     0.020 A 
ATOM      3  C2  UNL d   1       0.062   4.719  -0.190  0.00  0.00     0.034 A 
ATOM      4  C3  UNL d   1      -0.195   3.344  -0.232  0.00  0.00     0.017 A 
ATOM      5  C4  UNL d   1      -0.578   2.746  -1.438  0.00  0.00     0.017 A 
ATOM      6  C5  UNL d   1      -0.701   3.525  -2.593  0.00  0.00     0.034 A 
ATOM      7 Cl   UNL d   1      -0.912   1.055  -1.570  0.00  0.00    -0.070 Cl
ATOM      8 Cl1  UNL d   1      -0.021   2.448   1.235  0.00  0.00    -0.070 Cl
ENDROOT
TORSDOF 0
ENDMDL
