MODEL 1
REMARK minimizedAffinity -1.97687173
REMARK minimizedRMSD -1
REMARK  0 active torsions:
REMARK  status: ('A' for Active; 'I' for Inactive)
ROOT
ATOM      1  C   UNL d   1       1.303   4.685   0.697  0.00  0.00     0.020 A 
ATOM      2  C1  UNL d   1       1.529   4.226   1.994  0.00  0.00     0.020 A 
ATOM      3  C2  UNL d   1       1.183   2.919   2.343  0.00  0.00     0.034 A 
ATOM      4  C3  UNL d   1       0.608   2.066   1.393  0.00  0.00     0.017 A 
ATOM      5  C4  UNL d   1       0.382   2.528   0.092  0.00  0.00     0.017 A 
ATOM      6  C5  UNL d   1       0.731   3.837  -0.252  0.00  0.00     0.034 A 
ATOM      7 Cl   UNL d   1      -0.323   1.534  -1.135  0.00  0.00    -0.070 Cl
ATOM      8 Cl1  UNL d   1       0.205   0.462   1.894  0.00  0.00    -0.070 Cl
ENDROOT
TORSDOF 0
ENDMDL
