MODEL 1
REMARK minimizedAffinity 6.60474157
REMARK minimizedRMSD -1
REMARK  0 active torsions:
REMARK  status: ('A' for Active; 'I' for Inactive)
ROOT
ATOM      1  C   UNL d   1      -2.619   1.289  -2.569  0.00  0.00     0.020 A 
ATOM      2  C1  UNL d   1      -2.103   0.121  -3.130  0.00  0.00     0.020 A 
ATOM      3  C2  UNL d   1      -0.937  -0.447  -2.611  0.00  0.00     0.034 A 
ATOM      4  C3  UNL d   1      -0.282   0.154  -1.530  0.00  0.00     0.017 A 
ATOM      5  C4  UNL d   1      -0.800   1.327  -0.968  0.00  0.00     0.017 A 
ATOM      6  C5  UNL d   1      -1.968   1.890  -1.491  0.00  0.00     0.034 A 
ATOM      7 Cl   UNL d   1      -0.049   2.125   0.367  0.00  0.00    -0.070 Cl
ATOM      8 Cl1  UNL d   1       1.155  -0.602  -0.940  0.00  0.00    -0.070 Cl
ENDROOT
TORSDOF 0
ENDMDL
