MODEL 1
REMARK minimizedAffinity 3.42958546
REMARK minimizedRMSD -1
REMARK  0 active torsions:
REMARK  status: ('A' for Active; 'I' for Inactive)
ROOT
ATOM      1  C   UNL d   1      -0.008   3.576  -1.128  0.00  0.00     0.020 A 
ATOM      2  C1  UNL d   1      -0.501   2.334  -1.523  0.00  0.00     0.020 A 
ATOM      3  C2  UNL d   1      -0.460   1.253  -0.639  0.00  0.00     0.034 A 
ATOM      4  C3  UNL d   1       0.074   1.414   0.644  0.00  0.00     0.017 A 
ATOM      5  C4  UNL d   1       0.569   2.662   1.040  0.00  0.00     0.017 A 
ATOM      6  C5  UNL d   1       0.526   3.740   0.151  0.00  0.00     0.034 A 
ATOM      7 Cl   UNL d   1       1.244   2.937   2.607  0.00  0.00    -0.070 Cl
ATOM      8 Cl1  UNL d   1       0.092   0.035   1.685  0.00  0.00    -0.070 Cl
ENDROOT
TORSDOF 0
ENDMDL
