MODEL 1
REMARK minimizedAffinity -2.57080317
REMARK minimizedRMSD -1
REMARK  0 active torsions:
REMARK  status: ('A' for Active; 'I' for Inactive)
ROOT
ATOM      1  C4' PXY d   1       5.250  -0.257  -3.732  0.00  0.00     0.077 C 
ATOM      2  C1' PXY d   1       5.166  -5.575  -5.996  0.00  0.00     0.077 C 
ATOM      3  C1  PXY d   1       5.200  -4.178  -5.408  0.00  0.00    -0.082 A 
ATOM      4  C2  PXY d   1       4.484  -3.905  -4.329  0.00  0.00     0.003 A 
ATOM      5  C3  PXY d   1       4.478  -2.639  -3.803  0.00  0.00     0.003 A 
ATOM      6  C4  PXY d   1       5.254  -1.656  -4.355  0.00  0.00    -0.082 A 
ATOM      7  C5  PXY d   1       5.996  -1.929  -5.449  0.00  0.00     0.003 A 
ATOM      8  C6  PXY d   1       5.956  -3.209  -5.993  0.00  0.00     0.003 A 
ENDROOT
TORSDOF 0
ENDMDL
