MODEL 1
REMARK minimizedAffinity 0.739305615
REMARK minimizedRMSD -1
REMARK  0 active torsions:
REMARK  status: ('A' for Active; 'I' for Inactive)
ROOT
ATOM      1  C4' PXY d   1      -6.000   5.465  -2.630  0.00  0.00     0.077 C 
ATOM      2  C1' PXY d   1      -3.147   0.551  -3.696  0.00  0.00     0.077 C 
ATOM      3  C1  PXY d   1      -3.906   1.833  -3.414  0.00  0.00    -0.082 A 
ATOM      4  C2  PXY d   1      -3.505   2.966  -3.968  0.00  0.00     0.003 A 
ATOM      5  C3  PXY d   1      -4.161   4.140  -3.698  0.00  0.00     0.003 A 
ATOM      6  C4  PXY d   1      -5.269   4.145  -2.894  0.00  0.00    -0.082 A 
ATOM      7  C5  PXY d   1      -5.691   2.991  -2.334  0.00  0.00     0.003 A 
ATOM      8  C6  PXY d   1      -4.987   1.818  -2.588  0.00  0.00     0.003 A 
ENDROOT
TORSDOF 0
ENDMDL
