MODEL 1
REMARK minimizedAffinity 10.8048992
REMARK minimizedRMSD -1
REMARK  0 active torsions:
REMARK  status: ('A' for Active; 'I' for Inactive)
ROOT
ATOM      1  C4' PXY d   1      -4.671   3.589  -2.723  0.00  0.00     0.077 C 
ATOM      2  C1' PXY d   1      -0.514  -0.416  -3.038  0.00  0.00     0.077 C 
ATOM      3  C1  PXY d   1      -1.611   0.628  -2.964  0.00  0.00    -0.082 A 
ATOM      4  C2  PXY d   1      -1.329   1.842  -2.521  0.00  0.00     0.003 A 
ATOM      5  C3  PXY d   1      -2.316   2.789  -2.418  0.00  0.00     0.003 A 
ATOM      6  C4  PXY d   1      -3.593   2.506  -2.823  0.00  0.00    -0.082 A 
ATOM      7  C5  PXY d   1      -3.886   1.272  -3.286  0.00  0.00     0.003 A 
ATOM      8  C6  PXY d   1      -2.879   0.313  -3.344  0.00  0.00     0.003 A 
ENDROOT
TORSDOF 0
ENDMDL
