MODEL 1
REMARK minimizedAffinity -1.73732603
REMARK minimizedRMSD -1
REMARK  0 active torsions:
REMARK  status: ('A' for Active; 'I' for Inactive)
ROOT
ATOM      1  C4' PXY d   1      -1.724   0.874  -4.125  0.00  0.00     0.077 C 
ATOM      2  C1' PXY d   1      -5.997   4.510  -2.734  0.00  0.00     0.077 C 
ATOM      3  C1  PXY d   1      -4.880   3.549  -3.088  0.00  0.00    -0.082 A 
ATOM      4  C2  PXY d   1      -3.853   3.976  -3.806  0.00  0.00     0.003 A 
ATOM      5  C3  PXY d   1      -2.850   3.112  -4.163  0.00  0.00     0.003 A 
ATOM      6  C4  PXY d   1      -2.870   1.811  -3.735  0.00  0.00    -0.082 A 
ATOM      7  C5  PXY d   1      -3.909   1.371  -2.993  0.00  0.00     0.003 A 
ATOM      8  C6  PXY d   1      -4.938   2.253  -2.677  0.00  0.00     0.003 A 
ENDROOT
TORSDOF 0
ENDMDL
