MODEL 1
REMARK minimizedAffinity 1.13270724
REMARK minimizedRMSD -1
REMARK  0 active torsions:
REMARK  status: ('A' for Active; 'I' for Inactive)
ROOT
ATOM      1  C4' PXY d   1       1.131  -0.988  -5.266  0.00  0.00     0.077 C 
ATOM      2  C1' PXY d   1       4.627  -5.532  -6.000  0.00  0.00     0.077 C 
ATOM      3  C1  PXY d   1       3.719  -4.335  -5.799  0.00  0.00    -0.082 A 
ATOM      4  C2  PXY d   1       2.417  -4.461  -6.000  0.00  0.00     0.003 A 
ATOM      5  C3  PXY d   1       1.586  -3.380  -5.854  0.00  0.00     0.003 A 
ATOM      6  C4  PXY d   1       2.085  -2.172  -5.447  0.00  0.00    -0.082 A 
ATOM      7  C5  PXY d   1       3.410  -2.038  -5.230  0.00  0.00     0.003 A 
ATOM      8  C6  PXY d   1       4.243  -3.137  -5.424  0.00  0.00     0.003 A 
ENDROOT
TORSDOF 0
ENDMDL
