MODEL 1
REMARK minimizedAffinity 5.30130339
REMARK minimizedRMSD -1
REMARK  0 active torsions:
REMARK  status: ('A' for Active; 'I' for Inactive)
ROOT
ATOM      1  C4' PXY d   1       4.474  -5.988  -3.956  0.00  0.00     0.077 C 
ATOM      2  C1' PXY d   1       5.997  -0.743  -5.849  0.00  0.00     0.077 C 
ATOM      3  C1  PXY d   1       5.596  -2.114  -5.341  0.00  0.00    -0.082 A 
ATOM      4  C2  PXY d   1       6.000  -3.196  -5.988  0.00  0.00     0.003 A 
ATOM      5  C3  PXY d   1       5.620  -4.442  -5.560  0.00  0.00     0.003 A 
ATOM      6  C4  PXY d   1       4.863  -4.585  -4.428  0.00  0.00    -0.082 A 
ATOM      7  C5  PXY d   1       4.456  -3.486  -3.756  0.00  0.00     0.003 A 
ATOM      8  C6  PXY d   1       4.818  -2.229  -4.230  0.00  0.00     0.003 A 
ENDROOT
TORSDOF 0
ENDMDL
