MODEL 1
REMARK minimizedAffinity 5.66839361
REMARK minimizedRMSD -1
REMARK  0 active torsions:
REMARK  status: ('A' for Active; 'I' for Inactive)
ROOT
ATOM      1  C4' PXY d   1      -5.649   4.927  -2.514  0.00  0.00     0.077 C 
ATOM      2  C1' PXY d   1      -2.241   0.293  -3.087  0.00  0.00     0.077 C 
ATOM      3  C1  PXY d   1      -3.128   1.514  -2.946  0.00  0.00    -0.082 A 
ATOM      4  C2  PXY d   1      -3.762   1.734  -1.806  0.00  0.00     0.003 A 
ATOM      5  C3  PXY d   1      -4.593   2.816  -1.672  0.00  0.00     0.003 A 
ATOM      6  C4  PXY d   1      -4.736   3.712  -2.698  0.00  0.00    -0.082 A 
ATOM      7  C5  PXY d   1      -4.084   3.500  -3.861  0.00  0.00     0.003 A 
ATOM      8  C6  PXY d   1      -3.277   2.373  -3.991  0.00  0.00     0.003 A 
ENDROOT
TORSDOF 0
ENDMDL
