MODEL 1
REMARK minimizedAffinity 13.8311119
REMARK minimizedRMSD -1
REMARK  0 active torsions:
REMARK  status: ('A' for Active; 'I' for Inactive)
ROOT
ATOM      1  C4' PXY d   1      -1.188  -0.590  -1.341  0.00  0.00     0.077 C 
ATOM      2  C1' PXY d   1      -4.443   3.753  -3.332  0.00  0.00     0.077 C 
ATOM      3  C1  PXY d   1      -3.597   2.605  -2.817  0.00  0.00    -0.082 A 
ATOM      4  C2  PXY d   1      -2.911   2.751  -1.694  0.00  0.00     0.003 A 
ATOM      5  C3  PXY d   1      -2.116   1.735  -1.230  0.00  0.00     0.003 A 
ATOM      6  C4  PXY d   1      -2.063   0.538  -1.894  0.00  0.00    -0.082 A 
ATOM      7  C5  PXY d   1      -2.768   0.378  -3.034  0.00  0.00     0.003 A 
ATOM      8  C6  PXY d   1      -3.537   1.436  -3.510  0.00  0.00     0.003 A 
ENDROOT
TORSDOF 0
ENDMDL
