MODEL 1
REMARK minimizedAffinity 4.29250336
REMARK minimizedRMSD -1
REMARK  0 active torsions:
REMARK  status: ('A' for Active; 'I' for Inactive)
ROOT
ATOM      1  C4' PXY d   1       2.221  -2.053  -4.046  0.00  0.00     0.077 C 
ATOM      2  C1' PXY d   1       5.968  -5.997  -6.000  0.00  0.00     0.077 C 
ATOM      3  C1  PXY d   1       4.995  -4.954  -5.489  0.00  0.00    -0.082 A 
ATOM      4  C2  PXY d   1       3.986  -5.323  -4.717  0.00  0.00     0.003 A 
ATOM      5  C3  PXY d   1       3.077  -4.397  -4.272  0.00  0.00     0.003 A 
ATOM      6  C4  PXY d   1       3.234  -3.071  -4.577  0.00  0.00    -0.082 A 
ATOM      7  C5  PXY d   1       4.267  -2.685  -5.356  0.00  0.00     0.003 A 
ATOM      8  C6  PXY d   1       5.154  -3.646  -5.831  0.00  0.00     0.003 A 
ENDROOT
TORSDOF 0
ENDMDL
