MODEL 1
REMARK minimizedAffinity -3.32664156
REMARK minimizedRMSD -1
REMARK  0 active torsions:
REMARK  status: ('A' for Active; 'I' for Inactive)
ROOT
ATOM      1  C   UNL d   1      -0.110   0.617  -0.128  0.00  0.00     0.078 C 
ATOM      2  C1  UNL d   1      -1.517   0.897   0.309  0.00  0.00    -0.077 A 
ATOM      3  C2  UNL d   1      -2.598   0.671  -0.552  0.00  0.00    -0.001 A 
ATOM      4  C3  UNL d   1      -3.901   0.946  -0.136  0.00  0.00     0.003 A 
ATOM      5  C4  UNL d   1      -4.136   1.450   1.142  0.00  0.00    -0.005 A 
ATOM      6  C5  UNL d   1      -3.067   1.681   2.005  0.00  0.00     0.003 A 
ATOM      7  C6  UNL d   1      -1.762   1.407   1.590  0.00  0.00    -0.001 A 
ENDROOT
TORSDOF 0
ENDMDL
