MODEL 1
REMARK minimizedAffinity 0.233791381
REMARK minimizedRMSD -1
REMARK  0 active torsions:
REMARK  status: ('A' for Active; 'I' for Inactive)
ROOT
ATOM      1  C   UNL d   1       1.669  -2.853  -0.070  0.00  0.00     0.078 C 
ATOM      2  C1  UNL d   1       2.240  -1.549   0.400  0.00  0.00    -0.077 A 
ATOM      3  C2  UNL d   1       3.255  -1.512   1.364  0.00  0.00    -0.001 A 
ATOM      4  C3  UNL d   1       3.771  -0.290   1.799  0.00  0.00     0.003 A 
ATOM      5  C4  UNL d   1       3.278   0.904   1.276  0.00  0.00    -0.005 A 
ATOM      6  C5  UNL d   1       2.267   0.877   0.318  0.00  0.00     0.003 A 
ATOM      7  C6  UNL d   1       1.749  -0.344  -0.118  0.00  0.00    -0.001 A 
ENDROOT
TORSDOF 0
ENDMDL
