MODEL 1
REMARK minimizedAffinity -4.77881193
REMARK minimizedRMSD -1
REMARK  0 active torsions:
REMARK  status: ('A' for Active; 'I' for Inactive)
ROOT
ATOM      1  C   UNL d   1       2.539  -1.783   0.467  0.00  0.00     0.078 C 
ATOM      2  C1  UNL d   1       1.432  -0.851   0.072  0.00  0.00    -0.077 A 
ATOM      3  C2  UNL d   1       0.358  -1.297  -0.708  0.00  0.00    -0.001 A 
ATOM      4  C3  UNL d   1      -0.660  -0.416  -1.076  0.00  0.00     0.003 A 
ATOM      5  C4  UNL d   1      -0.614   0.916  -0.669  0.00  0.00    -0.005 A 
ATOM      6  C5  UNL d   1       0.452   1.369   0.105  0.00  0.00     0.003 A 
ATOM      7  C6  UNL d   1       1.471   0.490   0.474  0.00  0.00    -0.001 A 
ENDROOT
TORSDOF 0
ENDMDL
