MODEL 1
REMARK minimizedAffinity -4.14573097
REMARK minimizedRMSD -1
REMARK  0 active torsions:
REMARK  status: ('A' for Active; 'I' for Inactive)
ROOT
ATOM      1  C   UNL d   1       2.128  -1.730   0.160  0.00  0.00     0.078 C 
ATOM      2  C1  UNL d   1       1.088  -0.688  -0.125  0.00  0.00    -0.077 A 
ATOM      3  C2  UNL d   1      -0.247  -1.046  -0.354  0.00  0.00    -0.001 A 
ATOM      4  C3  UNL d   1      -1.203  -0.066  -0.628  0.00  0.00     0.003 A 
ATOM      5  C4  UNL d   1      -0.834   1.277  -0.676  0.00  0.00    -0.005 A 
ATOM      6  C5  UNL d   1       0.491   1.642  -0.452  0.00  0.00     0.003 A 
ATOM      7  C6  UNL d   1       1.449   0.664  -0.178  0.00  0.00    -0.001 A 
ENDROOT
TORSDOF 0
ENDMDL
