MODEL 1
REMARK minimizedAffinity -4.13242149
REMARK minimizedRMSD -1
REMARK  0 active torsions:
REMARK  status: ('A' for Active; 'I' for Inactive)
ROOT
ATOM      1  C   UNL d   1      -1.603   1.452  -0.244  0.00  0.00     0.078 C 
ATOM      2  C1  UNL d   1      -0.505   0.430  -0.249  0.00  0.00    -0.077 A 
ATOM      3  C2  UNL d   1      -0.578  -0.702  -1.069  0.00  0.00    -0.001 A 
ATOM      4  C3  UNL d   1       0.446  -1.651  -1.056  0.00  0.00     0.003 A 
ATOM      5  C4  UNL d   1       1.550  -1.477  -0.223  0.00  0.00    -0.005 A 
ATOM      6  C5  UNL d   1       1.630  -0.354   0.598  0.00  0.00     0.003 A 
ATOM      7  C6  UNL d   1       0.607   0.595   0.586  0.00  0.00    -0.001 A 
ENDROOT
TORSDOF 0
ENDMDL
