MODEL 1
REMARK minimizedAffinity -3.99829531
REMARK minimizedRMSD -1
REMARK  0 active torsions:
REMARK  status: ('A' for Active; 'I' for Inactive)
ROOT
ATOM      1  C   UNL d   1      -1.265   0.686  -0.510  0.00  0.00     0.078 C 
ATOM      2  C1  UNL d   1       0.023   0.004  -0.160  0.00  0.00    -0.077 A 
ATOM      3  C2  UNL d   1       0.352  -1.242  -0.708  0.00  0.00    -0.001 A 
ATOM      4  C3  UNL d   1       1.551  -1.870  -0.365  0.00  0.00     0.003 A 
ATOM      5  C4  UNL d   1       2.430  -1.260   0.527  0.00  0.00    -0.005 A 
ATOM      6  C5  UNL d   1       2.111  -0.022   1.079  0.00  0.00     0.003 A 
ATOM      7  C6  UNL d   1       0.912   0.608   0.738  0.00  0.00    -0.001 A 
ENDROOT
TORSDOF 0
ENDMDL
