MODEL 1
REMARK minimizedAffinity -3.99577117
REMARK minimizedRMSD -1
REMARK  0 active torsions:
REMARK  status: ('A' for Active; 'I' for Inactive)
ROOT
ATOM      1  C   UNL d   1       3.039  -1.281   0.525  0.00  0.00     0.078 C 
ATOM      2  C1  UNL d   1       1.904  -0.327   0.301  0.00  0.00    -0.077 A 
ATOM      3  C2  UNL d   1       2.101   1.057   0.372  0.00  0.00    -0.001 A 
ATOM      4  C3  UNL d   1       1.034   1.933   0.171  0.00  0.00     0.003 A 
ATOM      5  C4  UNL d   1      -0.239   1.435  -0.100  0.00  0.00    -0.005 A 
ATOM      6  C5  UNL d   1      -0.445   0.058  -0.170  0.00  0.00     0.003 A 
ATOM      7  C6  UNL d   1       0.621  -0.819   0.031  0.00  0.00    -0.001 A 
ENDROOT
TORSDOF 0
ENDMDL
