MODEL 1
REMARK minimizedAffinity -4.05017805
REMARK minimizedRMSD -1
REMARK  2 active torsions:
REMARK  status: ('A' for Active; 'I' for Inactive)
REMARK    1  A    between atoms: C2'_3  and  C1'_4 
REMARK    2  A    between atoms: C1'_4  and  C1_5 
ROOT
ATOM      1  C1  I4B d   1       0.234  -0.401  -0.321  0.00  0.00    -0.075 A 
ATOM      2  C2  I4B d   1       0.361  -0.709   1.011  0.00  0.00     0.003 A 
ATOM      3  C3  I4B d   1      -0.411  -0.021   1.978  0.00  0.00     0.002 A 
ATOM      4  C4  I4B d   1      -1.256   0.994   1.577  0.00  0.00    -0.004 A 
ATOM      5  C5  I4B d   1      -1.400   1.289   0.225  0.00  0.00     0.002 A 
ATOM      6  C6  I4B d   1      -0.660   0.579  -0.732  0.00  0.00     0.003 A 
ENDROOT
BRANCH   1   7
ATOM      7  C1' I4B d   1       1.089  -1.124  -1.312  0.00  0.00     0.060 C 
BRANCH   7   8
ATOM      8  C2' I4B d   1       0.725  -2.594  -1.259  0.00  0.00    -0.013 C 
ATOM      9  C4' I4B d   1       0.102  -3.049  -2.552  0.00  0.00     0.013 C 
ATOM     10  C3' I4B d   1       1.973  -3.369  -0.957  0.00  0.00     0.013 C 
ENDBRANCH   7   8
ENDBRANCH   1   7
TORSDOF 2
ENDMDL
