MODEL 1
REMARK minimizedAffinity -2.80775499
REMARK minimizedRMSD -1
REMARK  2 active torsions:
REMARK  status: ('A' for Active; 'I' for Inactive)
REMARK    1  A    between atoms: C2'_3  and  C1'_4 
REMARK    2  A    between atoms: C1'_4  and  C1_5 
ROOT
ATOM      1  C1  I4B d   1      -1.188   0.774   1.078  0.00  0.00    -0.075 A 
ATOM      2  C2  I4B d   1      -0.391  -0.278   1.458  0.00  0.00     0.003 A 
ATOM      3  C3  I4B d   1       0.190  -0.301   2.749  0.00  0.00     0.002 A 
ATOM      4  C4  I4B d   1      -0.009   0.765   3.603  0.00  0.00    -0.004 A 
ATOM      5  C5  I4B d   1      -0.835   1.819   3.224  0.00  0.00     0.002 A 
ATOM      6  C6  I4B d   1      -1.438   1.818   1.959  0.00  0.00     0.003 A 
ENDROOT
BRANCH   1   7
ATOM      7  C1' I4B d   1      -1.759   0.782  -0.304  0.00  0.00     0.060 C 
BRANCH   7   8
ATOM      8  C2' I4B d   1      -0.606   0.853  -1.285  0.00  0.00    -0.013 C 
ATOM      9  C4' I4B d   1       0.099   2.181  -1.203  0.00  0.00     0.013 C 
ATOM     10  C3' I4B d   1       0.331  -0.278  -0.981  0.00  0.00     0.013 C 
ENDBRANCH   7   8
ENDBRANCH   1   7
TORSDOF 2
ENDMDL
