MODEL 1
REMARK minimizedAffinity -1.67077804
REMARK minimizedRMSD -1
REMARK  2 active torsions:
REMARK  status: ('A' for Active; 'I' for Inactive)
REMARK    1  A    between atoms: C2'_3  and  C1'_4 
REMARK    2  A    between atoms: C1'_4  and  C1_5 
ROOT
ATOM      1  C1  I4B d   1       0.002  -0.174  -0.122  0.00  0.00    -0.075 A 
ATOM      2  C2  I4B d   1      -0.939   0.744  -0.520  0.00  0.00     0.003 A 
ATOM      3  C3  I4B d   1      -1.693   1.454   0.445  0.00  0.00     0.002 A 
ATOM      4  C4  I4B d   1      -1.512   1.182   1.785  0.00  0.00    -0.004 A 
ATOM      5  C5  I4B d   1      -0.542   0.268   2.187  0.00  0.00     0.002 A 
ATOM      6  C6  I4B d   1       0.229  -0.405   1.228  0.00  0.00     0.003 A 
ENDROOT
BRANCH   1   7
ATOM      7  C1' I4B d   1       0.758  -0.930  -1.168  0.00  0.00     0.060 C 
BRANCH   7   8
ATOM      8  C2' I4B d   1      -0.097  -2.102  -1.606  0.00  0.00    -0.013 C 
ATOM      9  C4' I4B d   1      -0.222  -2.156  -3.106  0.00  0.00     0.013 C 
ATOM     10  C3' I4B d   1       0.527  -3.356  -1.069  0.00  0.00     0.013 C 
ENDBRANCH   7   8
ENDBRANCH   1   7
TORSDOF 2
ENDMDL
