MODEL 1
REMARK minimizedAffinity -2.60035801
REMARK minimizedRMSD -1
REMARK  2 active torsions:
REMARK  status: ('A' for Active; 'I' for Inactive)
REMARK    1  A    between atoms: C2'_3  and  C1'_4 
REMARK    2  A    between atoms: C1'_4  and  C1_5 
ROOT
ATOM      1  C1  I4B d   1      -0.870   0.652   1.065  0.00  0.00    -0.075 A 
ATOM      2  C2  I4B d   1      -0.434   0.950  -0.203  0.00  0.00     0.003 A 
ATOM      3  C3  I4B d   1       0.663   0.251  -0.762  0.00  0.00     0.002 A 
ATOM      4  C4  I4B d   1       1.322  -0.696  -0.005  0.00  0.00    -0.004 A 
ATOM      5  C5  I4B d   1       0.865  -1.012   1.271  0.00  0.00     0.002 A 
ATOM      6  C6  I4B d   1      -0.245  -0.343   1.805  0.00  0.00     0.003 A 
ENDROOT
BRANCH   1   7
ATOM      7  C1' I4B d   1      -2.010   1.433   1.637  0.00  0.00     0.060 C 
BRANCH   7   8
ATOM      8  C2' I4B d   1      -1.578   2.881   1.744  0.00  0.00    -0.013 C 
ATOM      9  C4' I4B d   1      -2.766   3.796   1.881  0.00  0.00     0.013 C 
ATOM     10  C3' I4B d   1      -0.661   3.004   2.924  0.00  0.00     0.013 C 
ENDBRANCH   7   8
ENDBRANCH   1   7
TORSDOF 2
ENDMDL
