MODEL 1
REMARK minimizedAffinity -4.96883392
REMARK minimizedRMSD -1
REMARK  2 active torsions:
REMARK  status: ('A' for Active; 'I' for Inactive)
REMARK    1  A    between atoms: C2'_3  and  C1'_4 
REMARK    2  A    between atoms: C1'_4  and  C1_5 
ROOT
ATOM      1  C1  I4B d   1       0.241  -0.168  -0.087  0.00  0.00    -0.075 A 
ATOM      2  C2  I4B d   1      -0.388   0.882  -0.709  0.00  0.00     0.003 A 
ATOM      3  C3  I4B d   1      -1.323   1.673   0.000  0.00  0.00     0.002 A 
ATOM      4  C4  I4B d   1      -1.635   1.352   1.305  0.00  0.00    -0.004 A 
ATOM      5  C5  I4B d   1      -0.979   0.301   1.941  0.00  0.00     0.002 A 
ATOM      6  C6  I4B d   1      -0.026  -0.456   1.245  0.00  0.00     0.003 A 
ENDROOT
BRANCH   1   7
ATOM      7  C1' I4B d   1       1.198  -1.004  -0.876  0.00  0.00     0.060 C 
BRANCH   7   8
ATOM      8  C2' I4B d   1       0.476  -2.267  -1.300  0.00  0.00    -0.013 C 
ATOM      9  C4' I4B d   1       0.271  -2.303  -2.791  0.00  0.00     0.013 C 
ATOM     10  C3' I4B d   1       1.285  -3.441  -0.836  0.00  0.00     0.013 C 
ENDBRANCH   7   8
ENDBRANCH   1   7
TORSDOF 2
ENDMDL
