MODEL 1
REMARK minimizedAffinity -4.04505873
REMARK minimizedRMSD -1
REMARK  2 active torsions:
REMARK  status: ('A' for Active; 'I' for Inactive)
REMARK    1  A    between atoms: C2'_3  and  C1'_4 
REMARK    2  A    between atoms: C1'_4  and  C1_5 
ROOT
ATOM      1  C1  I4B d   1       0.017  -0.710   0.274  0.00  0.00    -0.075 A 
ATOM      2  C2  I4B d   1       0.432   0.365  -0.472  0.00  0.00     0.003 A 
ATOM      3  C3  I4B d   1       1.179   0.163  -1.658  0.00  0.00     0.002 A 
ATOM      4  C4  I4B d   1       1.530  -1.118  -2.031  0.00  0.00    -0.004 A 
ATOM      5  C5  I4B d   1       1.088  -2.208  -1.286  0.00  0.00     0.002 A 
ATOM      6  C6  I4B d   1       0.317  -2.003  -0.133  0.00  0.00     0.003 A 
ENDROOT
BRANCH   1   7
ATOM      7  C1' I4B d   1      -0.741  -0.459   1.538  0.00  0.00     0.060 C 
BRANCH   7   8
ATOM      8  C2' I4B d   1      -1.113   1.009   1.577  0.00  0.00    -0.013 C 
ATOM      9  C4' I4B d   1      -2.587   1.205   1.338  0.00  0.00     0.013 C 
ATOM     10  C3' I4B d   1      -0.704   1.556   2.912  0.00  0.00     0.013 C 
ENDBRANCH   7   8
ENDBRANCH   1   7
TORSDOF 2
ENDMDL
