MODEL 1
REMARK minimizedAffinity -4.70151281
REMARK minimizedRMSD -1
REMARK  2 active torsions:
REMARK  status: ('A' for Active; 'I' for Inactive)
REMARK    1  A    between atoms: C2'_3  and  C1'_4 
REMARK    2  A    between atoms: C1'_4  and  C1_5 
ROOT
ATOM      1  C1  I4B d   1       0.190  -0.074   0.305  0.00  0.00    -0.075 A 
ATOM      2  C2  I4B d   1      -1.015   0.536   0.061  0.00  0.00     0.003 A 
ATOM      3  C3  I4B d   1      -1.822   0.976   1.138  0.00  0.00     0.002 A 
ATOM      4  C4  I4B d   1      -1.411   0.742   2.435  0.00  0.00    -0.004 A 
ATOM      5  C5  I4B d   1      -0.178   0.144   2.680  0.00  0.00     0.002 A 
ATOM      6  C6  I4B d   1       0.634  -0.255   1.608  0.00  0.00     0.003 A 
ENDROOT
BRANCH   1   7
ATOM      7  C1' I4B d   1       1.002  -0.556  -0.856  0.00  0.00     0.060 C 
BRANCH   7   8
ATOM      8  C2' I4B d   1       0.669  -2.016  -1.084  0.00  0.00    -0.013 C 
ATOM      9  C4' I4B d   1      -0.048  -2.214  -2.393  0.00  0.00     0.013 C 
ATOM     10  C3' I4B d   1       1.950  -2.794  -1.046  0.00  0.00     0.013 C 
ENDBRANCH   7   8
ENDBRANCH   1   7
TORSDOF 2
ENDMDL
