MODEL 1
REMARK minimizedAffinity -2.21150732
REMARK minimizedRMSD -1
REMARK  2 active torsions:
REMARK  status: ('A' for Active; 'I' for Inactive)
REMARK    1  A    between atoms: C2'_3  and  C1'_4 
REMARK    2  A    between atoms: C1'_4  and  C1_5 
ROOT
ATOM      1  C1  I4B d   1       0.604  -0.692   0.015  0.00  0.00    -0.075 A 
ATOM      2  C2  I4B d   1       0.193   0.309  -0.830  0.00  0.00     0.003 A 
ATOM      3  C3  I4B d   1      -0.710   1.301  -0.375  0.00  0.00     0.002 A 
ATOM      4  C4  I4B d   1      -1.213   1.225   0.908  0.00  0.00    -0.004 A 
ATOM      5  C5  I4B d   1      -0.778   0.222   1.770  0.00  0.00     0.002 A 
ATOM      6  C6  I4B d   1       0.145  -0.735   1.325  0.00  0.00     0.003 A 
ENDROOT
BRANCH   1   7
ATOM      7  C1' I4B d   1       1.532  -1.741  -0.508  0.00  0.00     0.060 C 
BRANCH   7   8
ATOM      8  C2' I4B d   1       0.746  -3.028  -0.656  0.00  0.00    -0.013 C 
ATOM      9  C4' I4B d   1       0.561  -3.389  -2.107  0.00  0.00     0.013 C 
ATOM     10  C3' I4B d   1       1.482  -4.107   0.081  0.00  0.00     0.013 C 
ENDBRANCH   7   8
ENDBRANCH   1   7
TORSDOF 2
ENDMDL
