MODEL 1
REMARK minimizedAffinity -1.24449027
REMARK minimizedRMSD -1
REMARK  0 active torsions:
REMARK  status: ('A' for Active; 'I' for Inactive)
ROOT
ATOM      1  N1  IND d   1       1.132  -1.145   0.790  0.00  0.00    -0.196 N 
ATOM      2  C2  IND d   1       1.551  -1.058   2.089  0.00  0.00     0.054 A 
ATOM      3  C3  IND d   1       0.525  -0.692   2.890  0.00  0.00    -0.031 A 
ATOM      4  C4  IND d   1      -1.946  -0.282   2.299  0.00  0.00     0.051 A 
ATOM      5  C5  IND d   1      -2.801  -0.206   1.235  0.00  0.00    -0.031 A 
ATOM      6  C6  IND d   1      -2.380  -0.446  -0.057  0.00  0.00     0.015 A 
ATOM      7  C7  IND d   1      -1.086  -0.784  -0.333  0.00  0.00    -0.016 A 
ATOM      8  C8  IND d   1      -0.214  -0.856   0.743  0.00  0.00    -0.047 A 
ATOM      9  C9  IND d   1      -0.625  -0.572   2.052  0.00  0.00    -0.096 A 
ATOM     10  HN1 IND d   1       1.627  -1.346   0.116  0.00  0.00     0.298 HD
ENDROOT
TORSDOF 0
ENDMDL
