MODEL 1
REMARK minimizedAffinity 9.18637371
REMARK minimizedRMSD -1
REMARK  0 active torsions:
REMARK  status: ('A' for Active; 'I' for Inactive)
ROOT
ATOM      1  N1  IND d   1      -3.879  -2.845   1.620  0.00  0.00    -0.196 N 
ATOM      2  C2  IND d   1      -4.075  -2.525   2.935  0.00  0.00     0.054 A 
ATOM      3  C3  IND d   1      -3.431  -1.376   3.240  0.00  0.00    -0.031 A 
ATOM      4  C4  IND d   1      -2.081   0.198   1.715  0.00  0.00     0.051 A 
ATOM      5  C5  IND d   1      -1.594   0.309   0.442  0.00  0.00    -0.031 A 
ATOM      6  C6  IND d   1      -1.851  -0.643  -0.522  0.00  0.00     0.015 A 
ATOM      7  C7  IND d   1      -2.618  -1.741  -0.253  0.00  0.00    -0.016 A 
ATOM      8  C8  IND d   1      -3.108  -1.861   1.040  0.00  0.00    -0.047 A 
ATOM      9  C9  IND d   1      -2.815  -0.919   2.035  0.00  0.00    -0.096 A 
ATOM     10  HN1 IND d   1      -4.185  -3.543   1.223  0.00  0.00     0.298 HD
ENDROOT
TORSDOF 0
ENDMDL
