MODEL 1
REMARK minimizedAffinity -3.07958293
REMARK minimizedRMSD -1
REMARK  0 active torsions:
REMARK  status: ('A' for Active; 'I' for Inactive)
ROOT
ATOM      1  N1  IND d   1       2.163  -1.640   3.510  0.00  0.00    -0.196 N 
ATOM      2  C2  IND d   1       1.779  -1.748   4.818  0.00  0.00     0.054 A 
ATOM      3  C3  IND d   1       0.532  -1.253   4.984  0.00  0.00    -0.031 A 
ATOM      4  C4  IND d   1      -1.101  -0.310   3.232  0.00  0.00     0.051 A 
ATOM      5  C5  IND d   1      -1.187   0.026   1.910  0.00  0.00    -0.031 A 
ATOM      6  C6  IND d   1      -0.140  -0.184   1.036  0.00  0.00     0.015 A 
ATOM      7  C7  IND d   1       1.033  -0.749   1.450  0.00  0.00    -0.016 A 
ATOM      8  C8  IND d   1       1.126  -1.085   2.793  0.00  0.00    -0.047 A 
ATOM      9  C9  IND d   1       0.082  -0.835   3.695  0.00  0.00    -0.096 A 
ATOM     10  HN1 IND d   1       2.924  -1.878   3.189  0.00  0.00     0.298 HD
ENDROOT
TORSDOF 0
ENDMDL
