MODEL 1
REMARK minimizedAffinity 3.75628233
REMARK minimizedRMSD -1
REMARK  0 active torsions:
REMARK  status: ('A' for Active; 'I' for Inactive)
ROOT
ATOM      1  N1  IND d   1       2.499  -1.400   3.254  0.00  0.00    -0.196 N 
ATOM      2  C2  IND d   1       2.042  -1.684   4.510  0.00  0.00     0.054 A 
ATOM      3  C3  IND d   1       0.708  -1.473   4.584  0.00  0.00    -0.031 A 
ATOM      4  C4  IND d   1      -0.940  -0.760   2.740  0.00  0.00     0.051 A 
ATOM      5  C5  IND d   1      -0.987  -0.351   1.437  0.00  0.00    -0.031 A 
ATOM      6  C6  IND d   1       0.148  -0.272   0.656  0.00  0.00     0.015 A 
ATOM      7  C7  IND d   1       1.376  -0.611   1.148  0.00  0.00    -0.016 A 
ATOM      8  C8  IND d   1       1.429  -1.020   2.473  0.00  0.00    -0.047 A 
ATOM      9  C9  IND d   1       0.286  -1.062   3.283  0.00  0.00    -0.096 A 
ATOM     10  HN1 IND d   1       3.317  -1.449   2.994  0.00  0.00     0.298 HD
ENDROOT
TORSDOF 0
ENDMDL
