MODEL 1
REMARK minimizedAffinity 2.88677192
REMARK minimizedRMSD -1
REMARK  0 active torsions:
REMARK  status: ('A' for Active; 'I' for Inactive)
ROOT
ATOM      1  N1  IND d   1       2.482  -1.339   3.135  0.00  0.00    -0.196 N 
ATOM      2  C2  IND d   1       2.171  -1.589   4.443  0.00  0.00     0.054 A 
ATOM      3  C3  IND d   1       0.854  -1.376   4.662  0.00  0.00    -0.031 A 
ATOM      4  C4  IND d   1      -0.995  -0.715   2.998  0.00  0.00     0.051 A 
ATOM      5  C5  IND d   1      -1.192  -0.342   1.698  0.00  0.00    -0.031 A 
ATOM      6  C6  IND d   1      -0.153  -0.284   0.791  0.00  0.00     0.015 A 
ATOM      7  C7  IND d   1       1.125  -0.609   1.150  0.00  0.00    -0.016 A 
ATOM      8  C8  IND d   1       1.329  -0.981   2.471  0.00  0.00    -0.047 A 
ATOM      9  C9  IND d   1       0.286  -1.001   3.406  0.00  0.00    -0.096 A 
ATOM     10  HN1 IND d   1       3.265  -1.396   2.786  0.00  0.00     0.298 HD
ENDROOT
TORSDOF 0
ENDMDL
