MODEL 1
REMARK minimizedAffinity -3.94485116
REMARK minimizedRMSD -1
REMARK  0 active torsions:
REMARK  status: ('A' for Active; 'I' for Inactive)
ROOT
ATOM      1  N1  IND d   1       2.765  -1.536   3.634  0.00  0.00    -0.196 N 
ATOM      2  C2  IND d   1       2.422  -1.794   4.933  0.00  0.00     0.054 A 
ATOM      3  C3  IND d   1       1.154  -1.393   5.173  0.00  0.00    -0.031 A 
ATOM      4  C4  IND d   1      -0.577  -0.384   3.556  0.00  0.00     0.051 A 
ATOM      5  C5  IND d   1      -0.717   0.072   2.275  0.00  0.00    -0.031 A 
ATOM      6  C6  IND d   1       0.317   0.012   1.363  0.00  0.00     0.015 A 
ATOM      7  C7  IND d   1       1.531  -0.519   1.696  0.00  0.00    -0.016 A 
ATOM      8  C8  IND d   1       1.678  -0.977   2.997  0.00  0.00    -0.047 A 
ATOM      9  C9  IND d   1       0.647  -0.880   3.940  0.00  0.00    -0.096 A 
ATOM     10  HN1 IND d   1       3.530  -1.695   3.276  0.00  0.00     0.298 HD
ENDROOT
TORSDOF 0
ENDMDL
