MODEL 1
REMARK minimizedAffinity 5.05435801
REMARK minimizedRMSD -1
REMARK  0 active torsions:
REMARK  status: ('A' for Active; 'I' for Inactive)
ROOT
ATOM      1  N1  IND d   1       1.967  -1.099   2.865  0.00  0.00    -0.196 N 
ATOM      2  C2  IND d   1       1.712  -1.399   4.174  0.00  0.00     0.054 A 
ATOM      3  C3  IND d   1       0.405  -1.200   4.457  0.00  0.00    -0.031 A 
ATOM      4  C4  IND d   1      -1.514  -0.483   2.899  0.00  0.00     0.051 A 
ATOM      5  C5  IND d   1      -1.766  -0.062   1.623  0.00  0.00    -0.031 A 
ATOM      6  C6  IND d   1      -0.767   0.035   0.676  0.00  0.00     0.015 A 
ATOM      7  C7  IND d   1       0.525  -0.299   0.968  0.00  0.00    -0.016 A 
ATOM      8  C8  IND d   1       0.786  -0.721   2.264  0.00  0.00    -0.047 A 
ATOM      9  C9  IND d   1      -0.216  -0.780   3.241  0.00  0.00    -0.096 A 
ATOM     10  HN1 IND d   1       2.735  -1.140   2.481  0.00  0.00     0.298 HD
ENDROOT
TORSDOF 0
ENDMDL
