MODEL 1
REMARK minimizedAffinity 3.93903852
REMARK minimizedRMSD -1
REMARK  0 active torsions:
REMARK  status: ('A' for Active; 'I' for Inactive)
ROOT
ATOM      1  N1  IND d   1       0.615  -1.088  -0.107  0.00  0.00    -0.196 N 
ATOM      2  C2  IND d   1       1.201  -0.760   1.084  0.00  0.00     0.054 A 
ATOM      3  C3  IND d   1       0.327  -0.091   1.870  0.00  0.00    -0.031 A 
ATOM      4  C4  IND d   1      -2.146   0.485   1.444  0.00  0.00     0.051 A 
ATOM      5  C5  IND d   1      -3.116   0.424   0.483  0.00  0.00    -0.031 A 
ATOM      6  C6  IND d   1      -2.889  -0.159  -0.747  0.00  0.00     0.015 A 
ATOM      7  C7  IND d   1      -1.680  -0.714  -1.059  0.00  0.00    -0.016 A 
ATOM      8  C8  IND d   1      -0.691  -0.648  -0.089  0.00  0.00    -0.047 A 
ATOM      9  C9  IND d   1      -0.902  -0.020   1.145  0.00  0.00    -0.096 A 
ATOM     10  HN1 IND d   1       0.997  -1.501  -0.757  0.00  0.00     0.298 HD
ENDROOT
TORSDOF 0
ENDMDL
