MODEL 1
REMARK minimizedAffinity 8.60692501
REMARK minimizedRMSD -1
REMARK  1 active torsions:
REMARK  status: ('A' for Active; 'I' for Inactive)
REMARK    1  A    between atoms: C3_4  and  O_7 
ROOT
ATOM      1  C   UNL d   1      -2.147  -3.593  -4.456  0.00  0.00    -0.033 A 
ATOM      2  C1  UNL d   1      -3.328  -4.123  -3.933  0.00  0.00     0.039 A 
ATOM      3  C2  UNL d   1      -4.563  -3.716  -4.441  0.00  0.00    -0.080 A 
ATOM      4  C3  UNL d   1      -4.604  -2.781  -5.471  0.00  0.00     0.150 A 
ATOM      5  C4  UNL d   1      -3.431  -2.251  -5.999  0.00  0.00    -0.007 A 
ATOM      6  C5  UNL d   1      -2.198  -2.658  -5.490  0.00  0.00     0.039 A 
ENDROOT
BRANCH   4   7
ATOM      7  O   UNL d   1      -5.786  -2.350  -5.996  0.00  0.00    -0.526 OA
ATOM      8  H5  UNL d   1      -6.511  -2.780  -5.513  0.00  0.00     0.418 HD
ENDBRANCH   4   7
TORSDOF 1
ENDMDL
