MODEL 1
REMARK minimizedAffinity 6.75133944
REMARK minimizedRMSD -1
REMARK  1 active torsions:
REMARK  status: ('A' for Active; 'I' for Inactive)
REMARK    1  A    between atoms: C3_4  and  O_7 
ROOT
ATOM      1  C   UNL d   1       1.792  -0.641  -1.113  0.00  0.00    -0.033 A 
ATOM      2  C1  UNL d   1       2.984   0.007  -0.784  0.00  0.00     0.039 A 
ATOM      3  C2  UNL d   1       3.993  -0.683  -0.109  0.00  0.00    -0.080 A 
ATOM      4  C3  UNL d   1       3.798  -2.020   0.229  0.00  0.00     0.150 A 
ATOM      5  C4  UNL d   1       2.614  -2.672  -0.099  0.00  0.00    -0.007 A 
ATOM      6  C5  UNL d   1       1.608  -1.981  -0.772  0.00  0.00     0.039 A 
ENDROOT
BRANCH   4   7
ATOM      7  O   UNL d   1       4.751  -2.733   0.892  0.00  0.00    -0.526 OA
ATOM      8  H5  UNL d   1       5.502  -2.145   1.078  0.00  0.00     0.418 HD
ENDBRANCH   4   7
TORSDOF 1
ENDMDL
