MODEL 1
REMARK minimizedAffinity 8.13131237
REMARK minimizedRMSD -1
REMARK  1 active torsions:
REMARK  status: ('A' for Active; 'I' for Inactive)
REMARK    1  A    between atoms: C3_4  and  O_7 
ROOT
ATOM      1  C   UNL d   1       3.096   0.536  -0.336  0.00  0.00    -0.033 A 
ATOM      2  C1  UNL d   1       4.080   0.088   0.547  0.00  0.00     0.039 A 
ATOM      3  C2  UNL d   1       4.192  -1.273   0.838  0.00  0.00    -0.080 A 
ATOM      4  C3  UNL d   1       3.317  -2.175   0.239  0.00  0.00     0.150 A 
ATOM      5  C4  UNL d   1       2.337  -1.736  -0.646  0.00  0.00    -0.007 A 
ATOM      6  C5  UNL d   1       2.225  -0.377  -0.934  0.00  0.00     0.039 A 
ENDROOT
BRANCH   4   7
ATOM      7  O   UNL d   1       3.386  -3.512   0.495  0.00  0.00    -0.526 OA
ATOM      8  H5  UNL d   1       4.091  -3.665   1.146  0.00  0.00     0.418 HD
ENDBRANCH   4   7
TORSDOF 1
ENDMDL
