MODEL 1
REMARK minimizedAffinity 2.65488982
REMARK minimizedRMSD -1
REMARK  1 active torsions:
REMARK  status: ('A' for Active; 'I' for Inactive)
REMARK    1  A    between atoms: C3_4  and  O_7 
ROOT
ATOM      1  C   UNL d   1       2.263   0.834  -1.339  0.00  0.00    -0.033 A 
ATOM      2  C1  UNL d   1       3.467   1.220  -0.749  0.00  0.00     0.039 A 
ATOM      3  C2  UNL d   1       4.249   0.281  -0.074  0.00  0.00    -0.080 A 
ATOM      4  C3  UNL d   1       3.817  -1.040   0.001  0.00  0.00     0.150 A 
ATOM      5  C4  UNL d   1       2.620  -1.433  -0.588  0.00  0.00    -0.007 A 
ATOM      6  C5  UNL d   1       1.840  -0.494  -1.260  0.00  0.00     0.039 A 
ENDROOT
BRANCH   4   7
ATOM      7  O   UNL d   1       4.545  -1.992   0.653  0.00  0.00    -0.526 OA
ATOM      8  H5  UNL d   1       5.332  -1.569   1.035  0.00  0.00     0.418 HD
ENDBRANCH   4   7
TORSDOF 1
ENDMDL
