MODEL 1
REMARK minimizedAffinity 8.8002739
REMARK minimizedRMSD -1
REMARK  1 active torsions:
REMARK  status: ('A' for Active; 'I' for Inactive)
REMARK    1  A    between atoms: C3_4  and  O_7 
ROOT
ATOM      1  C   UNL d   1       2.454   0.516  -0.447  0.00  0.00    -0.033 A 
ATOM      2  C1  UNL d   1       3.598   0.735   0.323  0.00  0.00     0.039 A 
ATOM      3  C2  UNL d   1       4.390  -0.344   0.721  0.00  0.00    -0.080 A 
ATOM      4  C3  UNL d   1       4.028  -1.634   0.342  0.00  0.00     0.150 A 
ATOM      5  C4  UNL d   1       2.892  -1.858  -0.428  0.00  0.00    -0.007 A 
ATOM      6  C5  UNL d   1       2.102  -0.780  -0.824  0.00  0.00     0.039 A 
ENDROOT
BRANCH   4   7
ATOM      7  O   UNL d   1       4.767  -2.719   0.711  0.00  0.00    -0.526 OA
ATOM      8  H5  UNL d   1       5.506  -2.414   1.264  0.00  0.00     0.418 HD
ENDBRANCH   4   7
TORSDOF 1
ENDMDL
