MODEL 1
REMARK minimizedAffinity 7.10892582
REMARK minimizedRMSD -1
REMARK  1 active torsions:
REMARK  status: ('A' for Active; 'I' for Inactive)
REMARK    1  A    between atoms: C3_4  and  O_7 
ROOT
ATOM      1  C   UNL d   1       0.408   1.524   2.267  0.00  0.00    -0.033 A 
ATOM      2  C1  UNL d   1      -0.646   2.017   3.038  0.00  0.00     0.039 A 
ATOM      3  C2  UNL d   1      -1.956   1.614   2.772  0.00  0.00    -0.080 A 
ATOM      4  C3  UNL d   1      -2.198   0.718   1.735  0.00  0.00     0.150 A 
ATOM      5  C4  UNL d   1      -1.152   0.219   0.965  0.00  0.00    -0.007 A 
ATOM      6  C5  UNL d   1       0.155   0.623   1.232  0.00  0.00     0.039 A 
ENDROOT
BRANCH   4   7
ATOM      7  O   UNL d   1      -3.460   0.299   1.435  0.00  0.00    -0.526 OA
ATOM      8  H5  UNL d   1      -4.083   0.748   2.030  0.00  0.00     0.418 HD
ENDBRANCH   4   7
TORSDOF 1
ENDMDL
