MODEL 1
REMARK minimizedAffinity 9.62076378
REMARK minimizedRMSD -1
REMARK  1 active torsions:
REMARK  status: ('A' for Active; 'I' for Inactive)
REMARK    1  A    between atoms: C3_4  and  O_7 
ROOT
ATOM      1  C   UNL d   1       0.300   1.682   2.454  0.00  0.00    -0.033 A 
ATOM      2  C1  UNL d   1      -0.120   0.481   3.027  0.00  0.00     0.039 A 
ATOM      3  C2  UNL d   1      -1.481   0.237   3.223  0.00  0.00    -0.080 A 
ATOM      4  C3  UNL d   1      -2.410   1.201   2.840  0.00  0.00     0.150 A 
ATOM      5  C4  UNL d   1      -1.998   2.398   2.264  0.00  0.00    -0.007 A 
ATOM      6  C5  UNL d   1      -0.639   2.640   2.071  0.00  0.00     0.039 A 
ENDROOT
BRANCH   4   7
ATOM      7  O   UNL d   1      -3.748   1.010   3.015  0.00  0.00    -0.526 OA
ATOM      8  H5  UNL d   1      -3.882   0.151   3.449  0.00  0.00     0.418 HD
ENDBRANCH   4   7
TORSDOF 1
ENDMDL
