MODEL 1
REMARK minimizedAffinity 10.5231409
REMARK minimizedRMSD -1
REMARK  1 active torsions:
REMARK  status: ('A' for Active; 'I' for Inactive)
REMARK    1  A    between atoms: C3_4  and  O_7 
ROOT
ATOM      1  C   UNL d   1       3.254   1.072   0.364  0.00  0.00    -0.033 A 
ATOM      2  C1  UNL d   1       2.120   0.340   0.010  0.00  0.00     0.039 A 
ATOM      3  C2  UNL d   1       0.975   0.393   0.807  0.00  0.00    -0.080 A 
ATOM      4  C3  UNL d   1       0.976   1.183   1.953  0.00  0.00     0.150 A 
ATOM      5  C4  UNL d   1       2.102   1.919   2.310  0.00  0.00    -0.007 A 
ATOM      6  C5  UNL d   1       3.245   1.863   1.513  0.00  0.00     0.039 A 
ENDROOT
BRANCH   4   7
ATOM      7  O   UNL d   1      -0.116   1.264   2.765  0.00  0.00    -0.526 OA
ATOM      8  H5  UNL d   1      -0.807   0.681   2.409  0.00  0.00     0.418 HD
ENDBRANCH   4   7
TORSDOF 1
ENDMDL
