MODEL 1
REMARK minimizedAffinity 4.10211039
REMARK minimizedRMSD -1
REMARK  1 active torsions:
REMARK  status: ('A' for Active; 'I' for Inactive)
REMARK    1  A    between atoms: C3_4  and  O_7 
ROOT
ATOM      1  C   UNL d   1      -0.818  -3.748  -2.620  0.00  0.00    -0.033 A 
ATOM      2  C1  UNL d   1      -0.870  -2.622  -3.444  0.00  0.00     0.039 A 
ATOM      3  C2  UNL d   1      -2.048  -2.308  -4.125  0.00  0.00    -0.080 A 
ATOM      4  C3  UNL d   1      -3.164  -3.126  -3.974  0.00  0.00     0.150 A 
ATOM      5  C4  UNL d   1      -3.120  -4.247  -3.152  0.00  0.00    -0.007 A 
ATOM      6  C5  UNL d   1      -1.943  -4.560  -2.473  0.00  0.00     0.039 A 
ENDROOT
BRANCH   4   7
ATOM      7  O   UNL d   1      -4.334  -2.863  -4.622  0.00  0.00    -0.526 OA
ATOM      8  H5  UNL d   1      -4.208  -2.074  -5.177  0.00  0.00     0.418 HD
ENDBRANCH   4   7
TORSDOF 1
ENDMDL
