MODEL 1
REMARK minimizedAffinity 3.28173614
REMARK minimizedRMSD -1
REMARK  1 active torsions:
REMARK  status: ('A' for Active; 'I' for Inactive)
REMARK    1  A    between atoms: C3_4  and  O_7 
ROOT
ATOM      1  C   UNL d   1       2.238   0.731  -0.693  0.00  0.00    -0.033 A 
ATOM      2  C1  UNL d   1       2.030  -0.538  -1.238  0.00  0.00     0.039 A 
ATOM      3  C2  UNL d   1       2.726  -1.639  -0.735  0.00  0.00    -0.080 A 
ATOM      4  C3  UNL d   1       3.625  -1.458   0.313  0.00  0.00     0.150 A 
ATOM      5  C4  UNL d   1       3.835  -0.197   0.863  0.00  0.00    -0.007 A 
ATOM      6  C5  UNL d   1       3.139   0.901   0.358  0.00  0.00     0.039 A 
ENDROOT
BRANCH   4   7
ATOM      7  O   UNL d   1       4.331  -2.501   0.834  0.00  0.00    -0.526 OA
ATOM      8  H5  UNL d   1       4.105  -3.305   0.336  0.00  0.00     0.418 HD
ENDBRANCH   4   7
TORSDOF 1
ENDMDL
