MODEL 1
REMARK minimizedAffinity 4.5191617
REMARK minimizedRMSD -1
REMARK  1 active torsions:
REMARK  status: ('A' for Active; 'I' for Inactive)
REMARK    1  A    between atoms: C3_4  and  O_7 
ROOT
ATOM      1  C   UNL d   1      -2.703   3.382  -5.999  0.00  0.00    -0.033 A 
ATOM      2  C1  UNL d   1      -1.881   2.892  -4.981  0.00  0.00     0.039 A 
ATOM      3  C2  UNL d   1      -1.445   3.743  -3.964  0.00  0.00    -0.080 A 
ATOM      4  C3  UNL d   1      -1.837   5.079  -3.975  0.00  0.00     0.150 A 
ATOM      5  C4  UNL d   1      -2.658   5.572  -4.984  0.00  0.00    -0.007 A 
ATOM      6  C5  UNL d   1      -3.092   4.722  -5.999  0.00  0.00     0.039 A 
ENDROOT
BRANCH   4   7
ATOM      7  O   UNL d   1      -1.433   5.948  -3.006  0.00  0.00    -0.526 OA
ATOM      8  H5  UNL d   1      -0.847   5.475  -2.392  0.00  0.00     0.418 HD
ENDBRANCH   4   7
TORSDOF 1
ENDMDL
