MODEL 1
REMARK minimizedAffinity 9.57948112
REMARK minimizedRMSD -1
REMARK  1 active torsions:
REMARK  status: ('A' for Active; 'I' for Inactive)
REMARK    1  A    between atoms: C3_4  and  O_7 
ROOT
ATOM      1  C   UNL d   1       0.005   1.554   1.843  0.00  0.00    -0.033 A 
ATOM      2  C1  UNL d   1       1.395   1.574   1.975  0.00  0.00     0.039 A 
ATOM      3  C2  UNL d   1       1.978   1.476   3.240  0.00  0.00    -0.080 A 
ATOM      4  C3  UNL d   1       1.163   1.357   4.362  0.00  0.00     0.150 A 
ATOM      5  C4  UNL d   1      -0.222   1.332   4.237  0.00  0.00    -0.007 A 
ATOM      6  C5  UNL d   1      -0.804   1.431   2.973  0.00  0.00     0.039 A 
ENDROOT
BRANCH   4   7
ATOM      7  O   UNL d   1       1.687   1.263   5.617  0.00  0.00    -0.526 OA
ATOM      8  H5  UNL d   1       2.655   1.323   5.551  0.00  0.00     0.418 HD
ENDBRANCH   4   7
TORSDOF 1
ENDMDL
