MODEL 1
REMARK minimizedAffinity 11.557374
REMARK minimizedRMSD -1
REMARK  1 active torsions:
REMARK  status: ('A' for Active; 'I' for Inactive)
REMARK    1  A    between atoms: C3_4  and  O_7 
ROOT
ATOM      1  C   UNL d   1      -1.106   3.736  -5.827  0.00  0.00    -0.033 A 
ATOM      2  C1  UNL d   1      -1.882   4.026  -4.703  0.00  0.00     0.039 A 
ATOM      3  C2  UNL d   1      -2.132   3.035  -3.752  0.00  0.00    -0.080 A 
ATOM      4  C3  UNL d   1      -1.601   1.761  -3.935  0.00  0.00     0.150 A 
ATOM      5  C4  UNL d   1      -0.823   1.467  -5.050  0.00  0.00    -0.007 A 
ATOM      6  C5  UNL d   1      -0.575   2.458  -6.000  0.00  0.00     0.039 A 
ENDROOT
BRANCH   4   7
ATOM      7  O   UNL d   1      -1.821   0.761  -3.036  0.00  0.00    -0.526 OA
ATOM      8  H5  UNL d   1      -2.398   1.101  -2.332  0.00  0.00     0.418 HD
ENDBRANCH   4   7
TORSDOF 1
ENDMDL
