MODEL 1
REMARK minimizedAffinity 13.3437405
REMARK minimizedRMSD -1
REMARK  1 active torsions:
REMARK  status: ('A' for Active; 'I' for Inactive)
REMARK    1  A    between atoms: C3_4  and  O_7 
ROOT
ATOM      1  C   UNL d   1      -0.163   1.339   2.233  0.00  0.00    -0.033 A 
ATOM      2  C1  UNL d   1      -1.127   0.397   1.868  0.00  0.00     0.039 A 
ATOM      3  C2  UNL d   1      -2.460   0.580   2.238  0.00  0.00    -0.080 A 
ATOM      4  C3  UNL d   1      -2.817   1.708   2.971  0.00  0.00     0.150 A 
ATOM      5  C4  UNL d   1      -1.863   2.653   3.335  0.00  0.00    -0.007 A 
ATOM      6  C5  UNL d   1      -0.531   2.468   2.965  0.00  0.00     0.039 A 
ENDROOT
BRANCH   4   7
ATOM      7  O   UNL d   1      -4.105   1.928   3.360  0.00  0.00    -0.526 OA
ATOM      8  H5  UNL d   1      -4.648   1.179   3.063  0.00  0.00     0.418 HD
ENDBRANCH   4   7
TORSDOF 1
ENDMDL
