MODEL 1
REMARK minimizedAffinity 10.9657316
REMARK minimizedRMSD -1
REMARK  1 active torsions:
REMARK  status: ('A' for Active; 'I' for Inactive)
REMARK    1  A    between atoms: C3_4  and  O_7 
ROOT
ATOM      1  C   UNL d   1       1.064  -0.217  -1.705  0.00  0.00    -0.033 A 
ATOM      2  C1  UNL d   1       1.128  -1.482  -2.292  0.00  0.00     0.039 A 
ATOM      3  C2  UNL d   1       1.803  -2.520  -1.648  0.00  0.00    -0.080 A 
ATOM      4  C3  UNL d   1       2.409  -2.281  -0.417  0.00  0.00     0.150 A 
ATOM      5  C4  UNL d   1       2.346  -1.025   0.176  0.00  0.00    -0.007 A 
ATOM      6  C5  UNL d   1       1.672   0.011  -0.470  0.00  0.00     0.039 A 
ENDROOT
BRANCH   4   7
ATOM      7  O   UNL d   1       3.084  -3.262   0.247  0.00  0.00    -0.526 OA
ATOM      8  H5  UNL d   1       3.069  -4.068  -0.295  0.00  0.00     0.418 HD
ENDBRANCH   4   7
TORSDOF 1
ENDMDL
