MODEL 1
REMARK minimizedAffinity 9.12748241
REMARK minimizedRMSD -1
REMARK  1 active torsions:
REMARK  status: ('A' for Active; 'I' for Inactive)
REMARK    1  A    between atoms: C3_4  and  O_7 
ROOT
ATOM      1  C   UNL d   1       2.760   0.667  -1.367  0.00  0.00    -0.033 A 
ATOM      2  C1  UNL d   1       2.285  -0.645  -1.402  0.00  0.00     0.039 A 
ATOM      3  C2  UNL d   1       2.951  -1.649  -0.697  0.00  0.00    -0.080 A 
ATOM      4  C3  UNL d   1       4.087  -1.328   0.041  0.00  0.00     0.150 A 
ATOM      5  C4  UNL d   1       4.563  -0.022   0.084  0.00  0.00    -0.007 A 
ATOM      6  C5  UNL d   1       3.898   0.979  -0.622  0.00  0.00     0.039 A 
ENDROOT
BRANCH   4   7
ATOM      7  O   UNL d   1       4.773  -2.275   0.742  0.00  0.00    -0.526 OA
ATOM      8  H5  UNL d   1       4.346  -3.136   0.596  0.00  0.00     0.418 HD
ENDBRANCH   4   7
TORSDOF 1
ENDMDL
