MODEL 1
REMARK minimizedAffinity 7.2703371
REMARK minimizedRMSD -1
REMARK  1 active torsions:
REMARK  status: ('A' for Active; 'I' for Inactive)
REMARK    1  A    between atoms: C3_4  and  O_7 
ROOT
ATOM      1  C   UNL d   1      -0.205   1.118   2.332  0.00  0.00    -0.033 A 
ATOM      2  C1  UNL d   1      -1.246   0.507   1.632  0.00  0.00     0.039 A 
ATOM      3  C2  UNL d   1      -2.569   0.703   2.033  0.00  0.00    -0.080 A 
ATOM      4  C3  UNL d   1      -2.836   1.512   3.135  0.00  0.00     0.150 A 
ATOM      5  C4  UNL d   1      -1.804   2.127   3.835  0.00  0.00    -0.007 A 
ATOM      6  C5  UNL d   1      -0.483   1.929   3.433  0.00  0.00     0.039 A 
ENDROOT
BRANCH   4   7
ATOM      7  O   UNL d   1      -4.111   1.729   3.567  0.00  0.00    -0.526 OA
ATOM      8  H5  UNL d   1      -4.718   1.218   3.005  0.00  0.00     0.418 HD
ENDBRANCH   4   7
TORSDOF 1
ENDMDL
