MODEL 1
REMARK minimizedAffinity 4.9433136
REMARK minimizedRMSD -1
REMARK  1 active torsions:
REMARK  status: ('A' for Active; 'I' for Inactive)
REMARK    1  A    between atoms: C3_4  and  O_7 
ROOT
ATOM      1  C   UNL d   1       2.298   1.084   1.336  0.00  0.00    -0.033 A 
ATOM      2  C1  UNL d   1       1.783   1.616   2.520  0.00  0.00     0.039 A 
ATOM      3  C2  UNL d   1       0.403   1.679   2.716  0.00  0.00    -0.080 A 
ATOM      4  C3  UNL d   1      -0.451   1.207   1.723  0.00  0.00     0.150 A 
ATOM      5  C4  UNL d   1       0.055   0.672   0.543  0.00  0.00    -0.007 A 
ATOM      6  C5  UNL d   1       1.434   0.610   0.348  0.00  0.00     0.039 A 
ENDROOT
BRANCH   4   7
ATOM      7  O   UNL d   1      -1.806   1.252   1.867  0.00  0.00    -0.526 OA
ATOM      8  H5  UNL d   1      -2.011   1.673   2.719  0.00  0.00     0.418 HD
ENDBRANCH   4   7
TORSDOF 1
ENDMDL
