MODEL 1
REMARK minimizedAffinity -3.93102527
REMARK minimizedRMSD -1
REMARK  0 active torsions:
REMARK  status: ('A' for Active; 'I' for Inactive)
ROOT
ATOM      1  C   UNL d   1       1.531  -1.960   3.127  0.00  0.00     0.077 C 
ATOM      2  C1  UNL d   1       1.381  -0.892   2.085  0.00  0.00    -0.074 A 
ATOM      3  C2  UNL d   1       2.362   0.090   1.915  0.00  0.00    -0.005 A 
ATOM      4  C3  UNL d   1       2.213   1.071   0.935  0.00  0.00     0.006 A 
ATOM      5  C4  UNL d   1       1.084   1.080   0.115  0.00  0.00    -0.005 A 
ATOM      6  C5  UNL d   1       0.093   0.105   0.269  0.00  0.00    -0.074 A 
ATOM      7  C6  UNL d   1      -1.122   0.094  -0.610  0.00  0.00     0.077 C 
ATOM      8  C7  UNL d   1       0.253  -0.882   1.252  0.00  0.00    -0.001 A 
ENDROOT
TORSDOF 0
ENDMDL
