MODEL 1
REMARK minimizedAffinity -4.41618586
REMARK minimizedRMSD -1
REMARK  0 active torsions:
REMARK  status: ('A' for Active; 'I' for Inactive)
ROOT
ATOM      1  C   UNL d   1      -1.721  -0.009  -0.413  0.00  0.00     0.077 C 
ATOM      2  C1  UNL d   1      -0.339   0.256   0.108  0.00  0.00    -0.074 A 
ATOM      3  C2  UNL d   1       0.358   1.411  -0.260  0.00  0.00    -0.005 A 
ATOM      4  C3  UNL d   1       1.638   1.649   0.240  0.00  0.00     0.006 A 
ATOM      5  C4  UNL d   1       2.234   0.735   1.110  0.00  0.00    -0.005 A 
ATOM      6  C5  UNL d   1       1.551  -0.426   1.489  0.00  0.00    -0.074 A 
ATOM      7  C6  UNL d   1       2.173  -1.414   2.432  0.00  0.00     0.077 C 
ATOM      8  C7  UNL d   1       0.262  -0.654   0.989  0.00  0.00    -0.001 A 
ENDROOT
TORSDOF 0
ENDMDL
