MODEL 1
REMARK minimizedAffinity -3.79908681
REMARK minimizedRMSD -1
REMARK  0 active torsions:
REMARK  status: ('A' for Active; 'I' for Inactive)
ROOT
ATOM      1  C   UNL d   1      -2.062   0.433  -1.416  0.00  0.00     0.077 C 
ATOM      2  C1  UNL d   1      -0.786   0.354  -0.632  0.00  0.00    -0.074 A 
ATOM      3  C2  UNL d   1       0.131   1.411  -0.643  0.00  0.00    -0.005 A 
ATOM      4  C3  UNL d   1       1.309   1.327   0.099  0.00  0.00     0.006 A 
ATOM      5  C4  UNL d   1       1.582   0.188   0.858  0.00  0.00    -0.005 A 
ATOM      6  C5  UNL d   1       0.677  -0.878   0.882  0.00  0.00    -0.074 A 
ATOM      7  C6  UNL d   1       0.950  -2.105   1.700  0.00  0.00     0.077 C 
ATOM      8  C7  UNL d   1      -0.508  -0.783   0.139  0.00  0.00    -0.001 A 
ENDROOT
TORSDOF 0
ENDMDL
