MODEL 1
REMARK minimizedAffinity -3.70955586
REMARK minimizedRMSD -1
REMARK  0 active torsions:
REMARK  status: ('A' for Active; 'I' for Inactive)
ROOT
ATOM      1  C   UNL d   1       1.843  -1.985   2.826  0.00  0.00     0.077 C 
ATOM      2  C1  UNL d   1       1.695  -0.906   1.795  0.00  0.00    -0.074 A 
ATOM      3  C2  UNL d   1       2.781  -0.101   1.436  0.00  0.00    -0.005 A 
ATOM      4  C3  UNL d   1       2.630   0.892   0.468  0.00  0.00     0.006 A 
ATOM      5  C4  UNL d   1       1.394   1.090  -0.149  0.00  0.00    -0.005 A 
ATOM      6  C5  UNL d   1       0.298   0.294   0.197  0.00  0.00    -0.074 A 
ATOM      7  C6  UNL d   1      -1.035   0.488  -0.463  0.00  0.00     0.077 C 
ATOM      8  C7  UNL d   1       0.459  -0.706   1.165  0.00  0.00    -0.001 A 
ENDROOT
TORSDOF 0
ENDMDL
