MODEL 1
REMARK minimizedAffinity -3.36560154
REMARK minimizedRMSD -1
REMARK  0 active torsions:
REMARK  status: ('A' for Active; 'I' for Inactive)
ROOT
ATOM      1  C   UNL d   1      -2.360   0.322  -1.485  0.00  0.00     0.077 C 
ATOM      2  C1  UNL d   1      -1.212  -0.003  -0.576  0.00  0.00    -0.074 A 
ATOM      3  C2  UNL d   1      -1.195  -1.189   0.165  0.00  0.00    -0.005 A 
ATOM      4  C3  UNL d   1      -0.116  -1.483   0.998  0.00  0.00     0.006 A 
ATOM      5  C4  UNL d   1       0.956  -0.595   1.099  0.00  0.00    -0.005 A 
ATOM      6  C5  UNL d   1       0.958   0.595   0.364  0.00  0.00    -0.074 A 
ATOM      7  C6  UNL d   1       2.107   1.555   0.453  0.00  0.00     0.077 C 
ATOM      8  C7  UNL d   1      -0.127   0.880  -0.476  0.00  0.00    -0.001 A 
ENDROOT
TORSDOF 0
ENDMDL
