MODEL 1
REMARK minimizedAffinity -1.45606506
REMARK minimizedRMSD -1
REMARK  0 active torsions:
REMARK  status: ('A' for Active; 'I' for Inactive)
ROOT
ATOM      1  C   UNL d   1       2.275  -1.160   2.608  0.00  0.00     0.077 C 
ATOM      2  C1  UNL d   1       1.681  -0.192   1.629  0.00  0.00    -0.074 A 
ATOM      3  C2  UNL d   1       2.356   0.982   1.279  0.00  0.00    -0.005 A 
ATOM      4  C3  UNL d   1       1.795   1.869   0.360  0.00  0.00     0.006 A 
ATOM      5  C4  UNL d   1       0.556   1.591  -0.218  0.00  0.00    -0.005 A 
ATOM      6  C5  UNL d   1      -0.133   0.421   0.119  0.00  0.00    -0.074 A 
ATOM      7  C6  UNL d   1      -1.462   0.103  -0.501  0.00  0.00     0.077 C 
ATOM      8  C7  UNL d   1       0.440  -0.468   1.038  0.00  0.00    -0.001 A 
ENDROOT
TORSDOF 0
ENDMDL
