MODEL 1
REMARK minimizedAffinity -3.38691425
REMARK minimizedRMSD -1
REMARK  0 active torsions:
REMARK  status: ('A' for Active; 'I' for Inactive)
ROOT
ATOM      1  C   UNL d   1       1.791   0.829   0.062  0.00  0.00     0.077 C 
ATOM      2  C1  UNL d   1       0.353   0.456  -0.139  0.00  0.00    -0.074 A 
ATOM      3  C2  UNL d   1      -0.523   0.357   0.948  0.00  0.00    -0.005 A 
ATOM      4  C3  UNL d   1      -1.861   0.018   0.744  0.00  0.00     0.006 A 
ATOM      5  C4  UNL d   1      -2.335  -0.225  -0.545  0.00  0.00    -0.005 A 
ATOM      6  C5  UNL d   1      -1.475  -0.130  -1.644  0.00  0.00    -0.074 A 
ATOM      7  C6  UNL d   1      -1.971  -0.379  -3.037  0.00  0.00     0.077 C 
ATOM      8  C7  UNL d   1      -0.134   0.218  -1.432  0.00  0.00    -0.001 A 
ENDROOT
TORSDOF 0
ENDMDL
