MODEL 1
REMARK minimizedAffinity 1.21933985
REMARK minimizedRMSD -1
REMARK  0 active torsions:
REMARK  status: ('A' for Active; 'I' for Inactive)
ROOT
ATOM      1  C   UNL d   1      -1.155   0.436  -0.475  0.00  0.00     0.077 C 
ATOM      2  C1  UNL d   1       0.161   0.392   0.245  0.00  0.00    -0.074 A 
ATOM      3  C2  UNL d   1       1.190   1.279  -0.085  0.00  0.00    -0.005 A 
ATOM      4  C3  UNL d   1       2.404   1.233   0.600  0.00  0.00     0.006 A 
ATOM      5  C4  UNL d   1       2.602   0.300   1.619  0.00  0.00    -0.005 A 
ATOM      6  C5  UNL d   1       1.584  -0.595   1.962  0.00  0.00    -0.074 A 
ATOM      7  C6  UNL d   1       1.776  -1.598   3.061  0.00  0.00     0.077 C 
ATOM      8  C7  UNL d   1       0.364  -0.538   1.275  0.00  0.00    -0.001 A 
ENDROOT
TORSDOF 0
ENDMDL
