MODEL 1
REMARK minimizedAffinity -3.77183414
REMARK minimizedRMSD -1
REMARK  0 active torsions:
REMARK  status: ('A' for Active; 'I' for Inactive)
ROOT
ATOM      1  C   UNL d   1       1.680  -2.225   2.871  0.00  0.00     0.077 C 
ATOM      2  C1  UNL d   1       1.406  -1.136   1.876  0.00  0.00    -0.074 A 
ATOM      3  C2  UNL d   1       2.235  -0.012   1.795  0.00  0.00    -0.005 A 
ATOM      4  C3  UNL d   1       1.974   0.988   0.858  0.00  0.00     0.006 A 
ATOM      5  C4  UNL d   1       0.883   0.875  -0.005  0.00  0.00    -0.005 A 
ATOM      6  C5  UNL d   1       0.044  -0.242   0.061  0.00  0.00    -0.074 A 
ATOM      7  C6  UNL d   1      -1.126  -0.385  -0.866  0.00  0.00     0.077 C 
ATOM      8  C7  UNL d   1       0.318  -1.247   1.000  0.00  0.00    -0.001 A 
ENDROOT
TORSDOF 0
ENDMDL
