MODEL 1
REMARK minimizedAffinity -2.86799932
REMARK minimizedRMSD -1
REMARK  0 active torsions:
REMARK  status: ('A' for Active; 'I' for Inactive)
ROOT
ATOM      1  C   UNL d   1       3.441   0.381   1.906  0.00  0.00     0.077 C 
ATOM      2  C1  UNL d   1       2.049   0.123   1.412  0.00  0.00    -0.074 A 
ATOM      3  C2  UNL d   1       1.361   1.084   0.664  0.00  0.00    -0.005 A 
ATOM      4  C3  UNL d   1       0.070   0.825   0.204  0.00  0.00     0.006 A 
ATOM      5  C4  UNL d   1      -0.546  -0.395   0.487  0.00  0.00    -0.005 A 
ATOM      6  C5  UNL d   1       0.127  -1.369   1.233  0.00  0.00    -0.074 A 
ATOM      7  C6  UNL d   1      -0.516  -2.689   1.537  0.00  0.00     0.077 C 
ATOM      8  C7  UNL d   1       1.427  -1.104   1.685  0.00  0.00    -0.001 A 
ENDROOT
TORSDOF 0
ENDMDL
