MODEL 1
REMARK minimizedAffinity -6.38730907
REMARK minimizedRMSD -1
REMARK  0 active torsions:
REMARK  status: ('A' for Active; 'I' for Inactive)
ROOT
ATOM      1  C   UNL d   1       0.890   0.772  -0.965  0.00  0.00     0.077 C 
ATOM      2  C1  UNL d   1       1.678   0.032   0.075  0.00  0.00    -0.074 A 
ATOM      3  C2  UNL d   1       2.991   0.404   0.381  0.00  0.00    -0.005 A 
ATOM      4  C3  UNL d   1       3.708  -0.288   1.357  0.00  0.00     0.006 A 
ATOM      5  C4  UNL d   1       3.121  -1.358   2.034  0.00  0.00    -0.005 A 
ATOM      6  C5  UNL d   1       1.809  -1.744   1.742  0.00  0.00    -0.074 A 
ATOM      7  C6  UNL d   1       1.160  -2.885   2.467  0.00  0.00     0.077 C 
ATOM      8  C7  UNL d   1       1.092  -1.039   0.765  0.00  0.00    -0.001 A 
ENDROOT
TORSDOF 0
ENDMDL
