MODEL 1
REMARK minimizedAffinity -2.28513479
REMARK minimizedRMSD -1
REMARK  0 active torsions:
REMARK  status: ('A' for Active; 'I' for Inactive)
ROOT
ATOM      1  C   UNL d   1      -2.262   0.661  -1.211  0.00  0.00     0.077 C 
ATOM      2  C1  UNL d   1      -1.129   0.131  -0.383  0.00  0.00    -0.074 A 
ATOM      3  C2  UNL d   1      -1.269  -1.049   0.355  0.00  0.00    -0.005 A 
ATOM      4  C3  UNL d   1      -0.204  -1.535   1.113  0.00  0.00     0.006 A 
ATOM      5  C4  UNL d   1       1.010  -0.847   1.141  0.00  0.00    -0.005 A 
ATOM      6  C5  UNL d   1       1.169   0.334   0.409  0.00  0.00    -0.074 A 
ATOM      7  C6  UNL d   1       2.470   1.081   0.420  0.00  0.00     0.077 C 
ATOM      8  C7  UNL d   1       0.096   0.812  -0.356  0.00  0.00    -0.001 A 
ENDROOT
TORSDOF 0
ENDMDL
