MODEL 1
REMARK minimizedAffinity 3.98116302
REMARK minimizedRMSD -1
REMARK  0 active torsions:
REMARK  status: ('A' for Active; 'I' for Inactive)
ROOT
ATOM      1  C   UNL d   1       1.211  -1.695   1.003  0.00  0.00    -0.002 A 
ATOM      2  C1  UNL d   1       1.591  -2.977   1.374  0.00  0.00     0.010 A 
ATOM      3  C2  UNL d   1       2.941  -3.316   1.477  0.00  0.00     0.041 A 
ATOM      4  C3  UNL d   1       3.913  -2.334   1.200  0.00  0.00    -0.075 A 
ATOM      5  S   UNL d   1       5.626  -2.521   1.262  0.00  0.00     0.015 SA
ATOM      6  C4  UNL d   1       5.894  -0.903   0.799  0.00  0.00     0.022 A 
ATOM      7  C5  UNL d   1       4.716  -0.222   0.598  0.00  0.00     0.026 A 
ATOM      8  C6  UNL d   1       3.555  -1.036   0.826  0.00  0.00    -0.082 A 
ATOM      9  C7  UNL d   1       2.178  -0.724   0.730  0.00  0.00     0.045 A 
ENDROOT
TORSDOF 0
ENDMDL
