MODEL 1
REMARK minimizedAffinity 6.71029186
REMARK minimizedRMSD -1
REMARK  0 active torsions:
REMARK  status: ('A' for Active; 'I' for Inactive)
ROOT
ATOM      1  C   UNL d   1       2.913  -2.987   0.846  0.00  0.00    -0.002 A 
ATOM      2  C1  UNL d   1       2.181  -4.166   0.818  0.00  0.00     0.010 A 
ATOM      3  C2  UNL d   1       0.901  -4.221   1.373  0.00  0.00     0.041 A 
ATOM      4  C3  UNL d   1       0.362  -3.059   1.959  0.00  0.00    -0.075 A 
ATOM      5  S   UNL d   1      -1.186  -2.890   2.699  0.00  0.00     0.015 SA
ATOM      6  C4  UNL d   1      -0.914  -1.249   3.068  0.00  0.00     0.022 A 
ATOM      7  C5  UNL d   1       0.323  -0.823   2.644  0.00  0.00     0.026 A 
ATOM      8  C6  UNL d   1       1.079  -1.859   1.998  0.00  0.00    -0.082 A 
ATOM      9  C7  UNL d   1       2.374  -1.836   1.428  0.00  0.00     0.045 A 
ENDROOT
TORSDOF 0
ENDMDL
