MODEL 1
REMARK minimizedAffinity 11.5754118
REMARK minimizedRMSD -1
REMARK  0 active torsions:
REMARK  status: ('A' for Active; 'I' for Inactive)
ROOT
ATOM      1  C   UNL d   1       2.718  -3.723   0.737  0.00  0.00    -0.002 A 
ATOM      2  C1  UNL d   1       2.614  -2.707  -0.202  0.00  0.00     0.010 A 
ATOM      3  C2  UNL d   1       1.805  -1.595   0.041  0.00  0.00     0.041 A 
ATOM      4  C3  UNL d   1       1.098  -1.519   1.257  0.00  0.00    -0.075 A 
ATOM      5  S   UNL d   1       0.049  -0.252   1.772  0.00  0.00     0.015 SA
ATOM      6  C4  UNL d   1      -0.285  -1.029   3.252  0.00  0.00     0.022 A 
ATOM      7  C5  UNL d   1       0.379  -2.227   3.367  0.00  0.00     0.026 A 
ATOM      8  C6  UNL d   1       1.188  -2.529   2.219  0.00  0.00    -0.082 A 
ATOM      9  C7  UNL d   1       2.015  -3.644   1.942  0.00  0.00     0.045 A 
ENDROOT
TORSDOF 0
ENDMDL
