MODEL 1
REMARK minimizedAffinity 2.70119643
REMARK minimizedRMSD -1
REMARK  0 active torsions:
REMARK  status: ('A' for Active; 'I' for Inactive)
ROOT
ATOM      1  C   UNL d   1      -0.910  -0.846   3.750  0.00  0.00    -0.002 A 
ATOM      2  C1  UNL d   1      -1.281   0.027   2.738  0.00  0.00     0.010 A 
ATOM      3  C2  UNL d   1      -0.749  -0.106   1.454  0.00  0.00     0.041 A 
ATOM      4  C3  UNL d   1       0.170  -1.144   1.202  0.00  0.00    -0.075 A 
ATOM      5  S   UNL d   1       0.951  -1.500  -0.294  0.00  0.00     0.015 SA
ATOM      6  C4  UNL d   1       1.794  -2.821   0.375  0.00  0.00     0.022 A 
ATOM      7  C5  UNL d   1       1.500  -3.000   1.706  0.00  0.00     0.026 A 
ATOM      8  C6  UNL d   1       0.559  -2.037   2.204  0.00  0.00    -0.082 A 
ATOM      9  C7  UNL d   1       0.002  -1.874   3.496  0.00  0.00     0.045 A 
ENDROOT
TORSDOF 0
ENDMDL
