MODEL 1
REMARK minimizedAffinity 5.76668978
REMARK minimizedRMSD -1
REMARK  0 active torsions:
REMARK  status: ('A' for Active; 'I' for Inactive)
ROOT
ATOM      1  C   UNL d   1      -1.184   1.036  -2.653  0.00  0.00    -0.002 A 
ATOM      2  C1  UNL d   1      -0.875   2.160  -1.899  0.00  0.00     0.010 A 
ATOM      3  C2  UNL d   1       0.000   3.128  -2.394  0.00  0.00     0.041 A 
ATOM      4  C3  UNL d   1       0.565   2.947  -3.672  0.00  0.00    -0.075 A 
ATOM      5  S   UNL d   1       1.662   4.001  -4.483  0.00  0.00     0.015 SA
ATOM      6  C4  UNL d   1       1.745   2.985  -5.849  0.00  0.00     0.022 A 
ATOM      7  C5  UNL d   1       0.962   1.864  -5.707  0.00  0.00     0.026 A 
ATOM      8  C6  UNL d   1       0.268   1.824  -4.450  0.00  0.00    -0.082 A 
ATOM      9  C7  UNL d   1      -0.623   0.860  -3.920  0.00  0.00     0.045 A 
ENDROOT
TORSDOF 0
ENDMDL
