MODEL 1
REMARK minimizedAffinity 17.1878185
REMARK minimizedRMSD -1
REMARK  0 active torsions:
REMARK  status: ('A' for Active; 'I' for Inactive)
ROOT
ATOM      1  C   UNL d   1       1.053  -1.393   1.411  0.00  0.00    -0.002 A 
ATOM      2  C1  UNL d   1       2.054  -1.138   0.485  0.00  0.00     0.010 A 
ATOM      3  C2  UNL d   1       2.808  -2.183  -0.053  0.00  0.00     0.041 A 
ATOM      4  C3  UNL d   1       2.535  -3.502   0.359  0.00  0.00    -0.075 A 
ATOM      5  S   UNL d   1       3.329  -4.940  -0.165  0.00  0.00     0.015 SA
ATOM      6  C4  UNL d   1       2.357  -5.927   0.828  0.00  0.00     0.022 A 
ATOM      7  C5  UNL d   1       1.444  -5.194   1.549  0.00  0.00     0.026 A 
ATOM      8  C6  UNL d   1       1.531  -3.785   1.290  0.00  0.00    -0.082 A 
ATOM      9  C7  UNL d   1       0.785  -2.703   1.817  0.00  0.00     0.045 A 
ENDROOT
TORSDOF 0
ENDMDL
