MODEL 1
REMARK minimizedAffinity 1.59404087
REMARK minimizedRMSD -1
REMARK  0 active torsions:
REMARK  status: ('A' for Active; 'I' for Inactive)
ROOT
ATOM      1  C   UNL d   1       5.987   0.446  -0.109  0.00  0.00    -0.002 A 
ATOM      2  C1  UNL d   1       5.964  -0.935  -0.235  0.00  0.00     0.010 A 
ATOM      3  C2  UNL d   1       5.944  -1.533  -1.497  0.00  0.00     0.041 A 
ATOM      4  C3  UNL d   1       5.950  -0.710  -2.641  0.00  0.00    -0.075 A 
ATOM      5  S   UNL d   1       5.929  -1.219  -4.288  0.00  0.00     0.015 SA
ATOM      6  C4  UNL d   1       5.952   0.385  -4.862  0.00  0.00     0.022 A 
ATOM      7  C5  UNL d   1       5.974   1.300  -3.836  0.00  0.00     0.026 A 
ATOM      8  C6  UNL d   1       5.974   0.684  -2.539  0.00  0.00    -0.082 A 
ATOM      9  C7  UNL d   1       5.993   1.259  -1.245  0.00  0.00     0.045 A 
ENDROOT
TORSDOF 0
ENDMDL
