MODEL 1
REMARK minimizedAffinity 10.1736221
REMARK minimizedRMSD -1
REMARK  0 active torsions:
REMARK  status: ('A' for Active; 'I' for Inactive)
ROOT
ATOM      1  C   UNL d   1       2.258   3.759  -4.821  0.00  0.00    -0.002 A 
ATOM      2  C1  UNL d   1       1.989   2.940  -5.908  0.00  0.00     0.010 A 
ATOM      3  C2  UNL d   1       0.830   2.163  -5.943  0.00  0.00     0.041 A 
ATOM      4  C3  UNL d   1      -0.065   2.225  -4.857  0.00  0.00    -0.075 A 
ATOM      5  S   UNL d   1      -1.548   1.363  -4.682  0.00  0.00     0.015 SA
ATOM      6  C4  UNL d   1      -1.861   2.063  -3.159  0.00  0.00     0.022 A 
ATOM      7  C5  UNL d   1      -0.869   2.935  -2.779  0.00  0.00     0.026 A 
ATOM      8  C6  UNL d   1       0.183   3.043  -3.751  0.00  0.00    -0.082 A 
ATOM      9  C7  UNL d   1       1.367   3.818  -3.745  0.00  0.00     0.045 A 
ENDROOT
TORSDOF 0
ENDMDL
