MODEL 1
REMARK minimizedAffinity 16.5490303
REMARK minimizedRMSD -1
REMARK  0 active torsions:
REMARK  status: ('A' for Active; 'I' for Inactive)
ROOT
ATOM      1  C   UNL d   1      -1.461  -1.739   3.232  0.00  0.00    -0.002 A 
ATOM      2  C1  UNL d   1      -2.123  -2.953   3.350  0.00  0.00     0.010 A 
ATOM      3  C2  UNL d   1      -1.555  -4.124   2.843  0.00  0.00     0.041 A 
ATOM      4  C3  UNL d   1      -0.297  -4.054   2.212  0.00  0.00    -0.075 A 
ATOM      5  S   UNL d   1       0.592  -5.358   1.518  0.00  0.00     0.015 SA
ATOM      6  C4  UNL d   1       1.871  -4.334   1.049  0.00  0.00     0.022 A 
ATOM      7  C5  UNL d   1       1.642  -3.026   1.405  0.00  0.00     0.026 A 
ATOM      8  C6  UNL d   1       0.389  -2.843   2.082  0.00  0.00    -0.082 A 
ATOM      9  C7  UNL d   1      -0.214  -1.674   2.605  0.00  0.00     0.045 A 
ENDROOT
TORSDOF 0
ENDMDL
