MODEL 1
REMARK minimizedAffinity -2.52834582
REMARK minimizedRMSD -1
REMARK  0 active torsions:
REMARK  status: ('A' for Active; 'I' for Inactive)
ROOT
ATOM      1  O1  BZF d   1       5.956   1.637   5.236  0.00  0.00    -0.204 OA
ATOM      2  C2  BZF d   1       5.946   2.272   4.009  0.00  0.00     0.174 A 
ATOM      3  C3  BZF d   1       6.000   1.374   3.004  0.00  0.00    -0.012 A 
ATOM      4  C3A BZF d   1       5.954   0.094   3.641  0.00  0.00    -0.107 A 
ATOM      5  C4  BZF d   1       5.958  -1.189   3.172  0.00  0.00     0.055 A 
ATOM      6  C5  BZF d   1       5.979  -2.217   4.060  0.00  0.00    -0.016 A 
ATOM      7  C6  BZF d   1       6.000  -1.999   5.422  0.00  0.00     0.022 A 
ATOM      8  C7  BZF d   1       5.991  -0.745   5.935  0.00  0.00     0.029 A 
ATOM      9  C7A BZF d   1       5.937   0.296   5.041  0.00  0.00     0.058 A 
ENDROOT
TORSDOF 0
ENDMDL
