MODEL 1
REMARK minimizedAffinity -1.58441091
REMARK minimizedRMSD -1
REMARK  0 active torsions:
REMARK  status: ('A' for Active; 'I' for Inactive)
ROOT
ATOM      1  O1  BZF d   1       5.890   0.741   5.995  0.00  0.00    -0.204 OA
ATOM      2  C2  BZF d   1       5.847  -0.640   5.984  0.00  0.00     0.174 A 
ATOM      3  C3  BZF d   1       5.807  -1.108   4.719  0.00  0.00    -0.012 A 
ATOM      4  C3A BZF d   1       5.920   0.050   3.886  0.00  0.00    -0.107 A 
ATOM      5  C4  BZF d   1       5.958   0.234   2.534  0.00  0.00     0.055 A 
ATOM      6  C5  BZF d   1       6.000   1.499   2.040  0.00  0.00    -0.016 A 
ATOM      7  C6  BZF d   1       6.000   2.602   2.868  0.00  0.00     0.022 A 
ATOM      8  C7  BZF d   1       5.969   2.470   4.216  0.00  0.00     0.029 A 
ATOM      9  C7A BZF d   1       5.960   1.192   4.719  0.00  0.00     0.058 A 
ENDROOT
TORSDOF 0
ENDMDL
