MODEL 1
REMARK minimizedAffinity 2.19251585
REMARK minimizedRMSD -1
REMARK  0 active torsions:
REMARK  status: ('A' for Active; 'I' for Inactive)
ROOT
ATOM      1  O1  BZF d   1       4.438   0.802   2.828  0.00  0.00    -0.204 OA
ATOM      2  C2  BZF d   1       4.663   2.095   3.258  0.00  0.00     0.174 A 
ATOM      3  C3  BZF d   1       5.229   2.100   4.482  0.00  0.00    -0.012 A 
ATOM      4  C3A BZF d   1       5.451   0.723   4.800  0.00  0.00    -0.107 A 
ATOM      5  C4  BZF d   1       5.999   0.084   5.875  0.00  0.00     0.055 A 
ATOM      6  C5  BZF d   1       6.000  -1.274   5.907  0.00  0.00    -0.016 A 
ATOM      7  C6  BZF d   1       5.456  -2.025   4.885  0.00  0.00     0.022 A 
ATOM      8  C7  BZF d   1       4.906  -1.436   3.795  0.00  0.00     0.029 A 
ATOM      9  C7A BZF d   1       4.933  -0.063   3.745  0.00  0.00     0.058 A 
ENDROOT
TORSDOF 0
ENDMDL
