MODEL 1
REMARK minimizedAffinity 17.4811344
REMARK minimizedRMSD -1
REMARK  0 active torsions:
REMARK  status: ('A' for Active; 'I' for Inactive)
ROOT
ATOM      1  O1  BZF d   1      -1.716   2.927   3.952  0.00  0.00    -0.204 OA
ATOM      2  C2  BZF d   1      -2.358   1.706   4.023  0.00  0.00     0.174 A 
ATOM      3  C3  BZF d   1      -2.460   1.147   2.799  0.00  0.00    -0.012 A 
ATOM      4  C3A BZF d   1      -1.760   2.034   1.921  0.00  0.00    -0.107 A 
ATOM      5  C4  BZF d   1      -1.498   2.015   0.581  0.00  0.00     0.055 A 
ATOM      6  C5  BZF d   1      -0.852   3.071   0.019  0.00  0.00    -0.016 A 
ATOM      7  C6  BZF d   1      -0.459   4.162   0.766  0.00  0.00     0.022 A 
ATOM      8  C7  BZF d   1      -0.692   4.224   2.100  0.00  0.00     0.029 A 
ATOM      9  C7A BZF d   1      -1.315   3.144   2.676  0.00  0.00     0.058 A 
ENDROOT
TORSDOF 0
ENDMDL
