MODEL 1
REMARK minimizedAffinity -4.00644159
REMARK minimizedRMSD -1
REMARK  0 active torsions:
REMARK  status: ('A' for Active; 'I' for Inactive)
ROOT
ATOM      1  O1  BZF d   1       6.000   2.874   2.814  0.00  0.00    -0.204 OA
ATOM      2  C2  BZF d   1       5.980   4.039   3.556  0.00  0.00     0.174 A 
ATOM      3  C3  BZF d   1       5.796   3.770   4.865  0.00  0.00    -0.012 A 
ATOM      4  C3A BZF d   1       5.788   2.342   4.957  0.00  0.00    -0.107 A 
ATOM      5  C4  BZF d   1       5.659   1.469   6.000  0.00  0.00     0.055 A 
ATOM      6  C5  BZF d   1       5.619   0.135   5.744  0.00  0.00    -0.016 A 
ATOM      7  C6  BZF d   1       5.700  -0.360   4.459  0.00  0.00     0.022 A 
ATOM      8  C7  BZF d   1       5.834   0.466   3.393  0.00  0.00     0.029 A 
ATOM      9  C7A BZF d   1       5.908   1.813   3.651  0.00  0.00     0.058 A 
ENDROOT
TORSDOF 0
ENDMDL
