MODEL 1
REMARK minimizedAffinity -1.35637808
REMARK minimizedRMSD -1
REMARK  0 active torsions:
REMARK  status: ('A' for Active; 'I' for Inactive)
ROOT
ATOM      1  O1  BZF d   1       5.961   1.986   4.823  0.00  0.00    -0.204 OA
ATOM      2  C2  BZF d   1       5.949   2.354   3.492  0.00  0.00     0.174 A 
ATOM      3  C3  BZF d   1       6.000   1.268   2.694  0.00  0.00    -0.012 A 
ATOM      4  C3A BZF d   1       5.953   0.147   3.582  0.00  0.00    -0.107 A 
ATOM      5  C4  BZF d   1       5.955  -1.205   3.388  0.00  0.00     0.055 A 
ATOM      6  C5  BZF d   1       5.975  -2.027   4.470  0.00  0.00    -0.016 A 
ATOM      7  C6  BZF d   1       5.999  -1.533   5.757  0.00  0.00     0.022 A 
ATOM      8  C7  BZF d   1       5.993  -0.199   6.000  0.00  0.00     0.029 A 
ATOM      9  C7A BZF d   1       5.939   0.634   4.909  0.00  0.00     0.058 A 
ENDROOT
TORSDOF 0
ENDMDL
