MODEL 1
REMARK minimizedAffinity -3.53666806
REMARK minimizedRMSD -1
REMARK  0 active torsions:
REMARK  status: ('A' for Active; 'I' for Inactive)
ROOT
ATOM      1  O1  BZF d   1       6.000   2.472   5.614  0.00  0.00    -0.204 OA
ATOM      2  C2  BZF d   1       5.946   3.346   4.546  0.00  0.00     0.174 A 
ATOM      3  C3  BZF d   1       5.922   2.673   3.378  0.00  0.00    -0.012 A 
ATOM      4  C3A BZF d   1       5.871   1.290   3.742  0.00  0.00    -0.107 A 
ATOM      5  C4  BZF d   1       5.814   0.131   3.022  0.00  0.00     0.055 A 
ATOM      6  C5  BZF d   1       5.849  -1.058   3.679  0.00  0.00    -0.016 A 
ATOM      7  C6  BZF d   1       5.946  -1.125   5.054  0.00  0.00     0.022 A 
ATOM      8  C7  BZF d   1       6.000  -0.002   5.811  0.00  0.00     0.029 A 
ATOM      9  C7A BZF d   1       5.931   1.201   5.152  0.00  0.00     0.058 A 
ENDROOT
TORSDOF 0
ENDMDL
