MODEL 1
REMARK minimizedAffinity -3.58818102
REMARK minimizedRMSD -1
REMARK  0 active torsions:
REMARK  status: ('A' for Active; 'I' for Inactive)
ROOT
ATOM      1  O1  BZF d   1       5.925   2.457   5.602  0.00  0.00    -0.204 OA
ATOM      2  C2  BZF d   1       6.000   3.330   4.535  0.00  0.00     0.174 A 
ATOM      3  C3  BZF d   1       6.000   2.659   3.366  0.00  0.00    -0.012 A 
ATOM      4  C3A BZF d   1       5.828   1.283   3.722  0.00  0.00    -0.107 A 
ATOM      5  C4  BZF d   1       5.733   0.131   2.996  0.00  0.00     0.055 A 
ATOM      6  C5  BZF d   1       5.642  -1.057   3.651  0.00  0.00    -0.016 A 
ATOM      7  C6  BZF d   1       5.649  -1.128   5.029  0.00  0.00     0.022 A 
ATOM      8  C7  BZF d   1       5.736  -0.011   5.791  0.00  0.00     0.029 A 
ATOM      9  C7A BZF d   1       5.795   1.193   5.132  0.00  0.00     0.058 A 
ENDROOT
TORSDOF 0
ENDMDL
