MODEL 1
REMARK minimizedAffinity -1.80235279
REMARK minimizedRMSD -1
REMARK  0 active torsions:
REMARK  status: ('A' for Active; 'I' for Inactive)
ROOT
ATOM      1  O1  BZF d   1       5.919   3.883   5.992  0.00  0.00    -0.204 OA
ATOM      2  C2  BZF d   1       5.924   4.836   4.992  0.00  0.00     0.174 A 
ATOM      3  C3  BZF d   1       6.000   4.255   3.778  0.00  0.00    -0.012 A 
ATOM      4  C3A BZF d   1       5.952   2.847   4.031  0.00  0.00    -0.107 A 
ATOM      5  C4  BZF d   1       5.972   1.747   3.222  0.00  0.00     0.055 A 
ATOM      6  C5  BZF d   1       5.985   0.512   3.788  0.00  0.00    -0.016 A 
ATOM      7  C6  BZF d   1       5.983   0.340   5.157  0.00  0.00     0.022 A 
ATOM      8  C7  BZF d   1       5.958   1.401   6.000  0.00  0.00     0.029 A 
ATOM      9  C7A BZF d   1       5.912   2.650   5.430  0.00  0.00     0.058 A 
ENDROOT
TORSDOF 0
ENDMDL
