MODEL 1
REMARK minimizedAffinity 5.53914118
REMARK minimizedRMSD -1
REMARK  0 active torsions:
REMARK  status: ('A' for Active; 'I' for Inactive)
ROOT
ATOM      1  O1  BZF d   1       4.503   4.365   3.285  0.00  0.00    -0.204 OA
ATOM      2  C2  BZF d   1       5.426   5.257   3.795  0.00  0.00     0.174 A 
ATOM      3  C3  BZF d   1       5.969   6.000   2.809  0.00  0.00    -0.012 A 
ATOM      4  C3A BZF d   1       5.279   5.607   1.618  0.00  0.00    -0.107 A 
ATOM      5  C4  BZF d   1       5.360   6.000   0.313  0.00  0.00     0.055 A 
ATOM      6  C5  BZF d   1       4.597   5.366  -0.616  0.00  0.00    -0.016 A 
ATOM      7  C6  BZF d   1       3.747   4.334  -0.276  0.00  0.00     0.022 A 
ATOM      8  C7  BZF d   1       3.629   3.912   1.006  0.00  0.00     0.029 A 
ATOM      9  C7A BZF d   1       4.374   4.573   1.953  0.00  0.00     0.058 A 
ENDROOT
TORSDOF 0
ENDMDL
