MODEL 1
REMARK minimizedAffinity -2.24175978
REMARK minimizedRMSD -1
REMARK  0 active torsions:
REMARK  status: ('A' for Active; 'I' for Inactive)
ROOT
ATOM      1  O1  BZF d   1       6.000  -1.080   3.987  0.00  0.00    -0.204 OA
ATOM      2  C2  BZF d   1       5.641  -1.476   5.261  0.00  0.00     0.174 A 
ATOM      3  C3  BZF d   1       5.243  -0.419   5.997  0.00  0.00    -0.012 A 
ATOM      4  C3A BZF d   1       5.272   0.696   5.100  0.00  0.00    -0.107 A 
ATOM      5  C4  BZF d   1       4.968   2.020   5.238  0.00  0.00     0.055 A 
ATOM      6  C5  BZF d   1       5.175   2.858   4.188  0.00  0.00    -0.016 A 
ATOM      7  C6  BZF d   1       5.688   2.407   2.990  0.00  0.00     0.022 A 
ATOM      8  C7  BZF d   1       6.000   1.102   2.804  0.00  0.00     0.029 A 
ATOM      9  C7A BZF d   1       5.761   0.247   3.852  0.00  0.00     0.058 A 
ENDROOT
TORSDOF 0
ENDMDL
