MODEL 1
REMARK minimizedAffinity -2.39751887
REMARK minimizedRMSD -1
REMARK  0 active torsions:
REMARK  status: ('A' for Active; 'I' for Inactive)
ROOT
ATOM      1  O1  BZF d   1       5.999   2.477   5.520  0.00  0.00    -0.204 OA
ATOM      2  C2  BZF d   1       5.647   3.238   4.422  0.00  0.00     0.174 A 
ATOM      3  C3  BZF d   1       5.258   2.451   3.399  0.00  0.00    -0.012 A 
ATOM      4  C3A BZF d   1       5.286   1.118   3.918  0.00  0.00    -0.107 A 
ATOM      5  C4  BZF d   1       4.988  -0.104   3.385  0.00  0.00     0.055 A 
ATOM      6  C5  BZF d   1       5.191  -1.219   4.135  0.00  0.00    -0.016 A 
ATOM      7  C6  BZF d   1       5.694  -1.150   5.418  0.00  0.00     0.022 A 
ATOM      8  C7  BZF d   1       6.000   0.040   5.991  0.00  0.00     0.029 A 
ATOM      9  C7A BZF d   1       5.765   1.171   5.248  0.00  0.00     0.058 A 
ENDROOT
TORSDOF 0
ENDMDL
