MODEL 1
REMARK minimizedAffinity 3.90265369
REMARK minimizedRMSD -1
REMARK  0 active torsions:
REMARK  status: ('A' for Active; 'I' for Inactive)
ROOT
ATOM      1  O1  BZF d   1       5.924   0.651   4.543  0.00  0.00    -0.204 OA
ATOM      2  C2  BZF d   1       5.964   0.294   3.209  0.00  0.00     0.174 A 
ATOM      3  C3  BZF d   1       5.936   1.387   2.420  0.00  0.00    -0.012 A 
ATOM      4  C3A BZF d   1       5.968   2.500   3.319  0.00  0.00    -0.107 A 
ATOM      5  C4  BZF d   1       5.977   3.854   3.137  0.00  0.00     0.055 A 
ATOM      6  C5  BZF d   1       5.936   4.667   4.225  0.00  0.00    -0.016 A 
ATOM      7  C6  BZF d   1       5.880   4.161   5.507  0.00  0.00     0.022 A 
ATOM      8  C7  BZF d   1       5.875   2.825   5.738  0.00  0.00     0.029 A 
ATOM      9  C7A BZF d   1       5.950   2.001   4.642  0.00  0.00     0.058 A 
ENDROOT
TORSDOF 0
ENDMDL
