MODEL 1
REMARK minimizedAffinity 13.5999546
REMARK minimizedRMSD -1
REMARK  0 active torsions:
REMARK  status: ('A' for Active; 'I' for Inactive)
ROOT
ATOM      1  O1  BZF d   1       5.132   3.748  -4.134  0.00  0.00    -0.204 OA
ATOM      2  C2  BZF d   1       5.807   2.616  -3.720  0.00  0.00     0.174 A 
ATOM      3  C3  BZF d   1       5.125   1.502  -4.055  0.00  0.00    -0.012 A 
ATOM      4  C3A BZF d   1       3.995   1.963  -4.802  0.00  0.00    -0.107 A 
ATOM      5  C4  BZF d   1       2.955   1.329  -5.419  0.00  0.00     0.055 A 
ATOM      6  C5  BZF d   1       1.978   2.073  -6.000  0.00  0.00    -0.016 A 
ATOM      7  C6  BZF d   1       2.006   3.452  -5.978  0.00  0.00     0.022 A 
ATOM      8  C7  BZF d   1       3.020   4.127  -5.382  0.00  0.00     0.029 A 
ATOM      9  C7A BZF d   1       4.026   3.377  -4.823  0.00  0.00     0.058 A 
ENDROOT
TORSDOF 0
ENDMDL
