MODEL 1
REMARK minimizedAffinity -1.23219907
REMARK minimizedRMSD -1
REMARK  0 active torsions:
REMARK  status: ('A' for Active; 'I' for Inactive)
ROOT
ATOM      1  O1  BZF d   1       5.369  -0.032   5.245  0.00  0.00    -0.204 OA
ATOM      2  C2  BZF d   1       5.456  -0.787   4.091  0.00  0.00     0.174 A 
ATOM      3  C3  BZF d   1       5.649   0.003   3.015  0.00  0.00    -0.012 A 
ATOM      4  C3A BZF d   1       5.778   1.328   3.540  0.00  0.00    -0.107 A 
ATOM      5  C4  BZF d   1       6.000   2.547   2.967  0.00  0.00     0.055 A 
ATOM      6  C5  BZF d   1       5.999   3.656   3.752  0.00  0.00    -0.016 A 
ATOM      7  C6  BZF d   1       5.774   3.583   5.111  0.00  0.00     0.022 A 
ATOM      8  C7  BZF d   1       5.554   2.396   5.726  0.00  0.00     0.029 A 
ATOM      9  C7A BZF d   1       5.587   1.270   4.940  0.00  0.00     0.058 A 
ENDROOT
TORSDOF 0
ENDMDL
