MODEL 1
REMARK minimizedAffinity 6.2907033
REMARK minimizedRMSD -1
REMARK  0 active torsions:
REMARK  status: ('A' for Active; 'I' for Inactive)
ROOT
ATOM      1  O1  BZF d   1       6.000   2.806   4.822  0.00  0.00    -0.204 OA
ATOM      2  C2  BZF d   1       6.000   3.619   3.705  0.00  0.00     0.174 A 
ATOM      3  C3  BZF d   1       5.943   2.883   2.577  0.00  0.00    -0.012 A 
ATOM      4  C3A BZF d   1       5.812   1.528   3.019  0.00  0.00    -0.107 A 
ATOM      5  C4  BZF d   1       5.693   0.335   2.365  0.00  0.00     0.055 A 
ATOM      6  C5  BZF d   1       5.658  -0.814   3.089  0.00  0.00    -0.016 A 
ATOM      7  C6  BZF d   1       5.745  -0.808   4.466  0.00  0.00     0.022 A 
ATOM      8  C7  BZF d   1       5.859   0.351   5.159  0.00  0.00     0.029 A 
ATOM      9  C7A BZF d   1       5.862   1.517   4.432  0.00  0.00     0.058 A 
ENDROOT
TORSDOF 0
ENDMDL
