MODEL 1
REMARK minimizedAffinity -0.856176376
REMARK minimizedRMSD -1
REMARK  0 active torsions:
REMARK  status: ('A' for Active; 'I' for Inactive)
ROOT
ATOM      1  O1  BZF d   1       5.986   4.194   5.258  0.00  0.00    -0.204 OA
ATOM      2  C2  BZF d   1       5.969   4.912   4.078  0.00  0.00     0.174 A 
ATOM      3  C3  BZF d   1       6.000   4.085   3.014  0.00  0.00    -0.012 A 
ATOM      4  C3A BZF d   1       5.946   2.764   3.562  0.00  0.00    -0.107 A 
ATOM      5  C4  BZF d   1       5.929   1.517   3.006  0.00  0.00     0.055 A 
ATOM      6  C5  BZF d   1       5.948   0.430   3.821  0.00  0.00    -0.016 A 
ATOM      7  C6  BZF d   1       5.987   0.554   5.195  0.00  0.00     0.022 A 
ATOM      8  C7  BZF d   1       6.000   1.770   5.792  0.00  0.00     0.029 A 
ATOM      9  C7A BZF d   1       5.948   2.870   4.972  0.00  0.00     0.058 A 
ENDROOT
TORSDOF 0
ENDMDL
