MODEL 1
REMARK minimizedAffinity -0.755157709
REMARK minimizedRMSD -1
REMARK  0 active torsions:
REMARK  status: ('A' for Active; 'I' for Inactive)
ROOT
ATOM      1  O1  BZF d   1       5.941   3.605   3.375  0.00  0.00    -0.204 OA
ATOM      2  C2  BZF d   1       5.999   4.462   4.457  0.00  0.00     0.174 A 
ATOM      3  C3  BZF d   1       5.977   3.773   5.616  0.00  0.00    -0.012 A 
ATOM      4  C3A BZF d   1       5.993   2.394   5.233  0.00  0.00    -0.107 A 
ATOM      5  C4  BZF d   1       5.998   1.224   5.938  0.00  0.00     0.055 A 
ATOM      6  C5  BZF d   1       5.939   0.046   5.263  0.00  0.00    -0.016 A 
ATOM      7  C6  BZF d   1       5.870   0.001   3.886  0.00  0.00     0.022 A 
ATOM      8  C7  BZF d   1       5.867   1.135   3.144  0.00  0.00     0.029 A 
ATOM      9  C7A BZF d   1       5.960   2.326   3.821  0.00  0.00     0.058 A 
ENDROOT
TORSDOF 0
ENDMDL
