MODEL 1
REMARK minimizedAffinity -1.34090102
REMARK minimizedRMSD -1
REMARK  0 active torsions:
REMARK  status: ('A' for Active; 'I' for Inactive)
ROOT
ATOM      1  O1  BZF d   1       6.000   3.923   5.218  0.00  0.00    -0.204 OA
ATOM      2  C2  BZF d   1       5.982   4.523   3.973  0.00  0.00     0.174 A 
ATOM      3  C3  BZF d   1       6.000   3.596   2.995  0.00  0.00    -0.012 A 
ATOM      4  C3A BZF d   1       5.937   2.335   3.669  0.00  0.00    -0.107 A 
ATOM      5  C4  BZF d   1       5.907   1.040   3.238  0.00  0.00     0.055 A 
ATOM      6  C5  BZF d   1       5.921   0.038   4.156  0.00  0.00    -0.016 A 
ATOM      7  C6  BZF d   1       5.969   0.295   5.510  0.00  0.00     0.022 A 
ATOM      8  C7  BZF d   1       5.995   1.563   5.986  0.00  0.00     0.029 A 
ATOM      9  C7A BZF d   1       5.949   2.579   5.062  0.00  0.00     0.058 A 
ENDROOT
TORSDOF 0
ENDMDL
