MODEL 1
REMARK minimizedAffinity -4.82147169
REMARK minimizedRMSD -1
REMARK  2 active torsions:
REMARK  status: ('A' for Active; 'I' for Inactive)
REMARK    1  A    between atoms: C1_2  and  C2_3 
REMARK    2  A    between atoms: C2_3  and  C3_4 
ROOT
ATOM      1  C3  UNL d   1      -0.549   0.369   0.519  0.00  0.00    -0.075 A 
ATOM      2  C4  UNL d   1      -0.872   0.549   1.872  0.00  0.00     0.002 A 
ATOM      3  C5  UNL d   1      -1.153   1.822   2.369  0.00  0.00     0.002 A 
ATOM      4  C6  UNL d   1      -1.104   2.930   1.526  0.00  0.00    -0.004 A 
ATOM      5  C7  UNL d   1      -0.767   2.765   0.184  0.00  0.00     0.002 A 
ATOM      6  C8  UNL d   1      -0.490   1.492  -0.317  0.00  0.00     0.002 A 
ENDROOT
BRANCH   1   7
ATOM      7  C2  UNL d   1      -0.273  -1.009  -0.032  0.00  0.00     0.056 C 
BRANCH   7   8
ATOM      8  C1  UNL d   1       1.035  -1.114  -0.824  0.00  0.00     0.007 C 
ATOM      9  C   UNL d   1       0.978  -2.145  -1.943  0.00  0.00     0.009 C 
ENDBRANCH   7   8
ENDBRANCH   1   7
TORSDOF 2
ENDMDL
