MODEL 1
REMARK minimizedAffinity -3.38815999
REMARK minimizedRMSD -1
REMARK  2 active torsions:
REMARK  status: ('A' for Active; 'I' for Inactive)
REMARK    1  A    between atoms: C1_2  and  C2_3 
REMARK    2  A    between atoms: C2_3  and  C3_4 
ROOT
ATOM      1  C3  UNL d   1      -0.101  -0.795  -0.040  0.00  0.00    -0.075 A 
ATOM      2  C4  UNL d   1      -1.121  -1.499  -0.697  0.00  0.00     0.002 A 
ATOM      3  C5  UNL d   1      -0.817  -2.392  -1.725  0.00  0.00     0.002 A 
ATOM      4  C6  UNL d   1       0.506  -2.584  -2.116  0.00  0.00    -0.004 A 
ATOM      5  C7  UNL d   1       1.526  -1.877  -1.482  0.00  0.00     0.002 A 
ATOM      6  C8  UNL d   1       1.225  -0.987  -0.450  0.00  0.00     0.002 A 
ENDROOT
BRANCH   1   7
ATOM      7  C2  UNL d   1      -0.421   0.150   1.093  0.00  0.00     0.056 C 
BRANCH   7   8
ATOM      8  C1  UNL d   1      -1.263   1.361   0.676  0.00  0.00     0.007 C 
ATOM      9  C   UNL d   1      -2.203   1.845   1.772  0.00  0.00     0.009 C 
ENDBRANCH   7   8
ENDBRANCH   1   7
TORSDOF 2
ENDMDL
