MODEL 1
REMARK minimizedAffinity -4.64544821
REMARK minimizedRMSD -1
REMARK  2 active torsions:
REMARK  status: ('A' for Active; 'I' for Inactive)
REMARK    1  A    between atoms: C1_2  and  C2_3 
REMARK    2  A    between atoms: C2_3  and  C3_4 
ROOT
ATOM      1  C3  UNL d   1       0.726  -1.614  -0.257  0.00  0.00    -0.075 A 
ATOM      2  C4  UNL d   1       0.538  -0.368  -0.872  0.00  0.00     0.002 A 
ATOM      3  C5  UNL d   1      -0.246   0.612  -0.262  0.00  0.00     0.002 A 
ATOM      4  C6  UNL d   1      -0.859   0.356   0.963  0.00  0.00    -0.004 A 
ATOM      5  C7  UNL d   1      -0.692  -0.885   1.574  0.00  0.00     0.002 A 
ATOM      6  C8  UNL d   1       0.095  -1.865   0.968  0.00  0.00     0.002 A 
ENDROOT
BRANCH   1   7
ATOM      7  C2  UNL d   1       1.597  -2.668  -0.898  0.00  0.00     0.056 C 
BRANCH   7   8
ATOM      8  C1  UNL d   1       0.816  -3.741  -1.664  0.00  0.00     0.007 C 
ATOM      9  C   UNL d   1       0.647  -3.419  -3.143  0.00  0.00     0.009 C 
ENDBRANCH   7   8
ENDBRANCH   1   7
TORSDOF 2
ENDMDL
