MODEL 1
REMARK minimizedAffinity -4.38771152
REMARK minimizedRMSD -1
REMARK  2 active torsions:
REMARK  status: ('A' for Active; 'I' for Inactive)
REMARK    1  A    between atoms: C1_2  and  C2_3 
REMARK    2  A    between atoms: C2_3  and  C3_4 
ROOT
ATOM      1  C3  UNL d   1      -0.378   0.139  -0.024  0.00  0.00    -0.075 A 
ATOM      2  C4  UNL d   1      -0.340   1.540  -0.068  0.00  0.00     0.002 A 
ATOM      3  C5  UNL d   1      -1.326   2.296   0.566  0.00  0.00     0.002 A 
ATOM      4  C6  UNL d   1      -2.367   1.663   1.241  0.00  0.00    -0.004 A 
ATOM      5  C7  UNL d   1      -2.425   0.271   1.278  0.00  0.00     0.002 A 
ATOM      6  C8  UNL d   1      -1.436  -0.488   0.648  0.00  0.00     0.002 A 
ENDROOT
BRANCH   1   7
ATOM      7  C2  UNL d   1       0.702  -0.685  -0.682  0.00  0.00     0.056 C 
BRANCH   7   8
ATOM      8  C1  UNL d   1       0.182  -1.667  -1.737  0.00  0.00     0.007 C 
ATOM      9  C   UNL d   1       0.874  -3.023  -1.688  0.00  0.00     0.009 C 
ENDBRANCH   7   8
ENDBRANCH   1   7
TORSDOF 2
ENDMDL
