MODEL 1
REMARK minimizedAffinity -3.79655528
REMARK minimizedRMSD -1
REMARK  2 active torsions:
REMARK  status: ('A' for Active; 'I' for Inactive)
REMARK    1  A    between atoms: C1_2  and  C2_3 
REMARK    2  A    between atoms: C2_3  and  C3_4 
ROOT
ATOM      1  C3  UNL d   1      -0.395  -0.057   0.492  0.00  0.00    -0.075 A 
ATOM      2  C4  UNL d   1      -0.029  -1.293  -0.061  0.00  0.00     0.002 A 
ATOM      3  C5  UNL d   1       0.769  -1.348  -1.204  0.00  0.00     0.002 A 
ATOM      4  C6  UNL d   1       1.202  -0.172  -1.813  0.00  0.00    -0.004 A 
ATOM      5  C7  UNL d   1       0.831   1.061  -1.281  0.00  0.00     0.002 A 
ATOM      6  C8  UNL d   1       0.036   1.119  -0.135  0.00  0.00     0.002 A 
ENDROOT
BRANCH   1   7
ATOM      7  C2  UNL d   1      -1.234   0.009   1.746  0.00  0.00     0.056 C 
BRANCH   7   8
ATOM      8  C1  UNL d   1      -1.240   1.385   2.420  0.00  0.00     0.007 C 
ATOM      9  C   UNL d   1      -2.361   2.291   1.925  0.00  0.00     0.009 C 
ENDBRANCH   7   8
ENDBRANCH   1   7
TORSDOF 2
ENDMDL
