MODEL 1
REMARK minimizedAffinity -4.86335516
REMARK minimizedRMSD -1
REMARK  2 active torsions:
REMARK  status: ('A' for Active; 'I' for Inactive)
REMARK    1  A    between atoms: C1_2  and  C2_3 
REMARK    2  A    between atoms: C2_3  and  C3_4 
ROOT
ATOM      1  C3  UNL d   1      -0.155  -0.443  -0.464  0.00  0.00    -0.075 A 
ATOM      2  C4  UNL d   1      -0.615   0.748  -1.044  0.00  0.00     0.002 A 
ATOM      3  C5  UNL d   1      -1.204   1.738  -0.256  0.00  0.00     0.002 A 
ATOM      4  C6  UNL d   1      -1.349   1.546   1.116  0.00  0.00    -0.004 A 
ATOM      5  C7  UNL d   1      -0.911   0.360   1.700  0.00  0.00     0.002 A 
ATOM      6  C8  UNL d   1      -0.317  -0.630   0.915  0.00  0.00     0.002 A 
ENDROOT
BRANCH   1   7
ATOM      7  C2  UNL d   1       0.510  -1.506  -1.306  0.00  0.00     0.056 C 
BRANCH   7   8
ATOM      8  C1  UNL d   1      -0.442  -2.223  -2.270  0.00  0.00     0.007 C 
ATOM      9  C   UNL d   1      -0.340  -3.741  -2.195  0.00  0.00     0.009 C 
ENDBRANCH   7   8
ENDBRANCH   1   7
TORSDOF 2
ENDMDL
