MODEL 1
REMARK minimizedAffinity -2.8371501
REMARK minimizedRMSD -1
REMARK  2 active torsions:
REMARK  status: ('A' for Active; 'I' for Inactive)
REMARK    1  A    between atoms: C1_2  and  C2_3 
REMARK    2  A    between atoms: C2_3  and  C3_4 
ROOT
ATOM      1  C3  UNL d   1       0.716  -1.154  -0.391  0.00  0.00    -0.075 A 
ATOM      2  C4  UNL d   1       0.177  -0.089  -1.126  0.00  0.00     0.002 A 
ATOM      3  C5  UNL d   1      -0.527   0.930  -0.484  0.00  0.00     0.002 A 
ATOM      4  C6  UNL d   1      -0.710   0.892   0.896  0.00  0.00    -0.004 A 
ATOM      5  C7  UNL d   1      -0.193  -0.170   1.635  0.00  0.00     0.002 A 
ATOM      6  C8  UNL d   1       0.516  -1.188   0.996  0.00  0.00     0.002 A 
ENDROOT
BRANCH   1   7
ATOM      7  C2  UNL d   1       1.505  -2.244  -1.075  0.00  0.00     0.056 C 
BRANCH   7   8
ATOM      8  C1  UNL d   1       0.639  -3.354  -1.682  0.00  0.00     0.007 C 
ATOM      9  C   UNL d   1       0.404  -3.182  -3.177  0.00  0.00     0.009 C 
ENDBRANCH   7   8
ENDBRANCH   1   7
TORSDOF 2
ENDMDL
