MODEL 1
REMARK minimizedAffinity -5.43643618
REMARK minimizedRMSD -1
REMARK  2 active torsions:
REMARK  status: ('A' for Active; 'I' for Inactive)
REMARK    1  A    between atoms: C1_2  and  C2_3 
REMARK    2  A    between atoms: C2_3  and  C3_4 
ROOT
ATOM      1  C3  UNL d   1       0.390   0.386   0.383  0.00  0.00    -0.075 A 
ATOM      2  C4  UNL d   1      -0.133   1.659   0.117  0.00  0.00     0.002 A 
ATOM      3  C5  UNL d   1      -1.258   2.119   0.801  0.00  0.00     0.002 A 
ATOM      4  C6  UNL d   1      -1.880   1.310   1.749  0.00  0.00    -0.004 A 
ATOM      5  C7  UNL d   1      -1.379   0.036   2.009  0.00  0.00     0.002 A 
ATOM      6  C8  UNL d   1      -0.250  -0.425   1.329  0.00  0.00     0.002 A 
ENDROOT
BRANCH   1   7
ATOM      7  C2  UNL d   1       1.626  -0.107  -0.333  0.00  0.00     0.056 C 
BRANCH   7   8
ATOM      8  C1  UNL d   1       1.767  -1.632  -0.356  0.00  0.00     0.007 C 
ATOM      9  C   UNL d   1       1.073  -2.282  -1.546  0.00  0.00     0.009 C 
ENDBRANCH   7   8
ENDBRANCH   1   7
TORSDOF 2
ENDMDL
