MODEL 1
REMARK minimizedAffinity -2.06220198
REMARK minimizedRMSD -1
REMARK  2 active torsions:
REMARK  status: ('A' for Active; 'I' for Inactive)
REMARK    1  A    between atoms: C1_2  and  C2_3 
REMARK    2  A    between atoms: C2_3  and  C3_4 
ROOT
ATOM      1  C3  UNL d   1       0.428  -1.026  -0.347  0.00  0.00    -0.075 A 
ATOM      2  C4  UNL d   1      -0.365  -1.496   0.710  0.00  0.00     0.002 A 
ATOM      3  C5  UNL d   1      -0.863  -0.614   1.669  0.00  0.00     0.002 A 
ATOM      4  C6  UNL d   1      -0.567   0.745   1.590  0.00  0.00    -0.004 A 
ATOM      5  C7  UNL d   1       0.234   1.221   0.554  0.00  0.00     0.002 A 
ATOM      6  C8  UNL d   1       0.730   0.341  -0.410  0.00  0.00     0.002 A 
ENDROOT
BRANCH   1   7
ATOM      7  C2  UNL d   1       0.946  -1.971  -1.404  0.00  0.00     0.056 C 
BRANCH   7   8
ATOM      8  C1  UNL d   1       1.333  -3.354  -0.869  0.00  0.00     0.007 C 
ATOM      9  C   UNL d   1       0.493  -4.481  -1.456  0.00  0.00     0.009 C 
ENDBRANCH   7   8
ENDBRANCH   1   7
TORSDOF 2
ENDMDL
