MODEL 1
REMARK minimizedAffinity -4.70628643
REMARK minimizedRMSD -1
REMARK  2 active torsions:
REMARK  status: ('A' for Active; 'I' for Inactive)
REMARK    1  A    between atoms: C1_2  and  C2_3 
REMARK    2  A    between atoms: C2_3  and  C3_4 
ROOT
ATOM      1  C3  UNL d   1       0.321   0.714   0.057  0.00  0.00    -0.075 A 
ATOM      2  C4  UNL d   1       0.502   1.910  -0.653  0.00  0.00     0.002 A 
ATOM      3  C5  UNL d   1      -0.041   3.105  -0.179  0.00  0.00     0.002 A 
ATOM      4  C6  UNL d   1      -0.779   3.117   1.002  0.00  0.00    -0.004 A 
ATOM      5  C7  UNL d   1      -0.980   1.933   1.707  0.00  0.00     0.002 A 
ATOM      6  C8  UNL d   1      -0.433   0.737   1.238  0.00  0.00     0.002 A 
ENDROOT
BRANCH   1   7
ATOM      7  C2  UNL d   1       0.932  -0.576  -0.434  0.00  0.00     0.056 C 
BRANCH   7   8
ATOM      8  C1  UNL d   1      -0.019  -1.435  -1.276  0.00  0.00     0.007 C 
ATOM      9  C   UNL d   1       0.678  -2.599  -1.967  0.00  0.00     0.009 C 
ENDBRANCH   7   8
ENDBRANCH   1   7
TORSDOF 2
ENDMDL
