MODEL 1
REMARK minimizedAffinity -6.26855946
REMARK minimizedRMSD -1
REMARK  2 active torsions:
REMARK  status: ('A' for Active; 'I' for Inactive)
REMARK    1  A    between atoms: C1_2  and  C2_3 
REMARK    2  A    between atoms: C2_3  and  C3_4 
ROOT
ATOM      1  C3  UNL d   1      -0.882   1.203  -0.019  0.00  0.00    -0.075 A 
ATOM      2  C4  UNL d   1      -1.306   2.199   0.872  0.00  0.00     0.002 A 
ATOM      3  C5  UNL d   1      -1.273   3.543   0.500  0.00  0.00     0.002 A 
ATOM      4  C6  UNL d   1      -0.805   3.909  -0.761  0.00  0.00    -0.004 A 
ATOM      5  C7  UNL d   1      -0.365   2.929  -1.648  0.00  0.00     0.002 A 
ATOM      6  C8  UNL d   1      -0.402   1.583  -1.280  0.00  0.00     0.002 A 
ENDROOT
BRANCH   1   7
ATOM      7  C2  UNL d   1      -0.943  -0.256   0.366  0.00  0.00     0.056 C 
BRANCH   7   8
ATOM      8  C1  UNL d   1       0.415  -0.861   0.737  0.00  0.00     0.007 C 
ATOM      9  C   UNL d   1       1.148  -1.466  -0.454  0.00  0.00     0.009 C 
ENDBRANCH   7   8
ENDBRANCH   1   7
TORSDOF 2
ENDMDL
