MODEL 1
REMARK minimizedAffinity -1.80720246
REMARK minimizedRMSD -1
REMARK  2 active torsions:
REMARK  status: ('A' for Active; 'I' for Inactive)
REMARK    1  A    between atoms: C1_2  and  C2_3 
REMARK    2  A    between atoms: C2_3  and  C3_4 
ROOT
ATOM      1  C3  UNL d   1       0.227  -0.628   0.370  0.00  0.00    -0.075 A 
ATOM      2  C4  UNL d   1       0.098   0.549  -0.380  0.00  0.00     0.002 A 
ATOM      3  C5  UNL d   1      -0.685   1.605   0.088  0.00  0.00     0.002 A 
ATOM      4  C6  UNL d   1      -1.354   1.494   1.305  0.00  0.00    -0.004 A 
ATOM      5  C7  UNL d   1      -1.246   0.322   2.051  0.00  0.00     0.002 A 
ATOM      6  C8  UNL d   1      -0.461  -0.735   1.586  0.00  0.00     0.002 A 
ENDROOT
BRANCH   1   7
ATOM      7  C2  UNL d   1       1.096  -1.763  -0.117  0.00  0.00     0.056 C 
BRANCH   7   8
ATOM      8  C1  UNL d   1       0.582  -2.439  -1.393  0.00  0.00     0.007 C 
ATOM      9  C   UNL d   1       0.984  -3.904  -1.500  0.00  0.00     0.009 C 
ENDBRANCH   7   8
ENDBRANCH   1   7
TORSDOF 2
ENDMDL
