MODEL 1
REMARK minimizedAffinity -3.94062781
REMARK minimizedRMSD -1
REMARK  0 active torsions:
REMARK  status: ('A' for Active; 'I' for Inactive)
ROOT
ATOM      1  C2' OXE d   1      -1.152  -0.729   1.595  0.00  0.00     0.078 C 
ATOM      2  C1' OXE d   1       0.473  -0.982  -0.680  0.00  0.00     0.078 C 
ATOM      3  C1  OXE d   1       0.533   0.315   0.087  0.00  0.00    -0.078 A 
ATOM      4  C2  OXE d   1      -0.300   0.448   1.172  0.00  0.00    -0.078 A 
ATOM      5  C3  OXE d   1      -0.244   1.603   1.947  0.00  0.00     0.003 A 
ATOM      6  C4  OXE d   1       0.540   2.690   1.543  0.00  0.00    -0.002 A 
ATOM      7  C5  OXE d   1       1.366   2.591   0.418  0.00  0.00    -0.002 A 
ATOM      8  C6  OXE d   1       1.406   1.398  -0.295  0.00  0.00     0.003 A 
ENDROOT
TORSDOF 0
ENDMDL
