MODEL 1
REMARK minimizedAffinity -3.68898273
REMARK minimizedRMSD -1
REMARK  0 active torsions:
REMARK  status: ('A' for Active; 'I' for Inactive)
ROOT
ATOM      1  C2' OXE d   1      -0.282  -1.505  -1.178  0.00  0.00     0.078 C 
ATOM      2  C1' OXE d   1      -0.750   0.768   0.402  0.00  0.00     0.078 C 
ATOM      3  C1  OXE d   1      -0.936  -0.584   1.043  0.00  0.00    -0.078 A 
ATOM      4  C2  OXE d   1      -0.750  -1.691   0.249  0.00  0.00    -0.078 A 
ATOM      5  C3  OXE d   1      -0.856  -2.963   0.805  0.00  0.00     0.003 A 
ATOM      6  C4  OXE d   1      -1.299  -3.126   2.123  0.00  0.00    -0.002 A 
ATOM      7  C5  OXE d   1      -1.533  -2.013   2.936  0.00  0.00    -0.002 A 
ATOM      8  C6  OXE d   1      -1.315  -0.738   2.425  0.00  0.00     0.003 A 
ENDROOT
TORSDOF 0
ENDMDL
