MODEL 1
REMARK minimizedAffinity -1.41460919
REMARK minimizedRMSD -1
REMARK  0 active torsions:
REMARK  status: ('A' for Active; 'I' for Inactive)
ROOT
ATOM      1  C2' OXE d   1       3.168   1.140  -0.884  0.00  0.00     0.078 C 
ATOM      2  C1' OXE d   1       1.618   2.759   0.807  0.00  0.00     0.078 C 
ATOM      3  C1  OXE d   1       0.990   1.495   0.273  0.00  0.00    -0.078 A 
ATOM      4  C2  OXE d   1       1.740   0.733  -0.591  0.00  0.00    -0.078 A 
ATOM      5  C3  OXE d   1       1.230  -0.470  -1.069  0.00  0.00     0.003 A 
ATOM      6  C4  OXE d   1      -0.096  -0.834  -0.802  0.00  0.00    -0.002 A 
ATOM      7  C5  OXE d   1      -0.890  -0.052   0.044  0.00  0.00    -0.002 A 
ATOM      8  C6  OXE d   1      -0.349   1.091   0.622  0.00  0.00     0.003 A 
ENDROOT
TORSDOF 0
ENDMDL
