MODEL 1
REMARK minimizedAffinity -3.68830824
REMARK minimizedRMSD -1
REMARK  0 active torsions:
REMARK  status: ('A' for Active; 'I' for Inactive)
ROOT
ATOM      1  C2' OXE d   1      -1.226   0.912   1.498  0.00  0.00     0.078 C 
ATOM      2  C1' OXE d   1       1.144   2.403   1.296  0.00  0.00     0.078 C 
ATOM      3  C1  OXE d   1       1.119   1.034   0.664  0.00  0.00    -0.078 A 
ATOM      4  C2  OXE d   1      -0.029   0.293   0.808  0.00  0.00    -0.078 A 
ATOM      5  C3  OXE d   1      -0.125  -0.955   0.198  0.00  0.00     0.003 A 
ATOM      6  C4  OXE d   1       0.989  -1.525  -0.429  0.00  0.00    -0.002 A 
ATOM      7  C5  OXE d   1       2.181  -0.802  -0.553  0.00  0.00    -0.002 A 
ATOM      8  C6  OXE d   1       2.248   0.492  -0.050  0.00  0.00     0.003 A 
ENDROOT
TORSDOF 0
ENDMDL
