MODEL 1
REMARK minimizedAffinity -3.08911085
REMARK minimizedRMSD -1
REMARK  0 active torsions:
REMARK  status: ('A' for Active; 'I' for Inactive)
ROOT
ATOM      1  C2' OXE d   1      -0.335  -1.300   0.348  0.00  0.00     0.078 C 
ATOM      2  C1' OXE d   1       1.916  -0.310  -1.004  0.00  0.00     0.078 C 
ATOM      3  C1  OXE d   1       1.292   0.563   0.055  0.00  0.00    -0.078 A 
ATOM      4  C2  OXE d   1       0.163   0.090   0.679  0.00  0.00    -0.078 A 
ATOM      5  C3  OXE d   1      -0.421   0.831   1.703  0.00  0.00     0.003 A 
ATOM      6  C4  OXE d   1       0.039   2.120   1.996  0.00  0.00    -0.002 A 
ATOM      7  C5  OXE d   1       1.164   2.638   1.344  0.00  0.00    -0.002 A 
ATOM      8  C6  OXE d   1       1.826   1.856   0.404  0.00  0.00     0.003 A 
ENDROOT
TORSDOF 0
ENDMDL
