MODEL 1
REMARK minimizedAffinity -3.94463491
REMARK minimizedRMSD -1
REMARK  0 active torsions:
REMARK  status: ('A' for Active; 'I' for Inactive)
ROOT
ATOM      1  C2' OXE d   1      -1.145   1.119   1.489  0.00  0.00     0.078 C 
ATOM      2  C1' OXE d   1       1.130   2.714   1.083  0.00  0.00     0.078 C 
ATOM      3  C1  OXE d   1       1.087   1.364   0.411  0.00  0.00    -0.078 A 
ATOM      4  C2  OXE d   1      -0.009   0.571   0.653  0.00  0.00    -0.078 A 
ATOM      5  C3  OXE d   1      -0.123  -0.660   0.014  0.00  0.00     0.003 A 
ATOM      6  C4  OXE d   1       0.937  -1.164  -0.750  0.00  0.00    -0.002 A 
ATOM      7  C5  OXE d   1       2.079  -0.389  -0.976  0.00  0.00    -0.002 A 
ATOM      8  C6  OXE d   1       2.152   0.891  -0.440  0.00  0.00     0.003 A 
ENDROOT
TORSDOF 0
ENDMDL
