MODEL 1
REMARK minimizedAffinity -4.76276302
REMARK minimizedRMSD -1
REMARK  0 active torsions:
REMARK  status: ('A' for Active; 'I' for Inactive)
ROOT
ATOM      1  C2' OXE d   1       0.974  -1.259  -0.577  0.00  0.00     0.078 C 
ATOM      2  C1' OXE d   1       2.967   0.709  -0.760  0.00  0.00     0.078 C 
ATOM      3  C1  OXE d   1       1.751   1.015   0.079  0.00  0.00    -0.078 A 
ATOM      4  C2  OXE d   1       0.760   0.064   0.125  0.00  0.00    -0.078 A 
ATOM      5  C3  OXE d   1      -0.358   0.273   0.928  0.00  0.00     0.003 A 
ATOM      6  C4  OXE d   1      -0.553   1.504   1.566  0.00  0.00    -0.002 A 
ATOM      7  C5  OXE d   1       0.426   2.500   1.500  0.00  0.00    -0.002 A 
ATOM      8  C6  OXE d   1       1.601   2.256   0.797  0.00  0.00     0.003 A 
ENDROOT
TORSDOF 0
ENDMDL
