MODEL 1
REMARK minimizedAffinity -2.52040887
REMARK minimizedRMSD -1
REMARK  0 active torsions:
REMARK  status: ('A' for Active; 'I' for Inactive)
ROOT
ATOM      1  C2' OXE d   1      -1.104   0.429   1.914  0.00  0.00     0.078 C 
ATOM      2  C1' OXE d   1      -0.254  -0.920  -0.397  0.00  0.00     0.078 C 
ATOM      3  C1  OXE d   1       0.421   0.385  -0.055  0.00  0.00    -0.078 A 
ATOM      4  C2  OXE d   1      -0.033   1.062   1.051  0.00  0.00    -0.078 A 
ATOM      5  C3  OXE d   1       0.591   2.243   1.442  0.00  0.00     0.003 A 
ATOM      6  C4  OXE d   1       1.574   2.826   0.633  0.00  0.00    -0.002 A 
ATOM      7  C5  OXE d   1       2.024   2.174  -0.520  0.00  0.00    -0.002 A 
ATOM      8  C6  OXE d   1       1.489   0.934  -0.854  0.00  0.00     0.003 A 
ENDROOT
TORSDOF 0
ENDMDL
