MODEL 1
REMARK minimizedAffinity -4.88933229
REMARK minimizedRMSD -1
REMARK  0 active torsions:
REMARK  status: ('A' for Active; 'I' for Inactive)
ROOT
ATOM      1  C2' OXE d   1       0.337  -1.454  -0.407  0.00  0.00     0.078 C 
ATOM      2  C1' OXE d   1       2.599   0.150  -0.846  0.00  0.00     0.078 C 
ATOM      3  C1  OXE d   1       1.491   0.714   0.008  0.00  0.00    -0.078 A 
ATOM      4  C2  OXE d   1       0.368  -0.059   0.179  0.00  0.00    -0.078 A 
ATOM      5  C3  OXE d   1      -0.659   0.391   1.003  0.00  0.00     0.003 A 
ATOM      6  C4  OXE d   1      -0.627   1.686   1.534  0.00  0.00    -0.002 A 
ATOM      7  C5  OXE d   1       0.490   2.505   1.339  0.00  0.00    -0.002 A 
ATOM      8  C6  OXE d   1       1.574   2.019   0.616  0.00  0.00     0.003 A 
ENDROOT
TORSDOF 0
ENDMDL
