MODEL 1
REMARK minimizedAffinity -2.04872751
REMARK minimizedRMSD -1
REMARK  0 active torsions:
REMARK  status: ('A' for Active; 'I' for Inactive)
ROOT
ATOM      1  C2' OXE d   1      -0.334  -1.507  -0.750  0.00  0.00     0.078 C 
ATOM      2  C1' OXE d   1      -2.397  -2.287  -2.485  0.00  0.00     0.078 C 
ATOM      3  C1  OXE d   1      -1.607  -3.373  -1.799  0.00  0.00    -0.078 A 
ATOM      4  C2  OXE d   1      -0.569  -2.983  -0.988  0.00  0.00    -0.078 A 
ATOM      5  C3  OXE d   1       0.157  -3.942  -0.288  0.00  0.00     0.003 A 
ATOM      6  C4  OXE d   1      -0.061  -5.306  -0.521  0.00  0.00    -0.002 A 
ATOM      7  C5  OXE d   1      -1.087  -5.725  -1.374  0.00  0.00    -0.002 A 
ATOM      8  C6  OXE d   1      -1.895  -4.774  -1.986  0.00  0.00     0.003 A 
ENDROOT
TORSDOF 0
ENDMDL
