MODEL 1
REMARK minimizedAffinity -2.9472301
REMARK minimizedRMSD -1
REMARK  0 active torsions:
REMARK  status: ('A' for Active; 'I' for Inactive)
ROOT
ATOM      1  C2' OXE d   1       1.148  -1.224  -1.080  0.00  0.00     0.078 C 
ATOM      2  C1' OXE d   1      -0.643  -2.777   0.424  0.00  0.00     0.078 C 
ATOM      3  C1  OXE d   1      -1.093  -2.303  -0.936  0.00  0.00    -0.078 A 
ATOM      4  C2  OXE d   1      -0.228  -1.505  -1.645  0.00  0.00    -0.078 A 
ATOM      5  C3  OXE d   1      -0.571  -1.086  -2.927  0.00  0.00     0.003 A 
ATOM      6  C4  OXE d   1      -1.849  -1.342  -3.439  0.00  0.00    -0.002 A 
ATOM      7  C5  OXE d   1      -2.760  -2.120  -2.716  0.00  0.00    -0.002 A 
ATOM      8  C6  OXE d   1      -2.383  -2.643  -1.484  0.00  0.00     0.003 A 
ENDROOT
TORSDOF 0
ENDMDL
