MODEL 1
REMARK minimizedAffinity -2.54952717
REMARK minimizedRMSD -1
REMARK  0 active torsions:
REMARK  status: ('A' for Active; 'I' for Inactive)
ROOT
ATOM      1  C2' OXE d   1       0.295  -1.346  -0.581  0.00  0.00     0.078 C 
ATOM      2  C1' OXE d   1      -0.927  -1.305   1.946  0.00  0.00     0.078 C 
ATOM      3  C1  OXE d   1      -0.414  -0.000   1.392  0.00  0.00    -0.078 A 
ATOM      4  C2  OXE d   1       0.224  -0.037   0.176  0.00  0.00    -0.078 A 
ATOM      5  C3  OXE d   1       0.669   1.147  -0.406  0.00  0.00     0.003 A 
ATOM      6  C4  OXE d   1       0.609   2.352   0.305  0.00  0.00    -0.002 A 
ATOM      7  C5  OXE d   1      -0.001   2.405   1.562  0.00  0.00    -0.002 A 
ATOM      8  C6  OXE d   1      -0.555   1.248   2.100  0.00  0.00     0.003 A 
ENDROOT
TORSDOF 0
ENDMDL
