MODEL 1
REMARK minimizedAffinity -1.0335685
REMARK minimizedRMSD -1
REMARK  0 active torsions:
REMARK  status: ('A' for Active; 'I' for Inactive)
ROOT
ATOM      1  C2' OXE d   1      -4.774  -3.306  -1.175  0.00  0.00     0.078 C 
ATOM      2  C1' OXE d   1      -2.322  -3.300   0.190  0.00  0.00     0.078 C 
ATOM      3  C1  OXE d   1      -2.416  -2.508  -1.090  0.00  0.00    -0.078 A 
ATOM      4  C2  OXE d   1      -3.606  -2.555  -1.776  0.00  0.00    -0.078 A 
ATOM      5  C3  OXE d   1      -3.764  -1.799  -2.934  0.00  0.00     0.003 A 
ATOM      6  C4  OXE d   1      -2.675  -1.115  -3.489  0.00  0.00    -0.002 A 
ATOM      7  C5  OXE d   1      -1.443  -1.087  -2.827  0.00  0.00    -0.002 A 
ATOM      8  C6  OXE d   1      -1.309  -1.742  -1.608  0.00  0.00     0.003 A 
ENDROOT
TORSDOF 0
ENDMDL
