MODEL 1
REMARK minimizedAffinity -0.679379463
REMARK minimizedRMSD -1
REMARK  0 active torsions:
REMARK  status: ('A' for Active; 'I' for Inactive)
ROOT
ATOM      1  C2' OXE d   1       1.282   2.653  -0.061  0.00  0.00     0.078 C 
ATOM      2  C1' OXE d   1       3.250   0.796  -0.809  0.00  0.00     0.078 C 
ATOM      3  C1  OXE d   1       1.811   0.347  -0.840  0.00  0.00    -0.078 A 
ATOM      4  C2  OXE d   1       0.858   1.247  -0.428  0.00  0.00    -0.078 A 
ATOM      5  C3  OXE d   1      -0.489   0.902  -0.490  0.00  0.00     0.003 A 
ATOM      6  C4  OXE d   1      -0.871  -0.404  -0.821  0.00  0.00    -0.002 A 
ATOM      7  C5  OXE d   1       0.086  -1.348  -1.206  0.00  0.00    -0.002 A 
ATOM      8  C6  OXE d   1       1.425  -0.977  -1.262  0.00  0.00     0.003 A 
ENDROOT
TORSDOF 0
ENDMDL
