MODEL 1
REMARK minimizedAffinity -4.68800497
REMARK minimizedRMSD -1
REMARK  0 active torsions:
REMARK  status: ('A' for Active; 'I' for Inactive)
ROOT
ATOM      1  C2' OXE d   1      -1.295  -0.068   1.962  0.00  0.00     0.078 C 
ATOM      2  C1' OXE d   1       0.014  -1.066  -0.312  0.00  0.00     0.078 C 
ATOM      3  C1  OXE d   1       0.428   0.291   0.199  0.00  0.00    -0.078 A 
ATOM      4  C2  OXE d   1      -0.250   0.792   1.285  0.00  0.00    -0.078 A 
ATOM      5  C3  OXE d   1       0.130   2.015   1.830  0.00  0.00     0.003 A 
ATOM      6  C4  OXE d   1       1.091   2.808   1.192  0.00  0.00    -0.002 A 
ATOM      7  C5  OXE d   1       1.766   2.334   0.062  0.00  0.00    -0.002 A 
ATOM      8  C6  OXE d   1       1.477   1.062  -0.421  0.00  0.00     0.003 A 
ENDROOT
TORSDOF 0
ENDMDL
