MODEL 1
REMARK minimizedAffinity -4.97652054
REMARK minimizedRMSD -1
REMARK  0 active torsions:
REMARK  status: ('A' for Active; 'I' for Inactive)
ROOT
ATOM      1  C2' OXE d   1       2.799   1.199  -1.067  0.00  0.00     0.078 C 
ATOM      2  C1' OXE d   1       1.694   2.869   0.900  0.00  0.00     0.078 C 
ATOM      3  C1  OXE d   1       1.062   1.515   0.691  0.00  0.00    -0.078 A 
ATOM      4  C2  OXE d   1       1.580   0.724  -0.306  0.00  0.00    -0.078 A 
ATOM      5  C3  OXE d   1       1.071  -0.556  -0.505  0.00  0.00     0.003 A 
ATOM      6  C4  OXE d   1      -0.063  -0.985   0.196  0.00  0.00    -0.002 A 
ATOM      7  C5  OXE d   1      -0.631  -0.178   1.188  0.00  0.00    -0.002 A 
ATOM      8  C6  OXE d   1      -0.056   1.054   1.476  0.00  0.00     0.003 A 
ENDROOT
TORSDOF 0
ENDMDL
