MODEL 1
REMARK minimizedAffinity -3.02790403
REMARK minimizedRMSD -1
REMARK  0 active torsions:
REMARK  status: ('A' for Active; 'I' for Inactive)
ROOT
ATOM      1  C2' OXE d   1       0.485  -0.928  -0.786  0.00  0.00     0.078 C 
ATOM      2  C1' OXE d   1      -1.015  -2.847   0.610  0.00  0.00     0.078 C 
ATOM      3  C1  OXE d   1      -1.465  -2.477  -0.781  0.00  0.00    -0.078 A 
ATOM      4  C2  OXE d   1      -0.753  -1.504  -1.439  0.00  0.00    -0.078 A 
ATOM      5  C3  OXE d   1      -1.093  -1.165  -2.745  0.00  0.00     0.003 A 
ATOM      6  C4  OXE d   1      -2.245  -1.694  -3.338  0.00  0.00    -0.002 A 
ATOM      7  C5  OXE d   1      -3.008  -2.658  -2.670  0.00  0.00    -0.002 A 
ATOM      8  C6  OXE d   1      -2.609  -3.091  -1.411  0.00  0.00     0.003 A 
ENDROOT
TORSDOF 0
ENDMDL
