MODEL 1
REMARK minimizedAffinity -3.91661167
REMARK minimizedRMSD -1
REMARK  0 active torsions:
REMARK  status: ('A' for Active; 'I' for Inactive)
ROOT
ATOM      1  C2' OXE d   1      -1.713  -5.529  -0.320  0.00  0.00     0.078 C 
ATOM      2  C1' OXE d   1      -3.214  -3.166  -0.530  0.00  0.00     0.078 C 
ATOM      3  C1  OXE d   1      -2.314  -3.323   0.669  0.00  0.00    -0.078 A 
ATOM      4  C2  OXE d   1      -1.618  -4.502   0.788  0.00  0.00    -0.078 A 
ATOM      5  C3  OXE d   1      -0.732  -4.676   1.847  0.00  0.00     0.003 A 
ATOM      6  C4  OXE d   1      -0.657  -3.726   2.873  0.00  0.00    -0.002 A 
ATOM      7  C5  OXE d   1      -1.387  -2.535   2.791  0.00  0.00    -0.002 A 
ATOM      8  C6  OXE d   1      -2.186  -2.300   1.678  0.00  0.00     0.003 A 
ENDROOT
TORSDOF 0
ENDMDL
