MODEL 1
REMARK minimizedAffinity -2.98541021
REMARK minimizedRMSD -1
REMARK  0 active torsions:
REMARK  status: ('A' for Active; 'I' for Inactive)
ROOT
ATOM      1  C   UNL d   1       1.099  -1.499  -0.585  0.00  0.00     0.020 A 
ATOM      2  C1  UNL d   1       1.696  -0.908   0.527  0.00  0.00     0.020 A 
ATOM      3  C2  UNL d   1       0.927  -0.152   1.414  0.00  0.00     0.034 A 
ATOM      4  C3  UNL d   1      -0.444   0.016   1.189  0.00  0.00     0.017 A 
ATOM      5  C4  UNL d   1      -1.043  -0.577   0.072  0.00  0.00     0.017 A 
ATOM      6  C5  UNL d   1      -0.268  -1.334  -0.812  0.00  0.00     0.034 A 
ATOM      7 Cl   UNL d   1      -2.729  -0.415  -0.271  0.00  0.00    -0.070 Cl
ATOM      8 Cl1  UNL d   1      -1.334   0.965   2.326  0.00  0.00    -0.070 Cl
ENDROOT
TORSDOF 0
ENDMDL
