MODEL 1
REMARK minimizedAffinity -3.35113049
REMARK minimizedRMSD -1
REMARK  0 active torsions:
REMARK  status: ('A' for Active; 'I' for Inactive)
ROOT
ATOM      1  C   UNL d   1      -1.684   0.088  -0.435  0.00  0.00     0.020 A 
ATOM      2  C1  UNL d   1      -0.462  -0.436  -0.854  0.00  0.00     0.020 A 
ATOM      3  C2  UNL d   1       0.664  -0.320  -0.036  0.00  0.00     0.034 A 
ATOM      4  C3  UNL d   1       0.570   0.322   1.205  0.00  0.00     0.017 A 
ATOM      5  C4  UNL d   1      -0.658   0.847   1.624  0.00  0.00     0.017 A 
ATOM      6  C5  UNL d   1      -1.782   0.728   0.801  0.00  0.00     0.034 A 
ATOM      7 Cl   UNL d   1      -0.852   1.652   3.141  0.00  0.00    -0.070 Cl
ATOM      8 Cl1  UNL d   1       2.002   0.429   2.165  0.00  0.00    -0.070 Cl
ENDROOT
TORSDOF 0
ENDMDL
