MODEL 1
REMARK minimizedAffinity -5.43924189
REMARK minimizedRMSD -1
REMARK  0 active torsions:
REMARK  status: ('A' for Active; 'I' for Inactive)
ROOT
ATOM      1  C   UNL d   1      -0.917  -0.507  -0.573  0.00  0.00     0.020 A 
ATOM      2  C1  UNL d   1      -2.054   0.039   0.021  0.00  0.00     0.020 A 
ATOM      3  C2  UNL d   1      -1.941   0.768   1.207  0.00  0.00     0.034 A 
ATOM      4  C3  UNL d   1      -0.688   0.953   1.802  0.00  0.00     0.017 A 
ATOM      5  C4  UNL d   1       0.453   0.404   1.205  0.00  0.00     0.017 A 
ATOM      6  C5  UNL d   1       0.334  -0.325   0.018  0.00  0.00     0.034 A 
ATOM      7 Cl   UNL d   1       2.033   0.590   1.881  0.00  0.00    -0.070 Cl
ATOM      8 Cl1  UNL d   1      -0.622   1.866   3.268  0.00  0.00    -0.070 Cl
ENDROOT
TORSDOF 0
ENDMDL
