MODEL 1
REMARK minimizedAffinity -1.67010057
REMARK minimizedRMSD -1
REMARK  0 active torsions:
REMARK  status: ('A' for Active; 'I' for Inactive)
ROOT
ATOM      1  C   UNL d   1      -0.193  -0.776  -1.090  0.00  0.00     0.020 A 
ATOM      2  C1  UNL d   1      -1.419  -0.149  -0.870  0.00  0.00     0.020 A 
ATOM      3  C2  UNL d   1      -1.658   0.513   0.336  0.00  0.00     0.034 A 
ATOM      4  C3  UNL d   1      -0.670   0.549   1.327  0.00  0.00     0.017 A 
ATOM      5  C4  UNL d   1       0.560  -0.080   1.105  0.00  0.00     0.017 A 
ATOM      6  C5  UNL d   1       0.795  -0.741  -0.104  0.00  0.00     0.034 A 
ATOM      7 Cl   UNL d   1       1.828  -0.077   2.280  0.00  0.00    -0.070 Cl
ATOM      8 Cl1  UNL d   1      -1.035   1.386   2.794  0.00  0.00    -0.070 Cl
ENDROOT
TORSDOF 0
ENDMDL
