MODEL 1
REMARK minimizedAffinity -4.28659487
REMARK minimizedRMSD -1
REMARK  0 active torsions:
REMARK  status: ('A' for Active; 'I' for Inactive)
ROOT
ATOM      1  C   UNL d   1      -0.584   2.096   0.890  0.00  0.00     0.020 A 
ATOM      2  C1  UNL d   1       0.062   1.408   1.915  0.00  0.00     0.020 A 
ATOM      3  C2  UNL d   1       0.821   0.272   1.624  0.00  0.00     0.034 A 
ATOM      4  C3  UNL d   1       0.936  -0.178   0.304  0.00  0.00     0.017 A 
ATOM      5  C4  UNL d   1       0.288   0.515  -0.725  0.00  0.00     0.017 A 
ATOM      6  C5  UNL d   1      -0.471   1.651  -0.428  0.00  0.00     0.034 A 
ATOM      7 Cl   UNL d   1       0.384   0.020  -2.379  0.00  0.00    -0.070 Cl
ATOM      8 Cl1  UNL d   1       1.892  -1.588   0.016  0.00  0.00    -0.070 Cl
ENDROOT
TORSDOF 0
ENDMDL
