MODEL 1
REMARK minimizedAffinity -4.38023663
REMARK minimizedRMSD -1
REMARK  0 active torsions:
REMARK  status: ('A' for Active; 'I' for Inactive)
ROOT
ATOM      1  C   UNL d   1       0.860  -0.660  -0.761  0.00  0.00     0.077 C 
ATOM      2  C1  UNL d   1       0.083   0.374  -0.001  0.00  0.00    -0.074 A 
ATOM      3  C2  UNL d   1      -0.528   0.063   1.218  0.00  0.00    -0.005 A 
ATOM      4  C3  UNL d   1      -1.239   1.038   1.917  0.00  0.00     0.006 A 
ATOM      5  C4  UNL d   1      -1.346   2.331   1.406  0.00  0.00    -0.005 A 
ATOM      6  C5  UNL d   1      -0.741   2.662   0.189  0.00  0.00    -0.074 A 
ATOM      7  C6  UNL d   1      -0.838   4.050  -0.370  0.00  0.00     0.077 C 
ATOM      8  C7  UNL d   1      -0.022   1.678  -0.504  0.00  0.00    -0.001 A 
ENDROOT
TORSDOF 0
ENDMDL
