MODEL 1
REMARK minimizedAffinity -3.1270051
REMARK minimizedRMSD -1
REMARK  0 active torsions:
REMARK  status: ('A' for Active; 'I' for Inactive)
ROOT
ATOM      1  C   UNL d   1      -0.647   3.109  -1.111  0.00  0.00     0.077 C 
ATOM      2  C1  UNL d   1      -0.537   1.775  -0.436  0.00  0.00    -0.074 A 
ATOM      3  C2  UNL d   1      -1.167   1.535   0.790  0.00  0.00    -0.005 A 
ATOM      4  C3  UNL d   1      -1.064   0.286   1.401  0.00  0.00     0.006 A 
ATOM      5  C4  UNL d   1      -0.331  -0.735   0.795  0.00  0.00    -0.005 A 
ATOM      6  C5  UNL d   1       0.305  -0.515  -0.431  0.00  0.00    -0.074 A 
ATOM      7  C6  UNL d   1       1.088  -1.604  -1.102  0.00  0.00     0.077 C 
ATOM      8  C7  UNL d   1       0.191   0.741  -1.043  0.00  0.00    -0.001 A 
ENDROOT
TORSDOF 0
ENDMDL
