MODEL 1
REMARK minimizedAffinity -3.730088
REMARK minimizedRMSD -1
REMARK  0 active torsions:
REMARK  status: ('A' for Active; 'I' for Inactive)
ROOT
ATOM      1  C   UNL d   1       0.885  -0.925  -0.447  0.00  0.00     0.077 C 
ATOM      2  C1  UNL d   1       0.301   0.451  -0.330  0.00  0.00    -0.074 A 
ATOM      3  C2  UNL d   1       0.629   1.452  -1.250  0.00  0.00    -0.005 A 
ATOM      4  C3  UNL d   1       0.071   2.725  -1.133  0.00  0.00     0.006 A 
ATOM      5  C4  UNL d   1      -0.819   3.010  -0.097  0.00  0.00    -0.005 A 
ATOM      6  C5  UNL d   1      -1.160   2.021   0.832  0.00  0.00    -0.074 A 
ATOM      7  C6  UNL d   1      -2.123   2.308   1.946  0.00  0.00     0.077 C 
ATOM      8  C7  UNL d   1      -0.600   0.743   0.704  0.00  0.00    -0.001 A 
ENDROOT
TORSDOF 0
ENDMDL
