MODEL 1
REMARK minimizedAffinity -3.24956536
REMARK minimizedRMSD -1
REMARK  0 active torsions:
REMARK  status: ('A' for Active; 'I' for Inactive)
ROOT
ATOM      1  C   UNL d   1      -2.408   1.950   1.196  0.00  0.00     0.077 C 
ATOM      2  C1  UNL d   1      -1.267   1.059   0.805  0.00  0.00    -0.074 A 
ATOM      3  C2  UNL d   1      -0.887  -0.018   1.611  0.00  0.00    -0.005 A 
ATOM      4  C3  UNL d   1       0.171  -0.844   1.229  0.00  0.00     0.006 A 
ATOM      5  C4  UNL d   1       0.858  -0.601   0.039  0.00  0.00    -0.005 A 
ATOM      6  C5  UNL d   1       0.491   0.471  -0.781  0.00  0.00    -0.074 A 
ATOM      7  C6  UNL d   1       1.212   0.741  -2.068  0.00  0.00     0.077 C 
ATOM      8  C7  UNL d   1      -0.577   1.292  -0.394  0.00  0.00    -0.001 A 
ENDROOT
TORSDOF 0
ENDMDL
