MODEL 1
REMARK minimizedAffinity -3.46500063
REMARK minimizedRMSD -1
REMARK  0 active torsions:
REMARK  status: ('A' for Active; 'I' for Inactive)
ROOT
ATOM      1  C   UNL d   1      -2.317   2.326   1.069  0.00  0.00     0.077 C 
ATOM      2  C1  UNL d   1      -1.286   1.331   0.628  0.00  0.00    -0.074 A 
ATOM      3  C2  UNL d   1      -0.679   1.434  -0.628  0.00  0.00    -0.005 A 
ATOM      4  C3  UNL d   1       0.286   0.506  -1.021  0.00  0.00     0.006 A 
ATOM      5  C4  UNL d   1       0.652  -0.532  -0.164  0.00  0.00    -0.005 A 
ATOM      6  C5  UNL d   1       0.056  -0.651   1.096  0.00  0.00    -0.074 A 
ATOM      7  C6  UNL d   1       0.446  -1.755   2.033  0.00  0.00     0.077 C 
ATOM      8  C7  UNL d   1      -0.907   0.289   1.486  0.00  0.00    -0.001 A 
ENDROOT
TORSDOF 0
ENDMDL
