MODEL 1
REMARK minimizedAffinity -1.99855161
REMARK minimizedRMSD -1
REMARK  0 active torsions:
REMARK  status: ('A' for Active; 'I' for Inactive)
ROOT
ATOM      1  C   UNL d   1       1.157  -2.488  -1.189  0.00  0.00     0.077 C 
ATOM      2  C1  UNL d   1       0.591  -1.292  -0.483  0.00  0.00    -0.074 A 
ATOM      3  C2  UNL d   1      -0.020  -1.418   0.768  0.00  0.00    -0.005 A 
ATOM      4  C3  UNL d   1      -0.534  -0.295   1.416  0.00  0.00     0.006 A 
ATOM      5  C4  UNL d   1      -0.441   0.964   0.821  0.00  0.00    -0.005 A 
ATOM      6  C5  UNL d   1       0.168   1.110  -0.430  0.00  0.00    -0.074 A 
ATOM      7  C6  UNL d   1       0.285   2.456  -1.080  0.00  0.00     0.077 C 
ATOM      8  C7  UNL d   1       0.688  -0.023  -1.072  0.00  0.00    -0.001 A 
ENDROOT
TORSDOF 0
ENDMDL
