MODEL 1
REMARK minimizedAffinity -5.15212584
REMARK minimizedRMSD -1
REMARK  0 active torsions:
REMARK  status: ('A' for Active; 'I' for Inactive)
ROOT
ATOM      1  C   UNL d   1      -2.296   2.001   1.034  0.00  0.00     0.077 C 
ATOM      2  C1  UNL d   1      -1.239   0.965   0.789  0.00  0.00    -0.074 A 
ATOM      3  C2  UNL d   1      -1.125  -0.155   1.618  0.00  0.00    -0.005 A 
ATOM      4  C3  UNL d   1      -0.143  -1.115   1.372  0.00  0.00     0.006 A 
ATOM      5  C4  UNL d   1       0.733  -0.964   0.297  0.00  0.00    -0.005 A 
ATOM      6  C5  UNL d   1       0.633   0.150  -0.544  0.00  0.00    -0.074 A 
ATOM      7  C6  UNL d   1       1.560   0.322  -1.710  0.00  0.00     0.077 C 
ATOM      8  C7  UNL d   1      -0.361   1.106  -0.294  0.00  0.00    -0.001 A 
ENDROOT
TORSDOF 0
ENDMDL
