MODEL 1
REMARK minimizedAffinity -4.93078279
REMARK minimizedRMSD -1
REMARK  0 active torsions:
REMARK  status: ('A' for Active; 'I' for Inactive)
ROOT
ATOM      1  C   UNL d   1      -2.091   2.801   0.854  0.00  0.00     0.077 C 
ATOM      2  C1  UNL d   1      -1.150   1.655   0.628  0.00  0.00    -0.074 A 
ATOM      3  C2  UNL d   1      -0.496   1.493  -0.597  0.00  0.00    -0.005 A 
ATOM      4  C3  UNL d   1       0.383   0.428  -0.790  0.00  0.00     0.006 A 
ATOM      5  C4  UNL d   1       0.617  -0.485   0.239  0.00  0.00    -0.005 A 
ATOM      6  C5  UNL d   1      -0.028  -0.339   1.472  0.00  0.00    -0.074 A 
ATOM      7  C6  UNL d   1       0.220  -1.306   2.592  0.00  0.00     0.077 C 
ATOM      8  C7  UNL d   1      -0.905   0.738   1.660  0.00  0.00    -0.001 A 
ENDROOT
TORSDOF 0
ENDMDL
