MODEL 1
REMARK minimizedAffinity -2.02970028
REMARK minimizedRMSD -1
REMARK  0 active torsions:
REMARK  status: ('A' for Active; 'I' for Inactive)
ROOT
ATOM      1  C   UNL d   1      -0.783   1.030  -0.728  0.00  0.00     0.077 C 
ATOM      2  C1  UNL d   1      -0.098  -0.291  -0.915  0.00  0.00    -0.074 A 
ATOM      3  C2  UNL d   1       0.919  -0.703  -0.048  0.00  0.00    -0.005 A 
ATOM      4  C3  UNL d   1       1.540  -1.939  -0.228  0.00  0.00     0.006 A 
ATOM      5  C4  UNL d   1       1.150  -2.774  -1.276  0.00  0.00    -0.005 A 
ATOM      6  C5  UNL d   1       0.134  -2.380  -2.152  0.00  0.00    -0.074 A 
ATOM      7  C6  UNL d   1      -0.303  -3.270  -3.277  0.00  0.00     0.077 C 
ATOM      8  C7  UNL d   1      -0.489  -1.139  -1.960  0.00  0.00    -0.001 A 
ENDROOT
TORSDOF 0
ENDMDL
