MODEL 1
REMARK minimizedAffinity 0.430471212
REMARK minimizedRMSD -1
REMARK  0 active torsions:
REMARK  status: ('A' for Active; 'I' for Inactive)
ROOT
ATOM      1  C   UNL d   1      -0.939   2.009  -0.397  0.00  0.00     0.077 C 
ATOM      2  C1  UNL d   1      -0.291   0.661  -0.289  0.00  0.00    -0.074 A 
ATOM      3  C2  UNL d   1       0.460   0.313   0.839  0.00  0.00    -0.005 A 
ATOM      4  C3  UNL d   1       1.049  -0.948   0.930  0.00  0.00     0.006 A 
ATOM      5  C4  UNL d   1       0.894  -1.872  -0.104  0.00  0.00    -0.005 A 
ATOM      6  C5  UNL d   1       0.146  -1.542  -1.239  0.00  0.00    -0.074 A 
ATOM      7  C6  UNL d   1      -0.039  -2.527  -2.355  0.00  0.00     0.077 C 
ATOM      8  C7  UNL d   1      -0.449  -0.276  -1.320  0.00  0.00    -0.001 A 
ENDROOT
TORSDOF 0
ENDMDL
