MODEL 1
REMARK minimizedAffinity -3.07894802
REMARK minimizedRMSD -1
REMARK  0 active torsions:
REMARK  status: ('A' for Active; 'I' for Inactive)
ROOT
ATOM      1  C   UNL d   1      -1.257   2.932  -1.258  0.00  0.00     0.077 C 
ATOM      2  C1  UNL d   1      -0.964   1.854  -0.257  0.00  0.00    -0.074 A 
ATOM      3  C2  UNL d   1      -1.477   1.921   1.042  0.00  0.00    -0.005 A 
ATOM      4  C3  UNL d   1      -1.204   0.906   1.959  0.00  0.00     0.006 A 
ATOM      5  C4  UNL d   1      -0.416  -0.184   1.587  0.00  0.00    -0.005 A 
ATOM      6  C5  UNL d   1       0.106  -0.268   0.292  0.00  0.00    -0.074 A 
ATOM      7  C6  UNL d   1       0.946  -1.437  -0.127  0.00  0.00     0.077 C 
ATOM      8  C7  UNL d   1      -0.179   0.753  -0.626  0.00  0.00    -0.001 A 
ENDROOT
TORSDOF 0
ENDMDL
