MODEL 1
REMARK minimizedAffinity -0.145078167
REMARK minimizedRMSD -1
REMARK  0 active torsions:
REMARK  status: ('A' for Active; 'I' for Inactive)
ROOT
ATOM      1  C   UNL d   1      -1.926   3.124  -0.745  0.00  0.00     0.077 C 
ATOM      2  C1  UNL d   1      -0.842   2.091  -0.834  0.00  0.00    -0.074 A 
ATOM      3  C2  UNL d   1       0.179   2.200  -1.784  0.00  0.00    -0.005 A 
ATOM      4  C3  UNL d   1       1.186   1.237  -1.848  0.00  0.00     0.006 A 
ATOM      5  C4  UNL d   1       1.182   0.156  -0.966  0.00  0.00    -0.005 A 
ATOM      6  C5  UNL d   1       0.170   0.030  -0.009  0.00  0.00    -0.074 A 
ATOM      7  C6  UNL d   1       0.156  -1.120   0.954  0.00  0.00     0.077 C 
ATOM      8  C7  UNL d   1      -0.834   1.006   0.054  0.00  0.00    -0.001 A 
ENDROOT
TORSDOF 0
ENDMDL
