MODEL 1
REMARK minimizedAffinity -3.33638573
REMARK minimizedRMSD -1
REMARK  0 active torsions:
REMARK  status: ('A' for Active; 'I' for Inactive)
ROOT
ATOM      1  C   UNL d   1       1.326  -2.027  -0.792  0.00  0.00     0.077 C 
ATOM      2  C1  UNL d   1       0.876  -0.597  -0.815  0.00  0.00    -0.074 A 
ATOM      3  C2  UNL d   1       1.467   0.329  -1.680  0.00  0.00    -0.005 A 
ATOM      4  C3  UNL d   1       1.031   1.654  -1.697  0.00  0.00     0.006 A 
ATOM      5  C4  UNL d   1       0.002   2.066  -0.849  0.00  0.00    -0.005 A 
ATOM      6  C5  UNL d   1      -0.602   1.154   0.023  0.00  0.00    -0.074 A 
ATOM      7  C6  UNL d   1      -1.716   1.577   0.933  0.00  0.00     0.077 C 
ATOM      8  C7  UNL d   1      -0.163  -0.177   0.028  0.00  0.00    -0.001 A 
ENDROOT
TORSDOF 0
ENDMDL
