MODEL 1
REMARK minimizedAffinity -1.95904005
REMARK minimizedRMSD -1
REMARK  0 active torsions:
REMARK  status: ('A' for Active; 'I' for Inactive)
ROOT
ATOM      1  C   UNL d   1       0.798   3.087  -2.060  0.00  0.00     0.077 C 
ATOM      2  C1  UNL d   1       0.046   2.049  -1.282  0.00  0.00    -0.074 A 
ATOM      3  C2  UNL d   1      -1.282   2.260  -0.897  0.00  0.00    -0.005 A 
ATOM      4  C3  UNL d   1      -1.972   1.281  -0.183  0.00  0.00     0.006 A 
ATOM      5  C4  UNL d   1      -1.342   0.082   0.154  0.00  0.00    -0.005 A 
ATOM      6  C5  UNL d   1      -0.015  -0.148  -0.224  0.00  0.00    -0.074 A 
ATOM      7  C6  UNL d   1       0.674  -1.435   0.121  0.00  0.00     0.077 C 
ATOM      8  C7  UNL d   1       0.669   0.838  -0.948  0.00  0.00    -0.001 A 
ENDROOT
TORSDOF 0
ENDMDL
