MODEL 1
REMARK minimizedAffinity 2.23868489
REMARK minimizedRMSD -1
REMARK  1 active torsions:
REMARK  status: ('A' for Active; 'I' for Inactive)
REMARK    1  A    between atoms: C1_2  and  C2_3 
ROOT
ATOM      1  C2  UNL d   1      -4.369   0.620  -2.468  0.00  0.00    -0.073 A 
ATOM      2  C3  UNL d   1      -5.258   0.472  -3.538  0.00  0.00    -0.002 A 
ATOM      3  C4  UNL d   1      -5.195   1.335  -4.633  0.00  0.00     0.004 A 
ATOM      4  C5  UNL d   1      -4.239   2.350  -4.672  0.00  0.00    -0.004 A 
ATOM      5  C6  UNL d   1      -3.333   2.507  -3.618  0.00  0.00    -0.075 A 
ATOM      6  C7  UNL d   1      -2.300   3.594  -3.644  0.00  0.00     0.076 C 
ATOM      7  C8  UNL d   1      -3.405   1.637  -2.521  0.00  0.00     0.001 A 
ENDROOT
BRANCH   1   8
ATOM      8  C1  UNL d   1      -4.429  -0.314  -1.288  0.00  0.00     0.053 C 
ATOM      9  C   UNL d   1      -5.163   0.305  -0.108  0.00  0.00     0.018 C 
ENDBRANCH   1   8
TORSDOF 1
ENDMDL
