MODEL 1
REMARK minimizedAffinity 2.19499898
REMARK minimizedRMSD -1
REMARK  1 active torsions:
REMARK  status: ('A' for Active; 'I' for Inactive)
REMARK    1  A    between atoms: C1_2  and  C2_3 
ROOT
ATOM      1  C2  UNL d   1       2.176   1.569   1.335  0.00  0.00    -0.073 A 
ATOM      2  C3  UNL d   1       1.535   0.721   0.424  0.00  0.00    -0.002 A 
ATOM      3  C4  UNL d   1       2.253   0.137  -0.621  0.00  0.00     0.004 A 
ATOM      4  C5  UNL d   1       3.617   0.388  -0.762  0.00  0.00    -0.004 A 
ATOM      5  C6  UNL d   1       4.278   1.223   0.145  0.00  0.00    -0.075 A 
ATOM      6  C7  UNL d   1       5.745   1.506   0.006  0.00  0.00     0.076 C 
ATOM      7  C8  UNL d   1       3.550   1.808   1.190  0.00  0.00     0.001 A 
ENDROOT
BRANCH   1   8
ATOM      8  C1  UNL d   1       1.407   2.196   2.468  0.00  0.00     0.053 C 
ATOM      9  C   UNL d   1       0.640   1.163   3.278  0.00  0.00     0.018 C 
ENDBRANCH   1   8
TORSDOF 1
ENDMDL
