MODEL 1
REMARK minimizedAffinity 6.34538174
REMARK minimizedRMSD -1
REMARK  1 active torsions:
REMARK  status: ('A' for Active; 'I' for Inactive)
REMARK    1  A    between atoms: C1_2  and  C2_3 
ROOT
ATOM      1  C2  UNL d   1       4.078   2.727   2.296  0.00  0.00    -0.073 A 
ATOM      2  C3  UNL d   1       4.025   2.487   0.919  0.00  0.00    -0.002 A 
ATOM      3  C4  UNL d   1       2.924   1.837   0.359  0.00  0.00     0.004 A 
ATOM      4  C5  UNL d   1       1.864   1.428   1.168  0.00  0.00    -0.004 A 
ATOM      5  C6  UNL d   1       1.894   1.669   2.545  0.00  0.00    -0.075 A 
ATOM      6  C7  UNL d   1       0.763   1.233   3.429  0.00  0.00     0.076 C 
ATOM      7  C8  UNL d   1       3.004   2.320   3.100  0.00  0.00     0.001 A 
ENDROOT
BRANCH   1   8
ATOM      8  C1  UNL d   1       5.261   3.435   2.905  0.00  0.00     0.053 C 
ATOM      9  C   UNL d   1       5.450   3.073   4.370  0.00  0.00     0.018 C 
ENDBRANCH   1   8
TORSDOF 1
ENDMDL
