MODEL 1
REMARK minimizedAffinity -4.82291889
REMARK minimizedRMSD -1
REMARK  1 active torsions:
REMARK  status: ('A' for Active; 'I' for Inactive)
REMARK    1  A    between atoms: C1_2  and  C2_3 
ROOT
ATOM      1  C2  UNL d   1       0.306  -0.732   0.235  0.00  0.00    -0.076 A 
ATOM      2  C3  UNL d   1       0.410  -1.396   1.470  0.00  0.00     0.004 A 
ATOM      3  C4  UNL d   1      -0.262  -0.926   2.596  0.00  0.00    -0.003 A 
ATOM      4  C5  UNL d   1      -1.050   0.216   2.506  0.00  0.00     0.000 A 
ATOM      5  C6  UNL d   1      -1.179   0.878   1.285  0.00  0.00     0.000 A 
ATOM      6  C7  UNL d   1      -0.521   0.407   0.136  0.00  0.00    -0.073 A 
ATOM      7  C8  UNL d   1      -0.690   1.163  -1.153  0.00  0.00     0.078 C 
ENDROOT
BRANCH   1   8
ATOM      8  C1  UNL d   1       1.080  -1.273  -0.946  0.00  0.00     0.053 C 
ATOM      9  C   UNL d   1       2.394  -1.920  -0.534  0.00  0.00     0.018 C 
ENDBRANCH   1   8
TORSDOF 1
ENDMDL
