MODEL 1
REMARK minimizedAffinity -1.2559166
REMARK minimizedRMSD -1
REMARK  1 active torsions:
REMARK  status: ('A' for Active; 'I' for Inactive)
REMARK    1  A    between atoms: C1_2  and  C2_3 
ROOT
ATOM      1  C2  UNL d   1      -0.812   1.641  -2.242  0.00  0.00    -0.076 A 
ATOM      2  C3  UNL d   1       0.353   1.254  -1.556  0.00  0.00     0.004 A 
ATOM      3  C4  UNL d   1       0.368   0.114  -0.755  0.00  0.00    -0.003 A 
ATOM      4  C5  UNL d   1      -0.780  -0.659  -0.626  0.00  0.00     0.000 A 
ATOM      5  C6  UNL d   1      -1.940  -0.300  -1.313  0.00  0.00     0.000 A 
ATOM      6  C7  UNL d   1      -1.968   0.837  -2.138  0.00  0.00    -0.073 A 
ATOM      7  C8  UNL d   1      -3.247   1.181  -2.851  0.00  0.00     0.078 C 
ENDROOT
BRANCH   1   8
ATOM      8  C1  UNL d   1      -0.777   2.902  -3.075  0.00  0.00     0.053 C 
ATOM      9  C   UNL d   1      -0.837   4.163  -2.226  0.00  0.00     0.018 C 
ENDBRANCH   1   8
TORSDOF 1
ENDMDL
