MODEL 1
REMARK minimizedAffinity -1.81552148
REMARK minimizedRMSD -1
REMARK  1 active torsions:
REMARK  status: ('A' for Active; 'I' for Inactive)
REMARK    1  A    between atoms: C1_2  and  C2_3 
ROOT
ATOM      1  C2  UNL d   1       0.657  -1.008   0.284  0.00  0.00    -0.076 A 
ATOM      2  C3  UNL d   1       0.911  -1.572   1.546  0.00  0.00     0.004 A 
ATOM      3  C4  UNL d   1       0.172  -1.191   2.664  0.00  0.00    -0.003 A 
ATOM      4  C5  UNL d   1      -0.835  -0.240   2.539  0.00  0.00     0.000 A 
ATOM      5  C6  UNL d   1      -1.113   0.317   1.291  0.00  0.00     0.000 A 
ATOM      6  C7  UNL d   1      -0.388  -0.068   0.150  0.00  0.00    -0.073 A 
ATOM      7  C8  UNL d   1      -0.726   0.570  -1.169  0.00  0.00     0.078 C 
ENDROOT
BRANCH   1   8
ATOM      8  C1  UNL d   1       1.509  -1.439  -0.888  0.00  0.00     0.053 C 
ATOM      9  C   UNL d   1       2.766  -2.178  -0.454  0.00  0.00     0.018 C 
ENDBRANCH   1   8
TORSDOF 1
ENDMDL
