MODEL 1
REMARK minimizedAffinity -3.20747566
REMARK minimizedRMSD -1
REMARK  1 active torsions:
REMARK  status: ('A' for Active; 'I' for Inactive)
REMARK    1  A    between atoms: C1_2  and  C2_3 
ROOT
ATOM      1  C2  UNL d   1       1.553  -2.883   1.495  0.00  0.00    -0.073 A 
ATOM      2  C3  UNL d   1       0.620  -2.518   2.472  0.00  0.00    -0.002 A 
ATOM      3  C4  UNL d   1      -0.132  -1.351   2.329  0.00  0.00     0.004 A 
ATOM      4  C5  UNL d   1       0.037  -0.542   1.205  0.00  0.00    -0.004 A 
ATOM      5  C6  UNL d   1       0.956  -0.896   0.212  0.00  0.00    -0.075 A 
ATOM      6  C7  UNL d   1       1.151  -0.035  -1.001  0.00  0.00     0.076 C 
ATOM      7  C8  UNL d   1       1.708  -2.068   0.365  0.00  0.00     0.001 A 
ENDROOT
BRANCH   1   8
ATOM      8  C1  UNL d   1       2.362  -4.146   1.643  0.00  0.00     0.053 C 
ATOM      9  C   UNL d   1       3.419  -4.276   0.558  0.00  0.00     0.018 C 
ENDBRANCH   1   8
TORSDOF 1
ENDMDL
