MODEL 1
REMARK minimizedAffinity -2.3654139
REMARK minimizedRMSD -1
REMARK  1 active torsions:
REMARK  status: ('A' for Active; 'I' for Inactive)
REMARK    1  A    between atoms: C1_2  and  C2_3 
ROOT
ATOM      1  C2  UNL d   1       0.005   0.424  -0.273  0.00  0.00    -0.073 A 
ATOM      2  C3  UNL d   1       0.249  -0.891  -0.685  0.00  0.00    -0.002 A 
ATOM      3  C4  UNL d   1       1.447  -1.220  -1.320  0.00  0.00     0.004 A 
ATOM      4  C5  UNL d   1       2.415  -0.240  -1.544  0.00  0.00    -0.004 A 
ATOM      5  C6  UNL d   1       2.194   1.077  -1.130  0.00  0.00    -0.075 A 
ATOM      6  C7  UNL d   1       3.224   2.143  -1.365  0.00  0.00     0.076 C 
ATOM      7  C8  UNL d   1       0.987   1.400  -0.495  0.00  0.00     0.001 A 
ENDROOT
BRANCH   1   8
ATOM      8  C1  UNL d   1      -1.285   0.783   0.419  0.00  0.00     0.053 C 
ATOM      9  C   UNL d   1      -2.101  -0.449   0.777  0.00  0.00     0.018 C 
ENDBRANCH   1   8
TORSDOF 1
ENDMDL
