MODEL 1
REMARK minimizedAffinity 6.06895399
REMARK minimizedRMSD -1
REMARK  1 active torsions:
REMARK  status: ('A' for Active; 'I' for Inactive)
REMARK    1  A    between atoms: C1_2  and  C2_3 
ROOT
ATOM      1  C2  UNL d   1      -2.949  -0.333   0.767  0.00  0.00    -0.073 A 
ATOM      2  C3  UNL d   1      -2.362  -0.135  -0.488  0.00  0.00    -0.002 A 
ATOM      3  C4  UNL d   1      -0.991  -0.327  -0.663  0.00  0.00     0.004 A 
ATOM      4  C5  UNL d   1      -0.195  -0.723   0.412  0.00  0.00    -0.004 A 
ATOM      5  C6  UNL d   1      -0.765  -0.938   1.671  0.00  0.00    -0.075 A 
ATOM      6  C7  UNL d   1       0.078  -1.362   2.837  0.00  0.00     0.076 C 
ATOM      7  C8  UNL d   1      -2.143  -0.741   1.839  0.00  0.00     0.001 A 
ENDROOT
BRANCH   1   8
ATOM      8  C1  UNL d   1      -4.431  -0.134   0.959  0.00  0.00     0.053 C 
ATOM      9  C   UNL d   1      -4.740   0.663   2.216  0.00  0.00     0.018 C 
ENDBRANCH   1   8
TORSDOF 1
ENDMDL
