MODEL 1
REMARK minimizedAffinity 2.48991799
REMARK minimizedRMSD -1
REMARK  1 active torsions:
REMARK  status: ('A' for Active; 'I' for Inactive)
REMARK    1  A    between atoms: C1_2  and  C2_3 
ROOT
ATOM      1  C2  UNL d   1       2.125  -4.207   1.043  0.00  0.00    -0.073 A 
ATOM      2  C3  UNL d   1       1.783  -5.467   1.545  0.00  0.00    -0.002 A 
ATOM      3  C4  UNL d   1       0.663  -5.619   2.364  0.00  0.00     0.004 A 
ATOM      4  C5  UNL d   1      -0.127  -4.515   2.684  0.00  0.00    -0.004 A 
ATOM      5  C6  UNL d   1       0.192  -3.249   2.182  0.00  0.00    -0.075 A 
ATOM      6  C7  UNL d   1      -0.647  -2.052   2.519  0.00  0.00     0.076 C 
ATOM      7  C8  UNL d   1       1.319  -3.105   1.362  0.00  0.00     0.001 A 
ENDROOT
BRANCH   1   8
ATOM      8  C1  UNL d   1       3.329  -4.039   0.152  0.00  0.00     0.053 C 
ATOM      9  C   UNL d   1       4.202  -5.284   0.133  0.00  0.00     0.018 C 
ENDBRANCH   1   8
TORSDOF 1
ENDMDL
