MODEL 1
REMARK minimizedAffinity 5.2450819
REMARK minimizedRMSD -1
REMARK  1 active torsions:
REMARK  status: ('A' for Active; 'I' for Inactive)
REMARK    1  A    between atoms: C1_2  and  C2_3 
ROOT
ATOM      1  C2  UNL d   1       0.687  -0.531   0.466  0.00  0.00    -0.073 A 
ATOM      2  C3  UNL d   1       1.171  -1.816   0.194  0.00  0.00    -0.002 A 
ATOM      3  C4  UNL d   1       2.428  -1.987  -0.388  0.00  0.00     0.004 A 
ATOM      4  C5  UNL d   1       3.215  -0.878  -0.697  0.00  0.00    -0.004 A 
ATOM      5  C6  UNL d   1       2.754   0.413  -0.423  0.00  0.00    -0.075 A 
ATOM      6  C7  UNL d   1       3.588   1.617  -0.752  0.00  0.00     0.076 C 
ATOM      7  C8  UNL d   1       1.490   0.577   0.159  0.00  0.00     0.001 A 
ENDROOT
BRANCH   1   8
ATOM      8  C1  UNL d   1      -0.667  -0.341   1.100  0.00  0.00     0.053 C 
ATOM      9  C   UNL d   1      -1.798  -0.610   0.120  0.00  0.00     0.018 C 
ENDBRANCH   1   8
TORSDOF 1
ENDMDL
