MODEL 1
REMARK minimizedAffinity 1.85463321
REMARK minimizedRMSD -1
REMARK  1 active torsions:
REMARK  status: ('A' for Active; 'I' for Inactive)
REMARK    1  A    between atoms: C1_2  and  C2_3 
ROOT
ATOM      1  C2  UNL d   1       1.401  -4.187   2.292  0.00  0.00    -0.073 A 
ATOM      2  C3  UNL d   1       1.626  -3.507   1.090  0.00  0.00    -0.002 A 
ATOM      3  C4  UNL d   1       2.859  -3.603   0.445  0.00  0.00     0.004 A 
ATOM      4  C5  UNL d   1       3.877  -4.386   0.990  0.00  0.00    -0.004 A 
ATOM      5  C6  UNL d   1       3.668  -5.083   2.184  0.00  0.00    -0.075 A 
ATOM      6  C7  UNL d   1       4.754  -5.927   2.785  0.00  0.00     0.076 C 
ATOM      7  C8  UNL d   1       2.428  -4.979   2.828  0.00  0.00     0.001 A 
ENDROOT
BRANCH   1   8
ATOM      8  C1  UNL d   1       0.069  -4.091   2.989  0.00  0.00     0.053 C 
ATOM      9  C   UNL d   1      -0.344  -2.648   3.232  0.00  0.00     0.018 C 
ENDBRANCH   1   8
TORSDOF 1
ENDMDL
