MODEL 1
REMARK minimizedAffinity 5.02058601
REMARK minimizedRMSD -1
REMARK  1 active torsions:
REMARK  status: ('A' for Active; 'I' for Inactive)
REMARK    1  A    between atoms: C1_2  and  C2_3 
ROOT
ATOM      1  C2  UNL d   1       1.118  -2.672   1.658  0.00  0.00    -0.077 A 
ATOM      2  C3  UNL d   1       0.734  -1.386   2.061  0.00  0.00     0.002 A 
ATOM      3  C4  UNL d   1      -0.470  -1.188   2.740  0.00  0.00     0.002 A 
ATOM      4  C5  UNL d   1      -1.297  -2.273   3.025  0.00  0.00    -0.004 A 
ATOM      5  C6  UNL d   1      -0.925  -3.556   2.626  0.00  0.00     0.002 A 
ATOM      6  C7  UNL d   1       0.278  -3.755   1.946  0.00  0.00     0.002 A 
ENDROOT
BRANCH   1   7
ATOM      7  C1  UNL d   1       2.440  -2.894   0.969  0.00  0.00     0.055 C 
ATOM      8  C   UNL d   1       3.426  -3.609   1.881  0.00  0.00     0.019 C 
ENDBRANCH   1   7
TORSDOF 1
ENDMDL
