MODEL 1
REMARK minimizedAffinity 6.74828005
REMARK minimizedRMSD -1
REMARK  1 active torsions:
REMARK  status: ('A' for Active; 'I' for Inactive)
REMARK    1  A    between atoms: C1_2  and  C2_3 
ROOT
ATOM      1  C2  UNL d   1       2.898  -2.965   1.722  0.00  0.00    -0.077 A 
ATOM      2  C3  UNL d   1       3.327  -2.396   2.930  0.00  0.00     0.002 A 
ATOM      3  C4  UNL d   1       2.599  -1.361   3.520  0.00  0.00     0.002 A 
ATOM      4  C5  UNL d   1       1.438  -0.889   2.913  0.00  0.00    -0.004 A 
ATOM      5  C6  UNL d   1       1.004  -1.447   1.711  0.00  0.00     0.002 A 
ATOM      6  C7  UNL d   1       1.731  -2.481   1.119  0.00  0.00     0.002 A 
ENDROOT
BRANCH   1   7
ATOM      7  C1  UNL d   1       3.654  -4.115   1.109  0.00  0.00     0.055 C 
ATOM      8  C   UNL d   1       2.760  -5.334   0.932  0.00  0.00     0.019 C 
ENDBRANCH   1   7
TORSDOF 1
ENDMDL
