MODEL 1
REMARK minimizedAffinity 7.36857653
REMARK minimizedRMSD -1
REMARK  1 active torsions:
REMARK  status: ('A' for Active; 'I' for Inactive)
REMARK    1  A    between atoms: C1_2  and  C2_3 
ROOT
ATOM      1  C2  UNL d   1       3.925   4.246  -5.998  0.00  0.00    -0.077 A 
ATOM      2  C3  UNL d   1       3.579   5.604  -5.998  0.00  0.00     0.002 A 
ATOM      3  C4  UNL d   1       2.237   5.991  -5.999  0.00  0.00     0.002 A 
ATOM      4  C5  UNL d   1       1.232   5.026  -5.995  0.00  0.00    -0.004 A 
ATOM      5  C6  UNL d   1       1.566   3.672  -5.997  0.00  0.00     0.002 A 
ATOM      6  C7  UNL d   1       2.907   3.284  -5.998  0.00  0.00     0.002 A 
ENDROOT
BRANCH   1   7
ATOM      7  C1  UNL d   1       5.371   3.827  -5.948  0.00  0.00     0.055 C 
ATOM      8  C   UNL d   1       5.649   2.941  -4.742  0.00  0.00     0.019 C 
ENDBRANCH   1   7
TORSDOF 1
ENDMDL
