MODEL 1
REMARK minimizedAffinity 13.4957256
REMARK minimizedRMSD -1
REMARK  1 active torsions:
REMARK  status: ('A' for Active; 'I' for Inactive)
REMARK    1  A    between atoms: C1_2  and  C2_3 
ROOT
ATOM      1  C2  UNL d   1       3.120  -2.222   2.990  0.00  0.00    -0.077 A 
ATOM      2  C3  UNL d   1       3.286  -2.966   1.813  0.00  0.00     0.002 A 
ATOM      3  C4  UNL d   1       2.344  -2.883   0.786  0.00  0.00     0.002 A 
ATOM      4  C5  UNL d   1       1.233  -2.054   0.923  0.00  0.00    -0.004 A 
ATOM      5  C6  UNL d   1       1.057  -1.312   2.090  0.00  0.00     0.002 A 
ATOM      6  C7  UNL d   1       1.997  -1.394   3.118  0.00  0.00     0.002 A 
ENDROOT
BRANCH   1   7
ATOM      7  C1  UNL d   1       4.159  -2.272   4.079  0.00  0.00     0.055 C 
ATOM      8  C   UNL d   1       3.603  -2.903   5.347  0.00  0.00     0.019 C 
ENDBRANCH   1   7
TORSDOF 1
ENDMDL
