MODEL 1
REMARK minimizedAffinity 10.7138491
REMARK minimizedRMSD -1
REMARK  1 active torsions:
REMARK  status: ('A' for Active; 'I' for Inactive)
REMARK    1  A    between atoms: C1_2  and  C2_3 
ROOT
ATOM      1  C2  UNL d   1       2.354  -1.416   2.435  0.00  0.00    -0.077 A 
ATOM      2  C3  UNL d   1       0.990  -1.617   2.181  0.00  0.00     0.002 A 
ATOM      3  C4  UNL d   1       0.553  -1.954   0.898  0.00  0.00     0.002 A 
ATOM      4  C5  UNL d   1       1.473  -2.097  -0.138  0.00  0.00    -0.004 A 
ATOM      5  C6  UNL d   1       2.832  -1.897   0.104  0.00  0.00     0.002 A 
ATOM      6  C7  UNL d   1       3.271  -1.559   1.385  0.00  0.00     0.002 A 
ENDROOT
BRANCH   1   7
ATOM      7  C1  UNL d   1       2.833  -1.101   3.829  0.00  0.00     0.055 C 
ATOM      8  C   UNL d   1       3.988  -2.005   4.235  0.00  0.00     0.019 C 
ENDBRANCH   1   7
TORSDOF 1
ENDMDL
