MODEL 1
REMARK minimizedAffinity 1.25727856
REMARK minimizedRMSD -1
REMARK  1 active torsions:
REMARK  status: ('A' for Active; 'I' for Inactive)
REMARK    1  A    between atoms: C1_2  and  C2_3 
ROOT
ATOM      1  C2  UNL d   1       3.166   4.689  -5.893  0.00  0.00    -0.077 A 
ATOM      2  C3  UNL d   1       3.929   3.518  -5.784  0.00  0.00     0.002 A 
ATOM      3  C4  UNL d   1       5.324   3.582  -5.780  0.00  0.00     0.002 A 
ATOM      4  C5  UNL d   1       5.967   4.814  -5.881  0.00  0.00    -0.004 A 
ATOM      5  C6  UNL d   1       5.216   5.984  -5.992  0.00  0.00     0.002 A 
ATOM      6  C7  UNL d   1       3.822   5.922  -5.997  0.00  0.00     0.002 A 
ENDROOT
BRANCH   1   7
ATOM      7  C1  UNL d   1       1.661   4.626  -5.848  0.00  0.00     0.055 C 
ATOM      8  C   UNL d   1       1.181   3.533  -4.904  0.00  0.00     0.019 C 
ENDBRANCH   1   7
TORSDOF 1
ENDMDL
