MODEL 1
REMARK minimizedAffinity 7.55052805
REMARK minimizedRMSD -1
REMARK  1 active torsions:
REMARK  status: ('A' for Active; 'I' for Inactive)
REMARK    1  A    between atoms: C1_2  and  C2_3 
ROOT
ATOM      1  C2  UNL d   1       1.557  -3.166   1.298  0.00  0.00    -0.077 A 
ATOM      2  C3  UNL d   1       0.173  -3.015   1.458  0.00  0.00     0.002 A 
ATOM      3  C4  UNL d   1      -0.337  -2.033   2.310  0.00  0.00     0.002 A 
ATOM      4  C5  UNL d   1       0.530  -1.193   3.005  0.00  0.00    -0.004 A 
ATOM      5  C6  UNL d   1       1.909  -1.337   2.855  0.00  0.00     0.002 A 
ATOM      6  C7  UNL d   1       2.420  -2.318   2.005  0.00  0.00     0.002 A 
ENDROOT
BRANCH   1   7
ATOM      7  C1  UNL d   1       2.108  -4.192   0.342  0.00  0.00     0.055 C 
ATOM      8  C   UNL d   1       1.736  -5.604   0.771  0.00  0.00     0.019 C 
ENDBRANCH   1   7
TORSDOF 1
ENDMDL
