MODEL 1
REMARK minimizedAffinity 9.78299999
REMARK minimizedRMSD -1
REMARK  1 active torsions:
REMARK  status: ('A' for Active; 'I' for Inactive)
REMARK    1  A    between atoms: C1_2  and  C2_3 
ROOT
ATOM      1  C2  UNL d   1       2.104  -1.410   2.305  0.00  0.00    -0.077 A 
ATOM      2  C3  UNL d   1       0.834  -1.509   1.721  0.00  0.00     0.002 A 
ATOM      3  C4  UNL d   1       0.688  -2.015   0.428  0.00  0.00     0.002 A 
ATOM      4  C5  UNL d   1       1.807  -2.431  -0.289  0.00  0.00    -0.004 A 
ATOM      5  C6  UNL d   1       3.076  -2.335   0.282  0.00  0.00     0.002 A 
ATOM      6  C7  UNL d   1       3.223  -1.828   1.573  0.00  0.00     0.002 A 
ENDROOT
BRANCH   1   7
ATOM      7  C1  UNL d   1       2.259  -0.910   3.717  0.00  0.00     0.055 C 
ATOM      8  C   UNL d   1       3.266  -1.746   4.494  0.00  0.00     0.019 C 
ENDBRANCH   1   7
TORSDOF 1
ENDMDL
