MODEL 1
REMARK minimizedAffinity 0.826223552
REMARK minimizedRMSD -1
REMARK  1 active torsions:
REMARK  status: ('A' for Active; 'I' for Inactive)
REMARK    1  A    between atoms: C1_2  and  C2_3 
ROOT
ATOM      1  C2  UNL d   1       2.748  -3.427   1.160  0.00  0.00    -0.077 A 
ATOM      2  C3  UNL d   1       4.112  -3.600   0.887  0.00  0.00     0.002 A 
ATOM      3  C4  UNL d   1       4.605  -4.854   0.519  0.00  0.00     0.002 A 
ATOM      4  C5  UNL d   1       3.741  -5.942   0.416  0.00  0.00    -0.004 A 
ATOM      5  C6  UNL d   1       2.383  -5.780   0.687  0.00  0.00     0.002 A 
ATOM      6  C7  UNL d   1       1.888  -4.528   1.056  0.00  0.00     0.002 A 
ENDROOT
BRANCH   1   7
ATOM      7  C1  UNL d   1       2.207  -2.066   1.509  0.00  0.00     0.055 C 
ATOM      8  C   UNL d   1       0.826  -2.164   2.141  0.00  0.00     0.019 C 
ENDBRANCH   1   7
TORSDOF 1
ENDMDL
