MODEL 1
REMARK minimizedAffinity 10.0010872
REMARK minimizedRMSD -1
REMARK  1 active torsions:
REMARK  status: ('A' for Active; 'I' for Inactive)
REMARK    1  A    between atoms: C1_2  and  C2_3 
ROOT
ATOM      1  C2  UNL d   1      -1.719   1.638  -2.442  0.00  0.00    -0.077 A 
ATOM      2  C3  UNL d   1      -1.005   0.470  -2.139  0.00  0.00     0.002 A 
ATOM      3  C4  UNL d   1      -1.622  -0.575  -1.450  0.00  0.00     0.002 A 
ATOM      4  C5  UNL d   1      -2.955  -0.466  -1.061  0.00  0.00    -0.004 A 
ATOM      5  C6  UNL d   1      -3.673   0.692  -1.357  0.00  0.00     0.002 A 
ATOM      6  C7  UNL d   1      -3.058   1.739  -2.045  0.00  0.00     0.002 A 
ENDROOT
BRANCH   1   7
ATOM      7  C1  UNL d   1      -1.071   2.747  -3.229  0.00  0.00     0.055 C 
ATOM      8  C   UNL d   1      -0.095   2.197  -4.259  0.00  0.00     0.019 C 
ENDBRANCH   1   7
TORSDOF 1
ENDMDL
