MODEL 1
REMARK minimizedAffinity -4.58097506
REMARK minimizedRMSD -1
REMARK  1 active torsions:
REMARK  status: ('A' for Active; 'I' for Inactive)
REMARK    1  A    between atoms: C1_2  and  C2_3 
ROOT
ATOM      1  C2  UNL d   1       0.212   0.116   0.246  0.00  0.00    -0.076 A 
ATOM      2  C3  UNL d   1      -0.758   0.720   1.065  0.00  0.00     0.004 A 
ATOM      3  C4  UNL d   1      -0.472   1.884   1.777  0.00  0.00    -0.003 A 
ATOM      4  C5  UNL d   1       0.788   2.463   1.680  0.00  0.00     0.000 A 
ATOM      5  C6  UNL d   1       1.757   1.887   0.859  0.00  0.00     0.000 A 
ATOM      6  C7  UNL d   1       1.480   0.723   0.122  0.00  0.00    -0.073 A 
ATOM      7  C8  UNL d   1       2.564   0.141  -0.743  0.00  0.00     0.078 C 
ENDROOT
BRANCH   1   8
ATOM      8  C1  UNL d   1      -0.147  -1.161  -0.480  0.00  0.00     0.053 C 
ATOM      9  C   UNL d   1      -1.587  -1.168  -0.969  0.00  0.00     0.018 C 
ENDBRANCH   1   8
TORSDOF 1
ENDMDL
