MODEL 1
REMARK minimizedAffinity -4.31157541
REMARK minimizedRMSD -1
REMARK  1 active torsions:
REMARK  status: ('A' for Active; 'I' for Inactive)
REMARK    1  A    between atoms: C1_2  and  C2_3 
ROOT
ATOM      1  C2  UNL d   1       0.466   0.098   0.297  0.00  0.00    -0.076 A 
ATOM      2  C3  UNL d   1       1.767   0.039  -0.233  0.00  0.00     0.004 A 
ATOM      3  C4  UNL d   1       2.687   1.059   0.007  0.00  0.00    -0.003 A 
ATOM      4  C5  UNL d   1       2.321   2.154   0.780  0.00  0.00     0.000 A 
ATOM      5  C6  UNL d   1       1.040   2.221   1.329  0.00  0.00     0.000 A 
ATOM      6  C7  UNL d   1       0.106   1.194   1.111  0.00  0.00    -0.073 A 
ATOM      7  C8  UNL d   1      -1.262   1.321   1.721  0.00  0.00     0.078 C 
ENDROOT
BRANCH   1   8
ATOM      8  C1  UNL d   1      -0.496  -1.024  -0.018  0.00  0.00     0.053 C 
ATOM      9  C   UNL d   1      -1.165  -0.854  -1.374  0.00  0.00     0.018 C 
ENDBRANCH   1   8
TORSDOF 1
ENDMDL
