MODEL 1
REMARK minimizedAffinity -4.43105507
REMARK minimizedRMSD -1
REMARK  1 active torsions:
REMARK  status: ('A' for Active; 'I' for Inactive)
REMARK    1  A    between atoms: C1_2  and  C2_3 
ROOT
ATOM      1  C2  UNL d   1       0.748   0.722   0.361  0.00  0.00    -0.076 A 
ATOM      2  C3  UNL d   1       0.756   1.947   1.051  0.00  0.00     0.004 A 
ATOM      3  C4  UNL d   1       1.944   2.649   1.252  0.00  0.00    -0.003 A 
ATOM      4  C5  UNL d   1       3.142   2.137   0.766  0.00  0.00     0.000 A 
ATOM      5  C6  UNL d   1       3.150   0.933   0.064  0.00  0.00     0.000 A 
ATOM      6  C7  UNL d   1       1.960   0.220  -0.162  0.00  0.00    -0.073 A 
ATOM      7  C8  UNL d   1       2.027  -1.077  -0.920  0.00  0.00     0.078 C 
ENDROOT
BRANCH   1   8
ATOM      8  C1  UNL d   1      -0.566  -0.008   0.196  0.00  0.00     0.053 C 
ATOM      9  C   UNL d   1      -0.977  -0.758   1.454  0.00  0.00     0.018 C 
ENDBRANCH   1   8
TORSDOF 1
ENDMDL
