MODEL 1
REMARK minimizedAffinity -2.29966664
REMARK minimizedRMSD -1
REMARK  1 active torsions:
REMARK  status: ('A' for Active; 'I' for Inactive)
REMARK    1  A    between atoms: C1_2  and  C2_3 
ROOT
ATOM      1  C2  UNL d   1       0.262  -0.230   0.196  0.00  0.00    -0.076 A 
ATOM      2  C3  UNL d   1       1.452  -0.524  -0.491  0.00  0.00     0.004 A 
ATOM      3  C4  UNL d   1       2.650   0.105  -0.152  0.00  0.00    -0.003 A 
ATOM      4  C5  UNL d   1       2.676   1.037   0.879  0.00  0.00     0.000 A 
ATOM      5  C6  UNL d   1       1.508   1.327   1.583  0.00  0.00     0.000 A 
ATOM      6  C7  UNL d   1       0.295   0.691   1.265  0.00  0.00    -0.073 A 
ATOM      7  C8  UNL d   1      -0.935   1.047   2.054  0.00  0.00     0.078 C 
ENDROOT
BRANCH   1   8
ATOM      8  C1  UNL d   1      -1.012  -0.923  -0.233  0.00  0.00     0.053 C 
ATOM      9  C   UNL d   1      -1.129  -1.043  -1.745  0.00  0.00     0.018 C 
ENDBRANCH   1   8
TORSDOF 1
ENDMDL
