MODEL 1
REMARK minimizedAffinity -2.62756658
REMARK minimizedRMSD -1
REMARK  1 active torsions:
REMARK  status: ('A' for Active; 'I' for Inactive)
REMARK    1  A    between atoms: C1_2  and  C2_3 
ROOT
ATOM      1  C2  UNL d   1      -0.213   0.106  -0.075  0.00  0.00    -0.076 A 
ATOM      2  C3  UNL d   1       0.756   0.813  -0.808  0.00  0.00     0.004 A 
ATOM      3  C4  UNL d   1       1.552   1.781  -0.198  0.00  0.00    -0.003 A 
ATOM      4  C5  UNL d   1       1.392   2.058   1.155  0.00  0.00     0.000 A 
ATOM      5  C6  UNL d   1       0.448   1.354   1.902  0.00  0.00     0.000 A 
ATOM      6  C7  UNL d   1      -0.351   0.363   1.306  0.00  0.00    -0.073 A 
ATOM      7  C8  UNL d   1      -1.358  -0.361   2.158  0.00  0.00     0.078 C 
ENDROOT
BRANCH   1   8
ATOM      8  C1  UNL d   1      -1.065  -0.914  -0.796  0.00  0.00     0.053 C 
ATOM      9  C   UNL d   1      -1.201  -0.614  -2.281  0.00  0.00     0.018 C 
ENDBRANCH   1   8
TORSDOF 1
ENDMDL
