MODEL 1
REMARK minimizedAffinity -3.68203616
REMARK minimizedRMSD -1
REMARK  1 active torsions:
REMARK  status: ('A' for Active; 'I' for Inactive)
REMARK    1  A    between atoms: C1_2  and  C2_3 
ROOT
ATOM      1  C2  UNL d   1       0.523   0.767   0.693  0.00  0.00    -0.076 A 
ATOM      2  C3  UNL d   1       1.564   0.366  -0.162  0.00  0.00     0.004 A 
ATOM      3  C4  UNL d   1       1.544  -0.884  -0.779  0.00  0.00    -0.003 A 
ATOM      4  C5  UNL d   1       0.483  -1.752  -0.551  0.00  0.00     0.000 A 
ATOM      5  C6  UNL d   1      -0.567  -1.364   0.280  0.00  0.00     0.000 A 
ATOM      6  C7  UNL d   1      -0.571  -0.101   0.897  0.00  0.00    -0.073 A 
ATOM      7  C8  UNL d   1      -1.726   0.264   1.789  0.00  0.00     0.078 C 
ENDROOT
BRANCH   1   8
ATOM      8  C1  UNL d   1       0.612   2.124   1.356  0.00  0.00     0.053 C 
ATOM      9  C   UNL d   1       2.031   2.474   1.778  0.00  0.00     0.018 C 
ENDBRANCH   1   8
TORSDOF 1
ENDMDL
