MODEL 1
REMARK minimizedAffinity -4.87194204
REMARK minimizedRMSD -1
REMARK  1 active torsions:
REMARK  status: ('A' for Active; 'I' for Inactive)
REMARK    1  A    between atoms: C1_2  and  C2_3 
ROOT
ATOM      1  C2  UNL d   1       1.263   0.855  -0.219  0.00  0.00    -0.076 A 
ATOM      2  C3  UNL d   1       2.541   0.295  -0.388  0.00  0.00     0.004 A 
ATOM      3  C4  UNL d   1       3.681   0.963   0.053  0.00  0.00    -0.003 A 
ATOM      4  C5  UNL d   1       3.563   2.202   0.672  0.00  0.00     0.000 A 
ATOM      5  C6  UNL d   1       2.301   2.765   0.864  0.00  0.00     0.000 A 
ATOM      6  C7  UNL d   1       1.140   2.097   0.440  0.00  0.00    -0.073 A 
ATOM      7  C8  UNL d   1      -0.194   2.753   0.668  0.00  0.00     0.078 C 
ENDROOT
BRANCH   1   8
ATOM      8  C1  UNL d   1       0.064   0.096  -0.742  0.00  0.00     0.053 C 
ATOM      9  C   UNL d   1      -0.527  -0.847   0.295  0.00  0.00     0.018 C 
ENDBRANCH   1   8
TORSDOF 1
ENDMDL
