MODEL 1
REMARK minimizedAffinity -5.97800875
REMARK minimizedRMSD -1
REMARK  1 active torsions:
REMARK  status: ('A' for Active; 'I' for Inactive)
REMARK    1  A    between atoms: C1_2  and  C2_3 
ROOT
ATOM      1  C2  UNL d   1       1.029   0.856   0.266  0.00  0.00    -0.076 A 
ATOM      2  C3  UNL d   1       0.171   1.803   0.852  0.00  0.00     0.004 A 
ATOM      3  C4  UNL d   1       0.679   2.913   1.525  0.00  0.00    -0.003 A 
ATOM      4  C5  UNL d   1       2.054   3.093   1.623  0.00  0.00     0.000 A 
ATOM      5  C6  UNL d   1       2.920   2.173   1.033  0.00  0.00     0.000 A 
ATOM      6  C7  UNL d   1       2.424   1.058   0.337  0.00  0.00    -0.073 A 
ATOM      7  C8  UNL d   1       3.403   0.094  -0.275  0.00  0.00     0.078 C 
ENDROOT
BRANCH   1   8
ATOM      8  C1  UNL d   1       0.420  -0.341  -0.428  0.00  0.00     0.053 C 
ATOM      9  C   UNL d   1      -0.443  -1.179   0.504  0.00  0.00     0.018 C 
ENDBRANCH   1   8
TORSDOF 1
ENDMDL
