MODEL 1
REMARK minimizedAffinity -5.40782213
REMARK minimizedRMSD -1
REMARK  1 active torsions:
REMARK  status: ('A' for Active; 'I' for Inactive)
REMARK    1  A    between atoms: C1_2  and  C2_3 
ROOT
ATOM      1  C2  UNL d   1       2.112   0.166   0.304  0.00  0.00    -0.076 A 
ATOM      2  C3  UNL d   1       1.913  -0.988  -0.473  0.00  0.00     0.004 A 
ATOM      3  C4  UNL d   1       0.701  -1.677  -0.438  0.00  0.00    -0.003 A 
ATOM      4  C5  UNL d   1      -0.331  -1.221   0.375  0.00  0.00     0.000 A 
ATOM      5  C6  UNL d   1      -0.157  -0.068   1.140  0.00  0.00     0.000 A 
ATOM      6  C7  UNL d   1       1.053   0.647   1.103  0.00  0.00    -0.073 A 
ATOM      7  C8  UNL d   1       1.188   1.881   1.952  0.00  0.00     0.078 C 
ENDROOT
BRANCH   1   8
ATOM      8  C1  UNL d   1       3.457   0.855   0.245  0.00  0.00     0.053 C 
ATOM      9  C   UNL d   1       3.516   1.925  -0.833  0.00  0.00     0.018 C 
ENDBRANCH   1   8
TORSDOF 1
ENDMDL
