MODEL 1
REMARK minimizedAffinity -4.03238821
REMARK minimizedRMSD -1
REMARK  1 active torsions:
REMARK  status: ('A' for Active; 'I' for Inactive)
REMARK    1  A    between atoms: C1_2  and  C2_3 
ROOT
ATOM      1  C2  UNL d   1       0.343  -0.352   0.029  0.00  0.00    -0.076 A 
ATOM      2  C3  UNL d   1       1.659  -0.187  -0.436  0.00  0.00     0.004 A 
ATOM      3  C4  UNL d   1       2.540   0.686   0.200  0.00  0.00    -0.003 A 
ATOM      4  C5  UNL d   1       2.119   1.408   1.312  0.00  0.00     0.000 A 
ATOM      5  C6  UNL d   1       0.822   1.243   1.797  0.00  0.00     0.000 A 
ATOM      6  C7  UNL d   1      -0.073   0.354   1.178  0.00  0.00    -0.073 A 
ATOM      7  C8  UNL d   1      -1.462   0.220   1.740  0.00  0.00     0.078 C 
ENDROOT
BRANCH   1   8
ATOM      8  C1  UNL d   1      -0.576  -1.293  -0.717  0.00  0.00     0.053 C 
ATOM      9  C   UNL d   1      -1.164  -0.662  -1.970  0.00  0.00     0.018 C 
ENDBRANCH   1   8
TORSDOF 1
ENDMDL
