MODEL 1
REMARK minimizedAffinity -3.76469278
REMARK minimizedRMSD -1
REMARK  1 active torsions:
REMARK  status: ('A' for Active; 'I' for Inactive)
REMARK    1  A    between atoms: C1_2  and  C2_3 
ROOT
ATOM      1  C2  UNL d   1       1.241   0.819  -0.057  0.00  0.00    -0.076 A 
ATOM      2  C3  UNL d   1       0.591   1.872   0.610  0.00  0.00     0.004 A 
ATOM      3  C4  UNL d   1       1.318   2.913   1.185  0.00  0.00    -0.003 A 
ATOM      4  C5  UNL d   1       2.706   2.918   1.102  0.00  0.00     0.000 A 
ATOM      5  C6  UNL d   1       3.366   1.890   0.430  0.00  0.00     0.000 A 
ATOM      6  C7  UNL d   1       2.648   0.842  -0.170  0.00  0.00    -0.073 A 
ATOM      7  C8  UNL d   1       3.411  -0.244  -0.877  0.00  0.00     0.078 C 
ENDROOT
BRANCH   1   8
ATOM      8  C1  UNL d   1       0.402  -0.298  -0.638  0.00  0.00     0.053 C 
ATOM      9  C   UNL d   1      -0.754  -0.689   0.269  0.00  0.00     0.018 C 
ENDBRANCH   1   8
TORSDOF 1
ENDMDL
