MODEL 1
REMARK minimizedAffinity -2.11035252
REMARK minimizedRMSD -1
REMARK  1 active torsions:
REMARK  status: ('A' for Active; 'I' for Inactive)
REMARK    1  A    between atoms: C1_2  and  C2_3 
ROOT
ATOM      1  C2  UNL d   1       1.068   0.254   0.828  0.00  0.00    -0.076 A 
ATOM      2  C3  UNL d   1       2.250  -0.017   0.118  0.00  0.00     0.004 A 
ATOM      3  C4  UNL d   1       2.374  -1.169  -0.657  0.00  0.00    -0.003 A 
ATOM      4  C5  UNL d   1       1.316  -2.068  -0.736  0.00  0.00     0.000 A 
ATOM      5  C6  UNL d   1       0.129  -1.806  -0.053  0.00  0.00     0.000 A 
ATOM      6  C7  UNL d   1      -0.018  -0.641   0.720  0.00  0.00    -0.073 A 
ATOM      7  C8  UNL d   1      -1.318  -0.412   1.440  0.00  0.00     0.078 C 
ENDROOT
BRANCH   1   8
ATOM      8  C1  UNL d   1       1.001   1.505   1.674  0.00  0.00     0.053 C 
ATOM      9  C   UNL d   1       2.349   1.875   2.274  0.00  0.00     0.018 C 
ENDBRANCH   1   8
TORSDOF 1
ENDMDL
