MODEL 1
REMARK minimizedAffinity 15.4440842
REMARK minimizedRMSD -1
REMARK  0 active torsions:
REMARK  status: ('A' for Active; 'I' for Inactive)
ROOT
ATOM      1  C4' PXY d   1      -5.206   0.783  -5.227  0.00  0.00     0.077 C 
ATOM      2  C1' PXY d   1      -5.281   1.022   0.548  0.00  0.00     0.077 C 
ATOM      3  C1  PXY d   1      -5.273   0.965  -0.967  0.00  0.00    -0.082 A 
ATOM      4  C2  PXY d   1      -4.551   0.043  -1.583  0.00  0.00     0.003 A 
ATOM      5  C3  PXY d   1      -4.507  -0.002  -2.953  0.00  0.00     0.003 A 
ATOM      6  C4  PXY d   1      -5.252   0.872  -3.699  0.00  0.00    -0.082 A 
ATOM      7  C5  PXY d   1      -5.999   1.808  -3.078  0.00  0.00     0.003 A 
ATOM      8  C6  PXY d   1      -5.997   1.864  -1.687  0.00  0.00     0.003 A 
ENDROOT
TORSDOF 0
ENDMDL
