MODEL 1
REMARK minimizedAffinity -0.851245522
REMARK minimizedRMSD -1
REMARK  0 active torsions:
REMARK  status: ('A' for Active; 'I' for Inactive)
ROOT
ATOM      1  C4' PXY d   1       0.663  -0.596   4.183  0.00  0.00     0.077 C 
ATOM      2  C1' PXY d   1      -0.344  -5.993   5.993  0.00  0.00     0.077 C 
ATOM      3  C1  PXY d   1      -0.087  -4.580   5.507  0.00  0.00    -0.082 A 
ATOM      4  C2  PXY d   1       0.933  -3.895   6.000  0.00  0.00     0.003 A 
ATOM      5  C3  PXY d   1       1.161  -2.605   5.595  0.00  0.00     0.003 A 
ATOM      6  C4  PXY d   1       0.370  -2.029   4.637  0.00  0.00    -0.082 A 
ATOM      7  C5  PXY d   1      -0.665  -2.725   4.123  0.00  0.00     0.003 A 
ATOM      8  C6  PXY d   1      -0.905  -4.019   4.577  0.00  0.00     0.003 A 
ENDROOT
TORSDOF 0
ENDMDL
