MODEL 1
REMARK minimizedAffinity 4.59530449
REMARK minimizedRMSD -1
REMARK  0 active torsions:
REMARK  status: ('A' for Active; 'I' for Inactive)
ROOT
ATOM      1  C4' PXY d   1      -4.614   5.966   5.507  0.00  0.00     0.077 C 
ATOM      2  C1' PXY d   1      -4.867   5.992  -0.268  0.00  0.00     0.077 C 
ATOM      3  C1  PXY d   1      -4.813   5.990   1.247  0.00  0.00    -0.082 A 
ATOM      4  C2  PXY d   1      -3.640   5.979   1.859  0.00  0.00     0.003 A 
ATOM      5  C3  PXY d   1      -3.572   5.945   3.228  0.00  0.00     0.003 A 
ATOM      6  C4  PXY d   1      -4.717   5.977   3.979  0.00  0.00    -0.082 A 
ATOM      7  C5  PXY d   1      -5.917   6.000   3.362  0.00  0.00     0.003 A 
ATOM      8  C6  PXY d   1      -5.965   5.992   1.971  0.00  0.00     0.003 A 
ENDROOT
TORSDOF 0
ENDMDL
