MODEL 1
REMARK minimizedAffinity 3.36278343
REMARK minimizedRMSD -1
REMARK  0 active torsions:
REMARK  status: ('A' for Active; 'I' for Inactive)
ROOT
ATOM      1  C4' PXY d   1       0.077  -4.389   4.818  0.00  0.00     0.077 C 
ATOM      2  C1' PXY d   1       1.071   1.306   4.823  0.00  0.00     0.077 C 
ATOM      3  C1  PXY d   1       0.823  -0.190   4.824  0.00  0.00    -0.082 A 
ATOM      4  C2  PXY d   1      -0.236  -0.678   4.197  0.00  0.00     0.003 A 
ATOM      5  C3  PXY d   1      -0.493  -2.024   4.215  0.00  0.00     0.003 A 
ATOM      6  C4  PXY d   1       0.372  -2.886   4.835  0.00  0.00    -0.082 A 
ATOM      7  C5  PXY d   1       1.460  -2.397   5.467  0.00  0.00     0.003 A 
ATOM      8  C6  PXY d   1       1.681  -1.023   5.473  0.00  0.00     0.003 A 
ENDROOT
TORSDOF 0
ENDMDL
