MODEL 1
REMARK minimizedAffinity 5.25016308
REMARK minimizedRMSD -1
REMARK  0 active torsions:
REMARK  status: ('A' for Active; 'I' for Inactive)
ROOT
ATOM      1  C4' PXY d   1      -5.352   5.939   5.611  0.00  0.00     0.077 C 
ATOM      2  C1' PXY d   1      -4.154   5.713  -0.040  0.00  0.00     0.077 C 
ATOM      3  C1  PXY d   1      -4.456   5.768   1.445  0.00  0.00    -0.082 A 
ATOM      4  C2  PXY d   1      -5.705   5.643   1.863  0.00  0.00     0.003 A 
ATOM      5  C3  PXY d   1      -6.000   5.723   3.200  0.00  0.00     0.003 A 
ATOM      6  C4  PXY d   1      -5.000   5.879   4.122  0.00  0.00    -0.082 A 
ATOM      7  C5  PXY d   1      -3.722   5.997   3.704  0.00  0.00     0.003 A 
ATOM      8  C6  PXY d   1      -3.448   5.955   2.340  0.00  0.00     0.003 A 
ENDROOT
TORSDOF 0
ENDMDL
