MODEL 1
REMARK minimizedAffinity -0.230074242
REMARK minimizedRMSD -1
REMARK  0 active torsions:
REMARK  status: ('A' for Active; 'I' for Inactive)
ROOT
ATOM      1  C4' PXY d   1      -0.178  -5.961   5.848  0.00  0.00     0.077 C 
ATOM      2  C1' PXY d   1       0.321  -0.260   5.034  0.00  0.00     0.077 C 
ATOM      3  C1  PXY d   1       0.199  -1.757   5.238  0.00  0.00    -0.082 A 
ATOM      4  C2  PXY d   1      -0.901  -2.256   5.779  0.00  0.00     0.003 A 
ATOM      5  C3  PXY d   1      -1.015  -3.604   6.000  0.00  0.00     0.003 A 
ATOM      6  C4  PXY d   1      -0.015  -4.456   5.614  0.00  0.00    -0.082 A 
ATOM      7  C5  PXY d   1       1.106  -3.956   5.052  0.00  0.00     0.003 A 
ATOM      8  C6  PXY d   1       1.219  -2.580   4.874  0.00  0.00     0.003 A 
ENDROOT
TORSDOF 0
ENDMDL
