MODEL 1
REMARK minimizedAffinity 0.739013612
REMARK minimizedRMSD -1
REMARK  0 active torsions:
REMARK  status: ('A' for Active; 'I' for Inactive)
ROOT
ATOM      1  C4' PXY d   1      -5.998   3.463  -3.858  0.00  0.00     0.077 C 
ATOM      2  C1' PXY d   1      -1.551  -0.218  -3.554  0.00  0.00     0.077 C 
ATOM      3  C1  PXY d   1      -2.724   0.739  -3.642  0.00  0.00    -0.082 A 
ATOM      4  C2  PXY d   1      -2.544   2.020  -3.364  0.00  0.00     0.003 A 
ATOM      5  C3  PXY d   1      -3.600   2.894  -3.408  0.00  0.00     0.003 A 
ATOM      6  C4  PXY d   1      -4.841   2.462  -3.791  0.00  0.00    -0.082 A 
ATOM      7  C5  PXY d   1      -5.030   1.158  -4.086  0.00  0.00     0.003 A 
ATOM      8  C6  PXY d   1      -3.954   0.280  -3.996  0.00  0.00     0.003 A 
ENDROOT
TORSDOF 0
ENDMDL
