MODEL 1
REMARK minimizedAffinity 5.37848806
REMARK minimizedRMSD -1
REMARK  0 active torsions:
REMARK  status: ('A' for Active; 'I' for Inactive)
ROOT
ATOM      1  C   UNL d   1      -0.585   6.000  -4.278  0.00  0.00     0.078 C 
ATOM      2  C1  UNL d   1      -0.579   5.495  -2.866  0.00  0.00    -0.077 A 
ATOM      3  C2  UNL d   1       0.328   4.511  -2.455  0.00  0.00    -0.001 A 
ATOM      4  C3  UNL d   1       0.316   4.044  -1.140  0.00  0.00     0.003 A 
ATOM      5  C4  UNL d   1      -0.603   4.553  -0.225  0.00  0.00    -0.005 A 
ATOM      6  C5  UNL d   1      -1.512   5.531  -0.625  0.00  0.00     0.003 A 
ATOM      7  C6  UNL d   1      -1.501   6.000  -1.940  0.00  0.00    -0.001 A 
ENDROOT
TORSDOF 0
ENDMDL
