MODEL 1
REMARK minimizedAffinity 3.11474156
REMARK minimizedRMSD -1
REMARK  0 active torsions:
REMARK  status: ('A' for Active; 'I' for Inactive)
ROOT
ATOM      1  C   UNL d   1      -1.168  -4.722  -4.128  0.00  0.00     0.078 C 
ATOM      2  C1  UNL d   1      -0.258  -4.874  -2.946  0.00  0.00    -0.077 A 
ATOM      3  C2  UNL d   1      -0.381  -4.039  -1.829  0.00  0.00    -0.001 A 
ATOM      4  C3  UNL d   1       0.479  -4.186  -0.739  0.00  0.00     0.003 A 
ATOM      5  C4  UNL d   1       1.469  -5.166  -0.757  0.00  0.00    -0.005 A 
ATOM      6  C5  UNL d   1       1.601  -6.000  -1.865  0.00  0.00     0.003 A 
ATOM      7  C6  UNL d   1       0.742  -5.855  -2.956  0.00  0.00    -0.001 A 
ENDROOT
TORSDOF 0
ENDMDL
