MODEL 1
REMARK minimizedAffinity 4.63252163
REMARK minimizedRMSD -1
REMARK  0 active torsions:
REMARK  status: ('A' for Active; 'I' for Inactive)
ROOT
ATOM      1  C   UNL d   1       0.815   3.193   0.167  0.00  0.00     0.078 C 
ATOM      2  C1  UNL d   1      -0.002   4.120  -0.683  0.00  0.00    -0.077 A 
ATOM      3  C2  UNL d   1      -0.003   4.006  -2.079  0.00  0.00    -0.001 A 
ATOM      4  C3  UNL d   1      -0.760   4.881  -2.858  0.00  0.00     0.003 A 
ATOM      5  C4  UNL d   1      -1.522   5.877  -2.251  0.00  0.00    -0.005 A 
ATOM      6  C5  UNL d   1      -1.527   6.000  -0.864  0.00  0.00     0.003 A 
ATOM      7  C6  UNL d   1      -0.769   5.125  -0.082  0.00  0.00    -0.001 A 
ENDROOT
TORSDOF 0
ENDMDL
