MODEL 1
REMARK minimizedAffinity 4.7564106
REMARK minimizedRMSD -1
REMARK  0 active torsions:
REMARK  status: ('A' for Active; 'I' for Inactive)
ROOT
ATOM      1  C   UNL d   1       0.659   4.672   0.101  0.00  0.00     0.078 C 
ATOM      2  C1  UNL d   1       0.747   3.739   1.273  0.00  0.00    -0.077 A 
ATOM      3  C2  UNL d   1       1.862   3.748   2.119  0.00  0.00    -0.001 A 
ATOM      4  C3  UNL d   1       1.934   2.868   3.200  0.00  0.00     0.003 A 
ATOM      5  C4  UNL d   1       0.895   1.972   3.444  0.00  0.00    -0.005 A 
ATOM      6  C5  UNL d   1      -0.218   1.955   2.605  0.00  0.00     0.003 A 
ATOM      7  C6  UNL d   1      -0.292   2.834   1.524  0.00  0.00    -0.001 A 
ENDROOT
TORSDOF 0
ENDMDL
