MODEL 1
REMARK minimizedAffinity 2.69621754
REMARK minimizedRMSD -1
REMARK  0 active torsions:
REMARK  status: ('A' for Active; 'I' for Inactive)
ROOT
ATOM      1  C   UNL d   1       1.289  -4.310  -0.465  0.00  0.00     0.078 C 
ATOM      2  C1  UNL d   1       2.715  -3.864  -0.596  0.00  0.00    -0.077 A 
ATOM      3  C2  UNL d   1       3.074  -2.525  -0.398  0.00  0.00    -0.001 A 
ATOM      4  C3  UNL d   1       4.403  -2.123  -0.534  0.00  0.00     0.003 A 
ATOM      5  C4  UNL d   1       5.385  -3.053  -0.869  0.00  0.00    -0.005 A 
ATOM      6  C5  UNL d   1       5.037  -4.387  -1.070  0.00  0.00     0.003 A 
ATOM      7  C6  UNL d   1       3.708  -4.792  -0.935  0.00  0.00    -0.001 A 
ENDROOT
TORSDOF 0
ENDMDL
