MODEL 1
REMARK minimizedAffinity 12.6606121
REMARK minimizedRMSD -1
REMARK  0 active torsions:
REMARK  status: ('A' for Active; 'I' for Inactive)
ROOT
ATOM      1  C   UNL d   1       0.106   3.007   0.725  0.00  0.00     0.078 C 
ATOM      2  C1  UNL d   1      -0.341   3.977  -0.328  0.00  0.00    -0.077 A 
ATOM      3  C2  UNL d   1      -1.094   5.108   0.008  0.00  0.00    -0.001 A 
ATOM      4  C3  UNL d   1      -1.512   5.998  -0.983  0.00  0.00     0.003 A 
ATOM      5  C4  UNL d   1      -1.183   5.764  -2.317  0.00  0.00    -0.005 A 
ATOM      6  C5  UNL d   1      -0.435   4.640  -2.661  0.00  0.00     0.003 A 
ATOM      7  C6  UNL d   1      -0.017   3.749  -1.671  0.00  0.00    -0.001 A 
ENDROOT
TORSDOF 0
ENDMDL
