MODEL 1
REMARK minimizedAffinity 6.82573175
REMARK minimizedRMSD -1
REMARK  0 active torsions:
REMARK  status: ('A' for Active; 'I' for Inactive)
ROOT
ATOM      1  C   UNL d   1      -5.157   5.981  -5.965  0.00  0.00     0.078 C 
ATOM      2  C1  UNL d   1      -5.199   5.245  -4.659  0.00  0.00    -0.077 A 
ATOM      3  C2  UNL d   1      -5.975   5.713  -3.592  0.00  0.00    -0.001 A 
ATOM      4  C3  UNL d   1      -5.997   5.023  -2.379  0.00  0.00     0.003 A 
ATOM      5  C4  UNL d   1      -5.244   3.861  -2.222  0.00  0.00    -0.005 A 
ATOM      6  C5  UNL d   1      -4.467   3.388  -3.278  0.00  0.00     0.003 A 
ATOM      7  C6  UNL d   1      -4.444   4.077  -4.491  0.00  0.00    -0.001 A 
ENDROOT
TORSDOF 0
ENDMDL
