MODEL 1
REMARK minimizedAffinity -1.3728236
REMARK minimizedRMSD -1
REMARK  0 active torsions:
REMARK  status: ('A' for Active; 'I' for Inactive)
ROOT
ATOM      1  C   UNL d   1       0.334   2.669   0.232  0.00  0.00     0.078 C 
ATOM      2  C1  UNL d   1      -0.466   3.814  -0.313  0.00  0.00    -0.077 A 
ATOM      3  C2  UNL d   1      -0.567   4.032  -1.692  0.00  0.00    -0.001 A 
ATOM      4  C3  UNL d   1      -1.307   5.107  -2.185  0.00  0.00     0.003 A 
ATOM      5  C4  UNL d   1      -1.953   5.974  -1.305  0.00  0.00    -0.005 A 
ATOM      6  C5  UNL d   1      -1.857   5.766   0.069  0.00  0.00     0.003 A 
ATOM      7  C6  UNL d   1      -1.117   4.691   0.564  0.00  0.00    -0.001 A 
ENDROOT
TORSDOF 0
ENDMDL
