MODEL 1
REMARK minimizedAffinity 4.09798431
REMARK minimizedRMSD -1
REMARK  0 active torsions:
REMARK  status: ('A' for Active; 'I' for Inactive)
ROOT
ATOM      1  C   UNL d   1      -1.902   4.571  -2.245  0.00  0.00     0.078 C 
ATOM      2  C1  UNL d   1      -3.333   4.199  -2.494  0.00  0.00    -0.077 A 
ATOM      3  C2  UNL d   1      -4.183   3.854  -1.435  0.00  0.00    -0.001 A 
ATOM      4  C3  UNL d   1      -5.510   3.500  -1.683  0.00  0.00     0.003 A 
ATOM      5  C4  UNL d   1      -5.999   3.485  -2.988  0.00  0.00    -0.005 A 
ATOM      6  C5  UNL d   1      -5.160   3.824  -4.047  0.00  0.00     0.003 A 
ATOM      7  C6  UNL d   1      -3.833   4.179  -3.802  0.00  0.00    -0.001 A 
ENDROOT
TORSDOF 0
ENDMDL
