MODEL 1
REMARK minimizedAffinity 7.8379178
REMARK minimizedRMSD -1
REMARK  0 active torsions:
REMARK  status: ('A' for Active; 'I' for Inactive)
ROOT
ATOM      1  C   UNL d   1      -1.454  -4.120  -3.248  0.00  0.00     0.078 C 
ATOM      2  C1  UNL d   1      -0.504  -3.875  -2.113  0.00  0.00    -0.077 A 
ATOM      3  C2  UNL d   1      -0.382  -2.605  -1.537  0.00  0.00    -0.001 A 
ATOM      4  C3  UNL d   1       0.513  -2.389  -0.488  0.00  0.00     0.003 A 
ATOM      5  C4  UNL d   1       1.294  -3.438  -0.007  0.00  0.00    -0.005 A 
ATOM      6  C5  UNL d   1       1.180  -4.705  -0.575  0.00  0.00     0.003 A 
ATOM      7  C6  UNL d   1       0.286  -4.923  -1.625  0.00  0.00    -0.001 A 
ENDROOT
TORSDOF 0
ENDMDL
