MODEL 1
REMARK minimizedAffinity 3.46030426
REMARK minimizedRMSD -1
REMARK  0 active torsions:
REMARK  status: ('A' for Active; 'I' for Inactive)
ROOT
ATOM      1  C   UNL d   1       1.541  -1.340   3.733  0.00  0.00    -0.002 A 
ATOM      2  C1  UNL d   1       2.282  -1.052   2.597  0.00  0.00     0.010 A 
ATOM      3  C2  UNL d   1       3.672  -1.188   2.602  0.00  0.00     0.041 A 
ATOM      4  C3  UNL d   1       4.309  -1.626   3.780  0.00  0.00    -0.075 A 
ATOM      5  S   UNL d   1       6.000  -1.867   4.019  0.00  0.00     0.015 SA
ATOM      6  C4  UNL d   1       5.777  -2.360   5.635  0.00  0.00     0.022 A 
ATOM      7  C5  UNL d   1       4.451  -2.346   6.000  0.00  0.00     0.026 A 
ATOM      8  C6  UNL d   1       3.584  -1.923   4.937  0.00  0.00    -0.082 A 
ATOM      9  C7  UNL d   1       2.176  -1.774   4.900  0.00  0.00     0.045 A 
ENDROOT
TORSDOF 0
ENDMDL
