MODEL 1
REMARK minimizedAffinity 4.1639266
REMARK minimizedRMSD -1
REMARK  0 active torsions:
REMARK  status: ('A' for Active; 'I' for Inactive)
ROOT
ATOM      1  C   UNL d   1       1.503  -1.840   3.923  0.00  0.00    -0.002 A 
ATOM      2  C1  UNL d   1       2.156  -1.449   2.763  0.00  0.00     0.010 A 
ATOM      3  C2  UNL d   1       3.551  -1.467   2.693  0.00  0.00     0.041 A 
ATOM      4  C3  UNL d   1       4.284  -1.891   3.819  0.00  0.00    -0.075 A 
ATOM      5  S   UNL d   1       5.999  -1.996   3.963  0.00  0.00     0.015 SA
ATOM      6  C4  UNL d   1       5.904  -2.563   5.567  0.00  0.00     0.022 A 
ATOM      7  C5  UNL d   1       4.604  -2.675   5.998  0.00  0.00     0.026 A 
ATOM      8  C6  UNL d   1       3.649  -2.290   4.998  0.00  0.00    -0.082 A 
ATOM      9  C7  UNL d   1       2.234  -2.260   5.038  0.00  0.00     0.045 A 
ENDROOT
TORSDOF 0
ENDMDL
