MODEL 1
REMARK minimizedAffinity 4.26750278
REMARK minimizedRMSD -1
REMARK  0 active torsions:
REMARK  status: ('A' for Active; 'I' for Inactive)
ROOT
ATOM      1  C   UNL d   1       4.205   5.846  -1.009  0.00  0.00    -0.002 A 
ATOM      2  C1  UNL d   1       2.902   5.874  -1.486  0.00  0.00     0.010 A 
ATOM      3  C2  UNL d   1       2.648   5.921  -2.858  0.00  0.00     0.041 A 
ATOM      4  C3  UNL d   1       3.737   5.937  -3.752  0.00  0.00    -0.075 A 
ATOM      5  S   UNL d   1       3.667   5.993  -5.474  0.00  0.00     0.015 SA
ATOM      6  C4  UNL d   1       5.365   5.980  -5.617  0.00  0.00     0.022 A 
ATOM      7  C5  UNL d   1       5.986   5.935  -4.392  0.00  0.00     0.026 A 
ATOM      8  C6  UNL d   1       5.058   5.909  -3.296  0.00  0.00    -0.082 A 
ATOM      9  C7  UNL d   1       5.282   5.863  -1.899  0.00  0.00     0.045 A 
ENDROOT
TORSDOF 0
ENDMDL
