MODEL 1
REMARK minimizedAffinity 6.68889666
REMARK minimizedRMSD -1
REMARK  0 active torsions:
REMARK  status: ('A' for Active; 'I' for Inactive)
ROOT
ATOM      1  C   UNL d   1       1.658  -1.545   2.940  0.00  0.00    -0.002 A 
ATOM      2  C1  UNL d   1       2.402  -1.194   4.057  0.00  0.00     0.010 A 
ATOM      3  C2  UNL d   1       3.028   0.052   4.131  0.00  0.00     0.041 A 
ATOM      4  C3  UNL d   1       2.889   0.949   3.054  0.00  0.00    -0.075 A 
ATOM      5  S   UNL d   1       3.565   2.530   2.924  0.00  0.00     0.015 SA
ATOM      6  C4  UNL d   1       2.881   2.777   1.383  0.00  0.00     0.022 A 
ATOM      7  C5  UNL d   1       2.152   1.690   0.962  0.00  0.00     0.026 A 
ATOM      8  C6  UNL d   1       2.144   0.619   1.918  0.00  0.00    -0.082 A 
ATOM      9  C7  UNL d   1       1.523  -0.652   1.873  0.00  0.00     0.045 A 
ENDROOT
TORSDOF 0
ENDMDL
