MODEL 1
REMARK minimizedAffinity 7.90094662
REMARK minimizedRMSD -1
REMARK  0 active torsions:
REMARK  status: ('A' for Active; 'I' for Inactive)
ROOT
ATOM      1  C   UNL d   1       3.572   2.680   3.374  0.00  0.00    -0.002 A 
ATOM      2  C1  UNL d   1       3.222   1.374   3.684  0.00  0.00     0.010 A 
ATOM      3  C2  UNL d   1       2.379   0.645   2.842  0.00  0.00     0.041 A 
ATOM      4  C3  UNL d   1       1.891   1.257   1.671  0.00  0.00    -0.075 A 
ATOM      5  S   UNL d   1       0.847   0.558   0.490  0.00  0.00     0.015 SA
ATOM      6  C4  UNL d   1       0.842   1.977  -0.454  0.00  0.00     0.022 A 
ATOM      7  C5  UNL d   1       1.612   2.970   0.103  0.00  0.00     0.026 A 
ATOM      8  C6  UNL d   1       2.231   2.572   1.336  0.00  0.00    -0.082 A 
ATOM      9  C7  UNL d   1       3.086   3.284   2.211  0.00  0.00     0.045 A 
ENDROOT
TORSDOF 0
ENDMDL
