MODEL 1
REMARK minimizedAffinity 15.566782
REMARK minimizedRMSD -1
REMARK  0 active torsions:
REMARK  status: ('A' for Active; 'I' for Inactive)
ROOT
ATOM      1  C   UNL d   1       1.970  -1.835   3.300  0.00  0.00    -0.002 A 
ATOM      2  C1  UNL d   1       1.582  -1.108   4.417  0.00  0.00     0.010 A 
ATOM      3  C2  UNL d   1       1.768   0.275   4.464  0.00  0.00     0.041 A 
ATOM      4  C3  UNL d   1       2.355   0.922   3.359  0.00  0.00    -0.075 A 
ATOM      5  S   UNL d   1       2.679   2.607   3.192  0.00  0.00     0.015 SA
ATOM      6  C4  UNL d   1       3.340   2.402   1.635  0.00  0.00     0.022 A 
ATOM      7  C5  UNL d   1       3.322   1.087   1.236  0.00  0.00     0.026 A 
ATOM      8  C6  UNL d   1       2.753   0.212   2.222  0.00  0.00    -0.082 A 
ATOM      9  C7  UNL d   1       2.552  -1.189   2.206  0.00  0.00     0.045 A 
ENDROOT
TORSDOF 0
ENDMDL
