MODEL 1
REMARK minimizedAffinity 13.1523142
REMARK minimizedRMSD -1
REMARK  0 active torsions:
REMARK  status: ('A' for Active; 'I' for Inactive)
ROOT
ATOM      1  C   UNL d   1       1.115  -1.045  -0.536  0.00  0.00    -0.002 A 
ATOM      2  C1  UNL d   1       1.452  -2.305  -1.008  0.00  0.00     0.010 A 
ATOM      3  C2  UNL d   1       2.047  -3.245  -0.163  0.00  0.00     0.041 A 
ATOM      4  C3  UNL d   1       2.298  -2.893   1.177  0.00  0.00    -0.075 A 
ATOM      5  S   UNL d   1       3.017  -3.881   2.394  0.00  0.00     0.015 SA
ATOM      6  C4  UNL d   1       2.893  -2.654   3.569  0.00  0.00     0.022 A 
ATOM      7  C5  UNL d   1       2.321  -1.511   3.063  0.00  0.00     0.026 A 
ATOM      8  C6  UNL d   1       1.968  -1.630   1.677  0.00  0.00    -0.082 A 
ATOM      9  C7  UNL d   1       1.367  -0.700   0.795  0.00  0.00     0.045 A 
ENDROOT
TORSDOF 0
ENDMDL
