MODEL 1
REMARK minimizedAffinity 6.35499763
REMARK minimizedRMSD -1
REMARK  0 active torsions:
REMARK  status: ('A' for Active; 'I' for Inactive)
ROOT
ATOM      1  C   UNL d   1      -6.000  -0.573   5.733  0.00  0.00     0.172 C 
ATOM      2  N   UNL d   1      -5.604   0.003   4.470  0.00  0.00    -0.070 N 
ATOM      3  C1  UNL d   1      -6.000  -0.434   3.234  0.00  0.00    -0.004 A 
ATOM      4  C2  UNL d   1      -5.408   0.376   2.290  0.00  0.00    -0.047 A 
ATOM      5  C3  UNL d   1      -4.629   1.334   2.982  0.00  0.00    -0.047 A 
ATOM      6  C4  UNL d   1      -4.768   1.079   4.330  0.00  0.00    -0.004 A 
ENDROOT
TORSDOF 0
ENDMDL
