MODEL 1
REMARK minimizedAffinity 5.88232231
REMARK minimizedRMSD -1
REMARK  0 active torsions:
REMARK  status: ('A' for Active; 'I' for Inactive)
ROOT
ATOM      1  C   UNL d   1      -4.832   2.549   3.160  0.00  0.00     0.172 C 
ATOM      2  N   UNL d   1      -5.236   3.933   3.225  0.00  0.00    -0.070 N 
ATOM      3  C1  UNL d   1      -5.228   4.716   4.348  0.00  0.00    -0.004 A 
ATOM      4  C2  UNL d   1      -5.682   5.968   3.994  0.00  0.00    -0.047 A 
ATOM      5  C3  UNL d   1      -5.975   5.936   2.610  0.00  0.00    -0.047 A 
ATOM      6  C4  UNL d   1      -5.689   4.665   2.159  0.00  0.00    -0.004 A 
ENDROOT
TORSDOF 0
ENDMDL
