MODEL 1
REMARK minimizedAffinity -1.61787951
REMARK minimizedRMSD -1
REMARK  0 active torsions:
REMARK  status: ('A' for Active; 'I' for Inactive)
ROOT
ATOM      1  C   UNL d   1      -5.990   3.756   6.000  0.00  0.00     0.172 C 
ATOM      2  N   UNL d   1      -5.630   2.674   5.114  0.00  0.00    -0.070 N 
ATOM      3  C1  UNL d   1      -4.874   2.789   3.979  0.00  0.00    -0.004 A 
ATOM      4  C2  UNL d   1      -4.758   1.535   3.419  0.00  0.00    -0.047 A 
ATOM      5  C3  UNL d   1      -5.470   0.635   4.246  0.00  0.00    -0.047 A 
ATOM      6  C4  UNL d   1      -6.000   1.366   5.288  0.00  0.00    -0.004 A 
ENDROOT
TORSDOF 0
ENDMDL
