MODEL 1
REMARK minimizedAffinity 6.37096977
REMARK minimizedRMSD -1
REMARK  0 active torsions:
REMARK  status: ('A' for Active; 'I' for Inactive)
ROOT
ATOM      1  C   UNL d   1       3.998   2.450  -0.947  0.00  0.00     0.172 C 
ATOM      2  N   UNL d   1       3.218   1.773   0.061  0.00  0.00    -0.070 N 
ATOM      3  C1  UNL d   1       1.993   2.172   0.525  0.00  0.00    -0.004 A 
ATOM      4  C2  UNL d   1       1.584   1.263   1.476  0.00  0.00    -0.047 A 
ATOM      5  C3  UNL d   1       2.599   0.283   1.589  0.00  0.00    -0.047 A 
ATOM      6  C4  UNL d   1       3.598   0.623   0.702  0.00  0.00    -0.004 A 
ENDROOT
TORSDOF 0
ENDMDL
