MODEL 1
REMARK minimizedAffinity 2.93628168
REMARK minimizedRMSD -1
REMARK  0 active torsions:
REMARK  status: ('A' for Active; 'I' for Inactive)
ROOT
ATOM      1  C   UNL d   1       4.503  -0.751   2.266  0.00  0.00     0.172 C 
ATOM      2  N   UNL d   1       4.882  -0.868   0.877  0.00  0.00    -0.070 N 
ATOM      3  C1  UNL d   1       6.000  -1.503   0.406  0.00  0.00    -0.004 A 
ATOM      4  C2  UNL d   1       6.000  -1.394  -0.968  0.00  0.00    -0.047 A 
ATOM      5  C3  UNL d   1       4.842  -0.668  -1.335  0.00  0.00    -0.047 A 
ATOM      6  C4  UNL d   1       4.168  -0.355  -0.173  0.00  0.00    -0.004 A 
ENDROOT
TORSDOF 0
ENDMDL
