MODEL 1
REMARK minimizedAffinity -0.0355527811
REMARK minimizedRMSD -1
REMARK  0 active torsions:
REMARK  status: ('A' for Active; 'I' for Inactive)
ROOT
ATOM      1  C   UNL d   1      -5.410   3.751   5.866  0.00  0.00     0.172 C 
ATOM      2  N   UNL d   1      -5.547   2.547   5.081  0.00  0.00    -0.070 N 
ATOM      3  C1  UNL d   1      -5.250   2.423   3.750  0.00  0.00    -0.004 A 
ATOM      4  C2  UNL d   1      -5.517   1.123   3.377  0.00  0.00    -0.047 A 
ATOM      5  C3  UNL d   1      -5.991   0.443   4.524  0.00  0.00    -0.047 A 
ATOM      6  C4  UNL d   1      -6.000   1.347   5.564  0.00  0.00    -0.004 A 
ENDROOT
TORSDOF 0
ENDMDL
