MODEL 1
REMARK minimizedAffinity 8.5532999
REMARK minimizedRMSD -1
REMARK  0 active torsions:
REMARK  status: ('A' for Active; 'I' for Inactive)
ROOT
ATOM      1  C   UNL d   1       1.551   0.003   1.813  0.00  0.00     0.172 C 
ATOM      2  N   UNL d   1       0.948   0.364   3.075  0.00  0.00    -0.070 N 
ATOM      3  C1  UNL d   1       0.817  -0.459   4.161  0.00  0.00    -0.004 A 
ATOM      4  C2  UNL d   1       0.193   0.257   5.160  0.00  0.00    -0.047 A 
ATOM      5  C3  UNL d   1      -0.060   1.555   4.656  0.00  0.00    -0.047 A 
ATOM      6  C4  UNL d   1       0.418   1.594   3.363  0.00  0.00    -0.004 A 
ENDROOT
TORSDOF 0
ENDMDL
