MODEL 1
REMARK minimizedAffinity 7.28473711
REMARK minimizedRMSD -1
REMARK  0 active torsions:
REMARK  status: ('A' for Active; 'I' for Inactive)
ROOT
ATOM      1  C   UNL d   1       4.039   5.192   2.470  0.00  0.00     0.172 C 
ATOM      2  N   UNL d   1       4.548   5.418   3.802  0.00  0.00    -0.070 N 
ATOM      3  C1  UNL d   1       5.825   5.162   4.223  0.00  0.00    -0.004 A 
ATOM      4  C2  UNL d   1       5.910   5.512   5.553  0.00  0.00    -0.047 A 
ATOM      5  C3  UNL d   1       4.639   5.995   5.946  0.00  0.00    -0.047 A 
ATOM      6  C4  UNL d   1       3.815   5.925   4.842  0.00  0.00    -0.004 A 
ENDROOT
TORSDOF 0
ENDMDL
