MODEL 1
REMARK minimizedAffinity 4.77240324
REMARK minimizedRMSD -1
REMARK  0 active torsions:
REMARK  status: ('A' for Active; 'I' for Inactive)
ROOT
ATOM      1  C   UNL d   1       3.099   3.018  -4.224  0.00  0.00     0.172 C 
ATOM      2  N   UNL d   1       2.429   4.074  -4.945  0.00  0.00    -0.070 N 
ATOM      3  C1  UNL d   1       1.120   4.060  -5.347  0.00  0.00    -0.004 A 
ATOM      4  C2  UNL d   1       0.866   5.247  -6.000  0.00  0.00    -0.047 A 
ATOM      5  C3  UNL d   1       2.064   6.000  -5.991  0.00  0.00    -0.047 A 
ATOM      6  C4  UNL d   1       3.015   5.250  -5.332  0.00  0.00    -0.004 A 
ENDROOT
TORSDOF 0
ENDMDL
