MODEL 1
REMARK minimizedAffinity 4.15206909
REMARK minimizedRMSD -1
REMARK  0 active torsions:
REMARK  status: ('A' for Active; 'I' for Inactive)
ROOT
ATOM      1  C   UNL d   1      -4.922  -3.894  -2.630  0.00  0.00     0.172 C 
ATOM      2  N   UNL d   1      -3.674  -3.168  -2.677  0.00  0.00    -0.070 N 
ATOM      3  C1  UNL d   1      -2.873  -3.028  -3.778  0.00  0.00    -0.004 A 
ATOM      4  C2  UNL d   1      -1.782  -2.270  -3.413  0.00  0.00    -0.047 A 
ATOM      5  C3  UNL d   1      -1.932  -1.944  -2.044  0.00  0.00    -0.047 A 
ATOM      6  C4  UNL d   1      -3.112  -2.513  -1.613  0.00  0.00    -0.004 A 
ENDROOT
TORSDOF 0
ENDMDL
