MODEL 1
REMARK minimizedAffinity 4.93008137
REMARK minimizedRMSD -1
REMARK  0 active torsions:
REMARK  status: ('A' for Active; 'I' for Inactive)
ROOT
ATOM      1  C   UNL d   1       5.999   5.940   5.875  0.00  0.00     0.172 C 
ATOM      2  N   UNL d   1       5.401   5.417   4.669  0.00  0.00    -0.070 N 
ATOM      3  C1  UNL d   1       4.376   5.997   3.970  0.00  0.00    -0.004 A 
ATOM      4  C2  UNL d   1       4.095   5.193   2.887  0.00  0.00    -0.047 A 
ATOM      5  C3  UNL d   1       4.982   4.091   2.936  0.00  0.00    -0.047 A 
ATOM      6  C4  UNL d   1       5.779   4.255   4.049  0.00  0.00    -0.004 A 
ENDROOT
TORSDOF 0
ENDMDL
