MODEL 1
REMARK minimizedAffinity 7.02734947
REMARK minimizedRMSD -1
REMARK  0 active torsions:
REMARK  status: ('A' for Active; 'I' for Inactive)
ROOT
ATOM      1  C   UNL d   1      -5.999   4.621   2.509  0.00  0.00     0.172 C 
ATOM      2  N   UNL d   1      -5.717   4.836   3.909  0.00  0.00    -0.070 N 
ATOM      3  C1  UNL d   1      -5.133   3.930   4.753  0.00  0.00    -0.004 A 
ATOM      4  C2  UNL d   1      -5.037   4.513   5.998  0.00  0.00    -0.047 A 
ATOM      5  C3  UNL d   1      -5.584   5.815   5.898  0.00  0.00    -0.047 A 
ATOM      6  C4  UNL d   1      -5.996   5.988   4.594  0.00  0.00    -0.004 A 
ENDROOT
TORSDOF 0
ENDMDL
