MODEL 1
REMARK minimizedAffinity 10.7826157
REMARK minimizedRMSD -1
REMARK  0 active torsions:
REMARK  status: ('A' for Active; 'I' for Inactive)
ROOT
ATOM      1  C   UNL d   1      -3.866  -5.996  -1.505  0.00  0.00     0.172 C 
ATOM      2  N   UNL d   1      -3.954  -5.996  -0.063  0.00  0.00    -0.070 N 
ATOM      3  C1  UNL d   1      -5.113  -5.994   0.666  0.00  0.00    -0.004 A 
ATOM      4  C2  UNL d   1      -4.772  -5.996   2.001  0.00  0.00    -0.047 A 
ATOM      5  C3  UNL d   1      -3.359  -5.998   2.077  0.00  0.00    -0.047 A 
ATOM      6  C4  UNL d   1      -2.878  -5.998   0.785  0.00  0.00    -0.004 A 
ENDROOT
TORSDOF 0
ENDMDL
