MODEL 1
REMARK minimizedAffinity 1.80060375
REMARK minimizedRMSD -1
REMARK  0 active torsions:
REMARK  status: ('A' for Active; 'I' for Inactive)
ROOT
ATOM      1  C   UNL d   1      -0.118  -3.086  -0.248  0.00  0.00     0.172 C 
ATOM      2  N   UNL d   1      -0.773  -4.056   0.598  0.00  0.00    -0.070 N 
ATOM      3  C1  UNL d   1      -1.480  -3.775   1.736  0.00  0.00    -0.004 A 
ATOM      4  C2  UNL d   1      -1.945  -4.967   2.249  0.00  0.00    -0.047 A 
ATOM      5  C3  UNL d   1      -1.502  -6.000   1.390  0.00  0.00    -0.047 A 
ATOM      6  C4  UNL d   1      -0.778  -5.408   0.376  0.00  0.00    -0.004 A 
ENDROOT
TORSDOF 0
ENDMDL
