MODEL 1
REMARK minimizedAffinity 10.7118425
REMARK minimizedRMSD -1
REMARK  0 active torsions:
REMARK  status: ('A' for Active; 'I' for Inactive)
ROOT
ATOM      1  C   UNL d   1      -2.267  -2.383  -2.281  0.00  0.00     0.172 C 
ATOM      2  N   UNL d   1      -1.596  -3.519  -2.867  0.00  0.00    -0.070 N 
ATOM      3  C1  UNL d   1      -0.524  -3.462  -3.717  0.00  0.00    -0.004 A 
ATOM      4  C2  UNL d   1      -0.179  -4.754  -4.049  0.00  0.00    -0.047 A 
ATOM      5  C3  UNL d   1      -1.075  -5.618  -3.376  0.00  0.00    -0.047 A 
ATOM      6  C4  UNL d   1      -1.942  -4.827  -2.651  0.00  0.00    -0.004 A 
ENDROOT
TORSDOF 0
ENDMDL
