MODEL 1
REMARK minimizedAffinity 7.72292471
REMARK minimizedRMSD -1
REMARK  0 active torsions:
REMARK  status: ('A' for Active; 'I' for Inactive)
ROOT
ATOM      1  C   UNL d   1       1.713   1.391   1.585  0.00  0.00     0.172 C 
ATOM      2  N   UNL d   1       2.902   0.572   1.565  0.00  0.00    -0.070 N 
ATOM      3  C1  UNL d   1       3.497   0.056   0.445  0.00  0.00    -0.004 A 
ATOM      4  C2  UNL d   1       4.601  -0.664   0.848  0.00  0.00    -0.047 A 
ATOM      5  C3  UNL d   1       4.671  -0.579   2.259  0.00  0.00    -0.047 A 
ATOM      6  C4  UNL d   1       3.606   0.192   2.677  0.00  0.00    -0.004 A 
ENDROOT
TORSDOF 0
ENDMDL
