MODEL 1
REMARK minimizedAffinity 2.04206181
REMARK minimizedRMSD -1
REMARK  0 active torsions:
REMARK  status: ('A' for Active; 'I' for Inactive)
ROOT
ATOM      1  C   UNL d   1       5.949   5.882   5.965  0.00  0.00     0.172 C 
ATOM      2  N   UNL d   1       5.489   5.416   4.678  0.00  0.00    -0.070 N 
ATOM      3  C1  UNL d   1       5.995   4.345   3.990  0.00  0.00    -0.004 A 
ATOM      4  C2  UNL d   1       5.288   4.229   2.812  0.00  0.00    -0.047 A 
ATOM      5  C3  UNL d   1       4.325   5.266   2.792  0.00  0.00    -0.047 A 
ATOM      6  C4  UNL d   1       4.472   5.985   3.959  0.00  0.00    -0.004 A 
ENDROOT
TORSDOF 0
ENDMDL
