MODEL 1
REMARK minimizedAffinity 2.70952916
REMARK minimizedRMSD -1
REMARK  3 active torsions:
REMARK  status: ('A' for Active; 'I' for Inactive)
REMARK    1  A    between atoms: C3'_2  and  C2'_3 
REMARK    2  A    between atoms: C2'_3  and  C1'_4 
REMARK    3  A    between atoms: C1'_4  and  C1_5 
ROOT
ATOM      1  C1  N4B d   1      -5.936   2.066  -4.514  0.00  0.00    -0.075 A 
ATOM      2  C2  N4B d   1      -5.930   3.438  -4.847  0.00  0.00     0.002 A 
ATOM      3  C3  N4B d   1      -5.952   4.386  -3.853  0.00  0.00     0.002 A 
ATOM      4  C4  N4B d   1      -6.000   3.986  -2.525  0.00  0.00    -0.004 A 
ATOM      5  C5  N4B d   1      -5.980   2.659  -2.212  0.00  0.00     0.002 A 
ATOM      6  C6  N4B d   1      -5.954   1.696  -3.200  0.00  0.00     0.002 A 
ENDROOT
BRANCH   1   7
ATOM      7  C1' N4B d   1      -6.000   0.994  -5.567  0.00  0.00     0.057 C 
BRANCH   7   8
ATOM      8  C2' N4B d   1      -4.848   0.016  -5.356  0.00  0.00     0.009 C 
BRANCH   8   9
ATOM      9  C3' N4B d   1      -3.561   0.506  -5.998  0.00  0.00     0.004 C 
ATOM     10  C4' N4B d   1      -2.423  -0.456  -5.827  0.00  0.00     0.003 C 
ENDBRANCH   8   9
ENDBRANCH   7   8
ENDBRANCH   1   7
TORSDOF 3
ENDMDL
