MODEL 1
REMARK minimizedAffinity 5.0516367
REMARK minimizedRMSD -1
REMARK  3 active torsions:
REMARK  status: ('A' for Active; 'I' for Inactive)
REMARK    1  A    between atoms: C3'_2  and  C2'_3 
REMARK    2  A    between atoms: C2'_3  and  C1'_4 
REMARK    3  A    between atoms: C1'_4  and  C1_5 
ROOT
ATOM      1  C1  N4B d   1      -5.937   1.388  -2.210  0.00  0.00    -0.075 A 
ATOM      2  C2  N4B d   1      -5.977   0.458  -3.273  0.00  0.00     0.002 A 
ATOM      3  C3  N4B d   1      -5.999   0.901  -4.572  0.00  0.00     0.002 A 
ATOM      4  C4  N4B d   1      -5.999   2.264  -4.833  0.00  0.00    -0.004 A 
ATOM      5  C5  N4B d   1      -5.934   3.155  -3.802  0.00  0.00     0.002 A 
ATOM      6  C6  N4B d   1      -5.908   2.724  -2.491  0.00  0.00     0.002 A 
ENDROOT
BRANCH   1   7
ATOM      7  C1' N4B d   1      -5.999   0.953  -0.772  0.00  0.00     0.057 C 
BRANCH   7   8
ATOM      8  C2' N4B d   1      -5.009   1.779   0.044  0.00  0.00     0.009 C 
BRANCH   8   9
ATOM      9  C3' N4B d   1      -4.504   1.021   1.260  0.00  0.00     0.004 C 
ATOM     10  C4' N4B d   1      -5.584   0.745   2.263  0.00  0.00     0.003 C 
ENDBRANCH   8   9
ENDBRANCH   7   8
ENDBRANCH   1   7
TORSDOF 3
ENDMDL
