MODEL 1
REMARK minimizedAffinity 7.5435915
REMARK minimizedRMSD -1
REMARK  3 active torsions:
REMARK  status: ('A' for Active; 'I' for Inactive)
REMARK    1  A    between atoms: C3'_2  and  C2'_3 
REMARK    2  A    between atoms: C2'_3  and  C1'_4 
REMARK    3  A    between atoms: C1'_4  and  C1_5 
ROOT
ATOM      1  C1  N4B d   1       1.724  -2.470  -0.312  0.00  0.00    -0.075 A 
ATOM      2  C2  N4B d   1       0.798  -1.505  -0.765  0.00  0.00     0.002 A 
ATOM      3  C3  N4B d   1      -0.381  -1.904  -1.344  0.00  0.00     0.002 A 
ATOM      4  C4  N4B d   1      -0.647  -3.256  -1.499  0.00  0.00    -0.004 A 
ATOM      5  C5  N4B d   1       0.242  -4.182  -1.036  0.00  0.00     0.002 A 
ATOM      6  C6  N4B d   1       1.429  -3.796  -0.448  0.00  0.00     0.002 A 
ENDROOT
BRANCH   1   7
ATOM      7  C1' N4B d   1       3.065  -2.082   0.250  0.00  0.00     0.057 C 
BRANCH   7   8
ATOM      8  C2' N4B d   1       4.119  -2.192  -0.848  0.00  0.00     0.009 C 
BRANCH   8   9
ATOM      9  C3' N4B d   1       5.382  -2.877  -0.356  0.00  0.00     0.004 C 
ATOM     10  C4' N4B d   1       5.551  -4.257  -0.918  0.00  0.00     0.003 C 
ENDBRANCH   8   9
ENDBRANCH   7   8
ENDBRANCH   1   7
TORSDOF 3
ENDMDL
