MODEL 1
REMARK minimizedAffinity -5.56253147
REMARK minimizedRMSD -1
REMARK  0 active torsions:
REMARK  status: ('A' for Active; 'I' for Inactive)
ROOT
ATOM      1  C   UNL d   1      -6.000   1.170   0.405  0.00  0.00     0.077 C 
ATOM      2  C1  UNL d   1      -5.175   1.075   1.654  0.00  0.00    -0.074 A 
ATOM      3  C2  UNL d   1      -3.815   0.758   1.595  0.00  0.00    -0.005 A 
ATOM      4  C3  UNL d   1      -3.059   0.683   2.765  0.00  0.00     0.006 A 
ATOM      5  C4  UNL d   1      -3.655   0.924   4.004  0.00  0.00    -0.005 A 
ATOM      6  C5  UNL d   1      -5.014   1.243   4.082  0.00  0.00    -0.074 A 
ATOM      7  C6  UNL d   1      -5.668   1.515   5.404  0.00  0.00     0.077 C 
ATOM      8  C7  UNL d   1      -5.765   1.324   2.902  0.00  0.00    -0.001 A 
ENDROOT
TORSDOF 0
ENDMDL
