MODEL 1
REMARK minimizedAffinity 2.64638448
REMARK minimizedRMSD -1
REMARK  0 active torsions:
REMARK  status: ('A' for Active; 'I' for Inactive)
ROOT
ATOM      1  C   UNL d   1       0.064  -0.655   4.420  0.00  0.00     0.077 C 
ATOM      2  C1  UNL d   1      -0.996  -0.583   3.362  0.00  0.00    -0.074 A 
ATOM      3  C2  UNL d   1      -1.865   0.510   3.287  0.00  0.00    -0.005 A 
ATOM      4  C3  UNL d   1      -2.840   0.567   2.291  0.00  0.00     0.006 A 
ATOM      5  C4  UNL d   1      -2.956  -0.467   1.361  0.00  0.00    -0.005 A 
ATOM      6  C5  UNL d   1      -2.095  -1.568   1.419  0.00  0.00    -0.074 A 
ATOM      7  C6  UNL d   1      -2.199  -2.683   0.422  0.00  0.00     0.077 C 
ATOM      8  C7  UNL d   1      -1.113  -1.614   2.419  0.00  0.00    -0.001 A 
ENDROOT
TORSDOF 0
ENDMDL
