MODEL 1
REMARK minimizedAffinity 8.70847416
REMARK minimizedRMSD -1
REMARK  0 active torsions:
REMARK  status: ('A' for Active; 'I' for Inactive)
ROOT
ATOM      1  C   UNL d   1       4.383   2.891   0.607  0.00  0.00     0.077 C 
ATOM      2  C1  UNL d   1       4.688   3.861  -0.495  0.00  0.00    -0.074 A 
ATOM      3  C2  UNL d   1       5.248   5.112  -0.218  0.00  0.00    -0.005 A 
ATOM      4  C3  UNL d   1       5.534   6.000  -1.255  0.00  0.00     0.006 A 
ATOM      5  C4  UNL d   1       5.265   5.646  -2.577  0.00  0.00    -0.005 A 
ATOM      6  C5  UNL d   1       4.706   4.399  -2.874  0.00  0.00    -0.074 A 
ATOM      7  C6  UNL d   1       4.419   3.999  -4.291  0.00  0.00     0.077 C 
ATOM      8  C7  UNL d   1       4.427   3.510  -1.827  0.00  0.00    -0.001 A 
ENDROOT
TORSDOF 0
ENDMDL
