MODEL 1
REMARK minimizedAffinity 1.91158819
REMARK minimizedRMSD -1
REMARK  0 active torsions:
REMARK  status: ('A' for Active; 'I' for Inactive)
ROOT
ATOM      1  C   UNL d   1      -5.068   0.275   0.367  0.00  0.00     0.077 C 
ATOM      2  C1  UNL d   1      -3.877   0.212   1.277  0.00  0.00    -0.074 A 
ATOM      3  C2  UNL d   1      -3.716   1.135   2.315  0.00  0.00    -0.005 A 
ATOM      4  C3  UNL d   1      -2.608   1.058   3.159  0.00  0.00     0.006 A 
ATOM      5  C4  UNL d   1      -1.651   0.059   2.973  0.00  0.00    -0.005 A 
ATOM      6  C5  UNL d   1      -1.796  -0.873   1.941  0.00  0.00    -0.074 A 
ATOM      7  C6  UNL d   1      -0.782  -1.959   1.733  0.00  0.00     0.077 C 
ATOM      8  C7  UNL d   1      -2.916  -0.793   1.101  0.00  0.00    -0.001 A 
ENDROOT
TORSDOF 0
ENDMDL
