MODEL 1
REMARK minimizedAffinity 4.43879271
REMARK minimizedRMSD -1
REMARK  0 active torsions:
REMARK  status: ('A' for Active; 'I' for Inactive)
ROOT
ATOM      1  C   UNL d   1      -5.415   1.380   0.271  0.00  0.00     0.077 C 
ATOM      2  C1  UNL d   1      -4.218   0.608   0.741  0.00  0.00    -0.074 A 
ATOM      3  C2  UNL d   1      -3.682  -0.428  -0.031  0.00  0.00    -0.005 A 
ATOM      4  C3  UNL d   1      -2.563  -1.131   0.415  0.00  0.00     0.006 A 
ATOM      5  C4  UNL d   1      -1.969  -0.805   1.635  0.00  0.00    -0.005 A 
ATOM      6  C5  UNL d   1      -2.490   0.228   2.420  0.00  0.00    -0.074 A 
ATOM      7  C6  UNL d   1      -1.858   0.598   3.729  0.00  0.00     0.077 C 
ATOM      8  C7  UNL d   1      -3.611   0.935   1.962  0.00  0.00    -0.001 A 
ENDROOT
TORSDOF 0
ENDMDL
