MODEL 1
REMARK minimizedAffinity 5.81437063
REMARK minimizedRMSD -1
REMARK  0 active torsions:
REMARK  status: ('A' for Active; 'I' for Inactive)
ROOT
ATOM      1  C   UNL d   1       5.999   5.996  -1.261  0.00  0.00     0.077 C 
ATOM      2  C1  UNL d   1       5.295   5.205  -2.323  0.00  0.00    -0.074 A 
ATOM      3  C2  UNL d   1       5.996   4.687  -3.417  0.00  0.00    -0.005 A 
ATOM      4  C3  UNL d   1       5.329   3.945  -4.393  0.00  0.00     0.006 A 
ATOM      5  C4  UNL d   1       3.957   3.714  -4.284  0.00  0.00    -0.005 A 
ATOM      6  C5  UNL d   1       3.240   4.224  -3.197  0.00  0.00    -0.074 A 
ATOM      7  C6  UNL d   1       1.767   3.976  -3.060  0.00  0.00     0.077 C 
ATOM      8  C7  UNL d   1       3.918   4.962  -2.217  0.00  0.00    -0.001 A 
ENDROOT
TORSDOF 0
ENDMDL
