MODEL 1
REMARK minimizedAffinity 4.2813344
REMARK minimizedRMSD -1
REMARK  0 active torsions:
REMARK  status: ('A' for Active; 'I' for Inactive)
ROOT
ATOM      1  C   UNL d   1      -1.246  -1.989   1.372  0.00  0.00     0.077 C 
ATOM      2  C1  UNL d   1      -2.122  -0.855   1.816  0.00  0.00    -0.074 A 
ATOM      3  C2  UNL d   1      -1.913  -0.225   3.047  0.00  0.00    -0.005 A 
ATOM      4  C3  UNL d   1      -2.730   0.834   3.443  0.00  0.00     0.006 A 
ATOM      5  C4  UNL d   1      -3.762   1.273   2.613  0.00  0.00    -0.005 A 
ATOM      6  C5  UNL d   1      -3.986   0.656   1.378  0.00  0.00    -0.074 A 
ATOM      7  C6  UNL d   1      -5.084   1.122   0.469  0.00  0.00     0.077 C 
ATOM      8  C7  UNL d   1      -3.156  -0.403   0.985  0.00  0.00    -0.001 A 
ENDROOT
TORSDOF 0
ENDMDL
