MODEL 1
REMARK minimizedAffinity 0.395722002
REMARK minimizedRMSD -1
REMARK  0 active torsions:
REMARK  status: ('A' for Active; 'I' for Inactive)
ROOT
ATOM      1  C   UNL d   1      -1.881  -3.185  -2.983  0.00  0.00     0.077 C 
ATOM      2  C1  UNL d   1      -1.412  -4.171  -4.012  0.00  0.00    -0.074 A 
ATOM      3  C2  UNL d   1      -2.326  -4.853  -4.822  0.00  0.00    -0.005 A 
ATOM      4  C3  UNL d   1      -1.875  -5.760  -5.781  0.00  0.00     0.006 A 
ATOM      5  C4  UNL d   1      -0.508  -5.994  -5.939  0.00  0.00    -0.005 A 
ATOM      6  C5  UNL d   1       0.420  -5.321  -5.138  0.00  0.00    -0.074 A 
ATOM      7  C6  UNL d   1       1.893  -5.553  -5.301  0.00  0.00     0.077 C 
ATOM      8  C7  UNL d   1      -0.041  -4.406  -4.182  0.00  0.00    -0.001 A 
ENDROOT
TORSDOF 0
ENDMDL
