MODEL 1
REMARK minimizedAffinity 6.73536682
REMARK minimizedRMSD -1
REMARK  0 active torsions:
REMARK  status: ('A' for Active; 'I' for Inactive)
ROOT
ATOM      1  C   UNL d   1      -2.241  -1.545  -1.751  0.00  0.00     0.077 C 
ATOM      2  C1  UNL d   1      -3.079  -0.712  -0.827  0.00  0.00    -0.074 A 
ATOM      3  C2  UNL d   1      -4.299  -0.175  -1.251  0.00  0.00    -0.005 A 
ATOM      4  C3  UNL d   1      -5.072   0.589  -0.377  0.00  0.00     0.006 A 
ATOM      5  C4  UNL d   1      -4.634   0.824   0.927  0.00  0.00    -0.005 A 
ATOM      6  C5  UNL d   1      -3.418   0.294   1.369  0.00  0.00    -0.074 A 
ATOM      7  C6  UNL d   1      -2.937   0.529   2.770  0.00  0.00     0.077 C 
ATOM      8  C7  UNL d   1      -2.650  -0.479   0.487  0.00  0.00    -0.001 A 
ENDROOT
TORSDOF 0
ENDMDL
