MODEL 1
REMARK minimizedAffinity 4.70014381
REMARK minimizedRMSD -1
REMARK  0 active torsions:
REMARK  status: ('A' for Active; 'I' for Inactive)
ROOT
ATOM      1  C   UNL d   1       5.792   5.990  -2.579  0.00  0.00     0.077 C 
ATOM      2  C1  UNL d   1       4.517   5.217  -2.736  0.00  0.00    -0.074 A 
ATOM      3  C2  UNL d   1       4.515   3.944  -3.316  0.00  0.00    -0.005 A 
ATOM      4  C3  UNL d   1       3.322   3.233  -3.446  0.00  0.00     0.006 A 
ATOM      5  C4  UNL d   1       2.122   3.785  -2.999  0.00  0.00    -0.005 A 
ATOM      6  C5  UNL d   1       2.105   5.056  -2.415  0.00  0.00    -0.074 A 
ATOM      7  C6  UNL d   1       0.825   5.661  -1.919  0.00  0.00     0.077 C 
ATOM      8  C7  UNL d   1       3.308   5.762  -2.281  0.00  0.00    -0.001 A 
ENDROOT
TORSDOF 0
ENDMDL
