MODEL 1
REMARK minimizedAffinity 6.06936407
REMARK minimizedRMSD -1
REMARK  0 active torsions:
REMARK  status: ('A' for Active; 'I' for Inactive)
ROOT
ATOM      1  C   UNL d   1       0.984  -1.707   3.833  0.00  0.00     0.077 C 
ATOM      2  C1  UNL d   1      -0.158  -1.335   2.935  0.00  0.00    -0.074 A 
ATOM      3  C2  UNL d   1      -0.476  -2.112   1.816  0.00  0.00    -0.005 A 
ATOM      4  C3  UNL d   1      -1.547  -1.758   0.996  0.00  0.00     0.006 A 
ATOM      5  C4  UNL d   1      -2.310  -0.626   1.285  0.00  0.00    -0.005 A 
ATOM      6  C5  UNL d   1      -2.008   0.162   2.400  0.00  0.00    -0.074 A 
ATOM      7  C6  UNL d   1      -2.824   1.376   2.730  0.00  0.00     0.077 C 
ATOM      8  C7  UNL d   1      -0.934  -0.204   3.223  0.00  0.00    -0.001 A 
ENDROOT
TORSDOF 0
ENDMDL
