MODEL 1
REMARK minimizedAffinity 15.3246021
REMARK minimizedRMSD -1
REMARK  0 active torsions:
REMARK  status: ('A' for Active; 'I' for Inactive)
ROOT
ATOM      1  C   UNL d   1       1.883   3.720  -1.997  0.00  0.00     0.077 C 
ATOM      2  C1  UNL d   1       3.153   3.726  -2.795  0.00  0.00    -0.074 A 
ATOM      3  C2  UNL d   1       4.267   4.454  -2.367  0.00  0.00    -0.005 A 
ATOM      4  C3  UNL d   1       5.445   4.442  -3.114  0.00  0.00     0.006 A 
ATOM      5  C4  UNL d   1       5.520   3.702  -4.295  0.00  0.00    -0.005 A 
ATOM      6  C5  UNL d   1       4.416   2.967  -4.738  0.00  0.00    -0.074 A 
ATOM      7  C6  UNL d   1       4.483   2.159  -6.000  0.00  0.00     0.077 C 
ATOM      8  C7  UNL d   1       3.238   2.979  -3.978  0.00  0.00    -0.001 A 
ENDROOT
TORSDOF 0
ENDMDL
