MODEL 1
REMARK minimizedAffinity 7.18652344
REMARK minimizedRMSD -1
REMARK  0 active torsions:
REMARK  status: ('A' for Active; 'I' for Inactive)
ROOT
ATOM      1  C   UNL d   1       1.267   2.528  -2.628  0.00  0.00     0.077 C 
ATOM      2  C1  UNL d   1       1.661   1.832  -1.359  0.00  0.00    -0.074 A 
ATOM      3  C2  UNL d   1       3.005   1.721  -0.987  0.00  0.00    -0.005 A 
ATOM      4  C3  UNL d   1       3.355   1.078   0.200  0.00  0.00     0.006 A 
ATOM      5  C4  UNL d   1       2.367   0.541   1.026  0.00  0.00    -0.005 A 
ATOM      6  C5  UNL d   1       1.018   0.643   0.671  0.00  0.00    -0.074 A 
ATOM      7  C6  UNL d   1      -0.056   0.080   1.553  0.00  0.00     0.077 C 
ATOM      8  C7  UNL d   1       0.674   1.296  -0.520  0.00  0.00    -0.001 A 
ENDROOT
TORSDOF 0
ENDMDL
