MODEL 1
REMARK minimizedAffinity 4.11650515
REMARK minimizedRMSD -1
REMARK  0 active torsions:
REMARK  status: ('A' for Active; 'I' for Inactive)
ROOT
ATOM      1  C   UNL d   1       1.901  -6.000  -4.872  0.00  0.00     0.077 C 
ATOM      2  C1  UNL d   1       0.550  -5.357  -4.763  0.00  0.00    -0.074 A 
ATOM      3  C2  UNL d   1       0.376  -4.167  -4.049  0.00  0.00    -0.005 A 
ATOM      4  C3  UNL d   1      -0.884  -3.575  -3.964  0.00  0.00     0.006 A 
ATOM      5  C4  UNL d   1      -1.981  -4.167  -4.591  0.00  0.00    -0.005 A 
ATOM      6  C5  UNL d   1      -1.827  -5.356  -5.310  0.00  0.00    -0.074 A 
ATOM      7  C6  UNL d   1      -2.994  -5.999  -5.998  0.00  0.00     0.077 C 
ATOM      8  C7  UNL d   1      -0.556  -5.941  -5.397  0.00  0.00    -0.001 A 
ENDROOT
TORSDOF 0
ENDMDL
