MODEL 1
REMARK minimizedAffinity 5.62020874
REMARK minimizedRMSD -1
REMARK  0 active torsions:
REMARK  status: ('A' for Active; 'I' for Inactive)
ROOT
ATOM      1  C   UNL d   1      -1.190   5.593  -5.304  0.00  0.00     0.077 C 
ATOM      2  C1  UNL d   1      -2.660   5.586  -5.010  0.00  0.00    -0.074 A 
ATOM      3  C2  UNL d   1      -3.593   5.912  -6.000  0.00  0.00    -0.005 A 
ATOM      4  C3  UNL d   1      -4.958   5.892  -5.714  0.00  0.00     0.006 A 
ATOM      5  C4  UNL d   1      -5.404   5.546  -4.438  0.00  0.00    -0.005 A 
ATOM      6  C5  UNL d   1      -4.486   5.216  -3.435  0.00  0.00    -0.074 A 
ATOM      7  C6  UNL d   1      -4.949   4.833  -2.061  0.00  0.00     0.077 C 
ATOM      8  C7  UNL d   1      -3.116   5.232  -3.732  0.00  0.00    -0.001 A 
ENDROOT
TORSDOF 0
ENDMDL
