MODEL 1
REMARK minimizedAffinity 4.73021984
REMARK minimizedRMSD -1
REMARK  0 active torsions:
REMARK  status: ('A' for Active; 'I' for Inactive)
ROOT
ATOM      1  C   UNL d   1      -5.072  -1.261   5.985  0.00  0.00     0.077 C 
ATOM      2  C1  UNL d   1      -4.406   0.008   5.543  0.00  0.00    -0.074 A 
ATOM      3  C2  UNL d   1      -3.278  -0.022   4.717  0.00  0.00    -0.005 A 
ATOM      4  C3  UNL d   1      -2.675   1.167   4.306  0.00  0.00     0.006 A 
ATOM      5  C4  UNL d   1      -3.193   2.396   4.717  0.00  0.00    -0.005 A 
ATOM      6  C5  UNL d   1      -4.320   2.446   5.543  0.00  0.00    -0.074 A 
ATOM      7  C6  UNL d   1      -4.895   3.758   5.985  0.00  0.00     0.077 C 
ATOM      8  C7  UNL d   1      -4.925   1.247   5.945  0.00  0.00    -0.001 A 
ENDROOT
TORSDOF 0
ENDMDL
