MODEL 1
REMARK minimizedAffinity 4.76029205
REMARK minimizedRMSD -1
REMARK  0 active torsions:
REMARK  status: ('A' for Active; 'I' for Inactive)
ROOT
ATOM      1  C   UNL d   1      -4.215   1.874   5.999  0.00  0.00     0.077 C 
ATOM      2  C1  UNL d   1      -3.522   1.255   4.821  0.00  0.00    -0.074 A 
ATOM      3  C2  UNL d   1      -2.175   0.886   4.892  0.00  0.00    -0.005 A 
ATOM      4  C3  UNL d   1      -1.547   0.301   3.792  0.00  0.00     0.006 A 
ATOM      5  C4  UNL d   1      -2.259   0.080   2.612  0.00  0.00    -0.005 A 
ATOM      6  C5  UNL d   1      -3.607   0.442   2.524  0.00  0.00    -0.074 A 
ATOM      7  C6  UNL d   1      -4.389   0.202   1.266  0.00  0.00     0.077 C 
ATOM      8  C7  UNL d   1      -4.233   1.022   3.635  0.00  0.00    -0.001 A 
ENDROOT
TORSDOF 0
ENDMDL
