MODEL 1
REMARK minimizedAffinity 2.65969276
REMARK minimizedRMSD -1
REMARK  1 active torsions:
REMARK  status: ('A' for Active; 'I' for Inactive)
REMARK    1  A    between atoms: N_2  and  C1_3 
ROOT
ATOM      1  C1  UNL d   1      -2.752  -5.162  -5.261  0.00  0.00     0.143 A 
ATOM      2  C2  UNL d   1      -2.673  -5.167  -3.865  0.00  0.00    -0.057 A 
ATOM      3  C3  UNL d   1      -1.478  -5.486  -3.207  0.00  0.00     0.033 A 
ATOM      4  C4  UNL d   1      -0.347  -5.834  -3.937  0.00  0.00    -0.042 A 
ATOM      5  C5  UNL d   1      -0.410  -5.859  -5.326  0.00  0.00     0.033 A 
ATOM      6  C6  UNL d   1      -1.603  -5.533  -5.977  0.00  0.00    -0.057 A 
ENDROOT
BRANCH   1   7
ATOM      7  N   UNL d   1      -3.936  -4.950  -5.972  0.00  0.00    -0.732 N 
ATOM      8  C   UNL d   1      -4.970  -5.962  -6.000  0.00  0.00     0.284 C 
ATOM      9  H3  UNL d   1      -4.287  -4.000  -5.869  0.00  0.00     0.395 HD
ENDBRANCH   1   7
TORSDOF 1
ENDMDL
