MODEL 1
REMARK minimizedAffinity -1.23525453
REMARK minimizedRMSD -1
REMARK  1 active torsions:
REMARK  status: ('A' for Active; 'I' for Inactive)
REMARK    1  A    between atoms: N_2  and  C1_3 
ROOT
ATOM      1  C1  UNL d   1      -4.196  -5.062  -5.343  0.00  0.00     0.143 A 
ATOM      2  C2  UNL d   1      -3.167  -5.746  -6.000  0.00  0.00    -0.057 A 
ATOM      3  C3  UNL d   1      -1.942  -5.995  -5.369  0.00  0.00     0.033 A 
ATOM      4  C4  UNL d   1      -1.713  -5.536  -4.076  0.00  0.00    -0.042 A 
ATOM      5  C5  UNL d   1      -2.711  -4.832  -3.413  0.00  0.00     0.033 A 
ATOM      6  C6  UNL d   1      -3.935  -4.592  -4.046  0.00  0.00    -0.057 A 
ENDROOT
BRANCH   1   7
ATOM      7  N   UNL d   1      -5.400  -4.698  -5.950  0.00  0.00    -0.732 N 
ATOM      8  C   UNL d   1      -5.813  -3.311  -5.996  0.00  0.00     0.284 C 
ATOM      9  H3  UNL d   1      -5.571  -5.211  -6.812  0.00  0.00     0.395 HD
ENDBRANCH   1   7
TORSDOF 1
ENDMDL
