MODEL 1
REMARK minimizedAffinity -1.46368825
REMARK minimizedRMSD -1
REMARK  1 active torsions:
REMARK  status: ('A' for Active; 'I' for Inactive)
REMARK    1  A    between atoms: N_2  and  C1_3 
ROOT
ATOM      1  C1  UNL d   1      -3.272  -4.835  -5.196  0.00  0.00     0.143 A 
ATOM      2  C2  UNL d   1      -3.315  -4.869  -3.798  0.00  0.00    -0.057 A 
ATOM      3  C3  UNL d   1      -2.273  -5.432  -3.053  0.00  0.00     0.033 A 
ATOM      4  C4  UNL d   1      -1.178  -6.000  -3.696  0.00  0.00    -0.042 A 
ATOM      5  C5  UNL d   1      -1.125  -6.000  -5.085  0.00  0.00     0.033 A 
ATOM      6  C6  UNL d   1      -2.166  -5.430  -5.824  0.00  0.00    -0.057 A 
ENDROOT
BRANCH   1   7
ATOM      7  N   UNL d   1      -4.322  -4.378  -5.996  0.00  0.00    -0.732 N 
ATOM      8  C   UNL d   1      -4.735  -2.992  -5.949  0.00  0.00     0.284 C 
ATOM      9  H3  UNL d   1      -4.296  -4.772  -6.934  0.00  0.00     0.395 HD
ENDBRANCH   1   7
TORSDOF 1
ENDMDL
