MODEL 1
REMARK minimizedAffinity -2.0426693
REMARK minimizedRMSD -1
REMARK  1 active torsions:
REMARK  status: ('A' for Active; 'I' for Inactive)
REMARK    1  A    between atoms: N_2  and  C1_3 
ROOT
ATOM      1  C1  UNL d   1      -4.332  -4.601  -4.878  0.00  0.00     0.143 A 
ATOM      2  C2  UNL d   1      -3.499  -4.582  -3.754  0.00  0.00    -0.057 A 
ATOM      3  C3  UNL d   1      -2.261  -5.235  -3.757  0.00  0.00     0.033 A 
ATOM      4  C4  UNL d   1      -1.846  -5.946  -4.878  0.00  0.00    -0.042 A 
ATOM      5  C5  UNL d   1      -2.668  -6.000  -5.997  0.00  0.00     0.033 A 
ATOM      6  C6  UNL d   1      -3.901  -5.339  -5.991  0.00  0.00    -0.057 A 
ENDROOT
BRANCH   1   7
ATOM      7  N   UNL d   1      -5.617  -4.054  -4.902  0.00  0.00    -0.732 N 
ATOM      8  C   UNL d   1      -5.959  -3.017  -5.852  0.00  0.00     0.284 C 
ATOM      9  H3  UNL d   1      -6.341  -4.757  -4.776  0.00  0.00     0.395 HD
ENDBRANCH   1   7
TORSDOF 1
ENDMDL
