MODEL 1
REMARK minimizedAffinity -2.01254416
REMARK minimizedRMSD -1
REMARK  1 active torsions:
REMARK  status: ('A' for Active; 'I' for Inactive)
REMARK    1  A    between atoms: N_2  and  C1_3 
ROOT
ATOM      1  C1  UNL d   1      -4.505  -4.324  -4.902  0.00  0.00     0.143 A 
ATOM      2  C2  UNL d   1      -3.697  -4.392  -3.762  0.00  0.00    -0.057 A 
ATOM      3  C3  UNL d   1      -2.545  -5.187  -3.735  0.00  0.00     0.033 A 
ATOM      4  C4  UNL d   1      -2.196  -5.954  -4.841  0.00  0.00    -0.042 A 
ATOM      5  C5  UNL d   1      -2.998  -5.922  -5.977  0.00  0.00     0.033 A 
ATOM      6  C6  UNL d   1      -4.143  -5.120  -6.000  0.00  0.00    -0.057 A 
ENDROOT
BRANCH   1   7
ATOM      7  N   UNL d   1      -5.715  -3.629  -4.957  0.00  0.00    -0.732 N 
ATOM      8  C   UNL d   1      -5.821  -2.390  -5.697  0.00  0.00     0.284 C 
ATOM      9  H3  UNL d   1      -6.515  -4.249  -5.067  0.00  0.00     0.395 HD
ENDBRANCH   1   7
TORSDOF 1
ENDMDL
