MODEL 1
REMARK minimizedAffinity -2.5632894
REMARK minimizedRMSD -1
REMARK  1 active torsions:
REMARK  status: ('A' for Active; 'I' for Inactive)
REMARK    1  A    between atoms: N_2  and  C1_3 
ROOT
ATOM      1  C1  UNL d   1      -4.159  -4.482  -4.803  0.00  0.00     0.143 A 
ATOM      2  C2  UNL d   1      -3.516  -4.883  -3.627  0.00  0.00    -0.057 A 
ATOM      3  C3  UNL d   1      -2.166  -5.251  -3.627  0.00  0.00     0.033 A 
ATOM      4  C4  UNL d   1      -1.439  -5.253  -4.814  0.00  0.00    -0.042 A 
ATOM      5  C5  UNL d   1      -2.065  -4.883  -5.999  0.00  0.00     0.033 A 
ATOM      6  C6  UNL d   1      -3.412  -4.510  -5.991  0.00  0.00    -0.057 A 
ENDROOT
BRANCH   1   7
ATOM      7  N   UNL d   1      -5.525  -4.199  -4.885  0.00  0.00    -0.732 N 
ATOM      8  C   UNL d   1      -5.999  -2.833  -4.828  0.00  0.00     0.284 C 
ATOM      9  H3  UNL d   1      -6.000  -4.775  -5.576  0.00  0.00     0.395 HD
ENDBRANCH   1   7
TORSDOF 1
ENDMDL
