MODEL 1
REMARK minimizedAffinity 1.62565148
REMARK minimizedRMSD -1
REMARK  1 active torsions:
REMARK  status: ('A' for Active; 'I' for Inactive)
REMARK    1  A    between atoms: N_2  and  C1_3 
ROOT
ATOM      1  C1  UNL d   1      -0.246  -0.356   0.547  0.00  0.00     0.143 A 
ATOM      2  C2  UNL d   1      -1.060  -0.225  -0.583  0.00  0.00    -0.057 A 
ATOM      3  C3  UNL d   1      -2.225  -0.988  -0.731  0.00  0.00     0.033 A 
ATOM      4  C4  UNL d   1      -2.582  -1.918   0.239  0.00  0.00    -0.042 A 
ATOM      5  C5  UNL d   1      -1.774  -2.083   1.359  0.00  0.00     0.033 A 
ATOM      6  C6  UNL d   1      -0.616  -1.314   1.504  0.00  0.00    -0.057 A 
ENDROOT
BRANCH   1   7
ATOM      7  N   UNL d   1       0.977   0.302   0.705  0.00  0.00    -0.732 N 
ATOM      8  C   UNL d   1       2.220  -0.439   0.693  0.00  0.00     0.284 C 
ATOM      9  H3  UNL d   1       1.013   1.182   0.196  0.00  0.00     0.395 HD
ENDBRANCH   1   7
TORSDOF 1
ENDMDL
