MODEL 1
REMARK minimizedAffinity -1.5079478
REMARK minimizedRMSD -1
REMARK  1 active torsions:
REMARK  status: ('A' for Active; 'I' for Inactive)
REMARK    1  A    between atoms: N_2  and  C1_3 
ROOT
ATOM      1  C1  UNL d   1      -3.325  -4.991  -5.326  0.00  0.00     0.143 A 
ATOM      2  C2  UNL d   1      -3.772  -3.666  -5.355  0.00  0.00    -0.057 A 
ATOM      3  C3  UNL d   1      -5.099  -3.353  -5.673  0.00  0.00     0.033 A 
ATOM      4  C4  UNL d   1      -5.999  -4.363  -5.998  0.00  0.00    -0.042 A 
ATOM      5  C5  UNL d   1      -5.571  -5.686  -6.000  0.00  0.00     0.033 A 
ATOM      6  C6  UNL d   1      -4.246  -5.992  -5.675  0.00  0.00    -0.057 A 
ENDROOT
BRANCH   1   7
ATOM      7  N   UNL d   1      -1.994  -5.359  -5.114  0.00  0.00    -0.732 N 
ATOM      8  C   UNL d   1      -0.942  -4.840  -5.960  0.00  0.00     0.284 C 
ATOM      9  H3  UNL d   1      -1.754  -5.394  -4.126  0.00  0.00     0.395 HD
ENDBRANCH   1   7
TORSDOF 1
ENDMDL
