MODEL 1
REMARK minimizedAffinity -3.13137794
REMARK minimizedRMSD -1
REMARK  1 active torsions:
REMARK  status: ('A' for Active; 'I' for Inactive)
REMARK    1  A    between atoms: N_2  and  C1_3 
ROOT
ATOM      1  C1  UNL d   1      -4.291  -3.864  -5.482  0.00  0.00     0.143 A 
ATOM      2  C2  UNL d   1      -4.370  -5.201  -5.884  0.00  0.00    -0.057 A 
ATOM      3  C3  UNL d   1      -3.223  -5.998  -5.989  0.00  0.00     0.033 A 
ATOM      4  C4  UNL d   1      -1.969  -5.459  -5.721  0.00  0.00    -0.042 A 
ATOM      5  C5  UNL d   1      -1.863  -4.125  -5.344  0.00  0.00     0.033 A 
ATOM      6  C6  UNL d   1      -3.013  -3.337  -5.235  0.00  0.00    -0.057 A 
ENDROOT
BRANCH   1   7
ATOM      7  N   UNL d   1      -5.383  -2.994  -5.454  0.00  0.00    -0.732 N 
ATOM      8  C   UNL d   1      -6.000  -2.625  -4.198  0.00  0.00     0.284 C 
ATOM      9  H3  UNL d   1      -5.283  -2.222  -6.110  0.00  0.00     0.395 HD
ENDBRANCH   1   7
TORSDOF 1
ENDMDL
