MODEL 1
REMARK minimizedAffinity -2.16974711
REMARK minimizedRMSD -1
REMARK  1 active torsions:
REMARK  status: ('A' for Active; 'I' for Inactive)
REMARK    1  A    between atoms: N_2  and  C1_3 
ROOT
ATOM      1  C1  UNL d   1      -4.975  -3.770  -5.421  0.00  0.00     0.143 A 
ATOM      2  C2  UNL d   1      -5.176  -5.028  -6.000  0.00  0.00    -0.057 A 
ATOM      3  C3  UNL d   1      -4.166  -5.998  -5.996  0.00  0.00     0.033 A 
ATOM      4  C4  UNL d   1      -2.924  -5.716  -5.438  0.00  0.00    -0.042 A 
ATOM      5  C5  UNL d   1      -2.693  -4.464  -4.879  0.00  0.00     0.033 A 
ATOM      6  C6  UNL d   1      -3.708  -3.501  -4.880  0.00  0.00    -0.057 A 
ENDROOT
BRANCH   1   7
ATOM      7  N   UNL d   1      -5.905  -2.729  -5.480  0.00  0.00    -0.732 N 
ATOM      8  C   UNL d   1      -5.928  -1.703  -4.460  0.00  0.00     0.284 C 
ATOM      9  H3  UNL d   1      -6.036  -2.379  -6.426  0.00  0.00     0.395 HD
ENDBRANCH   1   7
TORSDOF 1
ENDMDL
