MODEL 1
REMARK minimizedAffinity 0.577626646
REMARK minimizedRMSD -1
REMARK  1 active torsions:
REMARK  status: ('A' for Active; 'I' for Inactive)
REMARK    1  A    between atoms: N_2  and  C1_3 
ROOT
ATOM      1  C1  UNL d   1      -4.509  -4.126  -4.835  0.00  0.00     0.143 A 
ATOM      2  C2  UNL d   1      -5.260  -3.715  -3.729  0.00  0.00    -0.057 A 
ATOM      3  C3  UNL d   1      -5.999  -2.526  -3.754  0.00  0.00     0.033 A 
ATOM      4  C4  UNL d   1      -5.976  -1.710  -4.880  0.00  0.00    -0.042 A 
ATOM      5  C5  UNL d   1      -5.217  -2.086  -5.982  0.00  0.00     0.033 A 
ATOM      6  C6  UNL d   1      -4.487  -3.278  -5.953  0.00  0.00    -0.057 A 
ENDROOT
BRANCH   1   7
ATOM      7  N   UNL d   1      -3.676  -5.247  -4.837  0.00  0.00    -0.732 N 
ATOM      8  C   UNL d   1      -2.417  -5.229  -5.551  0.00  0.00     0.284 C 
ATOM      9  H3  UNL d   1      -3.631  -5.699  -3.926  0.00  0.00     0.395 HD
ENDBRANCH   1   7
TORSDOF 1
ENDMDL
