MODEL 1
REMARK minimizedAffinity 0.767337441
REMARK minimizedRMSD -1
REMARK  1 active torsions:
REMARK  status: ('A' for Active; 'I' for Inactive)
REMARK    1  A    between atoms: N_2  and  C1_3 
ROOT
ATOM      1  C1  UNL d   1      -3.638  -0.096  -4.871  0.00  0.00     0.143 A 
ATOM      2  C2  UNL d   1      -4.498  -0.113  -3.767  0.00  0.00    -0.057 A 
ATOM      3  C3  UNL d   1      -5.660  -0.894  -3.764  0.00  0.00     0.033 A 
ATOM      4  C4  UNL d   1      -5.999  -1.652  -4.880  0.00  0.00    -0.042 A 
ATOM      5  C5  UNL d   1      -5.172  -1.631  -5.998  0.00  0.00     0.033 A 
ATOM      6  C6  UNL d   1      -4.010  -0.854  -5.993  0.00  0.00    -0.057 A 
ENDROOT
BRANCH   1   7
ATOM      7  N   UNL d   1      -2.521   0.736  -4.974  0.00  0.00    -0.732 N 
ATOM      8  C   UNL d   1      -1.927   1.322  -3.791  0.00  0.00     0.284 C 
ATOM      9  H3  UNL d   1      -1.845   0.396  -5.654  0.00  0.00     0.395 HD
ENDBRANCH   1   7
TORSDOF 1
ENDMDL
