MODEL 1
REMARK minimizedAffinity 3.87327886
REMARK minimizedRMSD -1
REMARK  0 active torsions:
REMARK  status: ('A' for Active; 'I' for Inactive)
ROOT
ATOM      1  C   UNL d   1       5.658  -0.750   6.000  0.00  0.00     0.077 C 
ATOM      2  C1  UNL d   1       5.399   0.324   4.985  0.00  0.00    -0.074 A 
ATOM      3  C2  UNL d   1       4.745   0.034   3.783  0.00  0.00    -0.005 A 
ATOM      4  C3  UNL d   1       4.502   1.044   2.853  0.00  0.00     0.006 A 
ATOM      5  C4  UNL d   1       4.910   2.353   3.115  0.00  0.00    -0.005 A 
ATOM      6  C5  UNL d   1       5.564   2.662   4.312  0.00  0.00    -0.074 A 
ATOM      7  C6  UNL d   1       6.000   4.065   4.613  0.00  0.00     0.077 C 
ATOM      8  C7  UNL d   1       5.798   1.642   5.244  0.00  0.00    -0.001 A 
ENDROOT
TORSDOF 0
ENDMDL
