MODEL 1
REMARK minimizedAffinity 5.00173569
REMARK minimizedRMSD -1
REMARK  0 active torsions:
REMARK  status: ('A' for Active; 'I' for Inactive)
ROOT
ATOM      1  C   UNL d   1      -2.796  -5.624  -0.010  0.00  0.00     0.077 C 
ATOM      2  C1  UNL d   1      -2.593  -4.140  -0.093  0.00  0.00    -0.074 A 
ATOM      3  C2  UNL d   1      -3.662  -3.284  -0.377  0.00  0.00    -0.005 A 
ATOM      4  C3  UNL d   1      -3.459  -1.905  -0.442  0.00  0.00     0.006 A 
ATOM      5  C4  UNL d   1      -2.189  -1.370  -0.224  0.00  0.00    -0.005 A 
ATOM      6  C5  UNL d   1      -1.109  -2.211   0.063  0.00  0.00    -0.074 A 
ATOM      7  C6  UNL d   1       0.260  -1.652   0.310  0.00  0.00     0.077 C 
ATOM      8  C7  UNL d   1      -1.322  -3.595   0.133  0.00  0.00    -0.001 A 
ENDROOT
TORSDOF 0
ENDMDL
