MODEL 1
REMARK minimizedAffinity 0.418409318
REMARK minimizedRMSD -1
REMARK  0 active torsions:
REMARK  status: ('A' for Active; 'I' for Inactive)
ROOT
ATOM      1  C   UNL d   1       1.704  -3.753  -3.744  0.00  0.00     0.077 C 
ATOM      2  C1  UNL d   1       1.507  -2.417  -3.092  0.00  0.00    -0.074 A 
ATOM      3  C2  UNL d   1       2.070  -1.260  -3.640  0.00  0.00    -0.005 A 
ATOM      4  C3  UNL d   1       1.869  -0.022  -3.028  0.00  0.00     0.006 A 
ATOM      5  C4  UNL d   1       1.105   0.070  -1.864  0.00  0.00    -0.005 A 
ATOM      6  C5  UNL d   1       0.533  -1.076  -1.303  0.00  0.00    -0.074 A 
ATOM      7  C6  UNL d   1      -0.300  -0.992  -0.058  0.00  0.00     0.077 C 
ATOM      8  C7  UNL d   1       0.733  -2.314  -1.928  0.00  0.00    -0.001 A 
ENDROOT
TORSDOF 0
ENDMDL
