MODEL 1
REMARK minimizedAffinity 2.50191212
REMARK minimizedRMSD -1
REMARK  0 active torsions:
REMARK  status: ('A' for Active; 'I' for Inactive)
ROOT
ATOM      1  C   UNL d   1       4.501   5.998  -1.995  0.00  0.00     0.077 C 
ATOM      2  C1  UNL d   1       4.081   5.304  -0.733  0.00  0.00    -0.074 A 
ATOM      3  C2  UNL d   1       3.461   4.051  -0.775  0.00  0.00    -0.005 A 
ATOM      4  C3  UNL d   1       3.085   3.413   0.407  0.00  0.00     0.006 A 
ATOM      5  C4  UNL d   1       3.325   4.020   1.640  0.00  0.00    -0.005 A 
ATOM      6  C5  UNL d   1       3.945   5.272   1.702  0.00  0.00    -0.074 A 
ATOM      7  C6  UNL d   1       4.219   5.934   3.019  0.00  0.00     0.077 C 
ATOM      8  C7  UNL d   1       4.326   5.904   0.510  0.00  0.00    -0.001 A 
ENDROOT
TORSDOF 0
ENDMDL
