MODEL 1
REMARK minimizedAffinity 0.621841073
REMARK minimizedRMSD -1
REMARK  0 active torsions:
REMARK  status: ('A' for Active; 'I' for Inactive)
ROOT
ATOM      1  C   UNL d   1       4.899  -1.866   1.782  0.00  0.00     0.077 C 
ATOM      2  C1  UNL d   1       5.187  -1.877   3.254  0.00  0.00    -0.074 A 
ATOM      3  C2  UNL d   1       5.221  -3.078   3.971  0.00  0.00    -0.005 A 
ATOM      4  C3  UNL d   1       5.500  -3.073   5.338  0.00  0.00     0.006 A 
ATOM      5  C4  UNL d   1       5.748  -1.870   6.000  0.00  0.00    -0.005 A 
ATOM      6  C5  UNL d   1       5.719  -0.660   5.299  0.00  0.00    -0.074 A 
ATOM      7  C6  UNL d   1       5.993   0.641   5.994  0.00  0.00     0.077 C 
ATOM      8  C7  UNL d   1       5.445  -0.674   3.925  0.00  0.00    -0.001 A 
ENDROOT
TORSDOF 0
ENDMDL
