MODEL 1
REMARK minimizedAffinity 1.40393496
REMARK minimizedRMSD -1
REMARK  0 active torsions:
REMARK  status: ('A' for Active; 'I' for Inactive)
ROOT
ATOM      1  C   UNL d   1       1.629  -3.481  -3.405  0.00  0.00     0.077 C 
ATOM      2  C1  UNL d   1       1.244  -2.164  -2.799  0.00  0.00    -0.074 A 
ATOM      3  C2  UNL d   1       1.536  -0.960  -3.449  0.00  0.00    -0.005 A 
ATOM      4  C3  UNL d   1       1.163   0.256  -2.878  0.00  0.00     0.006 A 
ATOM      5  C4  UNL d   1       0.496   0.282  -1.653  0.00  0.00    -0.005 A 
ATOM      6  C5  UNL d   1       0.195  -0.911  -0.988  0.00  0.00    -0.074 A 
ATOM      7  C6  UNL d   1      -0.530  -0.901   0.325  0.00  0.00     0.077 C 
ATOM      8  C7  UNL d   1       0.567  -2.130  -1.572  0.00  0.00    -0.001 A 
ENDROOT
TORSDOF 0
ENDMDL
