MODEL 1
REMARK minimizedAffinity 6.91258717
REMARK minimizedRMSD -1
REMARK  0 active torsions:
REMARK  status: ('A' for Active; 'I' for Inactive)
ROOT
ATOM      1  C   UNL d   1       4.488   5.950   3.016  0.00  0.00     0.077 C 
ATOM      2  C1  UNL d   1       4.315   5.201   1.728  0.00  0.00    -0.074 A 
ATOM      3  C2  UNL d   1       4.230   3.805   1.714  0.00  0.00    -0.005 A 
ATOM      4  C3  UNL d   1       4.060   3.122   0.510  0.00  0.00     0.006 A 
ATOM      5  C4  UNL d   1       3.974   3.828  -0.691  0.00  0.00    -0.005 A 
ATOM      6  C5  UNL d   1       4.057   5.224  -0.697  0.00  0.00    -0.074 A 
ATOM      7  C6  UNL d   1       3.956   5.998  -1.978  0.00  0.00     0.077 C 
ATOM      8  C7  UNL d   1       4.220   5.902   0.518  0.00  0.00    -0.001 A 
ENDROOT
TORSDOF 0
ENDMDL
