MODEL 1
REMARK minimizedAffinity 9.248106
REMARK minimizedRMSD -1
REMARK  0 active torsions:
REMARK  status: ('A' for Active; 'I' for Inactive)
ROOT
ATOM      1  C   UNL d   1       0.667  -1.365  -0.944  0.00  0.00     0.077 C 
ATOM      2  C1  UNL d   1       0.595   0.099  -0.624  0.00  0.00    -0.074 A 
ATOM      3  C2  UNL d   1      -0.637   0.743  -0.480  0.00  0.00    -0.005 A 
ATOM      4  C3  UNL d   1      -0.688   2.103  -0.173  0.00  0.00     0.006 A 
ATOM      5  C4  UNL d   1       0.491   2.831  -0.008  0.00  0.00    -0.005 A 
ATOM      6  C5  UNL d   1       1.733   2.203  -0.148  0.00  0.00    -0.074 A 
ATOM      7  C6  UNL d   1       3.009   2.969   0.035  0.00  0.00     0.077 C 
ATOM      8  C7  UNL d   1       1.776   0.835  -0.450  0.00  0.00    -0.001 A 
ENDROOT
TORSDOF 0
ENDMDL
