MODEL 1
REMARK minimizedAffinity 5.71449327
REMARK minimizedRMSD -1
REMARK  0 active torsions:
REMARK  status: ('A' for Active; 'I' for Inactive)
ROOT
ATOM      1  C   UNL d   1       3.897   6.000  -1.340  0.00  0.00     0.077 C 
ATOM      2  C1  UNL d   1       4.090   5.251  -0.055  0.00  0.00    -0.074 A 
ATOM      3  C2  UNL d   1       3.858   3.874   0.016  0.00  0.00    -0.005 A 
ATOM      4  C3  UNL d   1       4.051   3.189   1.216  0.00  0.00     0.006 A 
ATOM      5  C4  UNL d   1       4.477   3.874   2.355  0.00  0.00    -0.005 A 
ATOM      6  C5  UNL d   1       4.715   5.251   2.302  0.00  0.00    -0.074 A 
ATOM      7  C6  UNL d   1       5.183   6.000   3.515  0.00  0.00     0.077 C 
ATOM      8  C7  UNL d   1       4.526   5.930   1.091  0.00  0.00    -0.001 A 
ENDROOT
TORSDOF 0
ENDMDL
