MODEL 1
REMARK minimizedAffinity -2.31106353
REMARK minimizedRMSD -1
REMARK  0 active torsions:
REMARK  status: ('A' for Active; 'I' for Inactive)
ROOT
ATOM      1  C   UNL d   1       4.132   4.208  -0.093  0.00  0.00     0.077 C 
ATOM      2  C1  UNL d   1       4.706   4.468   1.268  0.00  0.00    -0.074 A 
ATOM      3  C2  UNL d   1       4.864   5.774   1.744  0.00  0.00    -0.005 A 
ATOM      4  C3  UNL d   1       5.390   6.000   3.016  0.00  0.00     0.006 A 
ATOM      5  C4  UNL d   1       5.764   4.924   3.823  0.00  0.00    -0.005 A 
ATOM      6  C5  UNL d   1       5.612   3.612   3.364  0.00  0.00    -0.074 A 
ATOM      7  C6  UNL d   1       6.000   2.445   4.222  0.00  0.00     0.077 C 
ATOM      8  C7  UNL d   1       5.076   3.393   2.087  0.00  0.00    -0.001 A 
ENDROOT
TORSDOF 0
ENDMDL
