MODEL 1
REMARK minimizedAffinity 2.25260329
REMARK minimizedRMSD -1
REMARK  0 active torsions:
REMARK  status: ('A' for Active; 'I' for Inactive)
ROOT
ATOM      1  C   UNL d   1       0.505  -2.532  -0.006  0.00  0.00     0.077 C 
ATOM      2  C1  UNL d   1      -0.903  -2.868  -0.398  0.00  0.00    -0.074 A 
ATOM      3  C2  UNL d   1      -1.782  -1.874  -0.839  0.00  0.00    -0.005 A 
ATOM      4  C3  UNL d   1      -3.086  -2.202  -1.210  0.00  0.00     0.006 A 
ATOM      5  C4  UNL d   1      -3.523  -3.525  -1.143  0.00  0.00    -0.005 A 
ATOM      6  C5  UNL d   1      -2.658  -4.533  -0.706  0.00  0.00    -0.074 A 
ATOM      7  C6  UNL d   1      -3.109  -5.962  -0.638  0.00  0.00     0.077 C 
ATOM      8  C7  UNL d   1      -1.347  -4.196  -0.342  0.00  0.00    -0.001 A 
ENDROOT
TORSDOF 0
ENDMDL
