MODEL 1
REMARK minimizedAffinity 1.9399842
REMARK minimizedRMSD -1
REMARK  0 active torsions:
REMARK  status: ('A' for Active; 'I' for Inactive)
ROOT
ATOM      1  C   UNL d   1       4.841   1.497   1.859  0.00  0.00     0.077 C 
ATOM      2  C1  UNL d   1       5.253   1.424   3.299  0.00  0.00    -0.074 A 
ATOM      3  C2  UNL d   1       5.609   2.579   4.004  0.00  0.00    -0.005 A 
ATOM      4  C3  UNL d   1       5.980   2.497   5.346  0.00  0.00     0.006 A 
ATOM      5  C4  UNL d   1       6.000   1.262   5.995  0.00  0.00    -0.005 A 
ATOM      6  C5  UNL d   1       5.646   0.097   5.307  0.00  0.00    -0.074 A 
ATOM      7  C6  UNL d   1       5.652  -1.237   5.993  0.00  0.00     0.077 C 
ATOM      8  C7  UNL d   1       5.267   0.189   3.961  0.00  0.00    -0.001 A 
ENDROOT
TORSDOF 0
ENDMDL
