MODEL 1
REMARK minimizedAffinity 1.23373556
REMARK minimizedRMSD -1
REMARK  0 active torsions:
REMARK  status: ('A' for Active; 'I' for Inactive)
ROOT
ATOM      1  C   UNL d   1      -3.062  -5.225  -1.442  0.00  0.00     0.077 C 
ATOM      2  C1  UNL d   1      -2.568  -3.824  -1.237  0.00  0.00    -0.074 A 
ATOM      3  C2  UNL d   1      -3.433  -2.732  -1.360  0.00  0.00    -0.005 A 
ATOM      4  C3  UNL d   1      -2.961  -1.435  -1.157  0.00  0.00     0.006 A 
ATOM      5  C4  UNL d   1      -1.622  -1.217  -0.830  0.00  0.00    -0.005 A 
ATOM      6  C5  UNL d   1      -0.743  -2.297  -0.701  0.00  0.00    -0.074 A 
ATOM      7  C6  UNL d   1       0.697  -2.081  -0.341  0.00  0.00     0.077 C 
ATOM      8  C7  UNL d   1      -1.226  -3.598  -0.900  0.00  0.00    -0.001 A 
ENDROOT
TORSDOF 0
ENDMDL
