MODEL 1
REMARK minimizedAffinity -3.88553762
REMARK minimizedRMSD -1
REMARK  0 active torsions:
REMARK  status: ('A' for Active; 'I' for Inactive)
ROOT
ATOM      1  C   UNL d   1       5.624   1.089   3.546  0.00  0.00     0.077 C 
ATOM      2  C1  UNL d   1       5.623   2.522   3.105  0.00  0.00    -0.074 A 
ATOM      3  C2  UNL d   1       5.997   3.545   3.983  0.00  0.00    -0.005 A 
ATOM      4  C3  UNL d   1       6.000   4.872   3.557  0.00  0.00     0.006 A 
ATOM      5  C4  UNL d   1       5.629   5.191   2.250  0.00  0.00    -0.005 A 
ATOM      6  C5  UNL d   1       5.253   4.182   1.357  0.00  0.00    -0.074 A 
ATOM      7  C6  UNL d   1       4.861   4.507  -0.054  0.00  0.00     0.077 C 
ATOM      8  C7  UNL d   1       5.259   2.850   1.792  0.00  0.00    -0.001 A 
ENDROOT
TORSDOF 0
ENDMDL
