MODEL 1
REMARK minimizedAffinity 0.86920023
REMARK minimizedRMSD -1
REMARK  0 active torsions:
REMARK  status: ('A' for Active; 'I' for Inactive)
ROOT
ATOM      1  C   UNL d   1      -3.213  -5.645  -1.128  0.00  0.00     0.077 C 
ATOM      2  C1  UNL d   1      -2.592  -4.285  -1.014  0.00  0.00    -0.074 A 
ATOM      3  C2  UNL d   1      -3.361  -3.127  -1.173  0.00  0.00    -0.005 A 
ATOM      4  C3  UNL d   1      -2.771  -1.869  -1.055  0.00  0.00     0.006 A 
ATOM      5  C4  UNL d   1      -1.409  -1.755  -0.776  0.00  0.00    -0.005 A 
ATOM      6  C5  UNL d   1      -0.624  -2.901  -0.612  0.00  0.00    -0.074 A 
ATOM      7  C6  UNL d   1       0.840  -2.796  -0.302  0.00  0.00     0.077 C 
ATOM      8  C7  UNL d   1      -1.225  -4.162  -0.726  0.00  0.00    -0.001 A 
ENDROOT
TORSDOF 0
ENDMDL
