MODEL 1
REMARK minimizedAffinity -4.47416353
REMARK minimizedRMSD -1
REMARK  0 active torsions:
REMARK  status: ('A' for Active; 'I' for Inactive)
ROOT
ATOM      1  C   UNL d   1       2.729   0.028  -4.967  0.00  0.00     0.077 C 
ATOM      2  C1  UNL d   1       2.253  -0.608  -3.695  0.00  0.00    -0.074 A 
ATOM      3  C2  UNL d   1       2.703  -1.876  -3.314  0.00  0.00    -0.005 A 
ATOM      4  C3  UNL d   1       2.258  -2.451  -2.123  0.00  0.00     0.006 A 
ATOM      5  C4  UNL d   1       1.362  -1.765  -1.303  0.00  0.00    -0.005 A 
ATOM      6  C5  UNL d   1       0.903  -0.495  -1.667  0.00  0.00    -0.074 A 
ATOM      7  C6  UNL d   1      -0.053   0.260  -0.792  0.00  0.00     0.077 C 
ATOM      8  C7  UNL d   1       1.359   0.079  -2.861  0.00  0.00    -0.001 A 
ENDROOT
TORSDOF 0
ENDMDL
