MODEL 1
REMARK minimizedAffinity 0.934775949
REMARK minimizedRMSD -1
REMARK  0 active torsions:
REMARK  status: ('A' for Active; 'I' for Inactive)
ROOT
ATOM      1  C   UNL d   1       0.226   0.008  -0.336  0.00  0.00     0.077 C 
ATOM      2  C1  UNL d   1      -1.062  -0.402   0.313  0.00  0.00    -0.074 A 
ATOM      3  C2  UNL d   1      -2.205  -0.652  -0.453  0.00  0.00    -0.005 A 
ATOM      4  C3  UNL d   1      -3.394  -1.042   0.164  0.00  0.00     0.006 A 
ATOM      5  C4  UNL d   1      -3.452  -1.185   1.551  0.00  0.00    -0.005 A 
ATOM      6  C5  UNL d   1      -2.319  -0.940   2.333  0.00  0.00    -0.074 A 
ATOM      7  C6  UNL d   1      -2.362  -1.098   3.824  0.00  0.00     0.077 C 
ATOM      8  C7  UNL d   1      -1.126  -0.555   1.705  0.00  0.00    -0.001 A 
ENDROOT
TORSDOF 0
ENDMDL
