MODEL 1
REMARK minimizedAffinity 6.07106113
REMARK minimizedRMSD -1
REMARK  0 active torsions:
REMARK  status: ('A' for Active; 'I' for Inactive)
ROOT
ATOM      1  C   UNL d   1       4.101   5.596  -1.150  0.00  0.00     0.077 C 
ATOM      2  C1  UNL d   1       4.185   5.015   0.230  0.00  0.00    -0.074 A 
ATOM      3  C2  UNL d   1       3.655   3.751   0.511  0.00  0.00    -0.005 A 
ATOM      4  C3  UNL d   1       3.749   3.220   1.797  0.00  0.00     0.006 A 
ATOM      5  C4  UNL d   1       4.373   3.945   2.813  0.00  0.00    -0.005 A 
ATOM      6  C5  UNL d   1       4.910   5.209   2.550  0.00  0.00    -0.074 A 
ATOM      7  C6  UNL d   1       5.593   5.997   3.628  0.00  0.00     0.077 C 
ATOM      8  C7  UNL d   1       4.818   5.733   1.254  0.00  0.00    -0.001 A 
ENDROOT
TORSDOF 0
ENDMDL
