MODEL 1
REMARK minimizedAffinity 4.23355961
REMARK minimizedRMSD -1
REMARK  0 active torsions:
REMARK  status: ('A' for Active; 'I' for Inactive)
ROOT
ATOM      1  C   UNL d   1       3.682   4.207   2.009  0.00  0.00     0.077 C 
ATOM      2  C1  UNL d   1       4.484   4.096   3.272  0.00  0.00    -0.074 A 
ATOM      3  C2  UNL d   1       5.265   5.164   3.724  0.00  0.00    -0.005 A 
ATOM      4  C3  UNL d   1       5.998   5.050   4.905  0.00  0.00     0.006 A 
ATOM      5  C4  UNL d   1       5.958   3.867   5.644  0.00  0.00    -0.005 A 
ATOM      6  C5  UNL d   1       5.182   2.788   5.208  0.00  0.00    -0.074 A 
ATOM      7  C6  UNL d   1       5.120   1.514   5.997  0.00  0.00     0.077 C 
ATOM      8  C7  UNL d   1       4.443   2.914   4.024  0.00  0.00    -0.001 A 
ENDROOT
TORSDOF 0
ENDMDL
