MODEL 1
REMARK minimizedAffinity 18.6279259
REMARK minimizedRMSD -1
REMARK  0 active torsions:
REMARK  status: ('A' for Active; 'I' for Inactive)
ROOT
ATOM      1  C4' PXY d   1      -2.284  -1.344   1.457  0.00  0.00     0.077 C 
ATOM      2  C1' PXY d   1       2.755  -2.525   4.033  0.00  0.00     0.077 C 
ATOM      3  C1  PXY d   1       1.430  -2.208   3.368  0.00  0.00    -0.082 A 
ATOM      4  C2  PXY d   1       0.926  -3.049   2.479  0.00  0.00     0.003 A 
ATOM      5  C3  PXY d   1      -0.255  -2.762   1.845  0.00  0.00     0.003 A 
ATOM      6  C4  PXY d   1      -0.954  -1.628   2.161  0.00  0.00    -0.082 A 
ATOM      7  C5  PXY d   1      -0.451  -0.770   3.074  0.00  0.00     0.003 A 
ATOM      8  C6  PXY d   1       0.769  -1.059   3.677  0.00  0.00     0.003 A 
ENDROOT
TORSDOF 0
ENDMDL
