MODEL 1
REMARK minimizedAffinity 9.9946661
REMARK minimizedRMSD -1
REMARK  0 active torsions:
REMARK  status: ('A' for Active; 'I' for Inactive)
ROOT
ATOM      1  C4' PXY d   1      -1.923   4.862  -5.190  0.00  0.00     0.077 C 
ATOM      2  C1' PXY d   1       2.595   2.862  -2.190  0.00  0.00     0.077 C 
ATOM      3  C1  PXY d   1       1.407   3.395  -2.967  0.00  0.00    -0.082 A 
ATOM      4  C2  PXY d   1       0.877   2.663  -3.934  0.00  0.00     0.003 A 
ATOM      5  C3  PXY d   1      -0.177   3.143  -4.668  0.00  0.00     0.003 A 
ATOM      6  C4  PXY d   1      -0.729   4.361  -4.373  0.00  0.00    -0.082 A 
ATOM      7  C5  PXY d   1      -0.201   5.108  -3.381  0.00  0.00     0.003 A 
ATOM      8  C6  PXY d   1       0.895   4.621  -2.675  0.00  0.00     0.003 A 
ENDROOT
TORSDOF 0
ENDMDL
