MODEL 1
REMARK minimizedAffinity 5.76886892
REMARK minimizedRMSD -1
REMARK  0 active torsions:
REMARK  status: ('A' for Active; 'I' for Inactive)
ROOT
ATOM      1  C4' PXY d   1       2.262   0.791  -0.002  0.00  0.00     0.077 C 
ATOM      2  C1' PXY d   1       6.000   4.882   1.643  0.00  0.00     0.077 C 
ATOM      3  C1  PXY d   1       5.014   3.809   1.223  0.00  0.00    -0.082 A 
ATOM      4  C2  PXY d   1       5.320   2.992   0.229  0.00  0.00     0.003 A 
ATOM      5  C3  PXY d   1       4.427   2.037  -0.184  0.00  0.00     0.003 A 
ATOM      6  C4  PXY d   1       3.230   1.882   0.462  0.00  0.00    -0.082 A 
ATOM      7  C5  PXY d   1       2.914   2.705   1.484  0.00  0.00     0.003 A 
ATOM      8  C6  PXY d   1       3.817   3.695   1.861  0.00  0.00     0.003 A 
ENDROOT
TORSDOF 0
ENDMDL
