MODEL 1
REMARK minimizedAffinity 12.3667049
REMARK minimizedRMSD -1
REMARK  0 active torsions:
REMARK  status: ('A' for Active; 'I' for Inactive)
ROOT
ATOM      1  C4' PXY d   1      -1.082  -0.603   2.768  0.00  0.00     0.077 C 
ATOM      2  C1' PXY d   1       2.982  -4.197   0.774  0.00  0.00     0.077 C 
ATOM      3  C1  PXY d   1       1.909  -3.258   1.288  0.00  0.00    -0.082 A 
ATOM      4  C2  PXY d   1       2.251  -2.208   2.016  0.00  0.00     0.003 A 
ATOM      5  C3  PXY d   1       1.290  -1.366   2.515  0.00  0.00     0.003 A 
ATOM      6  C4  PXY d   1      -0.031  -1.572   2.221  0.00  0.00    -0.082 A 
ATOM      7  C5  PXY d   1      -0.388  -2.636   1.470  0.00  0.00     0.003 A 
ATOM      8  C6  PXY d   1       0.599  -3.501   1.007  0.00  0.00     0.003 A 
ENDROOT
TORSDOF 0
ENDMDL
