MODEL 1
REMARK minimizedAffinity 12.9307041
REMARK minimizedRMSD -1
REMARK  0 active torsions:
REMARK  status: ('A' for Active; 'I' for Inactive)
ROOT
ATOM      1  C4' PXY d   1       5.999   5.652  -4.380  0.00  0.00     0.077 C 
ATOM      2  C1' PXY d   1       1.494   2.259  -3.112  0.00  0.00     0.077 C 
ATOM      3  C1  PXY d   1       2.671   3.158  -3.436  0.00  0.00    -0.082 A 
ATOM      4  C2  PXY d   1       3.269   3.055  -4.612  0.00  0.00     0.003 A 
ATOM      5  C3  PXY d   1       4.355   3.837  -4.909  0.00  0.00     0.003 A 
ATOM      6  C4  PXY d   1       4.801   4.772  -4.013  0.00  0.00    -0.082 A 
ATOM      7  C5  PXY d   1       4.190   4.891  -2.816  0.00  0.00     0.003 A 
ATOM      8  C6  PXY d   1       3.115   4.058  -2.518  0.00  0.00     0.003 A 
ENDROOT
TORSDOF 0
ENDMDL
