MODEL 1
REMARK minimizedAffinity 12.3868465
REMARK minimizedRMSD -1
REMARK  0 active torsions:
REMARK  status: ('A' for Active; 'I' for Inactive)
ROOT
ATOM      1  C4' PXY d   1       1.139   2.221  -2.769  0.00  0.00     0.077 C 
ATOM      2  C1' PXY d   1       6.000   4.524  -4.885  0.00  0.00     0.077 C 
ATOM      3  C1  PXY d   1       4.730   3.921  -4.318  0.00  0.00    -0.082 A 
ATOM      4  C2  PXY d   1       3.952   3.184  -5.095  0.00  0.00     0.003 A 
ATOM      5  C3  PXY d   1       2.784   2.657  -4.607  0.00  0.00     0.003 A 
ATOM      6  C4  PXY d   1       2.435   2.842  -3.296  0.00  0.00    -0.082 A 
ATOM      7  C5  PXY d   1       3.229   3.584  -2.494  0.00  0.00     0.003 A 
ATOM      8  C6  PXY d   1       4.389   4.144  -3.020  0.00  0.00     0.003 A 
ENDROOT
TORSDOF 0
ENDMDL
