MODEL 1
REMARK minimizedAffinity 14.1705141
REMARK minimizedRMSD -1
REMARK  0 active torsions:
REMARK  status: ('A' for Active; 'I' for Inactive)
ROOT
ATOM      1  C4' PXY d   1      -4.504  -0.040   1.084  0.00  0.00     0.077 C 
ATOM      2  C1' PXY d   1       0.863  -1.487   2.671  0.00  0.00     0.077 C 
ATOM      3  C1  PXY d   1      -0.547  -1.102   2.266  0.00  0.00    -0.082 A 
ATOM      4  C2  PXY d   1      -1.166  -1.788   1.320  0.00  0.00     0.003 A 
ATOM      5  C3  PXY d   1      -2.429  -1.434   0.919  0.00  0.00     0.003 A 
ATOM      6  C4  PXY d   1      -3.084  -0.399   1.531  0.00  0.00    -0.082 A 
ATOM      7  C5  PXY d   1      -2.463   0.299   2.505  0.00  0.00     0.003 A 
ATOM      8  C6  PXY d   1      -1.166  -0.051   2.868  0.00  0.00     0.003 A 
ENDROOT
TORSDOF 0
ENDMDL
