MODEL 1
REMARK minimizedAffinity 11.8521242
REMARK minimizedRMSD -1
REMARK  0 active torsions:
REMARK  status: ('A' for Active; 'I' for Inactive)
ROOT
ATOM      1  C4' PXY d   1      -5.123   0.727   1.656  0.00  0.00     0.077 C 
ATOM      2  C1' PXY d   1      -0.030  -1.902   2.414  0.00  0.00     0.077 C 
ATOM      3  C1  PXY d   1      -1.369  -1.222   2.207  0.00  0.00    -0.082 A 
ATOM      4  C2  PXY d   1      -1.482   0.080   2.418  0.00  0.00     0.003 A 
ATOM      5  C3  PXY d   1      -2.693   0.705   2.267  0.00  0.00     0.003 A 
ATOM      6  C4  PXY d   1      -3.788   0.000   1.843  0.00  0.00    -0.082 A 
ATOM      7  C5  PXY d   1      -3.679  -1.326   1.615  0.00  0.00     0.003 A 
ATOM      8  C6  PXY d   1      -2.450  -1.949   1.815  0.00  0.00     0.003 A 
ENDROOT
TORSDOF 0
ENDMDL
