MODEL 1
REMARK minimizedAffinity 9.03879452
REMARK minimizedRMSD -1
REMARK  0 active torsions:
REMARK  status: ('A' for Active; 'I' for Inactive)
ROOT
ATOM      1  C4' PXY d   1       4.503   5.996  -1.332  0.00  0.00     0.077 C 
ATOM      2  C1' PXY d   1       3.242   2.829  -6.000  0.00  0.00     0.077 C 
ATOM      3  C1  PXY d   1       3.560   3.661  -4.773  0.00  0.00    -0.082 A 
ATOM      4  C2  PXY d   1       4.719   4.293  -4.695  0.00  0.00     0.003 A 
ATOM      5  C3  PXY d   1       5.036   5.024  -3.579  0.00  0.00     0.003 A 
ATOM      6  C4  PXY d   1       4.136   5.153  -2.556  0.00  0.00    -0.082 A 
ATOM      7  C5  PXY d   1       2.946   4.519  -2.633  0.00  0.00     0.003 A 
ATOM      8  C6  PXY d   1       2.660   3.748  -3.756  0.00  0.00     0.003 A 
ENDROOT
TORSDOF 0
ENDMDL
