MODEL 1
REMARK minimizedAffinity 19.6969128
REMARK minimizedRMSD -1
REMARK  0 active torsions:
REMARK  status: ('A' for Active; 'I' for Inactive)
ROOT
ATOM      1  C4' PXY d   1      -4.028   2.959   5.900  0.00  0.00     0.077 C 
ATOM      2  C1' PXY d   1      -0.642  -0.574   2.823  0.00  0.00     0.077 C 
ATOM      3  C1  PXY d   1      -1.530   0.344   3.640  0.00  0.00    -0.082 A 
ATOM      4  C2  PXY d   1      -2.299   1.228   3.025  0.00  0.00     0.003 A 
ATOM      5  C3  PXY d   1      -3.084   2.087   3.749  0.00  0.00     0.003 A 
ATOM      6  C4  PXY d   1      -3.122   2.006   5.115  0.00  0.00    -0.082 A 
ATOM      7  C5  PXY d   1      -2.349   1.100   5.750  0.00  0.00     0.003 A 
ATOM      8  C6  PXY d   1      -1.528   0.264   4.998  0.00  0.00     0.003 A 
ENDROOT
TORSDOF 0
ENDMDL
