MODEL 1
REMARK minimizedAffinity 16.2351532
REMARK minimizedRMSD -1
REMARK  0 active torsions:
REMARK  status: ('A' for Active; 'I' for Inactive)
ROOT
ATOM      1  C4' PXY d   1       6.000   4.526   2.238  0.00  0.00     0.077 C 
ATOM      2  C1' PXY d   1       3.515   0.279  -0.795  0.00  0.00     0.077 C 
ATOM      3  C1  PXY d   1       4.178   1.389  -0.004  0.00  0.00    -0.082 A 
ATOM      4  C2  PXY d   1       3.575   1.881   1.066  0.00  0.00     0.003 A 
ATOM      5  C3  PXY d   1       4.145   2.907   1.774  0.00  0.00     0.003 A 
ATOM      6  C4  PXY d   1       5.372   3.398   1.415  0.00  0.00    -0.082 A 
ATOM      7  C5  PXY d   1       5.999   2.895   0.331  0.00  0.00     0.003 A 
ATOM      8  C6  PXY d   1       5.384   1.881  -0.398  0.00  0.00     0.003 A 
ENDROOT
TORSDOF 0
ENDMDL
