MODEL 1
REMARK minimizedAffinity 17.7090187
REMARK minimizedRMSD -1
REMARK  0 active torsions:
REMARK  status: ('A' for Active; 'I' for Inactive)
ROOT
ATOM      1  C4' PXY d   1       2.916   1.457   0.445  0.00  0.00     0.077 C 
ATOM      2  C1' PXY d   1       2.698   3.373  -5.004  0.00  0.00     0.077 C 
ATOM      3  C1  PXY d   1       2.745   2.862  -3.578  0.00  0.00    -0.082 A 
ATOM      4  C2  PXY d   1       3.246   3.631  -2.624  0.00  0.00     0.003 A 
ATOM      5  C3  PXY d   1       3.326   3.172  -1.334  0.00  0.00     0.003 A 
ATOM      6  C4  PXY d   1       2.839   1.935  -1.008  0.00  0.00    -0.082 A 
ATOM      7  C5  PXY d   1       2.317   1.149  -1.973  0.00  0.00     0.003 A 
ATOM      8  C6  PXY d   1       2.283   1.617  -3.283  0.00  0.00     0.003 A 
ENDROOT
TORSDOF 0
ENDMDL
