MODEL 1
REMARK minimizedAffinity 10.6801949
REMARK minimizedRMSD -1
REMARK  0 active torsions:
REMARK  status: ('A' for Active; 'I' for Inactive)
ROOT
ATOM      1  C4' PXY d   1      -3.292  -0.164   1.091  0.00  0.00     0.077 C 
ATOM      2  C1' PXY d   1       1.329  -1.895   4.101  0.00  0.00     0.077 C 
ATOM      3  C1  PXY d   1       0.112  -1.435   3.322  0.00  0.00    -0.082 A 
ATOM      4  C2  PXY d   1      -0.265  -2.103   2.244  0.00  0.00     0.003 A 
ATOM      5  C3  PXY d   1      -1.344  -1.682   1.510  0.00  0.00     0.003 A 
ATOM      6  C4  PXY d   1      -2.076  -0.597   1.914  0.00  0.00    -0.082 A 
ATOM      7  C5  PXY d   1      -1.704   0.083   3.019  0.00  0.00     0.003 A 
ATOM      8  C6  PXY d   1      -0.581  -0.337   3.727  0.00  0.00     0.003 A 
ENDROOT
TORSDOF 0
ENDMDL
