MODEL 1
REMARK minimizedAffinity 10.9243097
REMARK minimizedRMSD -1
REMARK  0 active torsions:
REMARK  status: ('A' for Active; 'I' for Inactive)
ROOT
ATOM      1  C4' PXY d   1      -4.044  -0.053   0.912  0.00  0.00     0.077 C 
ATOM      2  C1' PXY d   1       1.069  -1.075   3.408  0.00  0.00     0.077 C 
ATOM      3  C1  PXY d   1      -0.276  -0.800   2.764  0.00  0.00    -0.082 A 
ATOM      4  C2  PXY d   1      -0.763  -1.652   1.877  0.00  0.00     0.003 A 
ATOM      5  C3  PXY d   1      -1.962  -1.402   1.261  0.00  0.00     0.003 A 
ATOM      6  C4  PXY d   1      -2.695  -0.295   1.595  0.00  0.00    -0.082 A 
ATOM      7  C5  PXY d   1      -2.210   0.574   2.507  0.00  0.00     0.003 A 
ATOM      8  C6  PXY d   1      -0.971   0.323   3.090  0.00  0.00     0.003 A 
ENDROOT
TORSDOF 0
ENDMDL
