MODEL 1
REMARK minimizedAffinity 11.205658
REMARK minimizedRMSD -1
REMARK  0 active torsions:
REMARK  status: ('A' for Active; 'I' for Inactive)
ROOT
ATOM      1  C4' PXY d   1      -3.116   2.184   5.243  0.00  0.00     0.077 C 
ATOM      2  C1' PXY d   1       0.181  -1.466   2.205  0.00  0.00     0.077 C 
ATOM      3  C1  PXY d   1      -0.681  -0.515   3.013  0.00  0.00    -0.082 A 
ATOM      4  C2  PXY d   1      -1.619   0.193   2.405  0.00  0.00     0.003 A 
ATOM      5  C3  PXY d   1      -2.386   1.081   3.115  0.00  0.00     0.003 A 
ATOM      6  C4  PXY d   1      -2.228   1.206   4.469  0.00  0.00    -0.082 A 
ATOM      7  C5  PXY d   1      -1.280   0.478   5.098  0.00  0.00     0.003 A 
ATOM      8  C6  PXY d   1      -0.484  -0.387   4.353  0.00  0.00     0.003 A 
ENDROOT
TORSDOF 0
ENDMDL
