MODEL 1
REMARK minimizedAffinity 8.46405697
REMARK minimizedRMSD -1
REMARK  0 active torsions:
REMARK  status: ('A' for Active; 'I' for Inactive)
ROOT
ATOM      1  C4' PXY d   1      -1.903   0.780   3.231  0.00  0.00     0.077 C 
ATOM      2  C1' PXY d   1       3.028   0.369   0.241  0.00  0.00     0.077 C 
ATOM      3  C1  PXY d   1       1.733   0.464   1.023  0.00  0.00    -0.082 A 
ATOM      4  C2  PXY d   1       1.109   1.628   1.118  0.00  0.00     0.003 A 
ATOM      5  C3  PXY d   1      -0.046   1.738   1.848  0.00  0.00     0.003 A 
ATOM      6  C4  PXY d   1      -0.598   0.635   2.443  0.00  0.00    -0.082 A 
ATOM      7  C5  PXY d   1       0.027  -0.558   2.342  0.00  0.00     0.003 A 
ATOM      8  C6  PXY d   1       1.220  -0.640   1.631  0.00  0.00     0.003 A 
ENDROOT
TORSDOF 0
ENDMDL
