MODEL 1
REMARK minimizedAffinity 9.72253799
REMARK minimizedRMSD -1
REMARK  0 active torsions:
REMARK  status: ('A' for Active; 'I' for Inactive)
ROOT
ATOM      1  C4' PXY d   1      -4.446  -0.168   1.148  0.00  0.00     0.077 C 
ATOM      2  C1' PXY d   1       0.978  -1.246   2.831  0.00  0.00     0.077 C 
ATOM      3  C1  PXY d   1      -0.447  -0.957   2.401  0.00  0.00    -0.082 A 
ATOM      4  C2  PXY d   1      -1.032  -1.740   1.509  0.00  0.00     0.003 A 
ATOM      5  C3  PXY d   1      -2.309  -1.474   1.085  0.00  0.00     0.003 A 
ATOM      6  C4  PXY d   1      -3.012  -0.428   1.618  0.00  0.00    -0.082 A 
ATOM      7  C5  PXY d   1      -2.426   0.369   2.537  0.00  0.00     0.003 A 
ATOM      8  C6  PXY d   1      -1.115   0.107   2.924  0.00  0.00     0.003 A 
ENDROOT
TORSDOF 0
ENDMDL
