MODEL 1
REMARK minimizedAffinity 10.6728687
REMARK minimizedRMSD -1
REMARK  0 active torsions:
REMARK  status: ('A' for Active; 'I' for Inactive)
ROOT
ATOM      1  C4' PXY d   1       0.216  -1.221   2.888  0.00  0.00     0.077 C 
ATOM      2  C1' PXY d   1      -4.754   1.259   1.288  0.00  0.00     0.077 C 
ATOM      3  C1  PXY d   1      -3.455   0.597   1.704  0.00  0.00    -0.082 A 
ATOM      4  C2  PXY d   1      -2.692   1.172   2.619  0.00  0.00     0.003 A 
ATOM      5  C3  PXY d   1      -1.498   0.603   2.983  0.00  0.00     0.003 A 
ATOM      6  C4  PXY d   1      -1.108  -0.594   2.444  0.00  0.00    -0.082 A 
ATOM      7  C5  PXY d   1      -1.887  -1.192   1.518  0.00  0.00     0.003 A 
ATOM      8  C6  PXY d   1      -3.074  -0.577   1.131  0.00  0.00     0.003 A 
ENDROOT
TORSDOF 0
ENDMDL
