MODEL 1
REMARK minimizedAffinity 14.078496
REMARK minimizedRMSD -1
REMARK  0 active torsions:
REMARK  status: ('A' for Active; 'I' for Inactive)
ROOT
ATOM      1  C4' PXY d   1       3.745   2.996  -5.723  0.00  0.00     0.077 C 
ATOM      2  C1' PXY d   1       5.795   5.801  -1.103  0.00  0.00     0.077 C 
ATOM      3  C1  PXY d   1       5.249   5.059  -2.307  0.00  0.00    -0.082 A 
ATOM      4  C2  PXY d   1       5.998   4.928  -3.390  0.00  0.00     0.003 A 
ATOM      5  C3  PXY d   1       5.508   4.287  -4.499  0.00  0.00     0.003 A 
ATOM      6  C4  PXY d   1       4.258   3.729  -4.481  0.00  0.00    -0.082 A 
ATOM      7  C5  PXY d   1       3.492   3.849  -3.377  0.00  0.00     0.003 A 
ATOM      8  C6  PXY d   1       3.992   4.539  -2.276  0.00  0.00     0.003 A 
ENDROOT
TORSDOF 0
ENDMDL
