MODEL 1
REMARK minimizedAffinity 13.1958838
REMARK minimizedRMSD -1
REMARK  0 active torsions:
REMARK  status: ('A' for Active; 'I' for Inactive)
ROOT
ATOM      1  C4' PXY d   1       0.359   5.309  -2.215  0.00  0.00     0.077 C 
ATOM      2  C1' PXY d   1       6.000   4.051  -2.344  0.00  0.00     0.077 C 
ATOM      3  C1  PXY d   1       4.519   4.372  -2.319  0.00  0.00    -0.082 A 
ATOM      4  C2  PXY d   1       4.114   5.560  -1.902  0.00  0.00     0.003 A 
ATOM      5  C3  PXY d   1       2.776   5.856  -1.843  0.00  0.00     0.003 A 
ATOM      6  C4  PXY d   1       1.846   4.945  -2.266  0.00  0.00    -0.082 A 
ATOM      7  C5  PXY d   1       2.251   3.734  -2.703  0.00  0.00     0.003 A 
ATOM      8  C6  PXY d   1       3.612   3.438  -2.716  0.00  0.00     0.003 A 
ENDROOT
TORSDOF 0
ENDMDL
