MODEL 1
REMARK minimizedAffinity 7.5340333
REMARK minimizedRMSD -1
REMARK  3 active torsions:
REMARK  status: ('A' for Active; 'I' for Inactive)
REMARK    1  A    between atoms: C3'_2  and  C2'_3 
REMARK    2  A    between atoms: C2'_3  and  C1'_4 
REMARK    3  A    between atoms: C1'_4  and  C1_5 
ROOT
ATOM      1  C1  N4B d   1      -1.229  -0.002   2.109  0.00  0.00    -0.075 A 
ATOM      2  C2  N4B d   1       0.125   0.047   1.709  0.00  0.00     0.002 A 
ATOM      3  C3  N4B d   1       1.098  -0.491   2.515  0.00  0.00     0.002 A 
ATOM      4  C4  N4B d   1       0.746  -1.062   3.729  0.00  0.00    -0.004 A 
ATOM      5  C5  N4B d   1      -0.567  -1.128   4.095  0.00  0.00     0.002 A 
ATOM      6  C6  N4B d   1      -1.556  -0.595   3.294  0.00  0.00     0.002 A 
ENDROOT
BRANCH   1   7
ATOM      7  C1' N4B d   1      -2.319   0.649   1.302  0.00  0.00     0.057 C 
BRANCH   7   8
ATOM      8  C2' N4B d   1      -1.960   0.570  -0.179  0.00  0.00     0.009 C 
BRANCH   8   9
ATOM      9  C3' N4B d   1      -2.222  -0.811  -0.755  0.00  0.00     0.004 C 
ATOM     10  C4' N4B d   1      -1.006  -1.416  -1.390  0.00  0.00     0.003 C 
ENDBRANCH   8   9
ENDBRANCH   7   8
ENDBRANCH   1   7
TORSDOF 3
ENDMDL
