MODEL 1
REMARK minimizedAffinity -2.45797014
REMARK minimizedRMSD -1
REMARK  3 active torsions:
REMARK  status: ('A' for Active; 'I' for Inactive)
REMARK    1  A    between atoms: C3'_2  and  C2'_3 
REMARK    2  A    between atoms: C2'_3  and  C1'_4 
REMARK    3  A    between atoms: C1'_4  and  C1_5 
ROOT
ATOM      1  C1  N4B d   1       1.477  -0.666  -1.814  0.00  0.00    -0.075 A 
ATOM      2  C2  N4B d   1       0.335  -1.218  -2.436  0.00  0.00     0.002 A 
ATOM      3  C3  N4B d   1      -0.044  -0.785  -3.683  0.00  0.00     0.002 A 
ATOM      4  C4  N4B d   1       0.688   0.208  -4.317  0.00  0.00    -0.004 A 
ATOM      5  C5  N4B d   1       1.805   0.717  -3.720  0.00  0.00     0.002 A 
ATOM      6  C6  N4B d   1       2.200   0.289  -2.469  0.00  0.00     0.002 A 
ENDROOT
BRANCH   1   7
ATOM      7  C1' N4B d   1       1.882  -1.046  -0.416  0.00  0.00     0.057 C 
BRANCH   7   8
ATOM      8  C2' N4B d   1       0.997  -0.303   0.580  0.00  0.00     0.009 C 
BRANCH   8   9
ATOM      9  C3' N4B d   1       1.814   0.524   1.559  0.00  0.00     0.004 C 
ATOM     10  C4' N4B d   1       2.362   1.778   0.944  0.00  0.00     0.003 C 
ENDBRANCH   8   9
ENDBRANCH   7   8
ENDBRANCH   1   7
TORSDOF 3
ENDMDL
