MODEL 1
REMARK minimizedAffinity -1.93366396
REMARK minimizedRMSD -1
REMARK  3 active torsions:
REMARK  status: ('A' for Active; 'I' for Inactive)
REMARK    1  A    between atoms: C3'_2  and  C2'_3 
REMARK    2  A    between atoms: C2'_3  and  C1'_4 
REMARK    3  A    between atoms: C1'_4  and  C1_5 
ROOT
ATOM      1  C1  N4B d   1      -0.963  -0.199   2.672  0.00  0.00    -0.075 A 
ATOM      2  C2  N4B d   1       0.060  -0.370   1.714  0.00  0.00     0.002 A 
ATOM      3  C3  N4B d   1      -0.244  -0.361   0.375  0.00  0.00     0.002 A 
ATOM      4  C4  N4B d   1      -1.562  -0.202  -0.028  0.00  0.00    -0.004 A 
ATOM      5  C5  N4B d   1      -2.541  -0.013   0.903  0.00  0.00     0.002 A 
ATOM      6  C6  N4B d   1      -2.249  -0.015   2.252  0.00  0.00     0.002 A 
ENDROOT
BRANCH   1   7
ATOM      7  C1' N4B d   1      -0.691  -0.287   4.149  0.00  0.00     0.057 C 
BRANCH   7   8
ATOM      8  C2' N4B d   1       0.373  -1.352   4.399  0.00  0.00     0.009 C 
BRANCH   8   9
ATOM      9  C3' N4B d   1       0.836  -1.363   5.846  0.00  0.00     0.004 C 
ATOM     10  C4' N4B d   1       2.250  -1.837   5.999  0.00  0.00     0.003 C 
ENDBRANCH   8   9
ENDBRANCH   7   8
ENDBRANCH   1   7
TORSDOF 3
ENDMDL
