MODEL 1
REMARK minimizedAffinity 0.428432077
REMARK minimizedRMSD -1
REMARK  3 active torsions:
REMARK  status: ('A' for Active; 'I' for Inactive)
REMARK    1  A    between atoms: C3'_2  and  C2'_3 
REMARK    2  A    between atoms: C2'_3  and  C1'_4 
REMARK    3  A    between atoms: C1'_4  and  C1_5 
ROOT
ATOM      1  C1  N4B d   1      -0.940   0.488  -0.357  0.00  0.00    -0.075 A 
ATOM      2  C2  N4B d   1       0.071  -0.254   0.292  0.00  0.00     0.002 A 
ATOM      3  C3  N4B d   1      -0.173  -0.818   1.520  0.00  0.00     0.002 A 
ATOM      4  C4  N4B d   1      -1.408  -0.638   2.124  0.00  0.00    -0.004 A 
ATOM      5  C5  N4B d   1      -2.388   0.059   1.479  0.00  0.00     0.002 A 
ATOM      6  C6  N4B d   1      -2.158   0.627   0.243  0.00  0.00     0.002 A 
ENDROOT
BRANCH   1   7
ATOM      7  C1' N4B d   1      -0.692   1.195  -1.662  0.00  0.00     0.057 C 
BRANCH   7   8
ATOM      8  C2' N4B d   1       0.648   0.741  -2.231  0.00  0.00     0.009 C 
BRANCH   8   9
ATOM      9  C3' N4B d   1       0.569   0.468  -3.723  0.00  0.00     0.004 C 
ATOM     10  C4' N4B d   1       1.920   0.349  -4.364  0.00  0.00     0.003 C 
ENDBRANCH   8   9
ENDBRANCH   7   8
ENDBRANCH   1   7
TORSDOF 3
ENDMDL
