MODEL 1
REMARK minimizedAffinity -1.71917522
REMARK minimizedRMSD -1
REMARK  0 active torsions:
REMARK  status: ('A' for Active; 'I' for Inactive)
ROOT
ATOM      1  C4' PXY d   1       2.151   0.194  -5.357  0.00  0.00     0.077 C 
ATOM      2  C1' PXY d   1       0.370  -0.254   0.124  0.00  0.00     0.077 C 
ATOM      3  C1  PXY d   1       0.829  -0.146  -1.317  0.00  0.00    -0.082 A 
ATOM      4  C2  PXY d   1       2.024   0.354  -1.587  0.00  0.00     0.003 A 
ATOM      5  C3  PXY d   1       2.442   0.489  -2.886  0.00  0.00     0.003 A 
ATOM      6  C4  PXY d   1       1.650   0.058  -3.917  0.00  0.00    -0.082 A 
ATOM      7  C5  PXY d   1       0.434  -0.464  -3.649  0.00  0.00     0.003 A 
ATOM      8  C6  PXY d   1       0.011  -0.554  -2.326  0.00  0.00     0.003 A 
ENDROOT
TORSDOF 0
ENDMDL
