MODEL 1
REMARK minimizedAffinity -2.68093681
REMARK minimizedRMSD -1
REMARK  0 active torsions:
REMARK  status: ('A' for Active; 'I' for Inactive)
ROOT
ATOM      1  C4' PXY d   1       0.788  -0.343  -2.113  0.00  0.00     0.077 C 
ATOM      2  C1' PXY d   1      -0.785   1.087   3.263  0.00  0.00     0.077 C 
ATOM      3  C1  PXY d   1      -0.384   0.708   1.851  0.00  0.00    -0.082 A 
ATOM      4  C2  PXY d   1       0.884   0.448   1.578  0.00  0.00     0.003 A 
ATOM      5  C3  PXY d   1       1.268   0.135   0.299  0.00  0.00     0.003 A 
ATOM      6  C4  PXY d   1       0.336   0.034  -0.699  0.00  0.00    -0.082 A 
ATOM      7  C5  PXY d   1      -0.961   0.287  -0.426  0.00  0.00     0.003 A 
ATOM      8  C6  PXY d   1      -1.325   0.644   0.869  0.00  0.00     0.003 A 
ENDROOT
TORSDOF 0
ENDMDL
