MODEL 1
REMARK minimizedAffinity -1.4910301
REMARK minimizedRMSD -1
REMARK  0 active torsions:
REMARK  status: ('A' for Active; 'I' for Inactive)
ROOT
ATOM      1  C4' PXY d   1      -1.952   0.027   2.984  0.00  0.00     0.077 C 
ATOM      2  C1' PXY d   1       0.903  -0.177  -2.039  0.00  0.00     0.077 C 
ATOM      3  C1  PXY d   1       0.166  -0.123  -0.715  0.00  0.00    -0.082 A 
ATOM      4  C2  PXY d   1      -1.040  -0.658  -0.616  0.00  0.00     0.003 A 
ATOM      5  C3  PXY d   1      -1.734  -0.590   0.565  0.00  0.00     0.003 A 
ATOM      6  C4  PXY d   1      -1.167  -0.014   1.670  0.00  0.00    -0.082 A 
ATOM      7  C5  PXY d   1       0.068   0.526   1.579  0.00  0.00     0.003 A 
ATOM      8  C6  PXY d   1       0.739   0.482   0.361  0.00  0.00     0.003 A 
ENDROOT
TORSDOF 0
ENDMDL
