MODEL 1
REMARK minimizedAffinity -2.44006562
REMARK minimizedRMSD -1
REMARK  0 active torsions:
REMARK  status: ('A' for Active; 'I' for Inactive)
ROOT
ATOM      1  C4' PXY d   1      -0.641   1.112   3.027  0.00  0.00     0.077 C 
ATOM      2  C1' PXY d   1       0.651  -0.761  -2.287  0.00  0.00     0.077 C 
ATOM      3  C1  PXY d   1       0.324  -0.274  -0.890  0.00  0.00    -0.082 A 
ATOM      4  C2  PXY d   1      -0.940  -0.186  -0.506  0.00  0.00     0.003 A 
ATOM      5  C3  PXY d   1      -1.255   0.283   0.743  0.00  0.00     0.003 A 
ATOM      6  C4  PXY d   1      -0.264   0.616   1.628  0.00  0.00    -0.082 A 
ATOM      7  C5  PXY d   1       1.028   0.519   1.248  0.00  0.00     0.003 A 
ATOM      8  C6  PXY d   1       1.325   0.080  -0.039  0.00  0.00     0.003 A 
ENDROOT
TORSDOF 0
ENDMDL
