MODEL 1
REMARK minimizedAffinity -3.64542055
REMARK minimizedRMSD -1
REMARK  0 active torsions:
REMARK  status: ('A' for Active; 'I' for Inactive)
ROOT
ATOM      1  C4' PXY d   1       0.830  -0.894  -1.686  0.00  0.00     0.077 C 
ATOM      2  C1' PXY d   1      -0.856   1.742   3.174  0.00  0.00     0.077 C 
ATOM      3  C1  PXY d   1      -0.425   1.044   1.899  0.00  0.00    -0.082 A 
ATOM      4  C2  PXY d   1       0.862   0.956   1.605  0.00  0.00     0.003 A 
ATOM      5  C3  PXY d   1       1.267   0.356   0.441  0.00  0.00     0.003 A 
ATOM      6  C4  PXY d   1       0.349  -0.206  -0.405  0.00  0.00    -0.082 A 
ATOM      7  C5  PXY d   1      -0.965  -0.130  -0.107  0.00  0.00     0.003 A 
ATOM      8  C6  PXY d   1      -1.359   0.519   1.060  0.00  0.00     0.003 A 
ENDROOT
TORSDOF 0
ENDMDL
