MODEL 1
REMARK minimizedAffinity -4.02978468
REMARK minimizedRMSD -1
REMARK  0 active torsions:
REMARK  status: ('A' for Active; 'I' for Inactive)
ROOT
ATOM      1  C4' PXY d   1      -0.579   1.687   2.808  0.00  0.00     0.077 C 
ATOM      2  C1' PXY d   1       0.759  -1.321  -1.943  0.00  0.00     0.077 C 
ATOM      3  C1  PXY d   1       0.418  -0.538  -0.690  0.00  0.00    -0.082 A 
ATOM      4  C2  PXY d   1      -0.789  -0.014  -0.556  0.00  0.00     0.003 A 
ATOM      5  C3  PXY d   1      -1.105   0.724   0.556  0.00  0.00     0.003 A 
ATOM      6  C4  PXY d   1      -0.193   0.881   1.565  0.00  0.00    -0.082 A 
ATOM      7  C5  PXY d   1       1.038   0.340   1.440  0.00  0.00     0.003 A 
ATOM      8  C6  PXY d   1       1.352  -0.370   0.285  0.00  0.00     0.003 A 
ENDROOT
TORSDOF 0
ENDMDL
