MODEL 1
REMARK minimizedAffinity -3.69349003
REMARK minimizedRMSD -1
REMARK  0 active torsions:
REMARK  status: ('A' for Active; 'I' for Inactive)
ROOT
ATOM      1  C4' PXY d   1      -3.237  -0.097  -0.800  0.00  0.00     0.077 C 
ATOM      2  C1' PXY d   1       1.959  -0.288   1.727  0.00  0.00     0.077 C 
ATOM      3  C1  PXY d   1       0.590  -0.238   1.076  0.00  0.00    -0.082 A 
ATOM      4  C2  PXY d   1       0.442  -0.662  -0.168  0.00  0.00     0.003 A 
ATOM      5  C3  PXY d   1      -0.781  -0.595  -0.783  0.00  0.00     0.003 A 
ATOM      6  C4  PXY d   1      -1.876  -0.137  -0.099  0.00  0.00    -0.082 A 
ATOM      7  C5  PXY d   1      -1.735   0.287   1.175  0.00  0.00     0.003 A 
ATOM      8  C6  PXY d   1      -0.476   0.248   1.767  0.00  0.00     0.003 A 
ENDROOT
TORSDOF 0
ENDMDL
