MODEL 1
REMARK minimizedAffinity -0.513853908
REMARK minimizedRMSD -1
REMARK  0 active torsions:
REMARK  status: ('A' for Active; 'I' for Inactive)
ROOT
ATOM      1  C4' PXY d   1       0.654  -0.042  -2.602  0.00  0.00     0.077 C 
ATOM      2  C1' PXY d   1      -1.611  -0.258   2.712  0.00  0.00     0.077 C 
ATOM      3  C1  PXY d   1      -1.005  -0.202   1.324  0.00  0.00    -0.082 A 
ATOM      4  C2  PXY d   1      -1.684   0.359   0.336  0.00  0.00     0.003 A 
ATOM      5  C3  PXY d   1      -1.164   0.390  -0.933  0.00  0.00     0.003 A 
ATOM      6  C4  PXY d   1       0.085  -0.112  -1.182  0.00  0.00    -0.082 A 
ATOM      7  C5  PXY d   1       0.788  -0.677  -0.178  0.00  0.00     0.003 A 
ATOM      8  C6  PXY d   1       0.226  -0.735   1.094  0.00  0.00     0.003 A 
ENDROOT
TORSDOF 0
ENDMDL
