MODEL 1
REMARK minimizedAffinity -3.71039081
REMARK minimizedRMSD -1
REMARK  0 active torsions:
REMARK  status: ('A' for Active; 'I' for Inactive)
ROOT
ATOM      1  C4' PXY d   1       1.268   0.289  -3.049  0.00  0.00     0.077 C 
ATOM      2  C1' PXY d   1      -0.396   0.369   2.486  0.00  0.00     0.077 C 
ATOM      3  C1  PXY d   1       0.046   0.336   1.037  0.00  0.00    -0.082 A 
ATOM      4  C2  PXY d   1       0.131   1.466   0.353  0.00  0.00     0.003 A 
ATOM      5  C3  PXY d   1       0.498   1.452  -0.968  0.00  0.00     0.003 A 
ATOM      6  C4  PXY d   1       0.834   0.275  -1.581  0.00  0.00    -0.082 A 
ATOM      7  C5  PXY d   1       0.761  -0.881  -0.887  0.00  0.00     0.003 A 
ATOM      8  C6  PXY d   1       0.346  -0.850   0.441  0.00  0.00     0.003 A 
ENDROOT
TORSDOF 0
ENDMDL
