MODEL 1
REMARK minimizedAffinity -2.64032269
REMARK minimizedRMSD -1
REMARK  0 active torsions:
REMARK  status: ('A' for Active; 'I' for Inactive)
ROOT
ATOM      1  C4' PXY d   1      -3.099  -0.444   3.017  0.00  0.00     0.077 C 
ATOM      2  C1' PXY d   1       1.571   1.647   0.328  0.00  0.00     0.077 C 
ATOM      3  C1  PXY d   1       0.350   1.105   1.044  0.00  0.00    -0.082 A 
ATOM      4  C2  PXY d   1      -0.228  -0.002   0.605  0.00  0.00     0.003 A 
ATOM      5  C3  PXY d   1      -1.352  -0.488   1.221  0.00  0.00     0.003 A 
ATOM      6  C4  PXY d   1      -1.858   0.134   2.331  0.00  0.00    -0.082 A 
ATOM      7  C5  PXY d   1      -1.268   1.258   2.791  0.00  0.00     0.003 A 
ATOM      8  C6  PXY d   1      -0.152   1.758   2.126  0.00  0.00     0.003 A 
ENDROOT
TORSDOF 0
ENDMDL
