MODEL 1
REMARK minimizedAffinity 0.97412008
REMARK minimizedRMSD -1
REMARK  1 active torsions:
REMARK  status: ('A' for Active; 'I' for Inactive)
REMARK    1  A    between atoms: C3_4  and  O_7 
ROOT
ATOM      1  C   UNL d   1      -0.745  -2.128   1.326  0.00  0.00    -0.033 A 
ATOM      2  C1  UNL d   1       0.359  -1.306   1.556  0.00  0.00     0.039 A 
ATOM      3  C2  UNL d   1       1.617  -1.673   1.074  0.00  0.00    -0.080 A 
ATOM      4  C3  UNL d   1       1.756  -2.862   0.363  0.00  0.00     0.150 A 
ATOM      5  C4  UNL d   1       0.659  -3.684   0.127  0.00  0.00    -0.007 A 
ATOM      6  C5  UNL d   1      -0.596  -3.316   0.611  0.00  0.00     0.039 A 
ENDROOT
BRANCH   4   7
ATOM      7  O   UNL d   1       2.965  -3.264  -0.123  0.00  0.00    -0.526 OA
ATOM      8  H5  UNL d   1       3.635  -2.612   0.141  0.00  0.00     0.418 HD
ENDBRANCH   4   7
TORSDOF 1
ENDMDL
