MODEL 1
REMARK minimizedAffinity 1.54514432
REMARK minimizedRMSD -1
REMARK  1 active torsions:
REMARK  status: ('A' for Active; 'I' for Inactive)
REMARK    1  A    between atoms: C3_4  and  O_7 
ROOT
ATOM      1  C   UNL d   1      -0.472  -1.564  -0.028  0.00  0.00    -0.033 A 
ATOM      2  C1  UNL d   1      -1.023  -0.981   1.114  0.00  0.00     0.039 A 
ATOM      3  C2  UNL d   1      -0.204  -0.307   2.022  0.00  0.00    -0.080 A 
ATOM      4  C3  UNL d   1       1.164  -0.223   1.775  0.00  0.00     0.150 A 
ATOM      5  C4  UNL d   1       1.720  -0.798   0.637  0.00  0.00    -0.007 A 
ATOM      6  C5  UNL d   1       0.900  -1.472  -0.267  0.00  0.00     0.039 A 
ENDROOT
BRANCH   4   7
ATOM      7  O   UNL d   1       2.005   0.420   2.634  0.00  0.00    -0.526 OA
ATOM      8  H5  UNL d   1       1.485   0.743   3.389  0.00  0.00     0.418 HD
ENDBRANCH   4   7
TORSDOF 1
ENDMDL
