MODEL 1
REMARK minimizedAffinity 3.30027628
REMARK minimizedRMSD -1
REMARK  1 active torsions:
REMARK  status: ('A' for Active; 'I' for Inactive)
REMARK    1  A    between atoms: C3_4  and  O_7 
ROOT
ATOM      1  C   UNL d   1      -0.754  -1.888   0.663  0.00  0.00    -0.033 A 
ATOM      2  C1  UNL d   1       0.134  -2.675  -0.073  0.00  0.00     0.039 A 
ATOM      3  C2  UNL d   1       1.458  -2.264  -0.242  0.00  0.00    -0.080 A 
ATOM      4  C3  UNL d   1       1.880  -1.068   0.330  0.00  0.00     0.150 A 
ATOM      5  C4  UNL d   1       1.002  -0.281   1.068  0.00  0.00    -0.007 A 
ATOM      6  C5  UNL d   1      -0.319  -0.692   1.235  0.00  0.00     0.039 A 
ENDROOT
BRANCH   4   7
ATOM      7  O   UNL d   1       3.161  -0.624   0.188  0.00  0.00    -0.526 OA
ATOM      8  H5  UNL d   1       3.646  -1.255  -0.370  0.00  0.00     0.418 HD
ENDBRANCH   4   7
TORSDOF 1
ENDMDL
