MODEL 1
REMARK minimizedAffinity -3.2052896
REMARK minimizedRMSD -1
REMARK  1 active torsions:
REMARK  status: ('A' for Active; 'I' for Inactive)
REMARK    1  A    between atoms: C3_4  and  O_7 
ROOT
ATOM      1  C   UNL d   1      -0.335  -0.743   0.440  0.00  0.00    -0.033 A 
ATOM      2  C1  UNL d   1      -0.909  -1.842  -0.202  0.00  0.00     0.039 A 
ATOM      3  C2  UNL d   1      -0.160  -3.002  -0.409  0.00  0.00    -0.080 A 
ATOM      4  C3  UNL d   1       1.160  -3.050   0.032  0.00  0.00     0.150 A 
ATOM      5  C4  UNL d   1       1.737  -1.961   0.676  0.00  0.00    -0.007 A 
ATOM      6  C5  UNL d   1       0.987  -0.803   0.880  0.00  0.00     0.039 A 
ENDROOT
BRANCH   4   7
ATOM      7  O   UNL d   1       1.932  -4.159  -0.151  0.00  0.00    -0.526 OA
ATOM      8  H5  UNL d   1       1.410  -4.821  -0.635  0.00  0.00     0.418 HD
ENDBRANCH   4   7
TORSDOF 1
ENDMDL
