MODEL 1
REMARK minimizedAffinity -3.43430114
REMARK minimizedRMSD -1
REMARK  1 active torsions:
REMARK  status: ('A' for Active; 'I' for Inactive)
REMARK    1  A    between atoms: C3_4  and  O_7 
ROOT
ATOM      1  C   UNL d   1       0.326  -0.740   0.998  0.00  0.00    -0.033 A 
ATOM      2  C1  UNL d   1       1.686  -0.508   0.785  0.00  0.00     0.039 A 
ATOM      3  C2  UNL d   1       2.513  -1.545   0.346  0.00  0.00    -0.080 A 
ATOM      4  C3  UNL d   1       1.967  -2.806   0.124  0.00  0.00     0.150 A 
ATOM      5  C4  UNL d   1       0.612  -3.043   0.331  0.00  0.00    -0.007 A 
ATOM      6  C5  UNL d   1      -0.211  -2.007   0.770  0.00  0.00     0.039 A 
ENDROOT
BRANCH   4   7
ATOM      7  O   UNL d   1       2.735  -3.850  -0.300  0.00  0.00    -0.526 OA
ATOM      8  H5  UNL d   1       3.655  -3.546  -0.372  0.00  0.00     0.418 HD
ENDBRANCH   4   7
TORSDOF 1
ENDMDL
