MODEL 1
REMARK minimizedAffinity -1.63006341
REMARK minimizedRMSD -1
REMARK  1 active torsions:
REMARK  status: ('A' for Active; 'I' for Inactive)
REMARK    1  A    between atoms: C3_4  and  O_7 
ROOT
ATOM      1  C   UNL d   1      -0.972  -2.720  -0.142  0.00  0.00    -0.033 A 
ATOM      2  C1  UNL d   1       0.235  -3.399  -0.316  0.00  0.00     0.039 A 
ATOM      3  C2  UNL d   1       1.445  -2.755  -0.052  0.00  0.00    -0.080 A 
ATOM      4  C3  UNL d   1       1.434  -1.433   0.386  0.00  0.00     0.150 A 
ATOM      5  C4  UNL d   1       0.235  -0.752   0.565  0.00  0.00    -0.007 A 
ATOM      6  C5  UNL d   1      -0.972  -1.397   0.300  0.00  0.00     0.039 A 
ENDROOT
BRANCH   4   7
ATOM      7  O   UNL d   1       2.590  -0.761   0.652  0.00  0.00    -0.526 OA
ATOM      8  H5  UNL d   1       3.339  -1.348   0.455  0.00  0.00     0.418 HD
ENDBRANCH   4   7
TORSDOF 1
ENDMDL
