MODEL 1
REMARK minimizedAffinity -3.72343445
REMARK minimizedRMSD -1
REMARK  1 active torsions:
REMARK  status: ('A' for Active; 'I' for Inactive)
REMARK    1  A    between atoms: C3_4  and  O_7 
ROOT
ATOM      1  C   UNL d   1      -0.830  -0.928   0.688  0.00  0.00    -0.033 A 
ATOM      2  C1  UNL d   1       0.515  -0.582   0.837  0.00  0.00     0.039 A 
ATOM      3  C2  UNL d   1       1.514  -1.496   0.496  0.00  0.00    -0.080 A 
ATOM      4  C3  UNL d   1       1.156  -2.749   0.007  0.00  0.00     0.150 A 
ATOM      5  C4  UNL d   1      -0.181  -3.098  -0.149  0.00  0.00    -0.007 A 
ATOM      6  C5  UNL d   1      -1.178  -2.185   0.193  0.00  0.00     0.039 A 
ENDROOT
BRANCH   4   7
ATOM      7  O   UNL d   1       2.096  -3.676  -0.335  0.00  0.00    -0.526 OA
ATOM      8  H5  UNL d   1       2.975  -3.306  -0.148  0.00  0.00     0.418 HD
ENDBRANCH   4   7
TORSDOF 1
ENDMDL
