MODEL 1
REMARK minimizedAffinity -0.341498762
REMARK minimizedRMSD -1
REMARK  1 active torsions:
REMARK  status: ('A' for Active; 'I' for Inactive)
REMARK    1  A    between atoms: C3_4  and  O_7 
ROOT
ATOM      1  C   UNL d   1       0.190   0.031   1.358  0.00  0.00    -0.033 A 
ATOM      2  C1  UNL d   1       1.460  -0.532   1.495  0.00  0.00     0.039 A 
ATOM      3  C2  UNL d   1       1.693  -1.844   1.079  0.00  0.00    -0.080 A 
ATOM      4  C3  UNL d   1       0.649  -2.581   0.527  0.00  0.00     0.150 A 
ATOM      5  C4  UNL d   1      -0.618  -2.025   0.383  0.00  0.00    -0.007 A 
ATOM      6  C5  UNL d   1      -0.849  -0.715   0.800  0.00  0.00     0.039 A 
ENDROOT
BRANCH   4   7
ATOM      7  O   UNL d   1       0.827  -3.867   0.111  0.00  0.00    -0.526 OA
ATOM      8  H5  UNL d   1       1.744  -4.127   0.298  0.00  0.00     0.418 HD
ENDBRANCH   4   7
TORSDOF 1
ENDMDL
