MODEL 1
REMARK minimizedAffinity -0.470757425
REMARK minimizedRMSD -1
REMARK  1 active torsions:
REMARK  status: ('A' for Active; 'I' for Inactive)
REMARK    1  A    between atoms: C3_4  and  O_7 
ROOT
ATOM      1  C   UNL d   1       1.059  -1.316   1.017  0.00  0.00    -0.033 A 
ATOM      2  C1  UNL d   1       1.018  -0.355   2.028  0.00  0.00     0.039 A 
ATOM      3  C2  UNL d   1      -0.126   0.427   2.205  0.00  0.00    -0.080 A 
ATOM      4  C3  UNL d   1      -1.220   0.237   1.366  0.00  0.00     0.150 A 
ATOM      5  C4  UNL d   1      -1.188  -0.722   0.358  0.00  0.00    -0.007 A 
ATOM      6  C5  UNL d   1      -0.045  -1.501   0.182  0.00  0.00     0.039 A 
ENDROOT
BRANCH   4   7
ATOM      7  O   UNL d   1      -2.356   0.979   1.497  0.00  0.00    -0.526 OA
ATOM      8  H5  UNL d   1      -2.224   1.620   2.215  0.00  0.00     0.418 HD
ENDBRANCH   4   7
TORSDOF 1
ENDMDL
