MODEL 1
REMARK minimizedAffinity -2.20212865
REMARK minimizedRMSD -1
REMARK  1 active torsions:
REMARK  status: ('A' for Active; 'I' for Inactive)
REMARK    1  A    between atoms: C3_4  and  O_7 
ROOT
ATOM      1  C   UNL d   1       0.055  -0.814   1.150  0.00  0.00    -0.033 A 
ATOM      2  C1  UNL d   1       1.284  -0.533   0.550  0.00  0.00     0.039 A 
ATOM      3  C2  UNL d   1       1.983  -1.540  -0.118  0.00  0.00    -0.080 A 
ATOM      4  C3  UNL d   1       1.442  -2.822  -0.181  0.00  0.00     0.150 A 
ATOM      5  C4  UNL d   1       0.216  -3.107   0.411  0.00  0.00    -0.007 A 
ATOM      6  C5  UNL d   1      -0.480  -2.101   1.079  0.00  0.00     0.039 A 
ENDROOT
BRANCH   4   7
ATOM      7  O   UNL d   1       2.089  -3.838  -0.819  0.00  0.00    -0.526 OA
ATOM      8  H5  UNL d   1       2.936  -3.501  -1.154  0.00  0.00     0.418 HD
ENDBRANCH   4   7
TORSDOF 1
ENDMDL
