MODEL 1
REMARK minimizedAffinity 0.734298825
REMARK minimizedRMSD -1
REMARK  1 active torsions:
REMARK  status: ('A' for Active; 'I' for Inactive)
REMARK    1  A    between atoms: C3_4  and  O_7 
ROOT
ATOM      1  C   UNL d   1      -0.005  -1.408   1.266  0.00  0.00    -0.033 A 
ATOM      2  C1  UNL d   1      -0.362  -2.626   0.685  0.00  0.00     0.039 A 
ATOM      3  C2  UNL d   1       0.574  -3.349  -0.057  0.00  0.00    -0.080 A 
ATOM      4  C3  UNL d   1       1.863  -2.844  -0.209  0.00  0.00     0.150 A 
ATOM      5  C4  UNL d   1       2.226  -1.633   0.371  0.00  0.00    -0.007 A 
ATOM      6  C5  UNL d   1       1.290  -0.912   1.110  0.00  0.00     0.039 A 
ENDROOT
BRANCH   4   7
ATOM      7  O   UNL d   1       2.810  -3.511  -0.928  0.00  0.00    -0.526 OA
ATOM      8  H5  UNL d   1       2.408  -4.317  -1.293  0.00  0.00     0.418 HD
ENDBRANCH   4   7
TORSDOF 1
ENDMDL
