MODEL 1
REMARK minimizedAffinity 2.55774546
REMARK minimizedRMSD -1
REMARK  1 active torsions:
REMARK  status: ('A' for Active; 'I' for Inactive)
REMARK    1  A    between atoms: C3_4  and  O_7 
ROOT
ATOM      1  C   UNL d   1       1.675  -1.553   0.340  0.00  0.00    -0.033 A 
ATOM      2  C1  UNL d   1       1.717  -0.587   1.347  0.00  0.00     0.039 A 
ATOM      3  C2  UNL d   1       0.546   0.058   1.748  0.00  0.00    -0.080 A 
ATOM      4  C3  UNL d   1      -0.660  -0.272   1.135  0.00  0.00     0.150 A 
ATOM      5  C4  UNL d   1      -0.710  -1.236   0.134  0.00  0.00    -0.007 A 
ATOM      6  C5  UNL d   1       0.460  -1.879  -0.265  0.00  0.00     0.039 A 
ENDROOT
BRANCH   4   7
ATOM      7  O   UNL d   1      -1.828   0.334   1.490  0.00  0.00    -0.526 OA
ATOM      8  H5  UNL d   1      -1.636   0.998   2.173  0.00  0.00     0.418 HD
ENDBRANCH   4   7
TORSDOF 1
ENDMDL
