MODEL 1
REMARK minimizedAffinity -0.232521385
REMARK minimizedRMSD -1
REMARK  1 active torsions:
REMARK  status: ('A' for Active; 'I' for Inactive)
REMARK    1  A    between atoms: C3_4  and  O_7 
ROOT
ATOM      1  C   UNL d   1       1.861  -1.445  -0.093  0.00  0.00    -0.033 A 
ATOM      2  C1  UNL d   1       1.380  -0.371   0.659  0.00  0.00     0.039 A 
ATOM      3  C2  UNL d   1       0.119  -0.442   1.254  0.00  0.00    -0.080 A 
ATOM      4  C3  UNL d   1      -0.650  -1.591   1.091  0.00  0.00     0.150 A 
ATOM      5  C4  UNL d   1      -0.176  -2.666   0.346  0.00  0.00    -0.007 A 
ATOM      6  C5  UNL d   1       1.083  -2.593  -0.248  0.00  0.00     0.039 A 
ENDROOT
BRANCH   4   7
ATOM      7  O   UNL d   1      -1.889  -1.704   1.649  0.00  0.00    -0.526 OA
ATOM      8  H5  UNL d   1      -2.096  -0.874   2.110  0.00  0.00     0.418 HD
ENDBRANCH   4   7
TORSDOF 1
ENDMDL
