MODEL 1
REMARK minimizedAffinity 1.09108734
REMARK minimizedRMSD -1
REMARK  1 active torsions:
REMARK  status: ('A' for Active; 'I' for Inactive)
REMARK    1  A    between atoms: C3_4  and  O_7 
ROOT
ATOM      1  C   UNL d   1      -0.239  -0.454   0.840  0.00  0.00    -0.033 A 
ATOM      2  C1  UNL d   1      -0.724  -1.761   0.918  0.00  0.00     0.039 A 
ATOM      3  C2  UNL d   1       0.025  -2.818   0.395  0.00  0.00    -0.080 A 
ATOM      4  C3  UNL d   1       1.254  -2.554  -0.202  0.00  0.00     0.150 A 
ATOM      5  C4  UNL d   1       1.745  -1.255  -0.280  0.00  0.00    -0.007 A 
ATOM      6  C5  UNL d   1       0.995  -0.201   0.242  0.00  0.00     0.039 A 
ENDROOT
BRANCH   4   7
ATOM      7  O   UNL d   1       2.018  -3.552  -0.730  0.00  0.00    -0.526 OA
ATOM      8  H5  UNL d   1       1.540  -4.392  -0.629  0.00  0.00     0.418 HD
ENDBRANCH   4   7
TORSDOF 1
ENDMDL
