MODEL 1
REMARK minimizedAffinity -1.21067321
REMARK minimizedRMSD -1
REMARK  1 active torsions:
REMARK  status: ('A' for Active; 'I' for Inactive)
REMARK    1  A    between atoms: C3_4  and  O_7 
ROOT
ATOM      1  C   UNL d   1      -5.267  -3.621   5.018  0.00  0.00    -0.033 A 
ATOM      2  C1  UNL d   1      -5.811  -4.805   4.516  0.00  0.00     0.039 A 
ATOM      3  C2  UNL d   1      -5.999  -4.961   3.141  0.00  0.00    -0.080 A 
ATOM      4  C3  UNL d   1      -5.638  -3.927   2.281  0.00  0.00     0.150 A 
ATOM      5  C4  UNL d   1      -5.092  -2.747   2.774  0.00  0.00    -0.007 A 
ATOM      6  C5  UNL d   1      -4.906  -2.593   4.147  0.00  0.00     0.039 A 
ENDROOT
BRANCH   4   7
ATOM      7  O   UNL d   1      -5.806  -4.031   0.932  0.00  0.00    -0.526 OA
ATOM      8  H5  UNL d   1      -6.220  -4.889   0.739  0.00  0.00     0.418 HD
ENDBRANCH   4   7
TORSDOF 1
ENDMDL
