MODEL 1
REMARK minimizedAffinity 0.0643049851
REMARK minimizedRMSD -1
REMARK  1 active torsions:
REMARK  status: ('A' for Active; 'I' for Inactive)
REMARK    1  A    between atoms: C3_4  and  O_7 
ROOT
ATOM      1  C   UNL d   1      -0.037  -0.357   0.729  0.00  0.00    -0.033 A 
ATOM      2  C1  UNL d   1       1.358  -0.392   0.772  0.00  0.00     0.039 A 
ATOM      3  C2  UNL d   1       2.041  -1.551   0.396  0.00  0.00    -0.080 A 
ATOM      4  C3  UNL d   1       1.318  -2.664  -0.022  0.00  0.00     0.150 A 
ATOM      5  C4  UNL d   1      -0.072  -2.634  -0.071  0.00  0.00    -0.007 A 
ATOM      6  C5  UNL d   1      -0.752  -1.477   0.306  0.00  0.00     0.039 A 
ENDROOT
BRANCH   4   7
ATOM      7  O   UNL d   1       1.939  -3.819  -0.395  0.00  0.00    -0.526 OA
ATOM      8  H5  UNL d   1       2.898  -3.702  -0.282  0.00  0.00     0.418 HD
ENDBRANCH   4   7
TORSDOF 1
ENDMDL
