MODEL 1
REMARK minimizedAffinity 1.3910383
REMARK minimizedRMSD -1
REMARK  0 active torsions:
REMARK  status: ('A' for Active; 'I' for Inactive)
ROOT
ATOM      1  O1  BZF d   1       2.329  -5.999  -2.076  0.00  0.00    -0.204 OA
ATOM      2  C2  BZF d   1       3.595  -5.979  -1.524  0.00  0.00     0.174 A 
ATOM      3  C3  BZF d   1       4.538  -5.990  -2.489  0.00  0.00    -0.012 A 
ATOM      4  C3A BZF d   1       3.815  -5.925  -3.722  0.00  0.00    -0.107 A 
ATOM      5  C4  BZF d   1       4.196  -5.889  -5.033  0.00  0.00     0.055 A 
ATOM      6  C5  BZF d   1       3.240  -5.902  -5.999  0.00  0.00    -0.016 A 
ATOM      7  C6  BZF d   1       1.897  -5.957  -5.691  0.00  0.00     0.022 A 
ATOM      8  C7  BZF d   1       1.470  -5.990  -4.405  0.00  0.00     0.029 A 
ATOM      9  C7A BZF d   1       2.432  -5.943  -3.426  0.00  0.00     0.058 A 
ENDROOT
TORSDOF 0
ENDMDL
