MODEL 1
REMARK minimizedAffinity 1.03927231
REMARK minimizedRMSD -1
REMARK  0 active torsions:
REMARK  status: ('A' for Active; 'I' for Inactive)
ROOT
ATOM      1  O1  BZF d   1       1.672  -5.961  -2.505  0.00  0.00    -0.204 OA
ATOM      2  C2  BZF d   1       2.490  -5.948  -1.392  0.00  0.00     0.174 A 
ATOM      3  C3  BZF d   1       3.789  -5.995  -1.751  0.00  0.00    -0.012 A 
ATOM      4  C3A BZF d   1       3.785  -5.947  -3.181  0.00  0.00    -0.107 A 
ATOM      5  C4  BZF d   1       4.774  -5.946  -4.123  0.00  0.00     0.055 A 
ATOM      6  C5  BZF d   1       4.434  -5.967  -5.438  0.00  0.00    -0.016 A 
ATOM      7  C6  BZF d   1       3.116  -5.994  -5.847  0.00  0.00     0.022 A 
ATOM      8  C7  BZF d   1       2.101  -5.991  -4.950  0.00  0.00     0.029 A 
ATOM      9  C7A BZF d   1       2.441  -5.937  -3.620  0.00  0.00     0.058 A 
ENDROOT
TORSDOF 0
ENDMDL
