MODEL 1
REMARK minimizedAffinity 1.51089406
REMARK minimizedRMSD -1
REMARK  0 active torsions:
REMARK  status: ('A' for Active; 'I' for Inactive)
ROOT
ATOM      1  O1  BZF d   1       2.040  -6.000  -2.288  0.00  0.00    -0.204 OA
ATOM      2  C2  BZF d   1       3.116  -5.981  -1.422  0.00  0.00     0.174 A 
ATOM      3  C3  BZF d   1       4.279  -6.000  -2.103  0.00  0.00    -0.012 A 
ATOM      4  C3A BZF d   1       3.908  -5.939  -3.484  0.00  0.00    -0.107 A 
ATOM      5  C4  BZF d   1       4.621  -5.910  -4.648  0.00  0.00     0.055 A 
ATOM      6  C5  BZF d   1       3.955  -5.925  -5.832  0.00  0.00    -0.016 A 
ATOM      7  C6  BZF d   1       2.577  -5.974  -5.889  0.00  0.00     0.022 A 
ATOM      8  C7  BZF d   1       1.826  -5.999  -4.761  0.00  0.00     0.029 A 
ATOM      9  C7A BZF d   1       2.496  -5.950  -3.563  0.00  0.00     0.058 A 
ENDROOT
TORSDOF 0
ENDMDL
