MODEL 1
REMARK minimizedAffinity 1.79401481
REMARK minimizedRMSD -1
REMARK  0 active torsions:
REMARK  status: ('A' for Active; 'I' for Inactive)
ROOT
ATOM      1  O1  BZF d   1       1.481  -5.977  -4.182  0.00  0.00    -0.204 OA
ATOM      2  C2  BZF d   1       1.614  -5.999  -5.557  0.00  0.00     0.174 A 
ATOM      3  C3  BZF d   1       2.915  -5.956  -5.912  0.00  0.00    -0.012 A 
ATOM      4  C3A BZF d   1       3.642  -5.997  -4.680  0.00  0.00    -0.107 A 
ATOM      5  C4  BZF d   1       4.974  -5.998  -4.376  0.00  0.00     0.055 A 
ATOM      6  C5  BZF d   1       5.353  -5.969  -3.072  0.00  0.00    -0.016 A 
ATOM      7  C6  BZF d   1       4.430  -5.934  -2.048  0.00  0.00     0.022 A 
ATOM      8  C7  BZF d   1       3.098  -5.937  -2.300  0.00  0.00     0.029 A 
ATOM      9  C7A BZF d   1       2.711  -5.999  -3.616  0.00  0.00     0.058 A 
ENDROOT
TORSDOF 0
ENDMDL
