MODEL 1
REMARK minimizedAffinity 3.40066075
REMARK minimizedRMSD -1
REMARK  0 active torsions:
REMARK  status: ('A' for Active; 'I' for Inactive)
ROOT
ATOM      1  O1  BZF d   1       0.985  -0.925   3.961  0.00  0.00    -0.204 OA
ATOM      2  C2  BZF d   1       1.557  -0.436   2.803  0.00  0.00     0.174 A 
ATOM      3  C3  BZF d   1       2.284  -1.392   2.188  0.00  0.00    -0.012 A 
ATOM      4  C3A BZF d   1       2.082  -2.576   2.966  0.00  0.00    -0.107 A 
ATOM      5  C4  BZF d   1       2.530  -3.861   2.853  0.00  0.00     0.055 A 
ATOM      6  C5  BZF d   1       2.209  -4.760   3.820  0.00  0.00    -0.016 A 
ATOM      7  C6  BZF d   1       1.447  -4.408   4.914  0.00  0.00     0.022 A 
ATOM      8  C7  BZF d   1       0.975  -3.147   5.068  0.00  0.00     0.029 A 
ATOM      9  C7A BZF d   1       1.271  -2.244   4.075  0.00  0.00     0.058 A 
ENDROOT
TORSDOF 0
ENDMDL
