MODEL 1
REMARK minimizedAffinity -4.55794764
REMARK minimizedRMSD -1
REMARK  0 active torsions:
REMARK  status: ('A' for Active; 'I' for Inactive)
ROOT
ATOM      1  C   UNL d   1      -2.012   1.759   0.375  0.00  0.00     0.020 A 
ATOM      2  C1  UNL d   1      -1.896   1.654   1.760  0.00  0.00     0.020 A 
ATOM      3  C2  UNL d   1      -1.007   0.732   2.318  0.00  0.00     0.034 A 
ATOM      4  C3  UNL d   1      -0.232  -0.087   1.490  0.00  0.00     0.017 A 
ATOM      5  C4  UNL d   1      -0.349   0.019   0.100  0.00  0.00     0.017 A 
ATOM      6  C5  UNL d   1      -1.240   0.944  -0.454  0.00  0.00     0.034 A 
ATOM      7 Cl   UNL d   1       0.575  -0.958  -0.986  0.00  0.00    -0.070 Cl
ATOM      8 Cl1  UNL d   1       0.847  -1.204   2.248  0.00  0.00    -0.070 Cl
ENDROOT
TORSDOF 0
ENDMDL
