MODEL 1
REMARK minimizedAffinity -2.2909503
REMARK minimizedRMSD -1
REMARK  0 active torsions:
REMARK  status: ('A' for Active; 'I' for Inactive)
ROOT
ATOM      1  C   UNL d   1       0.865   0.839  -1.355  0.00  0.00     0.020 A 
ATOM      2  C1  UNL d   1       1.466  -0.352  -0.950  0.00  0.00     0.020 A 
ATOM      3  C2  UNL d   1       1.082  -0.955   0.250  0.00  0.00     0.034 A 
ATOM      4  C3  UNL d   1       0.094  -0.367   1.049  0.00  0.00     0.017 A 
ATOM      5  C4  UNL d   1      -0.509   0.828   0.641  0.00  0.00     0.017 A 
ATOM      6  C5  UNL d   1      -0.120   1.428  -0.562  0.00  0.00     0.034 A 
ATOM      7 Cl   UNL d   1      -1.735   1.613   1.572  0.00  0.00    -0.070 Cl
ATOM      8 Cl1  UNL d   1      -0.332  -1.168   2.519  0.00  0.00    -0.070 Cl
ENDROOT
TORSDOF 0
ENDMDL
