MODEL 1
REMARK minimizedAffinity -5.39954424
REMARK minimizedRMSD -1
REMARK  0 active torsions:
REMARK  status: ('A' for Active; 'I' for Inactive)
ROOT
ATOM      1  C   UNL d   1      -0.861   3.126  -0.090  0.00  0.00     0.020 A 
ATOM      2  C1  UNL d   1      -1.633   2.970   1.060  0.00  0.00     0.020 A 
ATOM      3  C2  UNL d   1      -1.598   1.765   1.766  0.00  0.00     0.034 A 
ATOM      4  C3  UNL d   1      -0.789   0.712   1.322  0.00  0.00     0.017 A 
ATOM      5  C4  UNL d   1      -0.014   0.871   0.168  0.00  0.00     0.017 A 
ATOM      6  C5  UNL d   1      -0.053   2.079  -0.535  0.00  0.00     0.034 A 
ATOM      7 Cl   UNL d   1       1.008  -0.383  -0.441  0.00  0.00    -0.070 Cl
ATOM      8 Cl1  UNL d   1      -0.795  -0.749   2.244  0.00  0.00    -0.070 Cl
ENDROOT
TORSDOF 0
ENDMDL
