MODEL 1
REMARK minimizedAffinity 1.36004186
REMARK minimizedRMSD -1
REMARK  0 active torsions:
REMARK  status: ('A' for Active; 'I' for Inactive)
ROOT
ATOM      1  C   UNL d   1       0.931  -1.206  -0.784  0.00  0.00     0.020 A 
ATOM      2  C1  UNL d   1       0.663   0.079  -1.255  0.00  0.00     0.020 A 
ATOM      3  C2  UNL d   1      -0.095   0.962  -0.483  0.00  0.00     0.034 A 
ATOM      4  C3  UNL d   1      -0.588   0.561   0.764  0.00  0.00     0.017 A 
ATOM      5  C4  UNL d   1      -0.319  -0.729   1.236  0.00  0.00     0.017 A 
ATOM      6  C5  UNL d   1       0.441  -1.609   0.458  0.00  0.00     0.034 A 
ATOM      7 Cl   UNL d   1      -0.893  -1.295   2.764  0.00  0.00    -0.070 Cl
ATOM      8 Cl1  UNL d   1      -1.518   1.705   1.666  0.00  0.00    -0.070 Cl
ENDROOT
TORSDOF 0
ENDMDL
