MODEL 1
REMARK minimizedAffinity -4.70233345
REMARK minimizedRMSD -1
REMARK  0 active torsions:
REMARK  status: ('A' for Active; 'I' for Inactive)
ROOT
ATOM      1  C   UNL d   1      -0.739   3.488  -0.337  0.00  0.00     0.020 A 
ATOM      2  C1  UNL d   1      -1.632   3.102   0.661  0.00  0.00     0.020 A 
ATOM      3  C2  UNL d   1      -1.617   1.791   1.142  0.00  0.00     0.034 A 
ATOM      4  C3  UNL d   1      -0.708   0.862   0.624  0.00  0.00     0.017 A 
ATOM      5  C4  UNL d   1       0.189   1.250  -0.378  0.00  0.00     0.017 A 
ATOM      6  C5  UNL d   1       0.170   2.565  -0.856  0.00  0.00     0.034 A 
ATOM      7 Cl   UNL d   1       1.340   0.160  -1.066  0.00  0.00    -0.070 Cl
ATOM      8 Cl1  UNL d   1      -0.745  -0.742   1.266  0.00  0.00    -0.070 Cl
ENDROOT
TORSDOF 0
ENDMDL
