MODEL 1
REMARK minimizedAffinity -4.73130083
REMARK minimizedRMSD -1
REMARK  0 active torsions:
REMARK  status: ('A' for Active; 'I' for Inactive)
ROOT
ATOM      1  C   UNL d   1      -2.233   2.746   0.700  0.00  0.00     0.020 A 
ATOM      2  C1  UNL d   1      -1.614   3.669  -0.141  0.00  0.00     0.020 A 
ATOM      3  C2  UNL d   1      -0.530   3.278  -0.931  0.00  0.00     0.034 A 
ATOM      4  C3  UNL d   1      -0.063   1.960  -0.880  0.00  0.00     0.017 A 
ATOM      5  C4  UNL d   1      -0.685   1.033  -0.036  0.00  0.00     0.017 A 
ATOM      6  C5  UNL d   1      -1.770   1.431   0.752  0.00  0.00     0.034 A 
ATOM      7 Cl   UNL d   1      -0.165  -0.611   0.080  0.00  0.00    -0.070 Cl
ATOM      8 Cl1  UNL d   1       1.281   1.545  -1.884  0.00  0.00    -0.070 Cl
ENDROOT
TORSDOF 0
ENDMDL
