MODEL 1
REMARK minimizedAffinity -2.45278287
REMARK minimizedRMSD -1
REMARK  0 active torsions:
REMARK  status: ('A' for Active; 'I' for Inactive)
ROOT
ATOM      1  C   UNL d   1       1.005  -0.746  -0.033  0.00  0.00     0.020 A 
ATOM      2  C1  UNL d   1       0.047  -0.556  -1.027  0.00  0.00     0.020 A 
ATOM      3  C2  UNL d   1      -1.121   0.157  -0.745  0.00  0.00     0.034 A 
ATOM      4  C3  UNL d   1      -1.332   0.683   0.535  0.00  0.00     0.017 A 
ATOM      5  C4  UNL d   1      -0.369   0.492   1.533  0.00  0.00     0.017 A 
ATOM      6  C5  UNL d   1       0.797  -0.223   1.244  0.00  0.00     0.034 A 
ATOM      7 Cl   UNL d   1      -0.560   1.110   3.135  0.00  0.00    -0.070 Cl
ATOM      8 Cl1  UNL d   1      -2.798   1.554   0.813  0.00  0.00    -0.070 Cl
ENDROOT
TORSDOF 0
ENDMDL
