MODEL 1
REMARK minimizedAffinity -2.02290821
REMARK minimizedRMSD -1
REMARK  0 active torsions:
REMARK  status: ('A' for Active; 'I' for Inactive)
ROOT
ATOM      1  C   UNL d   1       0.650   0.030  -0.626  0.00  0.00     0.020 A 
ATOM      2  C1  UNL d   1      -0.529  -0.105  -1.360  0.00  0.00     0.020 A 
ATOM      3  C2  UNL d   1      -0.818  -1.311  -2.001  0.00  0.00     0.034 A 
ATOM      4  C3  UNL d   1       0.072  -2.387  -1.911  0.00  0.00     0.017 A 
ATOM      5  C4  UNL d   1       1.255  -2.251  -1.174  0.00  0.00     0.017 A 
ATOM      6  C5  UNL d   1       1.539  -1.041  -0.534  0.00  0.00     0.034 A 
ATOM      7 Cl   UNL d   1       2.401  -3.535  -1.017  0.00  0.00    -0.070 Cl
ATOM      8 Cl1  UNL d   1      -0.349  -3.849  -2.729  0.00  0.00    -0.070 Cl
ENDROOT
TORSDOF 0
ENDMDL
