MODEL 1
REMARK minimizedAffinity -3.05403972
REMARK minimizedRMSD -1
REMARK  0 active torsions:
REMARK  status: ('A' for Active; 'I' for Inactive)
ROOT
ATOM      1  C   UNL d   1      -0.669  -0.357   2.288  0.00  0.00     0.020 A 
ATOM      2  C1  UNL d   1      -1.150   0.951   2.327  0.00  0.00     0.020 A 
ATOM      3  C2  UNL d   1      -1.048   1.766   1.197  0.00  0.00     0.034 A 
ATOM      4  C3  UNL d   1      -0.464   1.273   0.024  0.00  0.00     0.017 A 
ATOM      5  C4  UNL d   1       0.018  -0.040  -0.013  0.00  0.00     0.017 A 
ATOM      6  C5  UNL d   1      -0.086  -0.851   1.121  0.00  0.00     0.034 A 
ATOM      7 Cl   UNL d   1       0.751  -0.718  -1.424  0.00  0.00    -0.070 Cl
ATOM      8 Cl1  UNL d   1      -0.372   2.336  -1.335  0.00  0.00    -0.070 Cl
ENDROOT
TORSDOF 0
ENDMDL
