MODEL 1
REMARK minimizedAffinity -4.77482033
REMARK minimizedRMSD -1
REMARK  0 active torsions:
REMARK  status: ('A' for Active; 'I' for Inactive)
ROOT
ATOM      1  C   UNL d   1      -0.838   3.408  -0.064  0.00  0.00     0.020 A 
ATOM      2  C1  UNL d   1      -1.864   2.983   0.779  0.00  0.00     0.020 A 
ATOM      3  C2  UNL d   1      -1.888   1.665   1.240  0.00  0.00     0.034 A 
ATOM      4  C3  UNL d   1      -0.885   0.767   0.859  0.00  0.00     0.017 A 
ATOM      5  C4  UNL d   1       0.145   1.194   0.013  0.00  0.00     0.017 A 
ATOM      6  C5  UNL d   1       0.164   2.515  -0.446  0.00  0.00     0.034 A 
ATOM      7 Cl   UNL d   1       1.418   0.144  -0.501  0.00  0.00    -0.070 Cl
ATOM      8 Cl1  UNL d   1      -0.978  -0.847   1.467  0.00  0.00    -0.070 Cl
ENDROOT
TORSDOF 0
ENDMDL
