MODEL 1
REMARK minimizedAffinity -4.04277945
REMARK minimizedRMSD -1
REMARK  1 active torsions:
REMARK  status: ('A' for Active; 'I' for Inactive)
REMARK    1  A    between atoms: C1_2  and  C2_3 
ROOT
ATOM      1  C2  UNL d   1       0.453  -1.302   1.268  0.00  0.00    -0.076 A 
ATOM      2  C3  UNL d   1       1.491  -1.668   0.394  0.00  0.00     0.004 A 
ATOM      3  C4  UNL d   1       1.615  -1.074  -0.861  0.00  0.00    -0.003 A 
ATOM      4  C5  UNL d   1       0.703  -0.104  -1.262  0.00  0.00     0.000 A 
ATOM      5  C6  UNL d   1      -0.323   0.283  -0.401  0.00  0.00     0.000 A 
ATOM      6  C7  UNL d   1      -0.453  -0.294   0.874  0.00  0.00    -0.073 A 
ATOM      7  C8  UNL d   1      -1.582   0.158   1.760  0.00  0.00     0.078 C 
ENDROOT
BRANCH   1   8
ATOM      8  C1  UNL d   1       0.352  -2.000   2.606  0.00  0.00     0.053 C 
ATOM      9  C   UNL d   1       1.429  -1.548   3.581  0.00  0.00     0.018 C 
ENDBRANCH   1   8
TORSDOF 1
ENDMDL
