MODEL 1
REMARK minimizedAffinity -5.07156897
REMARK minimizedRMSD -1
REMARK  1 active torsions:
REMARK  status: ('A' for Active; 'I' for Inactive)
REMARK    1  A    between atoms: C1_2  and  C2_3 
ROOT
ATOM      1  C2  UNL d   1       0.606  -0.897   0.049  0.00  0.00    -0.076 A 
ATOM      2  C3  UNL d   1       1.840  -1.570   0.018  0.00  0.00     0.004 A 
ATOM      3  C4  UNL d   1       2.437  -2.027   1.191  0.00  0.00    -0.003 A 
ATOM      4  C5  UNL d   1       1.810  -1.819   2.415  0.00  0.00     0.000 A 
ATOM      5  C6  UNL d   1       0.577  -1.169   2.463  0.00  0.00     0.000 A 
ATOM      6  C7  UNL d   1      -0.047  -0.717   1.288  0.00  0.00    -0.073 A 
ATOM      7  C8  UNL d   1      -1.373  -0.017   1.398  0.00  0.00     0.078 C 
ENDROOT
BRANCH   1   8
ATOM      8  C1  UNL d   1       0.019  -0.400  -1.253  0.00  0.00     0.053 C 
ATOM      9  C   UNL d   1       0.127   1.110  -1.402  0.00  0.00     0.018 C 
ENDBRANCH   1   8
TORSDOF 1
ENDMDL
