MODEL 1
REMARK minimizedAffinity -0.421329468
REMARK minimizedRMSD -1
REMARK  1 active torsions:
REMARK  status: ('A' for Active; 'I' for Inactive)
REMARK    1  A    between atoms: C1_2  and  C2_3 
ROOT
ATOM      1  C2  UNL d   1      -0.318   1.590  -1.216  0.00  0.00    -0.076 A 
ATOM      2  C3  UNL d   1       0.529   1.457  -0.102  0.00  0.00     0.004 A 
ATOM      3  C4  UNL d   1       0.251   0.534   0.905  0.00  0.00    -0.003 A 
ATOM      4  C5  UNL d   1      -0.878  -0.273   0.813  0.00  0.00     0.000 A 
ATOM      5  C6  UNL d   1      -1.719  -0.167  -0.294  0.00  0.00     0.000 A 
ATOM      6  C7  UNL d   1      -1.445   0.747  -1.325  0.00  0.00    -0.073 A 
ATOM      7  C8  UNL d   1      -2.390   0.824  -2.493  0.00  0.00     0.078 C 
ENDROOT
BRANCH   1   8
ATOM      8  C1  UNL d   1       0.019   2.627  -2.263  0.00  0.00     0.053 C 
ATOM      9  C   UNL d   1      -0.454   4.020  -1.877  0.00  0.00     0.018 C 
ENDBRANCH   1   8
TORSDOF 1
ENDMDL
