MODEL 1
REMARK minimizedAffinity -1.80095613
REMARK minimizedRMSD -1
REMARK  1 active torsions:
REMARK  status: ('A' for Active; 'I' for Inactive)
REMARK    1  A    between atoms: C1_2  and  C2_3 
ROOT
ATOM      1  C2  UNL d   1      -0.713   1.916  -0.770  0.00  0.00    -0.076 A 
ATOM      2  C3  UNL d   1      -0.406   0.800  -1.568  0.00  0.00     0.004 A 
ATOM      3  C4  UNL d   1      -0.351  -0.481  -1.019  0.00  0.00    -0.003 A 
ATOM      4  C5  UNL d   1      -0.602  -0.665   0.336  0.00  0.00     0.000 A 
ATOM      5  C6  UNL d   1      -0.925   0.429   1.139  0.00  0.00     0.000 A 
ATOM      6  C7  UNL d   1      -1.001   1.724   0.598  0.00  0.00    -0.073 A 
ATOM      7  C8  UNL d   1      -1.348   2.868   1.511  0.00  0.00     0.078 C 
ENDROOT
BRANCH   1   8
ATOM      8  C1  UNL d   1      -0.731   3.283  -1.415  0.00  0.00     0.053 C 
ATOM      9  C   UNL d   1       0.001   3.309  -2.748  0.00  0.00     0.018 C 
ENDBRANCH   1   8
TORSDOF 1
ENDMDL
