MODEL 1
REMARK minimizedAffinity -2.76742387
REMARK minimizedRMSD -1
REMARK  2 active torsions:
REMARK  status: ('A' for Active; 'I' for Inactive)
REMARK    1  A    between atoms: C2'_3  and  C1'_4 
REMARK    2  A    between atoms: C1'_4  and  C1_5 
ROOT
ATOM      1  C1  I4B d   1      -0.724   0.653  -0.555  0.00  0.00    -0.075 A 
ATOM      2  C2  I4B d   1       0.029  -0.218  -1.303  0.00  0.00     0.003 A 
ATOM      3  C3  I4B d   1       0.661  -1.324  -0.685  0.00  0.00     0.002 A 
ATOM      4  C4  I4B d   1       0.556  -1.492   0.681  0.00  0.00    -0.004 A 
ATOM      5  C5  I4B d   1      -0.226  -0.620   1.433  0.00  0.00     0.002 A 
ATOM      6  C6  I4B d   1      -0.881   0.452   0.810  0.00  0.00     0.003 A 
ENDROOT
BRANCH   1   7
ATOM      7  C1' I4B d   1      -1.351   1.829  -1.234  0.00  0.00     0.060 C 
BRANCH   7   8
ATOM      8  C2' I4B d   1      -1.986   1.342  -2.521  0.00  0.00    -0.013 C 
ATOM      9  C4' I4B d   1      -3.489   1.346  -2.423  0.00  0.00     0.013 C 
ATOM     10  C3' I4B d   1      -1.514   2.228  -3.635  0.00  0.00     0.013 C 
ENDBRANCH   7   8
ENDBRANCH   1   7
TORSDOF 2
ENDMDL
