MODEL 1
REMARK minimizedAffinity -4.47030354
REMARK minimizedRMSD -1
REMARK  2 active torsions:
REMARK  status: ('A' for Active; 'I' for Inactive)
REMARK    1  A    between atoms: C2'_3  and  C1'_4 
REMARK    2  A    between atoms: C1'_4  and  C1_5 
ROOT
ATOM      1  C1  I4B d   1       0.110  -0.222  -0.011  0.00  0.00    -0.075 A 
ATOM      2  C2  I4B d   1      -0.384  -0.899   1.076  0.00  0.00     0.003 A 
ATOM      3  C3  I4B d   1       0.369  -1.942   1.669  0.00  0.00     0.002 A 
ATOM      4  C4  I4B d   1       1.579  -2.306   1.115  0.00  0.00    -0.004 A 
ATOM      5  C5  I4B d   1       2.089  -1.604   0.027  0.00  0.00     0.002 A 
ATOM      6  C6  I4B d   1       1.356  -0.547  -0.533  0.00  0.00     0.003 A 
ENDROOT
BRANCH   1   7
ATOM      7  C1' I4B d   1      -0.725   0.852  -0.632  0.00  0.00     0.060 C 
BRANCH   7   8
ATOM      8  C2' I4B d   1      -1.078   0.414  -2.039  0.00  0.00    -0.013 C 
ATOM      9  C4' I4B d   1      -1.980  -0.791  -2.025  0.00  0.00     0.013 C 
ATOM     10  C3' I4B d   1      -1.731   1.572  -2.734  0.00  0.00     0.013 C 
ENDBRANCH   7   8
ENDBRANCH   1   7
TORSDOF 2
ENDMDL
