MODEL 1
REMARK minimizedAffinity -6.05216408
REMARK minimizedRMSD -1
REMARK  2 active torsions:
REMARK  status: ('A' for Active; 'I' for Inactive)
REMARK    1  A    between atoms: C2'_3  and  C1'_4 
REMARK    2  A    between atoms: C1'_4  and  C1_5 
ROOT
ATOM      1  C1  I4B d   1       0.646  -1.018   0.451  0.00  0.00    -0.075 A 
ATOM      2  C2  I4B d   1       1.545  -2.049   0.332  0.00  0.00     0.003 A 
ATOM      3  C3  I4B d   1       1.636  -3.035   1.344  0.00  0.00     0.002 A 
ATOM      4  C4  I4B d   1       0.851  -2.924   2.474  0.00  0.00    -0.004 A 
ATOM      5  C5  I4B d   1      -0.075  -1.891   2.582  0.00  0.00     0.002 A 
ATOM      6  C6  I4B d   1      -0.188  -0.939   1.559  0.00  0.00     0.003 A 
ENDROOT
BRANCH   1   7
ATOM      7  C1' I4B d   1       0.599   0.024  -0.621  0.00  0.00     0.060 C 
BRANCH   7   8
ATOM      8  C2' I4B d   1      -0.804   0.594  -0.657  0.00  0.00    -0.013 C 
ATOM      9  C4' I4B d   1      -0.804   2.064  -0.330  0.00  0.00     0.013 C 
ATOM     10  C3' I4B d   1      -1.371   0.343  -2.022  0.00  0.00     0.013 C 
ENDBRANCH   7   8
ENDBRANCH   1   7
TORSDOF 2
ENDMDL
