MODEL 1
REMARK minimizedAffinity -4.56739759
REMARK minimizedRMSD -1
REMARK  2 active torsions:
REMARK  status: ('A' for Active; 'I' for Inactive)
REMARK    1  A    between atoms: C2'_3  and  C1'_4 
REMARK    2  A    between atoms: C1'_4  and  C1_5 
ROOT
ATOM      1  C1  I4B d   1      -0.990   0.999  -1.034  0.00  0.00    -0.075 A 
ATOM      2  C2  I4B d   1      -1.190   2.194  -1.680  0.00  0.00     0.003 A 
ATOM      3  C3  I4B d   1      -1.704   2.213  -2.999  0.00  0.00     0.002 A 
ATOM      4  C4  I4B d   1      -1.955   1.021  -3.648  0.00  0.00    -0.004 A 
ATOM      5  C5  I4B d   1      -1.773  -0.188  -2.983  0.00  0.00     0.002 A 
ATOM      6  C6  I4B d   1      -1.299  -0.199  -1.663  0.00  0.00     0.003 A 
ENDROOT
BRANCH   1   7
ATOM      7  C1' I4B d   1      -0.415   1.015   0.347  0.00  0.00     0.060 C 
BRANCH   7   8
ATOM      8  C2' I4B d   1       0.220  -0.337   0.603  0.00  0.00    -0.013 C 
ATOM      9  C4' I4B d   1       1.713  -0.282   0.414  0.00  0.00     0.013 C 
ATOM     10  C3' I4B d   1      -0.133  -0.758   1.999  0.00  0.00     0.013 C 
ENDBRANCH   7   8
ENDBRANCH   1   7
TORSDOF 2
ENDMDL
