MODEL 1
REMARK minimizedAffinity -3.12728763
REMARK minimizedRMSD -1
REMARK  2 active torsions:
REMARK  status: ('A' for Active; 'I' for Inactive)
REMARK    1  A    between atoms: C2'_3  and  C1'_4 
REMARK    2  A    between atoms: C1'_4  and  C1_5 
ROOT
ATOM      1  C1  I4B d   1      -0.752  -0.173  -0.497  0.00  0.00    -0.075 A 
ATOM      2  C2  I4B d   1      -1.265  -0.746  -1.635  0.00  0.00     0.003 A 
ATOM      3  C3  I4B d   1      -2.000   0.037  -2.558  0.00  0.00     0.002 A 
ATOM      4  C4  I4B d   1      -2.240   1.367  -2.281  0.00  0.00    -0.004 A 
ATOM      5  C5  I4B d   1      -1.699   1.951  -1.139  0.00  0.00     0.002 A 
ATOM      6  C6  I4B d   1      -0.940   1.180  -0.247  0.00  0.00     0.003 A 
ENDROOT
BRANCH   1   7
ATOM      7  C1' I4B d   1      -0.009  -1.037   0.472  0.00  0.00     0.060 C 
BRANCH   7   8
ATOM      8  C2' I4B d   1       1.216  -1.583  -0.233  0.00  0.00    -0.013 C 
ATOM      9  C4' I4B d   1       2.220  -0.494  -0.505  0.00  0.00     0.013 C 
ATOM     10  C3' I4B d   1       1.805  -2.660   0.629  0.00  0.00     0.013 C 
ENDBRANCH   7   8
ENDBRANCH   1   7
TORSDOF 2
ENDMDL
