MODEL 1
REMARK minimizedAffinity -5.23109531
REMARK minimizedRMSD -1
REMARK  2 active torsions:
REMARK  status: ('A' for Active; 'I' for Inactive)
REMARK    1  A    between atoms: C2'_3  and  C1'_4 
REMARK    2  A    between atoms: C1'_4  and  C1_5 
ROOT
ATOM      1  C1  I4B d   1       0.044  -1.543   0.633  0.00  0.00    -0.075 A 
ATOM      2  C2  I4B d   1       1.181  -2.311   0.655  0.00  0.00     0.003 A 
ATOM      3  C3  I4B d   1       1.533  -3.031   1.822  0.00  0.00     0.002 A 
ATOM      4  C4  I4B d   1       0.751  -2.916   2.954  0.00  0.00    -0.004 A 
ATOM      5  C5  I4B d   1      -0.414  -2.155   2.922  0.00  0.00     0.002 A 
ATOM      6  C6  I4B d   1      -0.777  -1.474   1.751  0.00  0.00     0.003 A 
ENDROOT
BRANCH   1   7
ATOM      7  C1' I4B d   1      -0.280  -0.769  -0.605  0.00  0.00     0.060 C 
BRANCH   7   8
ATOM      8  C2' I4B d   1       0.152   0.666  -0.385  0.00  0.00    -0.013 C 
ATOM      9  C4' I4B d   1       1.593   0.868  -0.771  0.00  0.00     0.013 C 
ATOM     10  C3' I4B d   1      -0.753   1.550  -1.190  0.00  0.00     0.013 C 
ENDBRANCH   7   8
ENDBRANCH   1   7
TORSDOF 2
ENDMDL
