MODEL 1
REMARK minimizedAffinity -1.35150456
REMARK minimizedRMSD -1
REMARK  2 active torsions:
REMARK  status: ('A' for Active; 'I' for Inactive)
REMARK    1  A    between atoms: C2'_3  and  C1'_4 
REMARK    2  A    between atoms: C1'_4  and  C1_5 
ROOT
ATOM      1  C1  I4B d   1       0.723  -0.954   0.040  0.00  0.00    -0.075 A 
ATOM      2  C2  I4B d   1      -0.100  -1.570   0.950  0.00  0.00     0.003 A 
ATOM      3  C3  I4B d   1       0.450  -2.381   1.973  0.00  0.00     0.002 A 
ATOM      4  C4  I4B d   1       1.813  -2.587   2.019  0.00  0.00    -0.004 A 
ATOM      5  C5  I4B d   1       2.648  -1.943   1.110  0.00  0.00     0.002 A 
ATOM      6  C6  I4B d   1       2.101  -1.111   0.122  0.00  0.00     0.003 A 
ENDROOT
BRANCH   1   7
ATOM      7  C1' I4B d   1       0.107  -0.132  -1.047  0.00  0.00     0.060 C 
BRANCH   7   8
ATOM      8  C2' I4B d   1      -0.815   0.882  -0.401  0.00  0.00    -0.013 C 
ATOM      9  C4' I4B d   1      -0.044   1.848   0.460  0.00  0.00     0.013 C 
ATOM     10  C3' I4B d   1      -1.553   1.598  -1.492  0.00  0.00     0.013 C 
ENDBRANCH   7   8
ENDBRANCH   1   7
TORSDOF 2
ENDMDL
