MODEL 1
REMARK minimizedAffinity -4.70646
REMARK minimizedRMSD -1
REMARK  2 active torsions:
REMARK  status: ('A' for Active; 'I' for Inactive)
REMARK    1  A    between atoms: C2'_3  and  C1'_4 
REMARK    2  A    between atoms: C1'_4  and  C1_5 
ROOT
ATOM      1  C1  I4B d   1      -0.250   0.209  -0.163  0.00  0.00    -0.075 A 
ATOM      2  C2  I4B d   1       1.046   0.495  -0.513  0.00  0.00     0.003 A 
ATOM      3  C3  I4B d   1       2.083  -0.422  -0.216  0.00  0.00     0.002 A 
ATOM      4  C4  I4B d   1       1.789  -1.581   0.472  0.00  0.00    -0.004 A 
ATOM      5  C5  I4B d   1       0.471  -1.880   0.806  0.00  0.00     0.002 A 
ATOM      6  C6  I4B d   1      -0.557  -0.985   0.476  0.00  0.00     0.003 A 
ENDROOT
BRANCH   1   7
ATOM      7  C1' I4B d   1      -1.316   1.215  -0.463  0.00  0.00     0.060 C 
BRANCH   7   8
ATOM      8  C2' I4B d   1      -1.578   1.187  -1.955  0.00  0.00    -0.013 C 
ATOM      9  C4' I4B d   1      -2.797   0.363  -2.279  0.00  0.00     0.013 C 
ATOM     10  C3' I4B d   1      -1.741   2.602  -2.423  0.00  0.00     0.013 C 
ENDBRANCH   7   8
ENDBRANCH   1   7
TORSDOF 2
ENDMDL
