MODEL 1
REMARK minimizedAffinity -5.49836302
REMARK minimizedRMSD -1
REMARK  2 active torsions:
REMARK  status: ('A' for Active; 'I' for Inactive)
REMARK    1  A    between atoms: C2'_3  and  C1'_4 
REMARK    2  A    between atoms: C1'_4  and  C1_5 
ROOT
ATOM      1  C1  I4B d   1       0.649  -1.335   0.118  0.00  0.00    -0.075 A 
ATOM      2  C2  I4B d   1       1.824  -0.719  -0.237  0.00  0.00     0.003 A 
ATOM      3  C3  I4B d   1       1.854   0.677  -0.472  0.00  0.00     0.002 A 
ATOM      4  C4  I4B d   1       0.685   1.405  -0.391  0.00  0.00    -0.004 A 
ATOM      5  C5  I4B d   1      -0.500   0.783  -0.009  0.00  0.00     0.002 A 
ATOM      6  C6  I4B d   1      -0.517  -0.593   0.259  0.00  0.00     0.003 A 
ENDROOT
BRANCH   1   7
ATOM      7  C1' I4B d   1       0.646  -2.816   0.327  0.00  0.00     0.060 C 
BRANCH   7   8
ATOM      8  C2' I4B d   1       0.551  -3.077   1.816  0.00  0.00    -0.013 C 
ATOM      9  C4' I4B d   1       1.713  -2.466   2.552  0.00  0.00     0.013 C 
ATOM     10  C3' I4B d   1      -0.753  -2.517   2.302  0.00  0.00     0.013 C 
ENDBRANCH   7   8
ENDBRANCH   1   7
TORSDOF 2
ENDMDL
