MODEL 1
REMARK minimizedAffinity -2.60430598
REMARK minimizedRMSD -1
REMARK  2 active torsions:
REMARK  status: ('A' for Active; 'I' for Inactive)
REMARK    1  A    between atoms: C2'_3  and  C1'_4 
REMARK    2  A    between atoms: C1'_4  and  C1_5 
ROOT
ATOM      1  C1  I4B d   1      -1.486   1.292  -1.517  0.00  0.00    -0.075 A 
ATOM      2  C2  I4B d   1      -1.648   2.614  -1.849  0.00  0.00     0.003 A 
ATOM      3  C3  I4B d   1      -2.326   2.973  -3.039  0.00  0.00     0.002 A 
ATOM      4  C4  I4B d   1      -2.778   1.984  -3.888  0.00  0.00    -0.004 A 
ATOM      5  C5  I4B d   1      -2.633   0.644  -3.539  0.00  0.00     0.002 A 
ATOM      6  C6  I4B d   1      -1.994   0.296  -2.340  0.00  0.00     0.003 A 
ENDROOT
BRANCH   1   7
ATOM      7  C1' I4B d   1      -0.737   0.948  -0.269  0.00  0.00     0.060 C 
BRANCH   7   8
ATOM      8  C2' I4B d   1       0.103  -0.280  -0.552  0.00  0.00    -0.013 C 
ATOM      9  C4' I4B d   1       1.569   0.061  -0.601  0.00  0.00     0.013 C 
ATOM     10  C3' I4B d   1      -0.182  -1.293   0.516  0.00  0.00     0.013 C 
ENDBRANCH   7   8
ENDBRANCH   1   7
TORSDOF 2
ENDMDL
