MODEL 1
REMARK minimizedAffinity -3.47976971
REMARK minimizedRMSD -1
REMARK  0 active torsions:
REMARK  status: ('A' for Active; 'I' for Inactive)
ROOT
ATOM      1  C4' PXY d   1       0.942   1.685  -0.705  0.00  0.00     0.077 C 
ATOM      2  C1' PXY d   1      -2.013  -1.880   2.755  0.00  0.00     0.077 C 
ATOM      3  C1  PXY d   1      -1.249  -0.938   1.846  0.00  0.00    -0.082 A 
ATOM      4  C2  PXY d   1      -0.204  -1.386   1.170  0.00  0.00     0.003 A 
ATOM      5  C3  PXY d   1       0.518  -0.539   0.368  0.00  0.00     0.003 A 
ATOM      6  C4  PXY d   1       0.135   0.767   0.217  0.00  0.00    -0.082 A 
ATOM      7  C5  PXY d   1      -0.937   1.228   0.895  0.00  0.00     0.003 A 
ATOM      8  C6  PXY d   1      -1.632   0.363   1.736  0.00  0.00     0.003 A 
ENDROOT
TORSDOF 0
ENDMDL
