MODEL 1
REMARK minimizedAffinity -3.82163644
REMARK minimizedRMSD -1
REMARK  0 active torsions:
REMARK  status: ('A' for Active; 'I' for Inactive)
ROOT
ATOM      1  C4' PXY d   1       0.820   1.581  -2.226  0.00  0.00     0.077 C 
ATOM      2  C1' PXY d   1      -0.576  -2.136   1.976  0.00  0.00     0.077 C 
ATOM      3  C1  PXY d   1      -0.217  -1.152   0.880  0.00  0.00    -0.082 A 
ATOM      4  C2  PXY d   1       0.115  -1.601  -0.320  0.00  0.00     0.003 A 
ATOM      5  C3  PXY d   1       0.474  -0.726  -1.313  0.00  0.00     0.003 A 
ATOM      6  C4  PXY d   1       0.441   0.625  -1.092  0.00  0.00    -0.082 A 
ATOM      7  C5  PXY d   1       0.093   1.091   0.126  0.00  0.00     0.003 A 
ATOM      8  C6  PXY d   1      -0.228   0.185   1.133  0.00  0.00     0.003 A 
ENDROOT
TORSDOF 0
ENDMDL
