MODEL 1
REMARK minimizedAffinity -4.75523138
REMARK minimizedRMSD -1
REMARK  0 active torsions:
REMARK  status: ('A' for Active; 'I' for Inactive)
ROOT
ATOM      1  C4' PXY d   1       1.092   1.836  -0.803  0.00  0.00     0.077 C 
ATOM      2  C1' PXY d   1      -1.623  -2.752   1.434  0.00  0.00     0.077 C 
ATOM      3  C1  PXY d   1      -0.900  -1.553   0.851  0.00  0.00    -0.082 A 
ATOM      4  C2  PXY d   1      -1.558  -0.422   0.658  0.00  0.00     0.003 A 
ATOM      5  C3  PXY d   1      -0.928   0.661   0.103  0.00  0.00     0.003 A 
ATOM      6  C4  PXY d   1       0.404   0.603  -0.209  0.00  0.00    -0.082 A 
ATOM      7  C5  PXY d   1       1.086  -0.544  -0.004  0.00  0.00     0.003 A 
ATOM      8  C6  PXY d   1       0.417  -1.645   0.522  0.00  0.00     0.003 A 
ENDROOT
TORSDOF 0
ENDMDL
