MODEL 1
REMARK minimizedAffinity -4.2359314
REMARK minimizedRMSD -1
REMARK  0 active torsions:
REMARK  status: ('A' for Active; 'I' for Inactive)
ROOT
ATOM      1  C4' PXY d   1       0.989   1.332  -0.470  0.00  0.00     0.077 C 
ATOM      2  C1' PXY d   1      -2.406  -3.000   1.295  0.00  0.00     0.077 C 
ATOM      3  C1  PXY d   1      -1.505  -1.871   0.836  0.00  0.00    -0.082 A 
ATOM      4  C2  PXY d   1      -1.995  -0.646   0.728  0.00  0.00     0.003 A 
ATOM      5  C3  PXY d   1      -1.203   0.381   0.284  0.00  0.00     0.003 A 
ATOM      6  C4  PXY d   1       0.118   0.163  -0.001  0.00  0.00    -0.082 A 
ATOM      7  C5  PXY d   1       0.628  -1.081   0.117  0.00  0.00     0.003 A 
ATOM      8  C6  PXY d   1      -0.203  -2.118   0.530  0.00  0.00     0.003 A 
ENDROOT
TORSDOF 0
ENDMDL
