MODEL 1
REMARK minimizedAffinity -1.9422754
REMARK minimizedRMSD -1
REMARK  0 active torsions:
REMARK  status: ('A' for Active; 'I' for Inactive)
ROOT
ATOM      1  C4' PXY d   1      -0.703  -2.308   1.316  0.00  0.00     0.077 C 
ATOM      2  C1' PXY d   1       2.159   1.988  -1.285  0.00  0.00     0.077 C 
ATOM      3  C1  PXY d   1       1.419   0.854  -0.604  0.00  0.00    -0.082 A 
ATOM      4  C2  PXY d   1       0.098   0.807  -0.661  0.00  0.00     0.003 A 
ATOM      5  C3  PXY d   1      -0.589  -0.194  -0.024  0.00  0.00     0.003 A 
ATOM      6  C4  PXY d   1       0.086  -1.187   0.635  0.00  0.00    -0.082 A 
ATOM      7  C5  PXY d   1       1.435  -1.152   0.689  0.00  0.00     0.003 A 
ATOM      8  C6  PXY d   1       2.111  -0.105   0.070  0.00  0.00     0.003 A 
ENDROOT
TORSDOF 0
ENDMDL
