MODEL 1
REMARK minimizedAffinity -0.446885198
REMARK minimizedRMSD -1
REMARK  0 active torsions:
REMARK  status: ('A' for Active; 'I' for Inactive)
ROOT
ATOM      1  C4' PXY d   1       0.601  -0.777   1.423  0.00  0.00     0.077 C 
ATOM      2  C1' PXY d   1       0.533   1.763  -3.769  0.00  0.00     0.077 C 
ATOM      3  C1  PXY d   1       0.559   1.106  -2.403  0.00  0.00    -0.082 A 
ATOM      4  C2  PXY d   1       0.285  -0.184  -2.292  0.00  0.00     0.003 A 
ATOM      5  C3  PXY d   1       0.272  -0.787  -1.061  0.00  0.00     0.003 A 
ATOM      6  C4  PXY d   1       0.596  -0.074   0.063  0.00  0.00    -0.082 A 
ATOM      7  C5  PXY d   1       0.887   1.240  -0.043  0.00  0.00     0.003 A 
ATOM      8  C6  PXY d   1       0.854   1.842  -1.298  0.00  0.00     0.003 A 
ENDROOT
TORSDOF 0
ENDMDL
