MODEL 1
REMARK minimizedAffinity -1.95703328
REMARK minimizedRMSD -1
REMARK  0 active torsions:
REMARK  status: ('A' for Active; 'I' for Inactive)
ROOT
ATOM      1  C4' PXY d   1      -2.519   0.262   2.288  0.00  0.00     0.077 C 
ATOM      2  C1' PXY d   1       2.001  -2.074  -0.455  0.00  0.00     0.077 C 
ATOM      3  C1  PXY d   1       0.809  -1.473   0.264  0.00  0.00    -0.082 A 
ATOM      4  C2  PXY d   1       0.581  -0.173   0.178  0.00  0.00     0.003 A 
ATOM      5  C3  PXY d   1      -0.474   0.392   0.848  0.00  0.00     0.003 A 
ATOM      6  C4  PXY d   1      -1.334  -0.390   1.571  0.00  0.00    -0.082 A 
ATOM      7  C5  PXY d   1      -1.114  -1.719   1.655  0.00  0.00     0.003 A 
ATOM      8  C6  PXY d   1      -0.014  -2.267   1.001  0.00  0.00     0.003 A 
ENDROOT
TORSDOF 0
ENDMDL
