MODEL 1
REMARK minimizedAffinity -2.05538535
REMARK minimizedRMSD -1
REMARK  0 active torsions:
REMARK  status: ('A' for Active; 'I' for Inactive)
ROOT
ATOM      1  C4' PXY d   1      -0.067   3.332  -3.225  0.00  0.00     0.077 C 
ATOM      2  C1' PXY d   1       1.388  -0.918   0.413  0.00  0.00     0.077 C 
ATOM      3  C1  PXY d   1       1.016   0.193  -0.549  0.00  0.00    -0.082 A 
ATOM      4  C2  PXY d   1       0.338   1.240  -0.108  0.00  0.00     0.003 A 
ATOM      5  C3  PXY d   1      -0.034   2.239  -0.971  0.00  0.00     0.003 A 
ATOM      6  C4  PXY d   1       0.338   2.191  -2.288  0.00  0.00    -0.082 A 
ATOM      7  C5  PXY d   1       1.039   1.131  -2.743  0.00  0.00     0.003 A 
ATOM      8  C6  PXY d   1       1.372   0.108  -1.860  0.00  0.00     0.003 A 
ENDROOT
TORSDOF 0
ENDMDL
