MODEL 1
REMARK minimizedAffinity -5.15436125
REMARK minimizedRMSD -1
REMARK  0 active torsions:
REMARK  status: ('A' for Active; 'I' for Inactive)
ROOT
ATOM      1  C4' PXY d   1       1.672  -1.371  -0.553  0.00  0.00     0.077 C 
ATOM      2  C1' PXY d   1      -2.994  -0.776   2.808  0.00  0.00     0.077 C 
ATOM      3  C1  PXY d   1      -1.775  -0.923   1.919  0.00  0.00    -0.082 A 
ATOM      4  C2  PXY d   1      -1.114  -2.069   1.898  0.00  0.00     0.003 A 
ATOM      5  C3  PXY d   1       0.009  -2.208   1.124  0.00  0.00     0.003 A 
ATOM      6  C4  PXY d   1       0.430  -1.181   0.322  0.00  0.00    -0.082 A 
ATOM      7  C5  PXY d   1      -0.245  -0.012   0.330  0.00  0.00     0.003 A 
ATOM      8  C6  PXY d   1      -1.359   0.123   1.154  0.00  0.00     0.003 A 
ENDROOT
TORSDOF 0
ENDMDL
