MODEL 1
REMARK minimizedAffinity -2.15033817
REMARK minimizedRMSD -1
REMARK  0 active torsions:
REMARK  status: ('A' for Active; 'I' for Inactive)
ROOT
ATOM      1  C4' PXY d   1       1.392   2.228  -1.713  0.00  0.00     0.077 C 
ATOM      2  C1' PXY d   1       0.023  -2.246   1.683  0.00  0.00     0.077 C 
ATOM      3  C1  PXY d   1       0.370  -1.068   0.793  0.00  0.00    -0.082 A 
ATOM      4  C2  PXY d   1       1.378  -1.166  -0.058  0.00  0.00     0.003 A 
ATOM      5  C3  PXY d   1       1.725  -0.099  -0.847  0.00  0.00     0.003 A 
ATOM      6  C4  PXY d   1       1.000   1.061  -0.802  0.00  0.00    -0.082 A 
ATOM      7  C5  PXY d   1      -0.037   1.165   0.057  0.00  0.00     0.003 A 
ATOM      8  C6  PXY d   1      -0.347   0.085   0.878  0.00  0.00     0.003 A 
ENDROOT
TORSDOF 0
ENDMDL
