MODEL 1
REMARK minimizedAffinity 15.0475082
REMARK minimizedRMSD -1
REMARK  0 active torsions:
REMARK  status: ('A' for Active; 'I' for Inactive)
ROOT
ATOM      1  C4' PXY d   1       4.414   1.827  -3.484  0.00  0.00     0.077 C 
ATOM      2  C1' PXY d   1      -1.313   2.254  -4.144  0.00  0.00     0.077 C 
ATOM      3  C1  PXY d   1       0.187   2.138  -3.959  0.00  0.00    -0.082 A 
ATOM      4  C2  PXY d   1       0.996   2.897  -4.680  0.00  0.00     0.003 A 
ATOM      5  C3  PXY d   1       2.356   2.781  -4.548  0.00  0.00     0.003 A 
ATOM      6  C4  PXY d   1       2.892   1.918  -3.631  0.00  0.00    -0.082 A 
ATOM      7  C5  PXY d   1       2.073   1.148  -2.884  0.00  0.00     0.003 A 
ATOM      8  C6  PXY d   1       0.697   1.250  -3.062  0.00  0.00     0.003 A 
ENDROOT
TORSDOF 0
ENDMDL
