MODEL 1
REMARK minimizedAffinity -1.61216426
REMARK minimizedRMSD -1
REMARK  0 active torsions:
REMARK  status: ('A' for Active; 'I' for Inactive)
ROOT
ATOM      1  C4' PXY d   1       0.336  -0.579   0.377  0.00  0.00     0.077 C 
ATOM      2  C1' PXY d   1       0.928   3.095  -4.047  0.00  0.00     0.077 C 
ATOM      3  C1  PXY d   1       0.763   2.125  -2.893  0.00  0.00    -0.082 A 
ATOM      4  C2  PXY d   1       1.153   2.480  -1.679  0.00  0.00     0.003 A 
ATOM      5  C3  PXY d   1       1.041   1.604  -0.631  0.00  0.00     0.003 A 
ATOM      6  C4  PXY d   1       0.474   0.371  -0.816  0.00  0.00    -0.082 A 
ATOM      7  C5  PXY d   1       0.064   0.006  -2.049  0.00  0.00     0.003 A 
ATOM      8  C6  PXY d   1       0.225   0.894  -3.108  0.00  0.00     0.003 A 
ENDROOT
TORSDOF 0
ENDMDL
