MODEL 1
REMARK minimizedAffinity -2.39479303
REMARK minimizedRMSD -1
REMARK  0 active torsions:
REMARK  status: ('A' for Active; 'I' for Inactive)
ROOT
ATOM      1  C4' PXY d   1       1.513   2.015  -1.575  0.00  0.00     0.077 C 
ATOM      2  C1' PXY d   1      -0.396  -2.216   1.872  0.00  0.00     0.077 C 
ATOM      3  C1  PXY d   1       0.093  -1.101   0.968  0.00  0.00    -0.082 A 
ATOM      4  C2  PXY d   1       1.138  -1.305   0.183  0.00  0.00     0.003 A 
ATOM      5  C3  PXY d   1       1.613  -0.298  -0.616  0.00  0.00     0.003 A 
ATOM      6  C4  PXY d   1       0.979   0.915  -0.653  0.00  0.00    -0.082 A 
ATOM      7  C5  PXY d   1      -0.095   1.128   0.137  0.00  0.00     0.003 A 
ATOM      8  C6  PXY d   1      -0.536   0.106   0.972  0.00  0.00     0.003 A 
ENDROOT
TORSDOF 0
ENDMDL
