MODEL 1
REMARK minimizedAffinity -1.819013
REMARK minimizedRMSD -1
REMARK  0 active torsions:
REMARK  status: ('A' for Active; 'I' for Inactive)
ROOT
ATOM      1  C4' PXY d   1       1.825   2.127  -1.175  0.00  0.00     0.077 C 
ATOM      2  C1' PXY d   1      -0.447  -2.473   1.488  0.00  0.00     0.077 C 
ATOM      3  C1  PXY d   1       0.137  -1.262   0.787  0.00  0.00    -0.082 A 
ATOM      4  C2  PXY d   1       1.358  -1.324   0.282  0.00  0.00     0.003 A 
ATOM      5  C3  PXY d   1       1.913  -0.229  -0.327  0.00  0.00     0.003 A 
ATOM      6  C4  PXY d   1       1.191   0.926  -0.467  0.00  0.00    -0.082 A 
ATOM      7  C5  PXY d   1      -0.059   0.994   0.036  0.00  0.00     0.003 A 
ATOM      8  C6  PXY d   1      -0.590  -0.116   0.687  0.00  0.00     0.003 A 
ENDROOT
TORSDOF 0
ENDMDL
