MODEL 1
REMARK minimizedAffinity -2.87486053
REMARK minimizedRMSD -1
REMARK  0 active torsions:
REMARK  status: ('A' for Active; 'I' for Inactive)
ROOT
ATOM      1  C4' PXY d   1       1.207   1.399  -0.742  0.00  0.00     0.077 C 
ATOM      2  C1' PXY d   1      -2.043  -2.479   2.053  0.00  0.00     0.077 C 
ATOM      3  C1  PXY d   1      -1.180  -1.470   1.322  0.00  0.00    -0.082 A 
ATOM      4  C2  PXY d   1      -1.540  -0.197   1.298  0.00  0.00     0.003 A 
ATOM      5  C3  PXY d   1      -0.789   0.724   0.614  0.00  0.00     0.003 A 
ATOM      6  C4  PXY d   1       0.372   0.347  -0.007  0.00  0.00    -0.082 A 
ATOM      7  C5  PXY d   1       0.752  -0.948   0.022  0.00  0.00     0.003 A 
ATOM      8  C6  PXY d   1      -0.047  -1.874   0.687  0.00  0.00     0.003 A 
ENDROOT
TORSDOF 0
ENDMDL
