MODEL 1
REMARK minimizedAffinity -3.47971058
REMARK minimizedRMSD -1
REMARK  0 active torsions:
REMARK  status: ('A' for Active; 'I' for Inactive)
ROOT
ATOM      1  C4' PXY d   1      -2.820  -0.001   2.913  0.00  0.00     0.077 C 
ATOM      2  C1' PXY d   1       1.182  -1.948  -0.775  0.00  0.00     0.077 C 
ATOM      3  C1  PXY d   1       0.137  -1.425   0.190  0.00  0.00    -0.082 A 
ATOM      4  C2  PXY d   1      -0.387  -2.240   1.091  0.00  0.00     0.003 A 
ATOM      5  C3  PXY d   1      -1.356  -1.792   1.951  0.00  0.00     0.003 A 
ATOM      6  C4  PXY d   1      -1.755  -0.483   1.924  0.00  0.00    -0.082 A 
ATOM      7  C5  PXY d   1      -1.217   0.358   1.015  0.00  0.00     0.003 A 
ATOM      8  C6  PXY d   1      -0.264  -0.127   0.124  0.00  0.00     0.003 A 
ENDROOT
TORSDOF 0
ENDMDL
