MODEL 1
REMARK minimizedAffinity -4.07169533
REMARK minimizedRMSD -1
REMARK  0 active torsions:
REMARK  status: ('A' for Active; 'I' for Inactive)
ROOT
ATOM      1  C4' PXY d   1       0.880  -0.847   0.366  0.00  0.00     0.077 C 
ATOM      2  C1' PXY d   1       0.041   3.732  -3.062  0.00  0.00     0.077 C 
ATOM      3  C1  PXY d   1       0.267   2.539  -2.154  0.00  0.00    -0.082 A 
ATOM      4  C2  PXY d   1       0.271   1.319  -2.666  0.00  0.00     0.003 A 
ATOM      5  C3  PXY d   1       0.442   0.227  -1.855  0.00  0.00     0.003 A 
ATOM      6  C4  PXY d   1       0.665   0.388  -0.514  0.00  0.00    -0.082 A 
ATOM      7  C5  PXY d   1       0.674   1.630   0.014  0.00  0.00     0.003 A 
ATOM      8  C6  PXY d   1       0.457   2.723  -0.819  0.00  0.00     0.003 A 
ENDROOT
TORSDOF 0
ENDMDL
