MODEL 1
REMARK minimizedAffinity -2.16510105
REMARK minimizedRMSD -1
REMARK  0 active torsions:
REMARK  status: ('A' for Active; 'I' for Inactive)
ROOT
ATOM      1  C4' PXY d   1       0.545  -1.010   0.563  0.00  0.00     0.077 C 
ATOM      2  C1' PXY d   1       1.250   3.118  -3.421  0.00  0.00     0.077 C 
ATOM      3  C1  PXY d   1       1.073   2.041  -2.368  0.00  0.00    -0.082 A 
ATOM      4  C2  PXY d   1       0.668   0.834  -2.729  0.00  0.00     0.003 A 
ATOM      5  C3  PXY d   1       0.473  -0.142  -1.786  0.00  0.00     0.003 A 
ATOM      6  C4  PXY d   1       0.746   0.105  -0.467  0.00  0.00    -0.082 A 
ATOM      7  C5  PXY d   1       1.169   1.330  -0.093  0.00  0.00     0.003 A 
ATOM      8  C6  PXY d   1       1.322   2.320  -1.060  0.00  0.00     0.003 A 
ENDROOT
TORSDOF 0
ENDMDL
