MODEL 1
REMARK minimizedAffinity -2.68450928
REMARK minimizedRMSD -1
REMARK  0 active torsions:
REMARK  status: ('A' for Active; 'I' for Inactive)
ROOT
ATOM      1  C4' PXY d   1       1.436   1.788  -1.114  0.00  0.00     0.077 C 
ATOM      2  C1' PXY d   1      -1.356  -2.256   1.930  0.00  0.00     0.077 C 
ATOM      3  C1  PXY d   1      -0.635  -1.189   1.131  0.00  0.00    -0.082 A 
ATOM      4  C2  PXY d   1       0.461  -1.503   0.459  0.00  0.00     0.003 A 
ATOM      5  C3  PXY d   1       1.144  -0.543  -0.243  0.00  0.00     0.003 A 
ATOM      6  C4  PXY d   1       0.670   0.740  -0.301  0.00  0.00    -0.082 A 
ATOM      7  C5  PXY d   1      -0.453   1.067   0.372  0.00  0.00     0.003 A 
ATOM      8  C6  PXY d   1      -1.108   0.087   1.113  0.00  0.00     0.003 A 
ENDROOT
TORSDOF 0
ENDMDL
