MODEL 1
REMARK minimizedAffinity -0.127224341
REMARK minimizedRMSD -1
REMARK  0 active torsions:
REMARK  status: ('A' for Active; 'I' for Inactive)
ROOT
ATOM      1  C4' PXY d   1       1.535   2.104  -2.566  0.00  0.00     0.077 C 
ATOM      2  C1' PXY d   1       0.251  -1.686   1.606  0.00  0.00     0.077 C 
ATOM      3  C1  PXY d   1       0.577  -0.685   0.515  0.00  0.00    -0.082 A 
ATOM      4  C2  PXY d   1       1.354  -1.046  -0.493  0.00  0.00     0.003 A 
ATOM      5  C3  PXY d   1       1.685  -0.145  -1.472  0.00  0.00     0.003 A 
ATOM      6  C4  PXY d   1       1.172   1.124  -1.447  0.00  0.00    -0.082 A 
ATOM      7  C5  PXY d   1       0.369   1.497  -0.428  0.00  0.00     0.003 A 
ATOM      8  C6  PXY d   1       0.078   0.579   0.578  0.00  0.00     0.003 A 
ENDROOT
TORSDOF 0
ENDMDL
