MODEL 1
REMARK minimizedAffinity 5.58812046
REMARK minimizedRMSD -1
REMARK  0 active torsions:
REMARK  status: ('A' for Active; 'I' for Inactive)
ROOT
ATOM      1  C2' OXE d   1      -5.964   1.980   5.723  0.00  0.00     0.078 C 
ATOM      2  C1' OXE d   1      -5.964   2.314   2.936  0.00  0.00     0.078 C 
ATOM      3  C1  OXE d   1      -5.951   3.555   3.793  0.00  0.00    -0.078 A 
ATOM      4  C2  OXE d   1      -5.998   3.383   5.155  0.00  0.00    -0.078 A 
ATOM      5  C3  OXE d   1      -5.933   4.492   5.993  0.00  0.00     0.003 A 
ATOM      6  C4  OXE d   1      -5.975   5.786   5.460  0.00  0.00    -0.002 A 
ATOM      7  C5  OXE d   1      -5.968   5.984   4.076  0.00  0.00    -0.002 A 
ATOM      8  C6  OXE d   1      -5.913   4.882   3.230  0.00  0.00     0.003 A 
ENDROOT
TORSDOF 0
ENDMDL
