MODEL 1
REMARK minimizedAffinity 13.331295
REMARK minimizedRMSD -1
REMARK  0 active torsions:
REMARK  status: ('A' for Active; 'I' for Inactive)
ROOT
ATOM      1  C2' OXE d   1       2.807  -0.636  -0.737  0.00  0.00     0.078 C 
ATOM      2  C1' OXE d   1       3.692   1.870  -1.640  0.00  0.00     0.078 C 
ATOM      3  C1  OXE d   1       3.203   1.767  -0.216  0.00  0.00    -0.078 A 
ATOM      4  C2  OXE d   1       2.729   0.548   0.203  0.00  0.00    -0.078 A 
ATOM      5  C3  OXE d   1       2.318   0.385   1.522  0.00  0.00     0.003 A 
ATOM      6  C4  OXE d   1       2.239   1.487   2.382  0.00  0.00    -0.002 A 
ATOM      7  C5  OXE d   1       2.680   2.747   1.963  0.00  0.00    -0.002 A 
ATOM      8  C6  OXE d   1       3.204   2.894   0.683  0.00  0.00     0.003 A 
ENDROOT
TORSDOF 0
ENDMDL
