MODEL 1
REMARK minimizedAffinity 5.23200083
REMARK minimizedRMSD -1
REMARK  0 active torsions:
REMARK  status: ('A' for Active; 'I' for Inactive)
ROOT
ATOM      1  C2' OXE d   1       1.869   1.417   0.330  0.00  0.00     0.078 C 
ATOM      2  C1' OXE d   1       1.497   2.191   3.003  0.00  0.00     0.078 C 
ATOM      3  C1  OXE d   1       0.712   2.922   1.942  0.00  0.00    -0.078 A 
ATOM      4  C2  OXE d   1       0.935   2.568   0.633  0.00  0.00    -0.078 A 
ATOM      5  C3  OXE d   1       0.197   3.174  -0.380  0.00  0.00     0.003 A 
ATOM      6  C4  OXE d   1      -0.657   4.245  -0.092  0.00  0.00    -0.002 A 
ATOM      7  C5  OXE d   1      -0.869   4.648   1.231  0.00  0.00    -0.002 A 
ATOM      8  C6  OXE d   1      -0.226   3.970   2.261  0.00  0.00     0.003 A 
ENDROOT
TORSDOF 0
ENDMDL
