MODEL 1
REMARK minimizedAffinity -5.7109971
REMARK minimizedRMSD -1
REMARK  0 active torsions:
REMARK  status: ('A' for Active; 'I' for Inactive)
ROOT
ATOM      1  C2' OXE d   1       5.981  -1.127   1.378  0.00  0.00     0.078 C 
ATOM      2  C1' OXE d   1       3.202  -1.367   1.058  0.00  0.00     0.078 C 
ATOM      3  C1  OXE d   1       3.850  -0.074   0.631  0.00  0.00    -0.078 A 
ATOM      4  C2  OXE d   1       5.204   0.052   0.834  0.00  0.00    -0.078 A 
ATOM      5  C3  OXE d   1       5.860   1.204   0.409  0.00  0.00     0.003 A 
ATOM      6  C4  OXE d   1       5.132   2.294  -0.084  0.00  0.00    -0.002 A 
ATOM      7  C5  OXE d   1       3.748   2.201  -0.262  0.00  0.00    -0.002 A 
ATOM      8  C6  OXE d   1       3.099   1.011   0.050  0.00  0.00     0.003 A 
ENDROOT
TORSDOF 0
ENDMDL
