MODEL 1
REMARK minimizedAffinity 7.49454641
REMARK minimizedRMSD -1
REMARK  0 active torsions:
REMARK  status: ('A' for Active; 'I' for Inactive)
ROOT
ATOM      1  C2' OXE d   1       5.712   2.832   0.676  0.00  0.00     0.078 C 
ATOM      2  C1' OXE d   1       6.000   0.126   1.365  0.00  0.00     0.078 C 
ATOM      3  C1  OXE d   1       4.689   0.562   0.760  0.00  0.00    -0.078 A 
ATOM      4  C2  OXE d   1       4.540   1.897   0.469  0.00  0.00    -0.078 A 
ATOM      5  C3  OXE d   1       3.371   2.344  -0.141  0.00  0.00     0.003 A 
ATOM      6  C4  OXE d   1       2.288   1.475  -0.319  0.00  0.00    -0.002 A 
ATOM      7  C5  OXE d   1       2.405   0.119   0.007  0.00  0.00    -0.002 A 
ATOM      8  C6  OXE d   1       3.610  -0.361   0.507  0.00  0.00     0.003 A 
ENDROOT
TORSDOF 0
ENDMDL
