MODEL 1
REMARK minimizedAffinity 2.02077317
REMARK minimizedRMSD -1
REMARK  0 active torsions:
REMARK  status: ('A' for Active; 'I' for Inactive)
ROOT
ATOM      1  C2' OXE d   1       5.997   2.999   1.612  0.00  0.00     0.078 C 
ATOM      2  C1' OXE d   1       6.000   3.930  -1.036  0.00  0.00     0.078 C 
ATOM      3  C1  OXE d   1       5.065   2.798  -0.690  0.00  0.00    -0.078 A 
ATOM      4  C2  OXE d   1       5.104   2.318   0.597  0.00  0.00    -0.078 A 
ATOM      5  C3  OXE d   1       4.224   1.311   0.984  0.00  0.00     0.003 A 
ATOM      6  C4  OXE d   1       3.408   0.680   0.037  0.00  0.00    -0.002 A 
ATOM      7  C5  OXE d   1       3.382   1.127  -1.288  0.00  0.00    -0.002 A 
ATOM      8  C6  OXE d   1       4.172   2.211  -1.657  0.00  0.00     0.003 A 
ENDROOT
TORSDOF 0
ENDMDL
