MODEL 1
REMARK minimizedAffinity 1.943681
REMARK minimizedRMSD -1
REMARK  0 active torsions:
REMARK  status: ('A' for Active; 'I' for Inactive)
ROOT
ATOM      1  C2' OXE d   1      -1.896  -5.805   3.229  0.00  0.00     0.078 C 
ATOM      2  C1' OXE d   1      -1.488  -6.000   6.000  0.00  0.00     0.078 C 
ATOM      3  C1  OXE d   1      -0.903  -4.808   5.284  0.00  0.00    -0.078 A 
ATOM      4  C2  OXE d   1      -1.067  -4.745   3.922  0.00  0.00    -0.078 A 
ATOM      5  C3  OXE d   1      -0.594  -3.640   3.220  0.00  0.00     0.003 A 
ATOM      6  C4  OXE d   1       0.180  -2.669   3.867  0.00  0.00    -0.002 A 
ATOM      7  C5  OXE d   1       0.394  -2.735   5.248  0.00  0.00    -0.002 A 
ATOM      8  C6  OXE d   1      -0.175  -3.773   5.977  0.00  0.00     0.003 A 
ENDROOT
TORSDOF 0
ENDMDL
