MODEL 1
REMARK minimizedAffinity 8.67980576
REMARK minimizedRMSD -1
REMARK  0 active torsions:
REMARK  status: ('A' for Active; 'I' for Inactive)
ROOT
ATOM      1  C2' OXE d   1       4.579   2.399   2.031  0.00  0.00     0.078 C 
ATOM      2  C1' OXE d   1       5.162   2.840  -0.680  0.00  0.00     0.078 C 
ATOM      3  C1  OXE d   1       4.071   1.853  -0.347  0.00  0.00    -0.078 A 
ATOM      4  C2  OXE d   1       3.824   1.609   0.983  0.00  0.00    -0.078 A 
ATOM      5  C3  OXE d   1       2.792   0.748   1.345  0.00  0.00     0.003 A 
ATOM      6  C4  OXE d   1       2.106   0.014   0.370  0.00  0.00    -0.002 A 
ATOM      7  C5  OXE d   1       2.369   0.219  -0.988  0.00  0.00    -0.002 A 
ATOM      8  C6  OXE d   1       3.317   1.164  -1.364  0.00  0.00     0.003 A 
ENDROOT
TORSDOF 0
ENDMDL
