MODEL 1
REMARK minimizedAffinity 9.17196178
REMARK minimizedRMSD -1
REMARK  0 active torsions:
REMARK  status: ('A' for Active; 'I' for Inactive)
ROOT
ATOM      1  C4' PXY d   1      -2.268  -0.584  -0.867  0.00  0.00     0.077 C 
ATOM      2  C1' PXY d   1      -0.468  -5.181   2.141  0.00  0.00     0.077 C 
ATOM      3  C1  PXY d   1      -0.952  -3.976   1.358  0.00  0.00    -0.082 A 
ATOM      4  C2  PXY d   1      -0.364  -3.660   0.215  0.00  0.00     0.003 A 
ATOM      5  C3  PXY d   1      -0.768  -2.555  -0.489  0.00  0.00     0.003 A 
ATOM      6  C4  PXY d   1      -1.819  -1.797  -0.048  0.00  0.00    -0.082 A 
ATOM      7  C5  PXY d   1      -2.431  -2.120   1.111  0.00  0.00     0.003 A 
ATOM      8  C6  PXY d   1      -1.979  -3.222   1.833  0.00  0.00     0.003 A 
ENDROOT
TORSDOF 0
ENDMDL
