MODEL 1
REMARK minimizedAffinity 5.01007318
REMARK minimizedRMSD -1
REMARK  0 active torsions:
REMARK  status: ('A' for Active; 'I' for Inactive)
ROOT
ATOM      1  C4' PXY d   1      -1.780  -2.719  -2.682  0.00  0.00     0.077 C 
ATOM      2  C1' PXY d   1      -1.915  -1.983   3.050  0.00  0.00     0.077 C 
ATOM      3  C1  PXY d   1      -1.868  -2.182   1.547  0.00  0.00    -0.082 A 
ATOM      4  C2  PXY d   1      -2.564  -1.379   0.759  0.00  0.00     0.003 A 
ATOM      5  C3  PXY d   1      -2.558  -1.565  -0.599  0.00  0.00     0.003 A 
ATOM      6  C4  PXY d   1      -1.790  -2.550  -1.161  0.00  0.00    -0.082 A 
ATOM      7  C5  PXY d   1      -1.069  -3.366  -0.364  0.00  0.00     0.003 A 
ATOM      8  C6  PXY d   1      -1.120  -3.187   1.015  0.00  0.00     0.003 A 
ENDROOT
TORSDOF 0
ENDMDL
