MODEL 1
REMARK minimizedAffinity 7.94259501
REMARK minimizedRMSD -1
REMARK  0 active torsions:
REMARK  status: ('A' for Active; 'I' for Inactive)
ROOT
ATOM      1  C4' PXY d   1      -1.580  -0.613   3.484  0.00  0.00     0.077 C 
ATOM      2  C1' PXY d   1      -1.337  -4.579  -0.714  0.00  0.00     0.077 C 
ATOM      3  C1  PXY d   1      -1.408  -3.531   0.379  0.00  0.00    -0.082 A 
ATOM      4  C2  PXY d   1      -0.498  -3.526   1.340  0.00  0.00     0.003 A 
ATOM      5  C3  PXY d   1      -0.566  -2.606   2.354  0.00  0.00     0.003 A 
ATOM      6  C4  PXY d   1      -1.543  -1.647   2.355  0.00  0.00    -0.082 A 
ATOM      7  C5  PXY d   1      -2.468  -1.638   1.372  0.00  0.00     0.003 A 
ATOM      8  C6  PXY d   1      -2.407  -2.607   0.375  0.00  0.00     0.003 A 
ENDROOT
TORSDOF 0
ENDMDL
