MODEL 1
REMARK minimizedAffinity 3.69630527
REMARK minimizedRMSD -1
REMARK  0 active torsions:
REMARK  status: ('A' for Active; 'I' for Inactive)
ROOT
ATOM      1  C4' PXY d   1       0.069  -4.972   2.597  0.00  0.00     0.077 C 
ATOM      2  C1' PXY d   1      -2.577  -0.891  -0.527  0.00  0.00     0.077 C 
ATOM      3  C1  PXY d   1      -1.877  -1.952   0.299  0.00  0.00    -0.082 A 
ATOM      4  C2  PXY d   1      -1.717  -3.168  -0.198  0.00  0.00     0.003 A 
ATOM      5  C3  PXY d   1      -1.115  -4.148   0.548  0.00  0.00     0.003 A 
ATOM      6  C4  PXY d   1      -0.623  -3.866   1.795  0.00  0.00    -0.082 A 
ATOM      7  C5  PXY d   1      -0.773  -2.625   2.304  0.00  0.00     0.003 A 
ATOM      8  C6  PXY d   1      -1.424  -1.656   1.548  0.00  0.00     0.003 A 
ENDROOT
TORSDOF 0
ENDMDL
