MODEL 1
REMARK minimizedAffinity 5.94152069
REMARK minimizedRMSD -1
REMARK  0 active torsions:
REMARK  status: ('A' for Active; 'I' for Inactive)
ROOT
ATOM      1  C4' PXY d   1      -1.863  -2.402   4.228  0.00  0.00     0.077 C 
ATOM      2  C1' PXY d   1      -0.814  -1.643  -1.405  0.00  0.00     0.077 C 
ATOM      3  C1  PXY d   1      -1.087  -1.855   0.071  0.00  0.00    -0.082 A 
ATOM      4  C2  PXY d   1      -1.845  -0.991   0.726  0.00  0.00     0.003 A 
ATOM      5  C3  PXY d   1      -2.076  -1.150   2.068  0.00  0.00     0.003 A 
ATOM      6  C4  PXY d   1      -1.569  -2.233   2.735  0.00  0.00    -0.082 A 
ATOM      7  C5  PXY d   1      -0.803  -3.125   2.071  0.00  0.00     0.003 A 
ATOM      8  C6  PXY d   1      -0.546  -2.923   0.718  0.00  0.00     0.003 A 
ENDROOT
TORSDOF 0
ENDMDL
