MODEL 1
REMARK minimizedAffinity 14.8054953
REMARK minimizedRMSD -1
REMARK  0 active torsions:
REMARK  status: ('A' for Active; 'I' for Inactive)
ROOT
ATOM      1  C4' PXY d   1      -3.245   0.419  -0.555  0.00  0.00     0.077 C 
ATOM      2  C1' PXY d   1      -0.371  -4.176   1.456  0.00  0.00     0.077 C 
ATOM      3  C1  PXY d   1      -1.114  -2.967   0.922  0.00  0.00    -0.082 A 
ATOM      4  C2  PXY d   1      -2.190  -2.528   1.555  0.00  0.00     0.003 A 
ATOM      5  C3  PXY d   1      -2.892  -1.456   1.069  0.00  0.00     0.003 A 
ATOM      6  C4  PXY d   1      -2.458  -0.793  -0.048  0.00  0.00    -0.082 A 
ATOM      7  C5  PXY d   1      -1.355  -1.227  -0.693  0.00  0.00     0.003 A 
ATOM      8  C6  PXY d   1      -0.680  -2.343  -0.206  0.00  0.00     0.003 A 
ENDROOT
TORSDOF 0
ENDMDL
