MODEL 1
REMARK minimizedAffinity 3.28305101
REMARK minimizedRMSD -1
REMARK  0 active torsions:
REMARK  status: ('A' for Active; 'I' for Inactive)
ROOT
ATOM      1  C4' PXY d   1      -0.799  -2.064   2.446  0.00  0.00     0.077 C 
ATOM      2  C1' PXY d   1      -2.259  -2.599  -3.122  0.00  0.00     0.077 C 
ATOM      3  C1  PXY d   1      -1.875  -2.472  -1.661  0.00  0.00    -0.082 A 
ATOM      4  C2  PXY d   1      -2.244  -1.400  -0.978  0.00  0.00     0.003 A 
ATOM      5  C3  PXY d   1      -1.878  -1.254   0.335  0.00  0.00     0.003 A 
ATOM      6  C4  PXY d   1      -1.172  -2.240   0.971  0.00  0.00    -0.082 A 
ATOM      7  C5  PXY d   1      -0.801  -3.341   0.285  0.00  0.00     0.003 A 
ATOM      8  C6  PXY d   1      -1.147  -3.451  -1.059  0.00  0.00     0.003 A 
ENDROOT
TORSDOF 0
ENDMDL
