MODEL 1
REMARK minimizedAffinity 8.9652977
REMARK minimizedRMSD -1
REMARK  0 active torsions:
REMARK  status: ('A' for Active; 'I' for Inactive)
ROOT
ATOM      1  C4' PXY d   1      -1.805   1.392   1.782  0.00  0.00     0.077 C 
ATOM      2  C1' PXY d   1      -0.653  -4.272   1.820  0.00  0.00     0.077 C 
ATOM      3  C1  PXY d   1      -0.961  -2.788   1.821  0.00  0.00    -0.082 A 
ATOM      4  C2  PXY d   1      -1.042  -2.136   0.673  0.00  0.00     0.003 A 
ATOM      5  C3  PXY d   1      -1.289  -0.787   0.658  0.00  0.00     0.003 A 
ATOM      6  C4  PXY d   1      -1.506  -0.109   1.827  0.00  0.00    -0.082 A 
ATOM      7  C5  PXY d   1      -1.435  -0.769   3.002  0.00  0.00     0.003 A 
ATOM      8  C6  PXY d   1      -1.143  -2.130   2.999  0.00  0.00     0.003 A 
ENDROOT
TORSDOF 0
ENDMDL
