MODEL 1
REMARK minimizedAffinity 8.36701393
REMARK minimizedRMSD -1
REMARK  0 active torsions:
REMARK  status: ('A' for Active; 'I' for Inactive)
ROOT
ATOM      1  C4' PXY d   1      -1.442   0.712   4.036  0.00  0.00     0.077 C 
ATOM      2  C1' PXY d   1      -0.781  -4.049   0.825  0.00  0.00     0.077 C 
ATOM      3  C1  PXY d   1      -0.959  -2.808   1.677  0.00  0.00    -0.082 A 
ATOM      4  C2  PXY d   1      -1.161  -1.637   1.094  0.00  0.00     0.003 A 
ATOM      5  C3  PXY d   1      -1.291  -0.500   1.848  0.00  0.00     0.003 A 
ATOM      6  C4  PXY d   1      -1.268  -0.569   3.216  0.00  0.00    -0.082 A 
ATOM      7  C5  PXY d   1      -1.072  -1.761   3.818  0.00  0.00     0.003 A 
ATOM      8  C6  PXY d   1      -0.901  -2.898   3.033  0.00  0.00     0.003 A 
ENDROOT
TORSDOF 0
ENDMDL
