MODEL 1
REMARK minimizedAffinity 2.80862856
REMARK minimizedRMSD -1
REMARK  0 active torsions:
REMARK  status: ('A' for Active; 'I' for Inactive)
ROOT
ATOM      1  C4' PXY d   1      -0.759  -6.000   3.005  0.00  0.00     0.077 C 
ATOM      2  C1' PXY d   1      -1.565  -1.205  -0.122  0.00  0.00     0.077 C 
ATOM      3  C1  PXY d   1      -1.357  -2.470   0.688  0.00  0.00    -0.082 A 
ATOM      4  C2  PXY d   1      -1.447  -2.424   2.007  0.00  0.00     0.003 A 
ATOM      5  C3  PXY d   1      -1.230  -3.552   2.756  0.00  0.00     0.003 A 
ATOM      6  C4  PXY d   1      -0.971  -4.750   2.147  0.00  0.00    -0.082 A 
ATOM      7  C5  PXY d   1      -0.888  -4.807   0.800  0.00  0.00     0.003 A 
ATOM      8  C6  PXY d   1      -1.070  -3.643   0.060  0.00  0.00     0.003 A 
ENDROOT
TORSDOF 0
ENDMDL
