MODEL 1
REMARK minimizedAffinity 15.2073317
REMARK minimizedRMSD -1
REMARK  0 active torsions:
REMARK  status: ('A' for Active; 'I' for Inactive)
ROOT
ATOM      1  C4' PXY d   1       5.497   1.223  -3.334  0.00  0.00     0.077 C 
ATOM      2  C1' PXY d   1       0.123  -0.383  -1.933  0.00  0.00     0.077 C 
ATOM      3  C1  PXY d   1       1.528   0.050  -2.305  0.00  0.00    -0.082 A 
ATOM      4  C2  PXY d   1       2.440  -0.865  -2.590  0.00  0.00     0.003 A 
ATOM      5  C3  PXY d   1       3.724  -0.492  -2.897  0.00  0.00     0.003 A 
ATOM      6  C4  PXY d   1       4.064   0.832  -2.963  0.00  0.00    -0.082 A 
ATOM      7  C5  PXY d   1       3.136   1.772  -2.684  0.00  0.00     0.003 A 
ATOM      8  C6  PXY d   1       1.849   1.372  -2.335  0.00  0.00     0.003 A 
ENDROOT
TORSDOF 0
ENDMDL
