MODEL 1
REMARK minimizedAffinity 13.9306383
REMARK minimizedRMSD -1
REMARK  0 active torsions:
REMARK  status: ('A' for Active; 'I' for Inactive)
ROOT
ATOM      1  C4' PXY d   1       0.220  -4.253   1.868  0.00  0.00     0.077 C 
ATOM      2  C1' PXY d   1      -3.891  -0.437   0.471  0.00  0.00     0.077 C 
ATOM      3  C1  PXY d   1      -2.812  -1.441   0.825  0.00  0.00    -0.082 A 
ATOM      4  C2  PXY d   1      -2.747  -1.926   2.054  0.00  0.00     0.003 A 
ATOM      5  C3  PXY d   1      -1.758  -2.810   2.400  0.00  0.00     0.003 A 
ATOM      6  C4  PXY d   1      -0.858  -3.244   1.464  0.00  0.00    -0.082 A 
ATOM      7  C5  PXY d   1      -0.925  -2.763   0.204  0.00  0.00     0.003 A 
ATOM      8  C6  PXY d   1      -1.911  -1.835  -0.116  0.00  0.00     0.003 A 
ENDROOT
TORSDOF 0
ENDMDL
