MODEL 1
REMARK minimizedAffinity 10.5558004
REMARK minimizedRMSD -1
REMARK  0 active torsions:
REMARK  status: ('A' for Active; 'I' for Inactive)
ROOT
ATOM      1  C4' PXY d   1      -3.661  -0.100   0.622  0.00  0.00     0.077 C 
ATOM      2  C1' PXY d   1       0.666  -3.688   1.973  0.00  0.00     0.077 C 
ATOM      3  C1  PXY d   1      -0.474  -2.748   1.630  0.00  0.00    -0.082 A 
ATOM      4  C2  PXY d   1      -0.835  -2.591   0.367  0.00  0.00     0.003 A 
ATOM      5  C3  PXY d   1      -1.842  -1.721   0.037  0.00  0.00     0.003 A 
ATOM      6  C4  PXY d   1      -2.522  -1.046   1.015  0.00  0.00    -0.082 A 
ATOM      7  C5  PXY d   1      -2.167  -1.209   2.307  0.00  0.00     0.003 A 
ATOM      8  C6  PXY d   1      -1.115  -2.065   2.617  0.00  0.00     0.003 A 
ENDROOT
TORSDOF 0
ENDMDL
