MODEL 1
REMARK minimizedAffinity -0.0934035033
REMARK minimizedRMSD -1
REMARK  0 active torsions:
REMARK  status: ('A' for Active; 'I' for Inactive)
ROOT
ATOM      1  C4' PXY d   1      -2.336  -2.617  -2.583  0.00  0.00     0.077 C 
ATOM      2  C1' PXY d   1      -0.475  -2.940   2.880  0.00  0.00     0.077 C 
ATOM      3  C1  PXY d   1      -0.957  -2.867   1.444  0.00  0.00    -0.082 A 
ATOM      4  C2  PXY d   1      -1.256  -1.692   0.914  0.00  0.00     0.003 A 
ATOM      5  C3  PXY d   1      -1.724  -1.611  -0.372  0.00  0.00     0.003 A 
ATOM      6  C4  PXY d   1      -1.837  -2.738  -1.141  0.00  0.00    -0.082 A 
ATOM      7  C5  PXY d   1      -1.523  -3.939  -0.611  0.00  0.00     0.003 A 
ATOM      8  C6  PXY d   1      -1.089  -4.005   0.710  0.00  0.00     0.003 A 
ENDROOT
TORSDOF 0
ENDMDL
