MODEL 1
REMARK minimizedAffinity 9.03530025
REMARK minimizedRMSD -1
REMARK  0 active torsions:
REMARK  status: ('A' for Active; 'I' for Inactive)
ROOT
ATOM      1  C4' PXY d   1      -1.039  -0.736   3.401  0.00  0.00     0.077 C 
ATOM      2  C1' PXY d   1      -0.772  -4.672  -0.824  0.00  0.00     0.077 C 
ATOM      3  C1  PXY d   1      -0.840  -3.630   0.275  0.00  0.00    -0.082 A 
ATOM      4  C2  PXY d   1      -0.616  -3.988   1.530  0.00  0.00     0.003 A 
ATOM      5  C3  PXY d   1      -0.704  -3.065   2.540  0.00  0.00     0.003 A 
ATOM      6  C4  PXY d   1      -0.972  -1.752   2.258  0.00  0.00    -0.082 A 
ATOM      7  C5  PXY d   1      -1.191  -1.378   0.980  0.00  0.00     0.003 A 
ATOM      8  C6  PXY d   1      -1.137  -2.338  -0.027  0.00  0.00     0.003 A 
ENDROOT
TORSDOF 0
ENDMDL
