MODEL 1
REMARK minimizedAffinity 4.0155921
REMARK minimizedRMSD -1
REMARK  0 active torsions:
REMARK  status: ('A' for Active; 'I' for Inactive)
ROOT
ATOM      1  C4' PXY d   1      -3.114  -6.000   2.029  0.00  0.00     0.077 C 
ATOM      2  C1' PXY d   1      -0.790  -1.720  -1.085  0.00  0.00     0.077 C 
ATOM      3  C1  PXY d   1      -1.395  -2.851  -0.277  0.00  0.00    -0.082 A 
ATOM      4  C2  PXY d   1      -2.433  -2.612   0.508  0.00  0.00     0.003 A 
ATOM      5  C3  PXY d   1      -2.972  -3.616   1.270  0.00  0.00     0.003 A 
ATOM      6  C4  PXY d   1      -2.477  -4.890   1.188  0.00  0.00    -0.082 A 
ATOM      7  C5  PXY d   1      -1.425  -5.144   0.382  0.00  0.00     0.003 A 
ATOM      8  C6  PXY d   1      -0.866  -4.102  -0.352  0.00  0.00     0.003 A 
ENDROOT
TORSDOF 0
ENDMDL
