MODEL 1
REMARK minimizedAffinity 8.50781918
REMARK minimizedRMSD -1
REMARK  0 active torsions:
REMARK  status: ('A' for Active; 'I' for Inactive)
ROOT
ATOM      1  C4' PXY d   1      -1.185   0.906   2.624  0.00  0.00     0.077 C 
ATOM      2  C1' PXY d   1      -1.398  -4.750   1.448  0.00  0.00     0.077 C 
ATOM      3  C1  PXY d   1      -1.335  -3.264   1.745  0.00  0.00    -0.082 A 
ATOM      4  C2  PXY d   1      -1.442  -2.843   2.994  0.00  0.00     0.003 A 
ATOM      5  C3  PXY d   1      -1.420  -1.501   3.278  0.00  0.00     0.003 A 
ATOM      6  C4  PXY d   1      -1.233  -0.585   2.278  0.00  0.00    -0.082 A 
ATOM      7  C5  PXY d   1      -1.113  -1.008   1.002  0.00  0.00     0.003 A 
ATOM      8  C6  PXY d   1      -1.179  -2.372   0.730  0.00  0.00     0.003 A 
ENDROOT
TORSDOF 0
ENDMDL
