MODEL 1
REMARK minimizedAffinity 1.85609651
REMARK minimizedRMSD -1
REMARK  0 active torsions:
REMARK  status: ('A' for Active; 'I' for Inactive)
ROOT
ATOM      1  C4' PXY d   1      -0.587  -3.346   2.222  0.00  0.00     0.077 C 
ATOM      2  C1' PXY d   1      -2.549  -2.047  -3.058  0.00  0.00     0.077 C 
ATOM      3  C1  PXY d   1      -2.035  -2.375  -1.670  0.00  0.00    -0.082 A 
ATOM      4  C2  PXY d   1      -1.316  -3.469  -1.481  0.00  0.00     0.003 A 
ATOM      5  C3  PXY d   1      -0.871  -3.798  -0.226  0.00  0.00     0.003 A 
ATOM      6  C4  PXY d   1      -1.118  -2.970   0.836  0.00  0.00    -0.082 A 
ATOM      7  C5  PXY d   1      -1.842  -1.846   0.648  0.00  0.00     0.003 A 
ATOM      8  C6  PXY d   1      -2.320  -1.551  -0.625  0.00  0.00     0.003 A 
ENDROOT
TORSDOF 0
ENDMDL
