MODEL 1
REMARK minimizedAffinity 10.1306677
REMARK minimizedRMSD -1
REMARK  0 active torsions:
REMARK  status: ('A' for Active; 'I' for Inactive)
ROOT
ATOM      1  C4' PXY d   1       4.570   2.411   4.869  0.00  0.00     0.077 C 
ATOM      2  C1' PXY d   1       3.304   1.720  -0.728  0.00  0.00     0.077 C 
ATOM      3  C1  PXY d   1       3.646   1.893   0.738  0.00  0.00    -0.082 A 
ATOM      4  C2  PXY d   1       2.694   2.214   1.599  0.00  0.00     0.003 A 
ATOM      5  C3  PXY d   1       2.992   2.406   2.923  0.00  0.00     0.003 A 
ATOM      6  C4  PXY d   1       4.268   2.216   3.381  0.00  0.00    -0.082 A 
ATOM      7  C5  PXY d   1       5.244   1.879   2.511  0.00  0.00     0.003 A 
ATOM      8  C6  PXY d   1       4.928   1.729   1.163  0.00  0.00     0.003 A 
ENDROOT
TORSDOF 0
ENDMDL
