MODEL 1
REMARK minimizedAffinity 1.28344524
REMARK minimizedRMSD -1
REMARK  0 active torsions:
REMARK  status: ('A' for Active; 'I' for Inactive)
ROOT
ATOM      1  C4' PXY d   1      -2.425  -2.084   5.826  0.00  0.00     0.077 C 
ATOM      2  C1' PXY d   1      -5.926   2.513   5.990  0.00  0.00     0.077 C 
ATOM      3  C1  PXY d   1      -5.017   1.300   5.953  0.00  0.00    -0.082 A 
ATOM      4  C2  PXY d   1      -3.707   1.467   5.867  0.00  0.00     0.003 A 
ATOM      5  C3  PXY d   1      -2.873   0.381   5.800  0.00  0.00     0.003 A 
ATOM      6  C4  PXY d   1      -3.380  -0.888   5.876  0.00  0.00    -0.082 A 
ATOM      7  C5  PXY d   1      -4.715  -1.067   5.975  0.00  0.00     0.003 A 
ATOM      8  C6  PXY d   1      -5.548   0.048   6.000  0.00  0.00     0.003 A 
ENDROOT
TORSDOF 0
ENDMDL
