MODEL 1
REMARK minimizedAffinity 0.429314792
REMARK minimizedRMSD -1
REMARK  0 active torsions:
REMARK  status: ('A' for Active; 'I' for Inactive)
ROOT
ATOM      1  O1  BZF d   1       1.237  -1.022   0.957  0.00  0.00    -0.204 OA
ATOM      2  C2  BZF d   1       1.436  -1.033   2.325  0.00  0.00     0.174 A 
ATOM      3  C3  BZF d   1       0.309  -0.677   2.974  0.00  0.00    -0.012 A 
ATOM      4  C3A BZF d   1      -0.680  -0.518   1.953  0.00  0.00    -0.107 A 
ATOM      5  C4  BZF d   1      -2.005  -0.187   1.972  0.00  0.00     0.055 A 
ATOM      6  C5  BZF d   1      -2.668  -0.045   0.794  0.00  0.00    -0.016 A 
ATOM      7  C6  BZF d   1      -2.037  -0.222  -0.420  0.00  0.00     0.022 A 
ATOM      8  C7  BZF d   1      -0.725  -0.556  -0.489  0.00  0.00     0.029 A 
ATOM      9  C7A BZF d   1      -0.061  -0.732   0.700  0.00  0.00     0.058 A 
ENDROOT
TORSDOF 0
ENDMDL
