MODEL 1
REMARK minimizedAffinity -2.05234146
REMARK minimizedRMSD -1
REMARK  0 active torsions:
REMARK  status: ('A' for Active; 'I' for Inactive)
ROOT
ATOM      1  O1  BZF d   1       2.222  -1.367   2.987  0.00  0.00    -0.204 OA
ATOM      2  C2  BZF d   1       1.930  -1.483   4.333  0.00  0.00     0.174 A 
ATOM      3  C3  BZF d   1       0.726  -0.941   4.610  0.00  0.00    -0.012 A 
ATOM      4  C3A BZF d   1       0.195  -0.538   3.344  0.00  0.00    -0.107 A 
ATOM      5  C4  BZF d   1      -0.977   0.050   2.962  0.00  0.00     0.055 A 
ATOM      6  C5  BZF d   1      -1.156   0.379   1.656  0.00  0.00    -0.016 A 
ATOM      7  C6  BZF d   1      -0.184   0.138   0.707  0.00  0.00     0.022 A 
ATOM      8  C7  BZF d   1       0.993  -0.447   1.037  0.00  0.00     0.029 A 
ATOM      9  C7A BZF d   1       1.163  -0.811   2.350  0.00  0.00     0.058 A 
ENDROOT
TORSDOF 0
ENDMDL
