MODEL 1
REMARK minimizedAffinity -0.912426174
REMARK minimizedRMSD -1
REMARK  0 active torsions:
REMARK  status: ('A' for Active; 'I' for Inactive)
ROOT
ATOM      1  O1  BZF d   1       1.659  -1.250   2.655  0.00  0.00    -0.204 OA
ATOM      2  C2  BZF d   1       1.537  -1.583   3.990  0.00  0.00     0.174 A 
ATOM      3  C3  BZF d   1       0.273  -1.387   4.418  0.00  0.00    -0.012 A 
ATOM      4  C3A BZF d   1      -0.461  -0.990   3.256  0.00  0.00    -0.107 A 
ATOM      5  C4  BZF d   1      -1.770  -0.670   3.036  0.00  0.00     0.055 A 
ATOM      6  C5  BZF d   1      -2.150  -0.254   1.799  0.00  0.00    -0.016 A 
ATOM      7  C6  BZF d   1      -1.247  -0.142   0.762  0.00  0.00     0.022 A 
ATOM      8  C7  BZF d   1       0.061  -0.453   0.931  0.00  0.00     0.029 A 
ATOM      9  C7A BZF d   1       0.442  -0.905   2.171  0.00  0.00     0.058 A 
ENDROOT
TORSDOF 0
ENDMDL
