MODEL 1
REMARK minimizedAffinity 8.8419342
REMARK minimizedRMSD -1
REMARK  0 active torsions:
REMARK  status: ('A' for Active; 'I' for Inactive)
ROOT
ATOM      1  O1  BZF d   1      -2.893  -2.014  -0.648  0.00  0.00    -0.204 OA
ATOM      2  C2  BZF d   1      -2.129  -1.090  -1.335  0.00  0.00     0.174 A 
ATOM      3  C3  BZF d   1      -1.771  -0.071  -0.528  0.00  0.00    -0.012 A 
ATOM      4  C3A BZF d   1      -2.269  -0.423   0.766  0.00  0.00    -0.107 A 
ATOM      5  C4  BZF d   1      -2.215   0.183   1.989  0.00  0.00     0.055 A 
ATOM      6  C5  BZF d   1      -2.865  -0.387   3.037  0.00  0.00    -0.016 A 
ATOM      7  C6  BZF d   1      -3.581  -1.558   2.898  0.00  0.00     0.022 A 
ATOM      8  C7  BZF d   1      -3.659  -2.198   1.706  0.00  0.00     0.029 A 
ATOM      9  C7A BZF d   1      -2.976  -1.642   0.652  0.00  0.00     0.058 A 
ENDROOT
TORSDOF 0
ENDMDL
