MODEL 1
REMARK minimizedAffinity 3.28687119
REMARK minimizedRMSD -1
REMARK  0 active torsions:
REMARK  status: ('A' for Active; 'I' for Inactive)
ROOT
ATOM      1  O1  BZF d   1      -4.077   0.979   0.839  0.00  0.00    -0.204 OA
ATOM      2  C2  BZF d   1      -4.600   0.738  -0.417  0.00  0.00     0.174 A 
ATOM      3  C3  BZF d   1      -3.671   0.187  -1.224  0.00  0.00    -0.012 A 
ATOM      4  C3A BZF d   1      -2.521  -0.009  -0.395  0.00  0.00    -0.107 A 
ATOM      5  C4  BZF d   1      -1.280  -0.534  -0.620  0.00  0.00     0.055 A 
ATOM      6  C5  BZF d   1      -0.363  -0.513   0.383  0.00  0.00    -0.016 A 
ATOM      7  C6  BZF d   1      -0.650   0.030   1.618  0.00  0.00     0.022 A 
ATOM      8  C7  BZF d   1      -1.868   0.558   1.889  0.00  0.00     0.029 A 
ATOM      9  C7A BZF d   1      -2.808   0.508   0.889  0.00  0.00     0.058 A 
ENDROOT
TORSDOF 0
ENDMDL
