MODEL 1
REMARK minimizedAffinity 0.582359374
REMARK minimizedRMSD -1
REMARK  0 active torsions:
REMARK  status: ('A' for Active; 'I' for Inactive)
ROOT
ATOM      1  O1  BZF d   1       1.002  -0.755   1.440  0.00  0.00    -0.204 OA
ATOM      2  C2  BZF d   1       1.096  -0.936   2.806  0.00  0.00     0.174 A 
ATOM      3  C3  BZF d   1      -0.089  -0.693   3.403  0.00  0.00    -0.012 A 
ATOM      4  C3A BZF d   1      -1.002  -0.428   2.333  0.00  0.00    -0.107 A 
ATOM      5  C4  BZF d   1      -2.335  -0.134   2.288  0.00  0.00     0.055 A 
ATOM      6  C5  BZF d   1      -2.909   0.142   1.087  0.00  0.00    -0.016 A 
ATOM      7  C6  BZF d   1      -2.181   0.137  -0.084  0.00  0.00     0.022 A 
ATOM      8  C7  BZF d   1      -0.857  -0.154  -0.090  0.00  0.00     0.029 A 
ATOM      9  C7A BZF d   1      -0.281  -0.465   1.117  0.00  0.00     0.058 A 
ENDROOT
TORSDOF 0
ENDMDL
