MODEL 1
REMARK minimizedAffinity 6.06073713
REMARK minimizedRMSD -1
REMARK  0 active torsions:
REMARK  status: ('A' for Active; 'I' for Inactive)
ROOT
ATOM      1  C   UNL d   1       5.307  -5.389  -2.742  0.00  0.00    -0.002 A 
ATOM      2  C1  UNL d   1       6.000  -6.000  -1.706  0.00  0.00     0.010 A 
ATOM      3  C2  UNL d   1       5.655  -5.750  -0.376  0.00  0.00     0.041 A 
ATOM      4  C3  UNL d   1       4.590  -4.870  -0.103  0.00  0.00    -0.075 A 
ATOM      5  S   UNL d   1       3.989  -4.415   1.448  0.00  0.00     0.015 SA
ATOM      6  C4  UNL d   1       2.799  -3.400   0.772  0.00  0.00     0.022 A 
ATOM      7  C5  UNL d   1       2.844  -3.396  -0.602  0.00  0.00     0.026 A 
ATOM      8  C6  UNL d   1       3.876  -4.243  -1.129  0.00  0.00    -0.082 A 
ATOM      9  C7  UNL d   1       4.251  -4.516  -2.466  0.00  0.00     0.045 A 
ENDROOT
TORSDOF 0
ENDMDL
