MODEL 1
REMARK minimizedAffinity 16.1641369
REMARK minimizedRMSD -1
REMARK  0 active torsions:
REMARK  status: ('A' for Active; 'I' for Inactive)
ROOT
ATOM      1  C   UNL d   1       5.101  -4.338   1.494  0.00  0.00    -0.002 A 
ATOM      2  C1  UNL d   1       4.544  -5.467   2.076  0.00  0.00     0.010 A 
ATOM      3  C2  UNL d   1       4.471  -5.588   3.466  0.00  0.00     0.041 A 
ATOM      4  C3  UNL d   1       4.970  -4.543   4.268  0.00  0.00    -0.075 A 
ATOM      5  S   UNL d   1       4.986  -4.471   5.990  0.00  0.00     0.015 SA
ATOM      6  C4  UNL d   1       5.732  -2.939   5.994  0.00  0.00     0.022 A 
ATOM      7  C5  UNL d   1       5.970  -2.478   4.721  0.00  0.00     0.026 A 
ATOM      8  C6  UNL d   1       5.535  -3.395   3.705  0.00  0.00    -0.082 A 
ATOM      9  C7  UNL d   1       5.596  -3.303   2.293  0.00  0.00     0.045 A 
ENDROOT
TORSDOF 0
ENDMDL
