MODEL 1
REMARK minimizedAffinity 7.33213043
REMARK minimizedRMSD -1
REMARK  0 active torsions:
REMARK  status: ('A' for Active; 'I' for Inactive)
ROOT
ATOM      1  C   UNL d   1       1.310   2.637  -5.973  0.00  0.00    -0.002 A 
ATOM      2  C1  UNL d   1       2.387   1.764  -5.936  0.00  0.00     0.010 A 
ATOM      3  C2  UNL d   1       3.696   2.250  -5.913  0.00  0.00     0.041 A 
ATOM      4  C3  UNL d   1       3.905   3.643  -5.926  0.00  0.00    -0.075 A 
ATOM      5  S   UNL d   1       5.420   4.467  -5.902  0.00  0.00     0.015 SA
ATOM      6  C4  UNL d   1       4.672   5.998  -5.939  0.00  0.00     0.022 A 
ATOM      7  C5  UNL d   1       3.301   5.902  -5.970  0.00  0.00     0.026 A 
ATOM      8  C6  UNL d   1       2.836   4.543  -5.962  0.00  0.00    -0.082 A 
ATOM      9  C7  UNL d   1       1.522   4.019  -5.986  0.00  0.00     0.045 A 
ENDROOT
TORSDOF 0
ENDMDL
