MODEL 1
REMARK minimizedAffinity 10.6912012
REMARK minimizedRMSD -1
REMARK  0 active torsions:
REMARK  status: ('A' for Active; 'I' for Inactive)
ROOT
ATOM      1  C   UNL d   1      -5.523  -1.894  -4.492  0.00  0.00    -0.002 A 
ATOM      2  C1  UNL d   1      -5.999  -0.623  -4.783  0.00  0.00     0.010 A 
ATOM      3  C2  UNL d   1      -5.482   0.496  -4.128  0.00  0.00     0.041 A 
ATOM      4  C3  UNL d   1      -4.467   0.315  -3.167  0.00  0.00    -0.075 A 
ATOM      5  S   UNL d   1      -3.684   1.539  -2.240  0.00  0.00     0.015 SA
ATOM      6  C4  UNL d   1      -2.698   0.404  -1.436  0.00  0.00     0.022 A 
ATOM      7  C5  UNL d   1      -2.948  -0.882  -1.852  0.00  0.00     0.026 A 
ATOM      8  C6  UNL d   1      -3.971  -0.954  -2.857  0.00  0.00    -0.082 A 
ATOM      9  C7  UNL d   1      -4.517  -2.069  -3.538  0.00  0.00     0.045 A 
ENDROOT
TORSDOF 0
ENDMDL
