MODEL 1
REMARK minimizedAffinity -0.890084147
REMARK minimizedRMSD -1
REMARK  3 active torsions:
REMARK  status: ('A' for Active; 'I' for Inactive)
REMARK    1  A    between atoms: C3'_2  and  C2'_3 
REMARK    2  A    between atoms: C2'_3  and  C1'_4 
REMARK    3  A    between atoms: C1'_4  and  C1_5 
ROOT
ATOM      1  C1  N4B d   1      -1.279  -1.514  -0.978  0.00  0.00    -0.075 A 
ATOM      2  C2  N4B d   1      -1.400  -2.827  -1.483  0.00  0.00     0.002 A 
ATOM      3  C3  N4B d   1      -2.533  -3.559  -1.228  0.00  0.00     0.002 A 
ATOM      4  C4  N4B d   1      -3.547  -3.008  -0.458  0.00  0.00    -0.004 A 
ATOM      5  C5  N4B d   1      -3.433  -1.730   0.005  0.00  0.00     0.002 A 
ATOM      6  C6  N4B d   1      -2.301  -0.981  -0.247  0.00  0.00     0.002 A 
ENDROOT
BRANCH   1   7
ATOM      7  C1' N4B d   1      -0.023  -0.706  -1.158  0.00  0.00     0.057 C 
BRANCH   7   8
ATOM      8  C2' N4B d   1      -0.109   0.552  -0.299  0.00  0.00     0.009 C 
BRANCH   8   9
ATOM      9  C3' N4B d   1       0.609   0.384   1.029  0.00  0.00     0.004 C 
ATOM     10  C4' N4B d   1       1.821  -0.493   0.927  0.00  0.00     0.003 C 
ENDBRANCH   8   9
ENDBRANCH   7   8
ENDBRANCH   1   7
TORSDOF 3
ENDMDL
