MODEL 1
REMARK minimizedAffinity -4.03876019
REMARK minimizedRMSD -1
REMARK  3 active torsions:
REMARK  status: ('A' for Active; 'I' for Inactive)
REMARK    1  A    between atoms: C3'_2  and  C2'_3 
REMARK    2  A    between atoms: C2'_3  and  C1'_4 
REMARK    3  A    between atoms: C1'_4  and  C1_5 
ROOT
ATOM      1  C1  N4B d   1       0.735  -0.212  -3.073  0.00  0.00    -0.075 A 
ATOM      2  C2  N4B d   1      -0.009  -0.883  -4.068  0.00  0.00     0.002 A 
ATOM      3  C3  N4B d   1      -0.057  -0.380  -5.345  0.00  0.00     0.002 A 
ATOM      4  C4  N4B d   1       0.612   0.797  -5.645  0.00  0.00    -0.004 A 
ATOM      5  C5  N4B d   1       1.349   1.426  -4.684  0.00  0.00     0.002 A 
ATOM      6  C6  N4B d   1       1.410   0.930  -3.397  0.00  0.00     0.002 A 
ENDROOT
BRANCH   1   7
ATOM      7  C1' N4B d   1       0.747  -0.676  -1.642  0.00  0.00     0.057 C 
BRANCH   7   8
ATOM      8  C2' N4B d   1       0.044   0.362  -0.773  0.00  0.00     0.009 C 
BRANCH   8   9
ATOM      9  C3' N4B d   1       0.316   0.143   0.706  0.00  0.00     0.004 C 
ATOM     10  C4' N4B d   1       1.543  -0.682   0.955  0.00  0.00     0.003 C 
ENDBRANCH   8   9
ENDBRANCH   7   8
ENDBRANCH   1   7
TORSDOF 3
ENDMDL
