MODEL 1
REMARK minimizedAffinity 1.71523547
REMARK minimizedRMSD -1
REMARK  3 active torsions:
REMARK  status: ('A' for Active; 'I' for Inactive)
REMARK    1  A    between atoms: C3'_2  and  C2'_3 
REMARK    2  A    between atoms: C2'_3  and  C1'_4 
REMARK    3  A    between atoms: C1'_4  and  C1_5 
ROOT
ATOM      1  C1  N4B d   1       0.745  -0.075  -1.077  0.00  0.00    -0.075 A 
ATOM      2  C2  N4B d   1       1.629  -0.722  -0.186  0.00  0.00     0.002 A 
ATOM      3  C3  N4B d   1       1.657  -0.358   1.138  0.00  0.00     0.002 A 
ATOM      4  C4  N4B d   1       0.827   0.658   1.588  0.00  0.00    -0.004 A 
ATOM      5  C5  N4B d   1      -0.043   1.259   0.726  0.00  0.00     0.002 A 
ATOM      6  C6  N4B d   1      -0.084   0.901  -0.606  0.00  0.00     0.002 A 
ENDROOT
BRANCH   1   7
ATOM      7  C1' N4B d   1       0.739  -0.379  -2.550  0.00  0.00     0.057 C 
BRANCH   7   8
ATOM      8  C2' N4B d   1       1.928   0.314  -3.209  0.00  0.00     0.009 C 
BRANCH   8   9
ATOM      9  C3' N4B d   1       1.489   1.410  -4.164  0.00  0.00     0.004 C 
ATOM     10  C4' N4B d   1       0.349   0.991  -5.044  0.00  0.00     0.003 C 
ENDBRANCH   8   9
ENDBRANCH   7   8
ENDBRANCH   1   7
TORSDOF 3
ENDMDL
