MODEL 1
REMARK minimizedAffinity -4.67118311
REMARK minimizedRMSD -1
REMARK  3 active torsions:
REMARK  status: ('A' for Active; 'I' for Inactive)
REMARK    1  A    between atoms: C3'_2  and  C2'_3 
REMARK    2  A    between atoms: C2'_3  and  C1'_4 
REMARK    3  A    between atoms: C1'_4  and  C1_5 
ROOT
ATOM      1  C1  N4B d   1       0.257  -0.394  -0.175  0.00  0.00    -0.075 A 
ATOM      2  C2  N4B d   1      -0.097   0.886   0.306  0.00  0.00     0.002 A 
ATOM      3  C3  N4B d   1       0.628   1.463   1.320  0.00  0.00     0.002 A 
ATOM      4  C4  N4B d   1       1.695   0.775   1.878  0.00  0.00    -0.004 A 
ATOM      5  C5  N4B d   1       2.046  -0.449   1.391  0.00  0.00     0.002 A 
ATOM      6  C6  N4B d   1       1.329  -1.040   0.370  0.00  0.00     0.002 A 
ENDROOT
BRANCH   1   7
ATOM      7  C1' N4B d   1      -0.557  -1.103  -1.222  0.00  0.00     0.057 C 
BRANCH   7   8
ATOM      8  C2' N4B d   1      -1.959  -1.359  -0.677  0.00  0.00     0.009 C 
BRANCH   8   9
ATOM      9  C3' N4B d   1      -2.487  -2.723  -1.087  0.00  0.00     0.004 C 
ATOM     10  C4' N4B d   1      -3.970  -2.729  -1.313  0.00  0.00     0.003 C 
ENDBRANCH   8   9
ENDBRANCH   7   8
ENDBRANCH   1   7
TORSDOF 3
ENDMDL
