MODEL 1
REMARK minimizedAffinity 2.13164759
REMARK minimizedRMSD -1
REMARK  3 active torsions:
REMARK  status: ('A' for Active; 'I' for Inactive)
REMARK    1  A    between atoms: C3'_2  and  C2'_3 
REMARK    2  A    between atoms: C2'_3  and  C1'_4 
REMARK    3  A    between atoms: C1'_4  and  C1_5 
ROOT
ATOM      1  C1  N4B d   1      -0.213   0.321   1.904  0.00  0.00    -0.075 A 
ATOM      2  C2  N4B d   1       1.100   0.028   2.334  0.00  0.00     0.002 A 
ATOM      3  C3  N4B d   1       2.041  -0.394   1.428  0.00  0.00     0.002 A 
ATOM      4  C4  N4B d   1       1.689  -0.549   0.095  0.00  0.00    -0.004 A 
ATOM      5  C5  N4B d   1       0.426  -0.240  -0.317  0.00  0.00     0.002 A 
ATOM      6  C6  N4B d   1      -0.529   0.190   0.583  0.00  0.00     0.002 A 
ENDROOT
BRANCH   1   7
ATOM      7  C1' N4B d   1      -1.299   0.703   2.872  0.00  0.00     0.057 C 
BRANCH   7   8
ATOM      8  C2' N4B d   1      -2.523  -0.174   2.625  0.00  0.00     0.009 C 
BRANCH   8   9
ATOM      9  C3' N4B d   1      -2.796  -1.109   3.790  0.00  0.00     0.004 C 
ATOM     10  C4' N4B d   1      -1.771  -2.196   3.917  0.00  0.00     0.003 C 
ENDBRANCH   8   9
ENDBRANCH   7   8
ENDBRANCH   1   7
TORSDOF 3
ENDMDL
