MODEL 1
REMARK minimizedAffinity 20.5940151
REMARK minimizedRMSD -1
REMARK  0 active torsions:
REMARK  status: ('A' for Active; 'I' for Inactive)
ROOT
ATOM      1  C1  DEN d   1       5.302   1.869  -0.553  0.00  0.00     0.130 A 
ATOM      2  C2  DEN d   1       5.037   1.822  -1.989  0.00  0.00    -0.031 A 
ATOM      3  C3  DEN d   1       3.877   0.935  -2.210  0.00  0.00     0.027 A 
ATOM      4  C4  DEN d   1       2.470  -0.358  -0.478  0.00  0.00     0.027 A 
ATOM      5  C5  DEN d   1       2.320  -0.640   0.862  0.00  0.00    -0.003 A 
ATOM      6  C6  DEN d   1       3.168  -0.136   1.813  0.00  0.00     0.001 A 
ATOM      7  C7  DEN d   1       4.177   0.713   1.442  0.00  0.00     0.017 A 
ATOM      8  C8  DEN d   1       4.339   0.995   0.092  0.00  0.00    -0.094 A 
ATOM      9  C9  DEN d   1       3.464   0.486  -0.853  0.00  0.00    -0.072 A 
ENDROOT
TORSDOF 0
ENDMDL
