MODEL 1
REMARK minimizedAffinity 7.48873091
REMARK minimizedRMSD -1
REMARK  0 active torsions:
REMARK  status: ('A' for Active; 'I' for Inactive)
ROOT
ATOM      1  C1  DEN d   1       2.578  -0.043  -0.764  0.00  0.00     0.130 A 
ATOM      2  C2  DEN d   1       2.563  -0.359   0.662  0.00  0.00    -0.031 A 
ATOM      3  C3  DEN d   1       3.734   0.290   1.285  0.00  0.00     0.027 A 
ATOM      4  C4  DEN d   1       5.555   1.750   0.189  0.00  0.00     0.027 A 
ATOM      5  C5  DEN d   1       5.998   2.288  -0.999  0.00  0.00    -0.003 A 
ATOM      6  C6  DEN d   1       5.356   2.061  -2.188  0.00  0.00     0.001 A 
ATOM      7  C7  DEN d   1       4.210   1.312  -2.208  0.00  0.00     0.017 A 
ATOM      8  C8  DEN d   1       3.761   0.760  -1.015  0.00  0.00    -0.094 A 
ATOM      9  C9  DEN d   1       4.417   1.012   0.178  0.00  0.00    -0.072 A 
ENDROOT
TORSDOF 0
ENDMDL
