MODEL 1
REMARK minimizedAffinity 16.3540955
REMARK minimizedRMSD -1
REMARK  0 active torsions:
REMARK  status: ('A' for Active; 'I' for Inactive)
ROOT
ATOM      1  C1  DEN d   1       5.996   3.080  -0.661  0.00  0.00     0.130 A 
ATOM      2  C2  DEN d   1       5.977   3.085  -2.121  0.00  0.00    -0.031 A 
ATOM      3  C3  DEN d   1       4.815   2.289  -2.565  0.00  0.00     0.027 A 
ATOM      4  C4  DEN d   1       3.049   1.063  -1.140  0.00  0.00     0.027 A 
ATOM      5  C5  DEN d   1       2.654   0.763   0.145  0.00  0.00    -0.003 A 
ATOM      6  C6  DEN d   1       3.359   1.182   1.242  0.00  0.00     0.001 A 
ATOM      7  C7  DEN d   1       4.472   1.964   1.076  0.00  0.00     0.017 A 
ATOM      8  C8  DEN d   1       4.880   2.264  -0.217  0.00  0.00    -0.094 A 
ATOM      9  C9  DEN d   1       4.147   1.841  -1.313  0.00  0.00    -0.072 A 
ENDROOT
TORSDOF 0
ENDMDL
