MODEL 1
REMARK minimizedAffinity 6.33783579
REMARK minimizedRMSD -1
REMARK  0 active torsions:
REMARK  status: ('A' for Active; 'I' for Inactive)
ROOT
ATOM      1  C1  DEN d   1       6.000   2.470  -1.602  0.00  0.00     0.130 A 
ATOM      2  C2  DEN d   1       5.989   2.048  -3.000  0.00  0.00    -0.031 A 
ATOM      3  C3  DEN d   1       4.867   1.106  -3.184  0.00  0.00     0.027 A 
ATOM      4  C4  DEN d   1       3.151   0.268  -1.450  0.00  0.00     0.027 A 
ATOM      5  C5  DEN d   1       2.763   0.338  -0.130  0.00  0.00    -0.003 A 
ATOM      6  C6  DEN d   1       3.442   1.090   0.792  0.00  0.00     0.001 A 
ATOM      7  C7  DEN d   1       4.519   1.839   0.396  0.00  0.00     0.017 A 
ATOM      8  C8  DEN d   1       4.920   1.768  -0.932  0.00  0.00    -0.094 A 
ATOM      9  C9  DEN d   1       4.213   1.011  -1.851  0.00  0.00    -0.072 A 
ENDROOT
TORSDOF 0
ENDMDL
