MODEL 1
REMARK minimizedAffinity 17.4973392
REMARK minimizedRMSD -1
REMARK  0 active torsions:
REMARK  status: ('A' for Active; 'I' for Inactive)
ROOT
ATOM      1  C1  DEN d   1       0.084   3.151   0.026  0.00  0.00     0.130 A 
ATOM      2  C2  DEN d   1       0.134   4.164   1.077  0.00  0.00    -0.031 A 
ATOM      3  C3  DEN d   1       1.348   3.926   1.883  0.00  0.00     0.027 A 
ATOM      4  C4  DEN d   1       3.149   2.101   1.602  0.00  0.00     0.027 A 
ATOM      5  C5  DEN d   1       3.533   1.007   0.859  0.00  0.00    -0.003 A 
ATOM      6  C6  DEN d   1       2.782   0.534  -0.185  0.00  0.00     0.001 A 
ATOM      7  C7  DEN d   1       1.631   1.185  -0.542  0.00  0.00     0.017 A 
ATOM      8  C8  DEN d   1       1.234   2.285   0.207  0.00  0.00    -0.094 A 
ATOM      9  C9  DEN d   1       2.013   2.755   1.251  0.00  0.00    -0.072 A 
ENDROOT
TORSDOF 0
ENDMDL
