MODEL 1
REMARK minimizedAffinity 7.81816483
REMARK minimizedRMSD -1
REMARK  0 active torsions:
REMARK  status: ('A' for Active; 'I' for Inactive)
ROOT
ATOM      1  C1  DEN d   1       4.639   1.487  -2.616  0.00  0.00     0.130 A 
ATOM      2  C2  DEN d   1       5.789   2.381  -2.506  0.00  0.00    -0.031 A 
ATOM      3  C3  DEN d   1       5.995   2.686  -1.076  0.00  0.00     0.027 A 
ATOM      4  C4  DEN d   1       4.656   1.861   0.969  0.00  0.00     0.027 A 
ATOM      5  C5  DEN d   1       3.586   1.096   1.375  0.00  0.00    -0.003 A 
ATOM      6  C6  DEN d   1       2.778   0.440   0.485  0.00  0.00     0.001 A 
ATOM      7  C7  DEN d   1       3.054   0.500  -0.855  0.00  0.00     0.017 A 
ATOM      8  C8  DEN d   1       4.127   1.276  -1.273  0.00  0.00    -0.094 A 
ATOM      9  C9  DEN d   1       4.940   1.922  -0.357  0.00  0.00    -0.072 A 
ENDROOT
TORSDOF 0
ENDMDL
