MODEL 1
REMARK minimizedAffinity -2.27136779
REMARK minimizedRMSD -1
REMARK  0 active torsions:
REMARK  status: ('A' for Active; 'I' for Inactive)
ROOT
ATOM      1  C   UNL d   1      -0.031   0.367  -1.012  0.00  0.00     0.172 C 
ATOM      2  N   UNL d   1      -1.006   0.780  -1.994  0.00  0.00    -0.070 N 
ATOM      3  C1  UNL d   1      -1.658   1.984  -2.015  0.00  0.00    -0.004 A 
ATOM      4  C2  UNL d   1      -2.500   1.989  -3.106  0.00  0.00    -0.047 A 
ATOM      5  C3  UNL d   1      -2.350   0.744  -3.762  0.00  0.00    -0.047 A 
ATOM      6  C4  UNL d   1      -1.419   0.015  -3.053  0.00  0.00    -0.004 A 
ENDROOT
TORSDOF 0
ENDMDL
