MODEL 1
REMARK minimizedAffinity -3.73248148
REMARK minimizedRMSD -1
REMARK  0 active torsions:
REMARK  status: ('A' for Active; 'I' for Inactive)
ROOT
ATOM      1  C   UNL d   1      -0.440   0.217  -0.101  0.00  0.00     0.172 C 
ATOM      2  N   UNL d   1       0.573  -0.736   0.285  0.00  0.00    -0.070 N 
ATOM      3  C1  UNL d   1       1.879  -0.725  -0.128  0.00  0.00    -0.004 A 
ATOM      4  C2  UNL d   1       2.517  -1.795   0.461  0.00  0.00    -0.047 A 
ATOM      5  C3  UNL d   1       1.562  -2.473   1.256  0.00  0.00    -0.047 A 
ATOM      6  C4  UNL d   1       0.367  -1.796   1.128  0.00  0.00    -0.004 A 
ENDROOT
TORSDOF 0
ENDMDL
