MODEL 1
REMARK minimizedAffinity -3.70135164
REMARK minimizedRMSD -1
REMARK  0 active torsions:
REMARK  status: ('A' for Active; 'I' for Inactive)
ROOT
ATOM      1  C   UNL d   1      -0.227   0.753  -0.188  0.00  0.00     0.172 C 
ATOM      2  N   UNL d   1       0.619  -0.376   0.123  0.00  0.00    -0.070 N 
ATOM      3  C1  UNL d   1       1.987  -0.383   0.084  0.00  0.00    -0.004 A 
ATOM      4  C2  UNL d   1       2.413  -1.643   0.446  0.00  0.00    -0.047 A 
ATOM      5  C3  UNL d   1       1.260  -2.420   0.711  0.00  0.00    -0.047 A 
ATOM      6  C4  UNL d   1       0.163  -1.611   0.503  0.00  0.00    -0.004 A 
ENDROOT
TORSDOF 0
ENDMDL
