MODEL 1
REMARK minimizedAffinity -3.66531396
REMARK minimizedRMSD -1
REMARK  0 active torsions:
REMARK  status: ('A' for Active; 'I' for Inactive)
ROOT
ATOM      1  C   UNL d   1      -0.072   0.942   0.107  0.00  0.00     0.172 C 
ATOM      2  N   UNL d   1       0.769  -0.130   0.586  0.00  0.00    -0.070 N 
ATOM      3  C1  UNL d   1       0.336  -1.253   1.240  0.00  0.00    -0.004 A 
ATOM      4  C2  UNL d   1       1.440  -2.026   1.527  0.00  0.00    -0.047 A 
ATOM      5  C3  UNL d   1       2.576  -1.344   1.029  0.00  0.00    -0.047 A 
ATOM      6  C4  UNL d   1       2.132  -0.174   0.452  0.00  0.00    -0.004 A 
ENDROOT
TORSDOF 0
ENDMDL
