MODEL 1
REMARK minimizedAffinity -2.27654266
REMARK minimizedRMSD -1
REMARK  0 active torsions:
REMARK  status: ('A' for Active; 'I' for Inactive)
ROOT
ATOM      1  C   UNL d   1      -0.281   0.582  -0.522  0.00  0.00     0.172 C 
ATOM      2  N   UNL d   1      -1.167   0.811  -1.639  0.00  0.00    -0.070 N 
ATOM      3  C1  UNL d   1      -0.778   1.034  -2.934  0.00  0.00    -0.004 A 
ATOM      4  C2  UNL d   1      -1.916   1.205  -3.692  0.00  0.00    -0.047 A 
ATOM      5  C3  UNL d   1      -3.027   1.081  -2.823  0.00  0.00    -0.047 A 
ATOM      6  C4  UNL d   1      -2.534   0.838  -1.559  0.00  0.00    -0.004 A 
ENDROOT
TORSDOF 0
ENDMDL
