MODEL 1
REMARK minimizedAffinity -2.76344275
REMARK minimizedRMSD -1
REMARK  0 active torsions:
REMARK  status: ('A' for Active; 'I' for Inactive)
ROOT
ATOM      1  C   UNL d   1      -0.016   0.590  -0.277  0.00  0.00     0.172 C 
ATOM      2  N   UNL d   1       0.898  -0.419   0.204  0.00  0.00    -0.070 N 
ATOM      3  C1  UNL d   1       2.217  -0.218   0.515  0.00  0.00    -0.004 A 
ATOM      4  C2  UNL d   1       2.738  -1.422   0.936  0.00  0.00    -0.047 A 
ATOM      5  C3  UNL d   1       1.698  -2.380   0.875  0.00  0.00    -0.047 A 
ATOM      6  C4  UNL d   1       0.570  -1.731   0.419  0.00  0.00    -0.004 A 
ENDROOT
TORSDOF 0
ENDMDL
