MODEL 1
REMARK minimizedAffinity -3.31911755
REMARK minimizedRMSD -1
REMARK  0 active torsions:
REMARK  status: ('A' for Active; 'I' for Inactive)
ROOT
ATOM      1  C   UNL d   1       1.142  -2.465   0.703  0.00  0.00     0.172 C 
ATOM      2  N   UNL d   1       0.757  -1.105   0.410  0.00  0.00    -0.070 N 
ATOM      3  C1  UNL d   1       1.573  -0.140  -0.116  0.00  0.00    -0.004 A 
ATOM      4  C2  UNL d   1       0.833   1.015  -0.244  0.00  0.00    -0.047 A 
ATOM      5  C3  UNL d   1      -0.473   0.735   0.222  0.00  0.00    -0.047 A 
ATOM      6  C4  UNL d   1      -0.493  -0.584   0.621  0.00  0.00    -0.004 A 
ENDROOT
TORSDOF 0
ENDMDL
