MODEL 1
REMARK minimizedAffinity -3.78725314
REMARK minimizedRMSD -1
REMARK  0 active torsions:
REMARK  status: ('A' for Active; 'I' for Inactive)
ROOT
ATOM      1  C   UNL d   1       1.311   0.311  -0.179  0.00  0.00     0.172 C 
ATOM      2  N   UNL d   1       1.331  -0.837   0.697  0.00  0.00    -0.070 N 
ATOM      3  C1  UNL d   1       0.276  -1.289   1.444  0.00  0.00    -0.004 A 
ATOM      4  C2  UNL d   1       0.697  -2.402   2.140  0.00  0.00    -0.047 A 
ATOM      5  C3  UNL d   1       2.052  -2.626   1.799  0.00  0.00    -0.047 A 
ATOM      6  C4  UNL d   1       2.419  -1.643   0.904  0.00  0.00    -0.004 A 
ENDROOT
TORSDOF 0
ENDMDL
