MODEL 1
REMARK minimizedAffinity -3.18288136
REMARK minimizedRMSD -1
REMARK  0 active torsions:
REMARK  status: ('A' for Active; 'I' for Inactive)
ROOT
ATOM      1  C   UNL d   1      -0.259   0.353   0.028  0.00  0.00     0.172 C 
ATOM      2  N   UNL d   1       0.753  -0.614   0.381  0.00  0.00    -0.070 N 
ATOM      3  C1  UNL d   1       1.970  -0.328   0.939  0.00  0.00    -0.004 A 
ATOM      4  C2  UNL d   1       2.640  -1.519   1.122  0.00  0.00    -0.047 A 
ATOM      5  C3  UNL d   1       1.797  -2.555   0.658  0.00  0.00    -0.047 A 
ATOM      6  C4  UNL d   1       0.635  -1.967   0.204  0.00  0.00    -0.004 A 
ENDROOT
TORSDOF 0
ENDMDL
