MODEL 1
REMARK minimizedAffinity -1.75963688
REMARK minimizedRMSD -1
REMARK  0 active torsions:
REMARK  status: ('A' for Active; 'I' for Inactive)
ROOT
ATOM      1  C   UNL d   1      -0.012   0.514  -0.077  0.00  0.00     0.172 C 
ATOM      2  N   UNL d   1       0.972  -0.485   0.270  0.00  0.00    -0.070 N 
ATOM      3  C1  UNL d   1       1.609  -0.592   1.477  0.00  0.00    -0.004 A 
ATOM      4  C2  UNL d   1       2.467  -1.668   1.407  0.00  0.00    -0.047 A 
ATOM      5  C3  UNL d   1       2.341  -2.227   0.113  0.00  0.00    -0.047 A 
ATOM      6  C4  UNL d   1       1.409  -1.475  -0.570  0.00  0.00    -0.004 A 
ENDROOT
TORSDOF 0
ENDMDL
