MODEL 1
REMARK minimizedAffinity -3.22470951
REMARK minimizedRMSD -1
REMARK  0 active torsions:
REMARK  status: ('A' for Active; 'I' for Inactive)
ROOT
ATOM      1  C   UNL d   1      -0.842   0.358   0.136  0.00  0.00     0.172 C 
ATOM      2  N   UNL d   1       0.245  -0.578   0.300  0.00  0.00    -0.070 N 
ATOM      3  C1  UNL d   1       0.160  -1.802   0.908  0.00  0.00    -0.004 A 
ATOM      4  C2  UNL d   1       1.408  -2.385   0.861  0.00  0.00    -0.047 A 
ATOM      5  C3  UNL d   1       2.273  -1.479   0.203  0.00  0.00    -0.047 A 
ATOM      6  C4  UNL d   1       1.528  -0.369  -0.133  0.00  0.00    -0.004 A 
ENDROOT
TORSDOF 0
ENDMDL
