MODEL 1
REMARK minimizedAffinity -3.79829144
REMARK minimizedRMSD -1
REMARK  0 active torsions:
REMARK  status: ('A' for Active; 'I' for Inactive)
ROOT
ATOM      1  C   UNL d   1      -0.838   0.267  -0.135  0.00  0.00     0.172 C 
ATOM      2  N   UNL d   1       0.116  -0.712   0.330  0.00  0.00    -0.070 N 
ATOM      3  C1  UNL d   1      -0.162  -1.770   1.153  0.00  0.00    -0.004 A 
ATOM      4  C2  UNL d   1       1.011  -2.464   1.360  0.00  0.00    -0.047 A 
ATOM      5  C3  UNL d   1       2.029  -1.799   0.637  0.00  0.00    -0.047 A 
ATOM      6  C4  UNL d   1       1.448  -0.718   0.008  0.00  0.00    -0.004 A 
ENDROOT
TORSDOF 0
ENDMDL
