MODEL 1
REMARK minimizedAffinity -2.55304813
REMARK minimizedRMSD -1
REMARK  0 active torsions:
REMARK  status: ('A' for Active; 'I' for Inactive)
ROOT
ATOM      1  C   UNL d   1       0.110   0.745  -0.229  0.00  0.00     0.172 C 
ATOM      2  N   UNL d   1       1.112  -0.264   0.020  0.00  0.00    -0.070 N 
ATOM      3  C1  UNL d   1       1.165  -1.499  -0.570  0.00  0.00    -0.004 A 
ATOM      4  C2  UNL d   1       2.266  -2.159  -0.069  0.00  0.00    -0.047 A 
ATOM      5  C3  UNL d   1       2.896  -1.292   0.855  0.00  0.00    -0.047 A 
ATOM      6  C4  UNL d   1       2.161  -0.126   0.891  0.00  0.00    -0.004 A 
ENDROOT
TORSDOF 0
ENDMDL
