MODEL 1
REMARK minimizedAffinity -3.58760238
REMARK minimizedRMSD -1
REMARK  0 active torsions:
REMARK  status: ('A' for Active; 'I' for Inactive)
ROOT
ATOM      1  C   UNL d   1      -0.395   0.463  -0.020  0.00  0.00     0.172 C 
ATOM      2  N   UNL d   1       0.575  -0.566   0.272  0.00  0.00    -0.070 N 
ATOM      3  C1  UNL d   1       1.930  -0.455   0.110  0.00  0.00    -0.004 A 
ATOM      4  C2  UNL d   1       2.500  -1.648   0.499  0.00  0.00    -0.047 A 
ATOM      5  C3  UNL d   1       1.452  -2.505   0.909  0.00  0.00    -0.047 A 
ATOM      6  C4  UNL d   1       0.270  -1.810   0.758  0.00  0.00    -0.004 A 
ENDROOT
TORSDOF 0
ENDMDL
