MODEL 1
REMARK minimizedAffinity -4.75761318
REMARK minimizedRMSD -1
REMARK  2 active torsions:
REMARK  status: ('A' for Active; 'I' for Inactive)
REMARK    1  A    between atoms: C1_2  and  C2_3 
REMARK    2  A    between atoms: C2_3  and  C3_4 
ROOT
ATOM      1  C3  UNL d   1      -0.414   0.314   0.428  0.00  0.00    -0.075 A 
ATOM      2  C4  UNL d   1      -1.546   0.542   1.224  0.00  0.00     0.002 A 
ATOM      3  C5  UNL d   1      -1.425   1.161   2.468  0.00  0.00     0.002 A 
ATOM      4  C6  UNL d   1      -0.172   1.550   2.936  0.00  0.00    -0.004 A 
ATOM      5  C7  UNL d   1       0.962   1.313   2.162  0.00  0.00     0.002 A 
ATOM      6  C8  UNL d   1       0.843   0.698   0.914  0.00  0.00     0.002 A 
ENDROOT
BRANCH   1   7
ATOM      7  C2  UNL d   1      -0.543  -0.329  -0.932  0.00  0.00     0.056 C 
BRANCH   7   8
ATOM      8  C1  UNL d   1       0.774  -0.883  -1.487  0.00  0.00     0.007 C 
ATOM      9  C   UNL d   1       0.873  -0.790  -3.004  0.00  0.00     0.009 C 
ENDBRANCH   7   8
ENDBRANCH   1   7
TORSDOF 2
ENDMDL
