MODEL 1
REMARK minimizedAffinity -3.86350656
REMARK minimizedRMSD -1
REMARK  2 active torsions:
REMARK  status: ('A' for Active; 'I' for Inactive)
REMARK    1  A    between atoms: C1_2  and  C2_3 
REMARK    2  A    between atoms: C2_3  and  C3_4 
ROOT
ATOM      1  C3  UNL d   1       0.282   1.099   1.822  0.00  0.00    -0.075 A 
ATOM      2  C4  UNL d   1      -0.510   0.786   0.707  0.00  0.00     0.002 A 
ATOM      3  C5  UNL d   1      -0.117  -0.215  -0.182  0.00  0.00     0.002 A 
ATOM      4  C6  UNL d   1       1.075  -0.906   0.025  0.00  0.00    -0.004 A 
ATOM      5  C7  UNL d   1       1.878  -0.592   1.119  0.00  0.00     0.002 A 
ATOM      6  C8  UNL d   1       1.485   0.406   2.014  0.00  0.00     0.002 A 
ENDROOT
BRANCH   1   7
ATOM      7  C2  UNL d   1      -0.152   2.160   2.805  0.00  0.00     0.056 C 
BRANCH   7   8
ATOM      8  C1  UNL d   1      -1.133   1.660   3.870  0.00  0.00     0.007 C 
ATOM      9  C   UNL d   1      -1.831   0.363   3.482  0.00  0.00     0.009 C 
ENDBRANCH   7   8
ENDBRANCH   1   7
TORSDOF 2
ENDMDL
