MODEL 1
REMARK minimizedAffinity -4.67107868
REMARK minimizedRMSD -1
REMARK  2 active torsions:
REMARK  status: ('A' for Active; 'I' for Inactive)
REMARK    1  A    between atoms: C1_2  and  C2_3 
REMARK    2  A    between atoms: C2_3  and  C3_4 
ROOT
ATOM      1  C3  UNL d   1       0.405  -0.346  -1.055  0.00  0.00    -0.075 A 
ATOM      2  C4  UNL d   1      -0.827   0.069  -0.529  0.00  0.00     0.002 A 
ATOM      3  C5  UNL d   1      -0.930   0.467   0.804  0.00  0.00     0.002 A 
ATOM      4  C6  UNL d   1       0.193   0.446   1.629  0.00  0.00    -0.004 A 
ATOM      5  C7  UNL d   1       1.418   0.021   1.121  0.00  0.00     0.002 A 
ATOM      6  C8  UNL d   1       1.525  -0.374  -0.214  0.00  0.00     0.002 A 
ENDROOT
BRANCH   1   7
ATOM      7  C2  UNL d   1       0.528  -0.750  -2.505  0.00  0.00     0.056 C 
BRANCH   7   8
ATOM      8  C1  UNL d   1       1.321   0.241  -3.363  0.00  0.00     0.007 C 
ATOM      9  C   UNL d   1       0.435   1.167  -4.185  0.00  0.00     0.009 C 
ENDBRANCH   7   8
ENDBRANCH   1   7
TORSDOF 2
ENDMDL
