MODEL 1
REMARK minimizedAffinity -4.82005167
REMARK minimizedRMSD -1
REMARK  2 active torsions:
REMARK  status: ('A' for Active; 'I' for Inactive)
REMARK    1  A    between atoms: C1_2  and  C2_3 
REMARK    2  A    between atoms: C2_3  and  C3_4 
ROOT
ATOM      1  C3  UNL d   1      -0.296  -0.015  -1.204  0.00  0.00    -0.075 A 
ATOM      2  C4  UNL d   1      -1.560   0.269  -0.666  0.00  0.00     0.002 A 
ATOM      3  C5  UNL d   1      -1.727   0.415   0.711  0.00  0.00     0.002 A 
ATOM      4  C6  UNL d   1      -0.637   0.268   1.567  0.00  0.00    -0.004 A 
ATOM      5  C7  UNL d   1       0.619  -0.030   1.045  0.00  0.00     0.002 A 
ATOM      6  C8  UNL d   1       0.790  -0.172  -0.333  0.00  0.00     0.002 A 
ENDROOT
BRANCH   1   7
ATOM      7  C2  UNL d   1      -0.103  -0.144  -2.696  0.00  0.00     0.056 C 
BRANCH   7   8
ATOM      8  C1  UNL d   1       1.347  -0.404  -3.117  0.00  0.00     0.007 C 
ATOM      9  C   UNL d   1       2.048   0.836  -3.656  0.00  0.00     0.009 C 
ENDBRANCH   7   8
ENDBRANCH   1   7
TORSDOF 2
ENDMDL
