MODEL 1
REMARK minimizedAffinity -2.31981373
REMARK minimizedRMSD -1
REMARK  2 active torsions:
REMARK  status: ('A' for Active; 'I' for Inactive)
REMARK    1  A    between atoms: C1_2  and  C2_3 
REMARK    2  A    between atoms: C2_3  and  C3_4 
ROOT
ATOM      1  C3  UNL d   1      -0.148   1.106   0.381  0.00  0.00    -0.075 A 
ATOM      2  C4  UNL d   1      -0.040   1.802   1.593  0.00  0.00     0.002 A 
ATOM      3  C5  UNL d   1      -0.720   1.359   2.728  0.00  0.00     0.002 A 
ATOM      4  C6  UNL d   1      -1.523   0.222   2.663  0.00  0.00    -0.004 A 
ATOM      5  C7  UNL d   1      -1.651  -0.468   1.459  0.00  0.00     0.002 A 
ATOM      6  C8  UNL d   1      -0.968  -0.029   0.324  0.00  0.00     0.002 A 
ENDROOT
BRANCH   1   7
ATOM      7  C2  UNL d   1       0.608   1.564  -0.843  0.00  0.00     0.056 C 
BRANCH   7   8
ATOM      8  C1  UNL d   1      -0.230   1.577  -2.126  0.00  0.00     0.007 C 
ATOM      9  C   UNL d   1       0.614   1.595  -3.394  0.00  0.00     0.009 C 
ENDBRANCH   7   8
ENDBRANCH   1   7
TORSDOF 2
ENDMDL
