MODEL 1
REMARK minimizedAffinity -1.65679324
REMARK minimizedRMSD -1
REMARK  2 active torsions:
REMARK  status: ('A' for Active; 'I' for Inactive)
REMARK    1  A    between atoms: C1_2  and  C2_3 
REMARK    2  A    between atoms: C2_3  and  C3_4 
ROOT
ATOM      1  C3  UNL d   1       0.581   0.291   1.221  0.00  0.00    -0.075 A 
ATOM      2  C4  UNL d   1      -0.457  -0.137   0.381  0.00  0.00     0.002 A 
ATOM      3  C5  UNL d   1      -0.179  -0.882  -0.765  0.00  0.00     0.002 A 
ATOM      4  C6  UNL d   1       1.138  -1.200  -1.091  0.00  0.00    -0.004 A 
ATOM      5  C7  UNL d   1       2.178  -0.766  -0.273  0.00  0.00     0.002 A 
ATOM      6  C8  UNL d   1       1.903  -0.023   0.877  0.00  0.00     0.002 A 
ENDROOT
BRANCH   1   7
ATOM      7  C2  UNL d   1       0.285   1.073   2.478  0.00  0.00     0.056 C 
BRANCH   7   8
ATOM      8  C1  UNL d   1       0.242   0.218   3.749  0.00  0.00     0.007 C 
ATOM      9  C   UNL d   1      -1.169  -0.194   4.148  0.00  0.00     0.009 C 
ENDBRANCH   7   8
ENDBRANCH   1   7
TORSDOF 2
ENDMDL
