MODEL 1
REMARK minimizedAffinity 6.35989428
REMARK minimizedRMSD -1
REMARK  0 active torsions:
REMARK  status: ('A' for Active; 'I' for Inactive)
ROOT
ATOM      1  C   UNL d   1       5.996   2.979  -3.000  0.00  0.00     0.077 C 
ATOM      2  C1  UNL d   1       5.384   2.602  -1.684  0.00  0.00    -0.074 A 
ATOM      3  C2  UNL d   1       5.993   2.963  -0.478  0.00  0.00    -0.005 A 
ATOM      4  C3  UNL d   1       5.407   2.613   0.739  0.00  0.00     0.006 A 
ATOM      5  C4  UNL d   1       4.207   1.901   0.761  0.00  0.00    -0.005 A 
ATOM      6  C5  UNL d   1       3.583   1.532  -0.434  0.00  0.00    -0.074 A 
ATOM      7  C6  UNL d   1       2.288   0.775  -0.428  0.00  0.00     0.077 C 
ATOM      8  C7  UNL d   1       4.175   1.893  -1.653  0.00  0.00    -0.001 A 
ENDROOT
TORSDOF 0
ENDMDL
