MODEL 1
REMARK minimizedAffinity 10.0816584
REMARK minimizedRMSD -1
REMARK  0 active torsions:
REMARK  status: ('A' for Active; 'I' for Inactive)
ROOT
ATOM      1  C   UNL d   1       5.995   5.994  -2.651  0.00  0.00     0.077 C 
ATOM      2  C1  UNL d   1       5.982   4.533  -2.314  0.00  0.00    -0.074 A 
ATOM      3  C2  UNL d   1       5.992   3.562  -3.321  0.00  0.00    -0.005 A 
ATOM      4  C3  UNL d   1       5.990   2.207  -2.991  0.00  0.00     0.006 A 
ATOM      5  C4  UNL d   1       5.977   1.809  -1.654  0.00  0.00    -0.005 A 
ATOM      6  C5  UNL d   1       5.968   2.765  -0.633  0.00  0.00    -0.074 A 
ATOM      7  C6  UNL d   1       5.964   2.354   0.809  0.00  0.00     0.077 C 
ATOM      8  C7  UNL d   1       5.977   4.125  -0.972  0.00  0.00    -0.001 A 
ENDROOT
TORSDOF 0
ENDMDL
