MODEL 1
REMARK minimizedAffinity 20.9114304
REMARK minimizedRMSD -1
REMARK  0 active torsions:
REMARK  status: ('A' for Active; 'I' for Inactive)
ROOT
ATOM      1  C   UNL d   1      -3.378   1.219   0.383  0.00  0.00     0.077 C 
ATOM      2  C1  UNL d   1      -4.195   0.377  -0.552  0.00  0.00    -0.074 A 
ATOM      3  C2  UNL d   1      -5.240  -0.420  -0.074  0.00  0.00    -0.005 A 
ATOM      4  C3  UNL d   1      -5.997  -1.190  -0.957  0.00  0.00     0.006 A 
ATOM      5  C4  UNL d   1      -5.719  -1.170  -2.324  0.00  0.00    -0.005 A 
ATOM      6  C5  UNL d   1      -4.679  -0.378  -2.820  0.00  0.00    -0.074 A 
ATOM      7  C6  UNL d   1      -4.372  -0.338  -4.288  0.00  0.00     0.077 C 
ATOM      8  C7  UNL d   1      -3.926   0.398  -1.928  0.00  0.00    -0.001 A 
ENDROOT
TORSDOF 0
ENDMDL
