MODEL 1
REMARK minimizedAffinity 4.15172243
REMARK minimizedRMSD -1
REMARK  0 active torsions:
REMARK  status: ('A' for Active; 'I' for Inactive)
ROOT
ATOM      1  C   UNL d   1       1.653   3.229   3.351  0.00  0.00     0.077 C 
ATOM      2  C1  UNL d   1       1.787   2.596   1.997  0.00  0.00    -0.074 A 
ATOM      3  C2  UNL d   1       3.016   2.094   1.557  0.00  0.00    -0.005 A 
ATOM      4  C3  UNL d   1       3.123   1.500   0.300  0.00  0.00     0.006 A 
ATOM      5  C4  UNL d   1       2.004   1.401  -0.528  0.00  0.00    -0.005 A 
ATOM      6  C5  UNL d   1       0.767   1.896  -0.105  0.00  0.00    -0.074 A 
ATOM      7  C6  UNL d   1      -0.448   1.789  -0.978  0.00  0.00     0.077 C 
ATOM      8  C7  UNL d   1       0.666   2.486   1.163  0.00  0.00    -0.001 A 
ENDROOT
TORSDOF 0
ENDMDL
