MODEL 1
REMARK minimizedAffinity 0.129550532
REMARK minimizedRMSD -1
REMARK  0 active torsions:
REMARK  status: ('A' for Active; 'I' for Inactive)
ROOT
ATOM      1  C   UNL d   1       3.355   1.872   0.761  0.00  0.00     0.077 C 
ATOM      2  C1  UNL d   1       4.197   2.190  -0.438  0.00  0.00    -0.074 A 
ATOM      3  C2  UNL d   1       5.218   3.143  -0.367  0.00  0.00    -0.005 A 
ATOM      4  C3  UNL d   1       6.000   3.421  -1.489  0.00  0.00     0.006 A 
ATOM      5  C4  UNL d   1       5.769   2.750  -2.690  0.00  0.00    -0.005 A 
ATOM      6  C5  UNL d   1       4.753   1.793  -2.780  0.00  0.00    -0.074 A 
ATOM      7  C6  UNL d   1       4.498   1.056  -4.061  0.00  0.00     0.077 C 
ATOM      8  C7  UNL d   1       3.976   1.514  -1.647  0.00  0.00    -0.001 A 
ENDROOT
TORSDOF 0
ENDMDL
