MODEL 1
REMARK minimizedAffinity 7.67044353
REMARK minimizedRMSD -1
REMARK  0 active torsions:
REMARK  status: ('A' for Active; 'I' for Inactive)
ROOT
ATOM      1  C   UNL d   1      -0.284   2.108  -0.688  0.00  0.00     0.077 C 
ATOM      2  C1  UNL d   1       0.926   2.205   0.193  0.00  0.00    -0.074 A 
ATOM      3  C2  UNL d   1       2.158   1.686  -0.218  0.00  0.00    -0.005 A 
ATOM      4  C3  UNL d   1       3.277   1.793   0.608  0.00  0.00     0.006 A 
ATOM      5  C4  UNL d   1       3.176   2.419   1.851  0.00  0.00    -0.005 A 
ATOM      6  C5  UNL d   1       1.953   2.944   2.279  0.00  0.00    -0.074 A 
ATOM      7  C6  UNL d   1       1.829   3.629   3.608  0.00  0.00     0.077 C 
ATOM      8  C7  UNL d   1       0.834   2.840   1.440  0.00  0.00    -0.001 A 
ENDROOT
TORSDOF 0
ENDMDL
