MODEL 1
REMARK minimizedAffinity -0.959946215
REMARK minimizedRMSD -1
REMARK  0 active torsions:
REMARK  status: ('A' for Active; 'I' for Inactive)
ROOT
ATOM      1  C   UNL d   1       6.000   2.746  -1.360  0.00  0.00     0.077 C 
ATOM      2  C1  UNL d   1       4.849   1.951  -0.818  0.00  0.00    -0.074 A 
ATOM      3  C2  UNL d   1       3.756   1.626  -1.627  0.00  0.00    -0.005 A 
ATOM      4  C3  UNL d   1       2.697   0.877  -1.112  0.00  0.00     0.006 A 
ATOM      5  C4  UNL d   1       2.721   0.447   0.215  0.00  0.00    -0.005 A 
ATOM      6  C5  UNL d   1       3.807   0.762   1.039  0.00  0.00    -0.074 A 
ATOM      7  C6  UNL d   1       3.853   0.299   2.465  0.00  0.00     0.077 C 
ATOM      8  C7  UNL d   1       4.869   1.508   0.512  0.00  0.00    -0.001 A 
ENDROOT
TORSDOF 0
ENDMDL
