MODEL 1
REMARK minimizedAffinity 14.0696173
REMARK minimizedRMSD -1
REMARK  0 active torsions:
REMARK  status: ('A' for Active; 'I' for Inactive)
ROOT
ATOM      1  C   UNL d   1       2.481   0.396  -0.384  0.00  0.00     0.077 C 
ATOM      2  C1  UNL d   1       3.711   1.245  -0.504  0.00  0.00    -0.074 A 
ATOM      3  C2  UNL d   1       4.304   1.480  -1.749  0.00  0.00    -0.005 A 
ATOM      4  C3  UNL d   1       5.442   2.280  -1.846  0.00  0.00     0.006 A 
ATOM      5  C4  UNL d   1       5.999   2.852  -0.702  0.00  0.00    -0.005 A 
ATOM      6  C5  UNL d   1       5.420   2.629   0.552  0.00  0.00    -0.074 A 
ATOM      7  C6  UNL d   1       6.000   3.244   1.791  0.00  0.00     0.077 C 
ATOM      8  C7  UNL d   1       4.272   1.830   0.640  0.00  0.00    -0.001 A 
ENDROOT
TORSDOF 0
ENDMDL
