MODEL 1
REMARK minimizedAffinity 6.9269762
REMARK minimizedRMSD -1
REMARK  0 active torsions:
REMARK  status: ('A' for Active; 'I' for Inactive)
ROOT
ATOM      1  C   UNL d   1       2.683   1.377   0.117  0.00  0.00     0.077 C 
ATOM      2  C1  UNL d   1       3.840   1.750  -0.761  0.00  0.00    -0.074 A 
ATOM      3  C2  UNL d   1       4.863   2.579  -0.289  0.00  0.00    -0.005 A 
ATOM      4  C3  UNL d   1       5.937   2.910  -1.114  0.00  0.00     0.006 A 
ATOM      5  C4  UNL d   1       6.000   2.417  -2.418  0.00  0.00    -0.005 A 
ATOM      6  C5  UNL d   1       4.987   1.587  -2.907  0.00  0.00    -0.074 A 
ATOM      7  C6  UNL d   1       5.044   1.040  -4.303  0.00  0.00     0.077 C 
ATOM      8  C7  UNL d   1       3.914   1.253  -2.070  0.00  0.00    -0.001 A 
ENDROOT
TORSDOF 0
ENDMDL
