MODEL 1
REMARK minimizedAffinity -5.12348604
REMARK minimizedRMSD -1
REMARK  0 active torsions:
REMARK  status: ('A' for Active; 'I' for Inactive)
ROOT
ATOM      1  N1  IND d   1       0.332   1.407  -1.451  0.00  0.00    -0.196 N 
ATOM      2  C2  IND d   1       0.711   0.108  -1.256  0.00  0.00     0.054 A 
ATOM      3  C3  IND d   1       0.480  -0.263   0.023  0.00  0.00    -0.031 A 
ATOM      4  C4  IND d   1      -0.606   1.068   1.941  0.00  0.00     0.051 A 
ATOM      5  C5  IND d   1      -1.083   2.310   2.255  0.00  0.00    -0.031 A 
ATOM      6  C6  IND d   1      -1.115   3.334   1.331  0.00  0.00     0.015 A 
ATOM      7  C7  IND d   1      -0.681   3.150   0.048  0.00  0.00    -0.016 A 
ATOM      8  C8  IND d   1      -0.190   1.892  -0.272  0.00  0.00    -0.047 A 
ATOM      9  C9  IND d   1      -0.114   0.862   0.673  0.00  0.00    -0.096 A 
ATOM     10  HN1 IND d   1       0.407   1.846  -2.186  0.00  0.00     0.298 HD
ENDROOT
TORSDOF 0
ENDMDL
