MODEL 1
REMARK minimizedAffinity -4.89518166
REMARK minimizedRMSD -1
REMARK  0 active torsions:
REMARK  status: ('A' for Active; 'I' for Inactive)
ROOT
ATOM      1  N1  IND d   1       2.410  -4.511   0.387  0.00  0.00    -0.196 N 
ATOM      2  C2  IND d   1       2.094  -5.552   1.215  0.00  0.00     0.054 A 
ATOM      3  C3  IND d   1       0.844  -5.996   0.956  0.00  0.00    -0.031 A 
ATOM      4  C4  IND d   1      -0.822  -5.231  -0.852  0.00  0.00     0.051 A 
ATOM      5  C5  IND d   1      -0.997  -4.287  -1.825  0.00  0.00    -0.031 A 
ATOM      6  C6  IND d   1      -0.025  -3.353  -2.118  0.00  0.00     0.015 A 
ATOM      7  C7  IND d   1       1.169  -3.335  -1.454  0.00  0.00    -0.016 A 
ATOM      8  C8  IND d   1       1.348  -4.287  -0.460  0.00  0.00    -0.047 A 
ATOM      9  C9  IND d   1       0.348  -5.211  -0.129  0.00  0.00    -0.096 A 
ATOM     10  HN1 IND d   1       3.149  -4.071   0.394  0.00  0.00     0.298 HD
ENDROOT
TORSDOF 0
ENDMDL
