MODEL 1
REMARK minimizedAffinity 1.55073953
REMARK minimizedRMSD -1
REMARK  0 active torsions:
REMARK  status: ('A' for Active; 'I' for Inactive)
ROOT
ATOM      1  N1  IND d   1       1.045  -0.364  -0.227  0.00  0.00    -0.196 N 
ATOM      2  C2  IND d   1       0.024  -0.708  -1.069  0.00  0.00     0.054 A 
ATOM      3  C3  IND d   1      -1.098  -0.023  -0.753  0.00  0.00    -0.031 A 
ATOM      4  C4  IND d   1      -1.458   1.787   1.042  0.00  0.00     0.051 A 
ATOM      5  C5  IND d   1      -0.830   2.414   2.081  0.00  0.00    -0.031 A 
ATOM      6  C6  IND d   1       0.483   2.143   2.408  0.00  0.00     0.015 A 
ATOM      7  C7  IND d   1       1.223   1.240   1.699  0.00  0.00    -0.016 A 
ATOM      8  C8  IND d   1       0.586   0.596   0.648  0.00  0.00    -0.047 A 
ATOM      9  C9  IND d   1      -0.759   0.835   0.337  0.00  0.00    -0.096 A 
ATOM     10  HN1 IND d   1       1.839  -0.692  -0.241  0.00  0.00     0.298 HD
ENDROOT
TORSDOF 0
ENDMDL
