MODEL 1
REMARK minimizedAffinity -5.25239801
REMARK minimizedRMSD -1
REMARK  0 active torsions:
REMARK  status: ('A' for Active; 'I' for Inactive)
ROOT
ATOM      1  N1  IND d   1      -0.505   1.060   1.715  0.00  0.00    -0.196 N 
ATOM      2  C2  IND d   1      -1.125   2.233   2.048  0.00  0.00     0.054 A 
ATOM      3  C3  IND d   1      -1.246   3.025   0.959  0.00  0.00    -0.031 A 
ATOM      4  C4  IND d   1      -0.590   2.558  -1.486  0.00  0.00     0.051 A 
ATOM      5  C5  IND d   1       0.041   1.637  -2.275  0.00  0.00    -0.031 A 
ATOM      6  C6  IND d   1       0.529   0.452  -1.764  0.00  0.00     0.015 A 
ATOM      7  C7  IND d   1       0.395   0.137  -0.441  0.00  0.00    -0.016 A 
ATOM      8  C8  IND d   1      -0.239   1.073   0.364  0.00  0.00    -0.047 A 
ATOM      9  C9  IND d   1      -0.700   2.296  -0.141  0.00  0.00    -0.096 A 
ATOM     10  HN1 IND d   1      -0.314   0.423   2.259  0.00  0.00     0.298 HD
ENDROOT
TORSDOF 0
ENDMDL
