MODEL 1
REMARK minimizedAffinity -0.973190248
REMARK minimizedRMSD -1
REMARK  0 active torsions:
REMARK  status: ('A' for Active; 'I' for Inactive)
ROOT
ATOM      1  N1  IND d   1      -0.475  -1.127  -1.718  0.00  0.00    -0.196 N 
ATOM      2  C2  IND d   1       0.525  -0.328  -1.238  0.00  0.00     0.054 A 
ATOM      3  C3  IND d   1       1.431  -1.065  -0.557  0.00  0.00    -0.031 A 
ATOM      4  C4  IND d   1       1.526  -3.611  -0.192  0.00  0.00     0.051 A 
ATOM      5  C5  IND d   1       0.815  -4.758  -0.410  0.00  0.00    -0.031 A 
ATOM      6  C6  IND d   1      -0.386  -4.753  -1.091  0.00  0.00     0.015 A 
ATOM      7  C7  IND d   1      -0.916  -3.598  -1.592  0.00  0.00    -0.016 A 
ATOM      8  C8  IND d   1      -0.200  -2.431  -1.366  0.00  0.00    -0.047 A 
ATOM      9  C9  IND d   1       0.997  -2.423  -0.639  0.00  0.00    -0.096 A 
ATOM     10  HN1 IND d   1      -1.160  -0.861  -2.164  0.00  0.00     0.298 HD
ENDROOT
TORSDOF 0
ENDMDL
