MODEL 1
REMARK minimizedAffinity -2.28633595
REMARK minimizedRMSD -1
REMARK  0 active torsions:
REMARK  status: ('A' for Active; 'I' for Inactive)
ROOT
ATOM      1  N1  IND d   1       0.229  -0.013   1.363  0.00  0.00    -0.196 N 
ATOM      2  C2  IND d   1      -0.543   0.991   1.876  0.00  0.00     0.054 A 
ATOM      3  C3  IND d   1      -0.874   1.873   0.906  0.00  0.00    -0.031 A 
ATOM      4  C4  IND d   1      -0.345   1.808  -1.612  0.00  0.00     0.051 A 
ATOM      5  C5  IND d   1       0.362   1.105  -2.547  0.00  0.00    -0.031 A 
ATOM      6  C6  IND d   1       1.073  -0.031  -2.220  0.00  0.00     0.015 A 
ATOM      7  C7  IND d   1       1.095  -0.515  -0.943  0.00  0.00    -0.016 A 
ATOM      8  C8  IND d   1       0.383   0.200   0.010  0.00  0.00    -0.047 A 
ATOM      9  C9  IND d   1      -0.305   1.378  -0.307  0.00  0.00    -0.096 A 
ATOM     10  HN1 IND d   1       0.562  -0.668   1.809  0.00  0.00     0.298 HD
ENDROOT
TORSDOF 0
ENDMDL
