MODEL 1
REMARK minimizedAffinity -1.34489548
REMARK minimizedRMSD -1
REMARK  0 active torsions:
REMARK  status: ('A' for Active; 'I' for Inactive)
ROOT
ATOM      1  N1  IND d   1       0.154   0.291   1.548  0.00  0.00    -0.196 N 
ATOM      2  C2  IND d   1      -0.526   1.348   2.085  0.00  0.00     0.054 A 
ATOM      3  C3  IND d   1      -0.729   2.301   1.148  0.00  0.00    -0.031 A 
ATOM      4  C4  IND d   1      -0.122   2.292  -1.354  0.00  0.00     0.051 A 
ATOM      5  C5  IND d   1       0.539   1.559  -2.299  0.00  0.00    -0.031 A 
ATOM      6  C6  IND d   1       1.115   0.339  -2.005  0.00  0.00     0.015 A 
ATOM      7  C7  IND d   1       1.041  -0.200  -0.752  0.00  0.00    -0.016 A 
ATOM      8  C8  IND d   1       0.376   0.545   0.212  0.00  0.00    -0.047 A 
ATOM      9  C9  IND d   1      -0.173   1.802  -0.070  0.00  0.00    -0.096 A 
ATOM     10  HN1 IND d   1       0.401  -0.415   1.972  0.00  0.00     0.298 HD
ENDROOT
TORSDOF 0
ENDMDL
