MODEL 1
REMARK minimizedAffinity -4.61257839
REMARK minimizedRMSD -1
REMARK  0 active torsions:
REMARK  status: ('A' for Active; 'I' for Inactive)
ROOT
ATOM      1  N1  IND d   1      -1.442   2.849   0.118  0.00  0.00    -0.196 N 
ATOM      2  C2  IND d   1      -1.519   3.124   1.455  0.00  0.00     0.054 A 
ATOM      3  C3  IND d   1      -0.955   2.127   2.173  0.00  0.00    -0.031 A 
ATOM      4  C4  IND d   1       0.247   0.001   1.357  0.00  0.00     0.051 A 
ATOM      5  C5  IND d   1       0.538  -0.703   0.223  0.00  0.00    -0.031 A 
ATOM      6  C6  IND d   1       0.180  -0.249  -1.030  0.00  0.00     0.015 A 
ATOM      7  C7  IND d   1      -0.477   0.937  -1.197  0.00  0.00    -0.016 A 
ATOM      8  C8  IND d   1      -0.780   1.652  -0.047  0.00  0.00    -0.047 A 
ATOM      9  C9  IND d   1      -0.456   1.176   1.230  0.00  0.00    -0.096 A 
ATOM     10  HN1 IND d   1      -1.753   3.342  -0.515  0.00  0.00     0.298 HD
ENDROOT
TORSDOF 0
ENDMDL
