MODEL 1
REMARK minimizedAffinity -3.38997293
REMARK minimizedRMSD -1
REMARK  1 active torsions:
REMARK  status: ('A' for Active; 'I' for Inactive)
REMARK    1  A    between atoms: N_2  and  C1_3 
ROOT
ATOM      1  C1  UNL d   1      -0.242   0.278   0.003  0.00  0.00     0.143 A 
ATOM      2  C2  UNL d   1       0.469   1.397   0.450  0.00  0.00    -0.057 A 
ATOM      3  C3  UNL d   1       1.840   1.322   0.726  0.00  0.00     0.033 A 
ATOM      4  C4  UNL d   1       2.519   0.116   0.587  0.00  0.00    -0.042 A 
ATOM      5  C5  UNL d   1       1.827  -1.014   0.168  0.00  0.00     0.033 A 
ATOM      6  C6  UNL d   1       0.459  -0.932  -0.113  0.00  0.00    -0.057 A 
ENDROOT
BRANCH   1   7
ATOM      7  N   UNL d   1      -1.625   0.264  -0.194  0.00  0.00    -0.732 N 
ATOM      8  C   UNL d   1      -2.182  -0.037  -1.495  0.00  0.00     0.284 C 
ATOM      9  H3  UNL d   1      -2.124  -0.167   0.581  0.00  0.00     0.395 HD
ENDBRANCH   1   7
TORSDOF 1
ENDMDL
