MODEL 1
REMARK minimizedAffinity -3.47576594
REMARK minimizedRMSD -1
REMARK  1 active torsions:
REMARK  status: ('A' for Active; 'I' for Inactive)
REMARK    1  A    between atoms: N_2  and  C1_3 
ROOT
ATOM      1  C1  UNL d   1      -0.093  -0.053   0.229  0.00  0.00     0.143 A 
ATOM      2  C2  UNL d   1       0.639  -1.245   0.244  0.00  0.00    -0.057 A 
ATOM      3  C3  UNL d   1       2.008  -1.253   0.536  0.00  0.00     0.033 A 
ATOM      4  C4  UNL d   1       2.678  -0.060   0.790  0.00  0.00    -0.042 A 
ATOM      5  C5  UNL d   1       1.976   1.139   0.756  0.00  0.00     0.033 A 
ATOM      6  C6  UNL d   1       0.607   1.140   0.471  0.00  0.00    -0.057 A 
ENDROOT
BRANCH   1   7
ATOM      7  N   UNL d   1      -1.435   0.032  -0.150  0.00  0.00    -0.732 N 
ATOM      8  C   UNL d   1      -1.817  -0.084  -1.541  0.00  0.00     0.284 C 
ATOM      9  H3  UNL d   1      -2.052  -0.461   0.493  0.00  0.00     0.395 HD
ENDBRANCH   1   7
TORSDOF 1
ENDMDL
