MODEL 1
REMARK minimizedAffinity -4.6021328
REMARK minimizedRMSD -1
REMARK  1 active torsions:
REMARK  status: ('A' for Active; 'I' for Inactive)
REMARK    1  A    between atoms: N_2  and  C1_3 
ROOT
ATOM      1  C1  UNL d   1       0.072   0.205  -0.086  0.00  0.00     0.143 A 
ATOM      2  C2  UNL d   1       0.716  -0.964   0.333  0.00  0.00    -0.057 A 
ATOM      3  C3  UNL d   1       2.043  -0.942   0.779  0.00  0.00     0.033 A 
ATOM      4  C4  UNL d   1       2.760   0.250   0.786  0.00  0.00    -0.042 A 
ATOM      5  C5  UNL d   1       2.148   1.420   0.350  0.00  0.00     0.033 A 
ATOM      6  C6  UNL d   1       0.821   1.392  -0.088  0.00  0.00    -0.057 A 
ENDROOT
BRANCH   1   7
ATOM      7  N   UNL d   1      -1.214   0.231  -0.633  0.00  0.00    -0.732 N 
ATOM      8  C   UNL d   1      -2.344  -0.278   0.115  0.00  0.00     0.284 C 
ATOM      9  H3  UNL d   1      -1.404   1.094  -1.138  0.00  0.00     0.395 HD
ENDBRANCH   1   7
TORSDOF 1
ENDMDL
