MODEL 1
REMARK minimizedAffinity -5.3831563
REMARK minimizedRMSD -1
REMARK  1 active torsions:
REMARK  status: ('A' for Active; 'I' for Inactive)
REMARK    1  A    between atoms: N_2  and  C1_3 
ROOT
ATOM      1  C1  UNL d   1       0.831  -0.283   0.548  0.00  0.00     0.143 A 
ATOM      2  C2  UNL d   1       2.122   0.194   0.796  0.00  0.00    -0.057 A 
ATOM      3  C3  UNL d   1       3.033  -0.541   1.564  0.00  0.00     0.033 A 
ATOM      4  C4  UNL d   1       2.657  -1.757   2.125  0.00  0.00    -0.042 A 
ATOM      5  C5  UNL d   1       1.370  -2.239   1.912  0.00  0.00     0.033 A 
ATOM      6  C6  UNL d   1       0.468  -1.504   1.138  0.00  0.00    -0.057 A 
ENDROOT
BRANCH   1   7
ATOM      7  N   UNL d   1      -0.152   0.446  -0.126  0.00  0.00    -0.732 N 
ATOM      8  C   UNL d   1      -1.446  -0.141  -0.402  0.00  0.00     0.284 C 
ATOM      9  H3  UNL d   1      -0.193   1.416   0.178  0.00  0.00     0.395 HD
ENDBRANCH   1   7
TORSDOF 1
ENDMDL
