MODEL 1
REMARK minimizedAffinity -1.93203342
REMARK minimizedRMSD -1
REMARK  1 active torsions:
REMARK  status: ('A' for Active; 'I' for Inactive)
REMARK    1  A    between atoms: N_2  and  C1_3 
ROOT
ATOM      1  C1  UNL d   1       1.715   0.436   0.698  0.00  0.00     0.143 A 
ATOM      2  C2  UNL d   1       1.155  -0.845   0.639  0.00  0.00    -0.057 A 
ATOM      3  C3  UNL d   1      -0.179  -1.037   0.260  0.00  0.00     0.033 A 
ATOM      4  C4  UNL d   1      -0.987   0.054  -0.039  0.00  0.00    -0.042 A 
ATOM      5  C5  UNL d   1      -0.459   1.338   0.036  0.00  0.00     0.033 A 
ATOM      6  C6  UNL d   1       0.876   1.523   0.409  0.00  0.00    -0.057 A 
ENDROOT
BRANCH   1   7
ATOM      7  N   UNL d   1       3.006   0.699   1.162  0.00  0.00    -0.732 N 
ATOM      8  C   UNL d   1       4.059  -0.282   1.011  0.00  0.00     0.284 C 
ATOM      9  H3  UNL d   1       3.299   1.655   0.973  0.00  0.00     0.395 HD
ENDBRANCH   1   7
TORSDOF 1
ENDMDL
