MODEL 1
REMARK minimizedAffinity -2.60046649
REMARK minimizedRMSD -1
REMARK  1 active torsions:
REMARK  status: ('A' for Active; 'I' for Inactive)
REMARK    1  A    between atoms: N_2  and  C1_3 
ROOT
ATOM      1  C1  UNL d   1       0.887   0.421   0.630  0.00  0.00     0.143 A 
ATOM      2  C2  UNL d   1       1.960   1.118   1.195  0.00  0.00    -0.057 A 
ATOM      3  C3  UNL d   1       2.935   0.460   1.954  0.00  0.00     0.033 A 
ATOM      4  C4  UNL d   1       2.837  -0.908   2.186  0.00  0.00    -0.042 A 
ATOM      5  C5  UNL d   1       1.766  -1.618   1.655  0.00  0.00     0.033 A 
ATOM      6  C6  UNL d   1       0.799  -0.955   0.892  0.00  0.00    -0.057 A 
ENDROOT
BRANCH   1   7
ATOM      7  N   UNL d   1      -0.167   1.034  -0.052  0.00  0.00    -0.732 N 
ATOM      8  C   UNL d   1      -0.945   0.297  -1.024  0.00  0.00     0.284 C 
ATOM      9  H3  UNL d   1      -0.720   1.638   0.552  0.00  0.00     0.395 HD
ENDBRANCH   1   7
TORSDOF 1
ENDMDL
