MODEL 1
REMARK minimizedAffinity -3.93308377
REMARK minimizedRMSD -1
REMARK  1 active torsions:
REMARK  status: ('A' for Active; 'I' for Inactive)
REMARK    1  A    between atoms: N_2  and  C1_3 
ROOT
ATOM      1  C1  UNL d   1       0.237  -0.056   0.200  0.00  0.00     0.143 A 
ATOM      2  C2  UNL d   1       0.870   1.185   0.333  0.00  0.00    -0.057 A 
ATOM      3  C3  UNL d   1       2.255   1.278   0.513  0.00  0.00     0.033 A 
ATOM      4  C4  UNL d   1       3.031   0.126   0.594  0.00  0.00    -0.042 A 
ATOM      5  C5  UNL d   1       2.421  -1.118   0.490  0.00  0.00     0.033 A 
ATOM      6  C6  UNL d   1       1.038  -1.205   0.303  0.00  0.00    -0.057 A 
ENDROOT
BRANCH   1   7
ATOM      7  N   UNL d   1      -1.148  -0.218   0.118  0.00  0.00    -0.732 N 
ATOM      8  C   UNL d   1      -1.862   0.145  -1.087  0.00  0.00     0.284 C 
ATOM      9  H3  UNL d   1      -1.463  -1.088   0.542  0.00  0.00     0.395 HD
ENDBRANCH   1   7
TORSDOF 1
ENDMDL
