MODEL 1
REMARK minimizedAffinity -4.88948488
REMARK minimizedRMSD -1
REMARK  1 active torsions:
REMARK  status: ('A' for Active; 'I' for Inactive)
REMARK    1  A    between atoms: N_2  and  C1_3 
ROOT
ATOM      1  C1  UNL d   1      -0.131  -0.147   0.571  0.00  0.00     0.143 A 
ATOM      2  C2  UNL d   1       0.459   1.120   0.516  0.00  0.00    -0.057 A 
ATOM      3  C3  UNL d   1       1.798   1.314   0.880  0.00  0.00     0.033 A 
ATOM      4  C4  UNL d   1       2.563   0.245   1.333  0.00  0.00    -0.042 A 
ATOM      5  C5  UNL d   1       1.990  -1.019   1.420  0.00  0.00     0.033 A 
ATOM      6  C6  UNL d   1       0.656  -1.207   1.049  0.00  0.00    -0.057 A 
ENDROOT
BRANCH   1   7
ATOM      7  N   UNL d   1      -1.483  -0.387   0.317  0.00  0.00    -0.732 N 
ATOM      8  C   UNL d   1      -2.061  -0.060  -0.969  0.00  0.00     0.284 C 
ATOM      9  H3  UNL d   1      -1.799  -1.275   0.701  0.00  0.00     0.395 HD
ENDBRANCH   1   7
TORSDOF 1
ENDMDL
