MODEL 1
REMARK minimizedAffinity -2.68134499
REMARK minimizedRMSD -1
REMARK  0 active torsions:
REMARK  status: ('A' for Active; 'I' for Inactive)
ROOT
ATOM      1  C   UNL d   1       1.835   0.042  -2.069  0.00  0.00     0.124 A 
ATOM      2  C1  UNL d   1       1.716   1.323  -1.546  0.00  0.00     0.062 A 
ATOM      3  C2  UNL d   1       0.822   1.575  -0.509  0.00  0.00     0.162 A 
ATOM      4  C3  UNL d   1       0.040   0.545   0.012  0.00  0.00    -0.034 A 
ATOM      5  C4  UNL d   1       0.164  -0.740  -0.519  0.00  0.00     0.162 A 
ATOM      6  C5  UNL d   1       1.059  -0.987  -1.555  0.00  0.00     0.062 A 
ATOM      7  F   UNL d   1       1.172  -2.225  -2.059  0.00  0.00    -0.097 F 
ATOM      8  F1  UNL d   1      -0.573  -1.753  -0.041  0.00  0.00    -0.096 F 
ATOM      9  I   UNL d   1      -1.298   0.919   1.562  0.00  0.00    -0.060 I 
ATOM     10  F2  UNL d   1       0.728   2.822  -0.024  0.00  0.00    -0.096 F 
ATOM     11  F3  UNL d   1       2.464   2.319  -2.041  0.00  0.00    -0.097 F 
ATOM     12  F4  UNL d   1       2.695  -0.198  -3.066  0.00  0.00    -0.092 F 
ENDROOT
TORSDOF 0
ENDMDL
