MODEL 1
REMARK minimizedAffinity 1.72919595
REMARK minimizedRMSD -1
REMARK  0 active torsions:
REMARK  status: ('A' for Active; 'I' for Inactive)
ROOT
ATOM      1  C   UNL d   1      -1.317   0.002   1.708  0.00  0.00     0.124 A 
ATOM      2  C1  UNL d   1      -0.374  -0.976   1.419  0.00  0.00     0.062 A 
ATOM      3  C2  UNL d   1       0.425  -0.864   0.285  0.00  0.00     0.162 A 
ATOM      4  C3  UNL d   1       0.286   0.230  -0.569  0.00  0.00    -0.034 A 
ATOM      5  C4  UNL d   1      -0.665   1.208  -0.272  0.00  0.00     0.162 A 
ATOM      6  C5  UNL d   1      -1.461   1.092   0.862  0.00  0.00     0.062 A 
ATOM      7  F   UNL d   1      -2.371   2.038   1.140  0.00  0.00    -0.097 F 
ATOM      8  F1  UNL d   1      -0.825   2.273  -1.072  0.00  0.00    -0.096 F 
ATOM      9  I   UNL d   1       1.479   0.400  -2.266  0.00  0.00    -0.060 I 
ATOM     10  F2  UNL d   1       1.327  -1.824   0.031  0.00  0.00    -0.096 F 
ATOM     11  F3  UNL d   1      -0.234  -2.031   2.234  0.00  0.00    -0.097 F 
ATOM     12  F4  UNL d   1      -2.085  -0.109   2.800  0.00  0.00    -0.092 F 
ENDROOT
TORSDOF 0
ENDMDL
