MODEL 1
REMARK minimizedAffinity -0.730015039
REMARK minimizedRMSD -1
REMARK  0 active torsions:
REMARK  status: ('A' for Active; 'I' for Inactive)
ROOT
ATOM      1  C   UNL d   1       1.382  -0.309  -1.093  0.00  0.00     0.124 A 
ATOM      2  C1  UNL d   1       0.548  -1.281  -0.559  0.00  0.00     0.062 A 
ATOM      3  C2  UNL d   1      -0.288  -0.975   0.511  0.00  0.00     0.162 A 
ATOM      4  C3  UNL d   1      -0.295   0.310   1.054  0.00  0.00    -0.034 A 
ATOM      5  C4  UNL d   1       0.548   1.282   0.512  0.00  0.00     0.162 A 
ATOM      6  C5  UNL d   1       1.382   0.971  -0.557  0.00  0.00     0.062 A 
ATOM      7  F   UNL d   1       2.188   1.912  -1.072  0.00  0.00    -0.097 F 
ATOM      8  F1  UNL d   1       0.567   2.527   1.010  0.00  0.00    -0.096 F 
ATOM      9  I   UNL d   1      -1.543   0.771   2.654  0.00  0.00    -0.060 I 
ATOM     10  F2  UNL d   1      -1.084  -1.934   1.007  0.00  0.00    -0.096 F 
ATOM     11  F3  UNL d   1       0.547  -2.519  -1.074  0.00  0.00    -0.097 F 
ATOM     12  F4  UNL d   1       2.186  -0.606  -2.122  0.00  0.00    -0.092 F 
ENDROOT
TORSDOF 0
ENDMDL
