MODEL 1
REMARK minimizedAffinity -5.30096722
REMARK minimizedRMSD -1
REMARK  0 active torsions:
REMARK  status: ('A' for Active; 'I' for Inactive)
ROOT
ATOM      1  C   UNL d   1       1.059   1.730  -0.529  0.00  0.00     0.124 A 
ATOM      2  C1  UNL d   1       0.551   0.824   0.392  0.00  0.00     0.062 A 
ATOM      3  C2  UNL d   1       0.680  -0.544   0.172  0.00  0.00     0.162 A 
ATOM      4  C3  UNL d   1       1.322  -1.016  -0.973  0.00  0.00    -0.034 A 
ATOM      5  C4  UNL d   1       1.830  -0.099  -1.895  0.00  0.00     0.162 A 
ATOM      6  C5  UNL d   1       1.698   1.268  -1.671  0.00  0.00     0.062 A 
ATOM      7  F   UNL d   1       2.190   2.142  -2.561  0.00  0.00    -0.097 F 
ATOM      8  F1  UNL d   1       2.452  -0.517  -3.007  0.00  0.00    -0.096 F 
ATOM      9  I   UNL d   1       1.517  -3.061  -1.305  0.00  0.00    -0.060 I 
ATOM     10  F2  UNL d   1       0.179  -1.397   1.079  0.00  0.00    -0.096 F 
ATOM     11  F3  UNL d   1      -0.067   1.268   1.496  0.00  0.00    -0.097 F 
ATOM     12  F4  UNL d   1       0.933   3.046  -0.315  0.00  0.00    -0.092 F 
ENDROOT
TORSDOF 0
ENDMDL
