MODEL 1
REMARK minimizedAffinity -1.60971498
REMARK minimizedRMSD -1
REMARK  0 active torsions:
REMARK  status: ('A' for Active; 'I' for Inactive)
ROOT
ATOM      1  C   UNL d   1       1.635   1.614  -1.346  0.00  0.00     0.124 A 
ATOM      2  C1  UNL d   1       1.317   0.335  -1.782  0.00  0.00     0.062 A 
ATOM      3  C2  UNL d   1       0.387  -0.431  -1.086  0.00  0.00     0.162 A 
ATOM      4  C3  UNL d   1      -0.234   0.080   0.054  0.00  0.00    -0.034 A 
ATOM      5  C4  UNL d   1       0.092   1.366   0.488  0.00  0.00     0.162 A 
ATOM      6  C5  UNL d   1       1.023   2.128  -0.212  0.00  0.00     0.062 A 
ATOM      7  F   UNL d   1       1.329   3.363   0.211  0.00  0.00    -0.097 F 
ATOM      8  F1  UNL d   1      -0.485   1.888   1.580  0.00  0.00    -0.096 F 
ATOM      9  I   UNL d   1      -1.625  -1.062   1.098  0.00  0.00    -0.060 I 
ATOM     10  F2  UNL d   1       0.098  -1.663  -1.530  0.00  0.00    -0.096 F 
ATOM     11  F3  UNL d   1       1.908  -0.164  -2.877  0.00  0.00    -0.097 F 
ATOM     12  F4  UNL d   1       2.531   2.348  -2.018  0.00  0.00    -0.092 F 
ENDROOT
TORSDOF 0
ENDMDL
