MODEL 1
REMARK minimizedAffinity -4.74972153
REMARK minimizedRMSD -1
REMARK  0 active torsions:
REMARK  status: ('A' for Active; 'I' for Inactive)
ROOT
ATOM      1  C   UNL d   1       2.141  -0.817  -1.893  0.00  0.00     0.124 A 
ATOM      2  C1  UNL d   1       1.412  -1.822  -1.272  0.00  0.00     0.062 A 
ATOM      3  C2  UNL d   1       0.444  -1.501  -0.325  0.00  0.00     0.162 A 
ATOM      4  C3  UNL d   1       0.197  -0.169   0.006  0.00  0.00    -0.034 A 
ATOM      5  C4  UNL d   1       0.935   0.836  -0.622  0.00  0.00     0.162 A 
ATOM      6  C5  UNL d   1       1.902   0.511  -1.568  0.00  0.00     0.062 A 
ATOM      7  F   UNL d   1       2.605   1.483  -2.167  0.00  0.00    -0.097 F 
ATOM      8  F1  UNL d   1       0.723   2.127  -0.327  0.00  0.00    -0.096 F 
ATOM      9  I   UNL d   1      -1.250   0.315   1.421  0.00  0.00    -0.060 I 
ATOM     10  F2  UNL d   1      -0.245  -2.493   0.259  0.00  0.00    -0.096 F 
ATOM     11  F3  UNL d   1       1.643  -3.106  -1.583  0.00  0.00    -0.097 F 
ATOM     12  F4  UNL d   1       3.073  -1.128  -2.803  0.00  0.00    -0.092 F 
ENDROOT
TORSDOF 0
ENDMDL
