MODEL 1
REMARK minimizedAffinity 0.38758868
REMARK minimizedRMSD -1
REMARK  0 active torsions:
REMARK  status: ('A' for Active; 'I' for Inactive)
ROOT
ATOM      1  C   UNL d   1       1.028   1.513  -0.658  0.00  0.00     0.124 A 
ATOM      2  C1  UNL d   1       0.581   0.743   0.408  0.00  0.00     0.062 A 
ATOM      3  C2  UNL d   1       0.466  -0.637   0.274  0.00  0.00     0.162 A 
ATOM      4  C3  UNL d   1       0.799  -1.258  -0.929  0.00  0.00    -0.034 A 
ATOM      5  C4  UNL d   1       1.247  -0.478  -1.997  0.00  0.00     0.162 A 
ATOM      6  C5  UNL d   1       1.360   0.902  -1.859  0.00  0.00     0.062 A 
ATOM      7  F   UNL d   1       1.792   1.643  -2.889  0.00  0.00    -0.097 F 
ATOM      8  F1  UNL d   1       1.575  -1.043  -3.168  0.00  0.00    -0.096 F 
ATOM      9  I   UNL d   1       0.627  -3.322  -1.133  0.00  0.00    -0.060 I 
ATOM     10  F2  UNL d   1       0.031  -1.356   1.320  0.00  0.00    -0.096 F 
ATOM     11  F3  UNL d   1       0.259   1.332   1.569  0.00  0.00    -0.097 F 
ATOM     12  F4  UNL d   1       1.137   2.841  -0.527  0.00  0.00    -0.092 F 
ENDROOT
TORSDOF 0
ENDMDL
