MODEL 1
REMARK minimizedAffinity -2.54065895
REMARK minimizedRMSD -1
REMARK  0 active torsions:
REMARK  status: ('A' for Active; 'I' for Inactive)
ROOT
ATOM      1  C   UNL d   1      -0.534  -0.405   1.979  0.00  0.00     0.124 A 
ATOM      2  C1  UNL d   1      -0.055   0.824   1.546  0.00  0.00     0.062 A 
ATOM      3  C2  UNL d   1       0.504   0.950   0.278  0.00  0.00     0.162 A 
ATOM      4  C3  UNL d   1       0.586  -0.155  -0.568  0.00  0.00    -0.034 A 
ATOM      5  C4  UNL d   1       0.103  -1.388  -0.126  0.00  0.00     0.162 A 
ATOM      6  C5  UNL d   1      -0.455  -1.509   1.142  0.00  0.00     0.062 A 
ATOM      7  F   UNL d   1      -0.917  -2.697   1.558  0.00  0.00    -0.097 F 
ATOM      8  F1  UNL d   1       0.166  -2.472  -0.914  0.00  0.00    -0.096 F 
ATOM      9  I   UNL d   1       1.421   0.029  -2.466  0.00  0.00    -0.060 I 
ATOM     10  F2  UNL d   1       0.959   2.150  -0.114  0.00  0.00    -0.096 F 
ATOM     11  F3  UNL d   1      -0.130   1.893   2.353  0.00  0.00    -0.097 F 
ATOM     12  F4  UNL d   1      -1.071  -0.524   3.200  0.00  0.00    -0.092 F 
ENDROOT
TORSDOF 0
ENDMDL
