MODEL 1
REMARK minimizedAffinity -3.17831087
REMARK minimizedRMSD -1
REMARK  0 active torsions:
REMARK  status: ('A' for Active; 'I' for Inactive)
ROOT
ATOM      1  C   UNL d   1       1.662  -1.330  -2.029  0.00  0.00     0.124 A 
ATOM      2  C1  UNL d   1       1.456  -0.019  -1.620  0.00  0.00     0.062 A 
ATOM      3  C2  UNL d   1       0.547   0.262  -0.604  0.00  0.00     0.162 A 
ATOM      4  C3  UNL d   1      -0.162  -0.770   0.011  0.00  0.00    -0.034 A 
ATOM      5  C4  UNL d   1       0.050  -2.085  -0.407  0.00  0.00     0.162 A 
ATOM      6  C5  UNL d   1       0.960  -2.361  -1.422  0.00  0.00     0.062 A 
ATOM      7  F   UNL d   1       1.158  -3.627  -1.816  0.00  0.00    -0.097 F 
ATOM      8  F1  UNL d   1      -0.615  -3.101   0.163  0.00  0.00    -0.096 F 
ATOM      9  I   UNL d   1      -1.522  -0.354   1.531  0.00  0.00    -0.060 I 
ATOM     10  F2  UNL d   1       0.367   1.537  -0.229  0.00  0.00    -0.096 F 
ATOM     11  F3  UNL d   1       2.133   0.979  -2.205  0.00  0.00    -0.097 F 
ATOM     12  F4  UNL d   1       2.537  -1.597  -3.008  0.00  0.00    -0.092 F 
ENDROOT
TORSDOF 0
ENDMDL
