MODEL 1
REMARK minimizedAffinity -2.2685442
REMARK minimizedRMSD -1
REMARK  0 active torsions:
REMARK  status: ('A' for Active; 'I' for Inactive)
ROOT
ATOM      1  C   UNL d   1       1.144   0.776  -0.547  0.00  0.00     0.124 A 
ATOM      2  C1  UNL d   1       0.236   0.146  -1.387  0.00  0.00     0.062 A 
ATOM      3  C2  UNL d   1      -1.007  -0.250  -0.902  0.00  0.00     0.162 A 
ATOM      4  C3  UNL d   1      -1.351  -0.016   0.429  0.00  0.00    -0.034 A 
ATOM      5  C4  UNL d   1      -0.432   0.618   1.268  0.00  0.00     0.162 A 
ATOM      6  C5  UNL d   1       0.809   1.011   0.779  0.00  0.00     0.062 A 
ATOM      7  F   UNL d   1       1.686   1.620   1.592  0.00  0.00    -0.097 F 
ATOM      8  F1  UNL d   1      -0.730   0.858   2.553  0.00  0.00    -0.096 F 
ATOM      9  I   UNL d   1      -3.209  -0.606   1.158  0.00  0.00    -0.060 I 
ATOM     10  F2  UNL d   1      -1.865  -0.857  -1.736  0.00  0.00    -0.096 F 
ATOM     11  F3  UNL d   1       0.557  -0.083  -2.668  0.00  0.00    -0.097 F 
ATOM     12  F4  UNL d   1       2.340   1.155  -1.016  0.00  0.00    -0.092 F 
ENDROOT
TORSDOF 0
ENDMDL
