MODEL 1
REMARK minimizedAffinity -3.76413751
REMARK minimizedRMSD -1
REMARK  0 active torsions:
REMARK  status: ('A' for Active; 'I' for Inactive)
ROOT
ATOM      1  C   UNL d   1       1.098   1.439  -0.002  0.00  0.00     0.124 A 
ATOM      2  C1  UNL d   1       0.190   0.545   0.549  0.00  0.00     0.062 A 
ATOM      3  C2  UNL d   1       0.025  -0.719  -0.009  0.00  0.00     0.162 A 
ATOM      4  C3  UNL d   1       0.772  -1.098  -1.125  0.00  0.00    -0.034 A 
ATOM      5  C4  UNL d   1       1.682  -0.193  -1.675  0.00  0.00     0.162 A 
ATOM      6  C5  UNL d   1       1.843   1.069  -1.113  0.00  0.00     0.062 A 
ATOM      7  F   UNL d   1       2.721   1.931  -1.646  0.00  0.00    -0.097 F 
ATOM      8  F1  UNL d   1       2.416  -0.525  -2.747  0.00  0.00    -0.096 F 
ATOM      9  I   UNL d   1       0.528  -2.988  -1.963  0.00  0.00    -0.060 I 
ATOM     10  F2  UNL d   1      -0.859  -1.562   0.544  0.00  0.00    -0.096 F 
ATOM     11  F3  UNL d   1      -0.532   0.901   1.622  0.00  0.00    -0.097 F 
ATOM     12  F4  UNL d   1       1.254   2.655   0.537  0.00  0.00    -0.092 F 
ENDROOT
TORSDOF 0
ENDMDL
