MODEL 1
REMARK minimizedAffinity -3.71175647
REMARK minimizedRMSD -1
REMARK  0 active torsions:
REMARK  status: ('A' for Active; 'I' for Inactive)
ROOT
ATOM      1  C   UNL d   1       0.205  -0.679  -1.090  0.00  0.00     0.124 A 
ATOM      2  C1  UNL d   1      -0.251  -0.292   0.162  0.00  0.00     0.062 A 
ATOM      3  C2  UNL d   1       0.120   0.940   0.693  0.00  0.00     0.162 A 
ATOM      4  C3  UNL d   1       0.951   1.796  -0.029  0.00  0.00    -0.034 A 
ATOM      5  C4  UNL d   1       1.406   1.400  -1.288  0.00  0.00     0.162 A 
ATOM      6  C5  UNL d   1       1.033   0.168  -1.814  0.00  0.00     0.062 A 
ATOM      7  F   UNL d   1       1.474  -0.204  -3.025  0.00  0.00    -0.097 F 
ATOM      8  F1  UNL d   1       2.207   2.199  -2.010  0.00  0.00    -0.096 F 
ATOM      9  I   UNL d   1       1.508   3.639   0.761  0.00  0.00    -0.060 I 
ATOM     10  F2  UNL d   1      -0.336   1.287   1.906  0.00  0.00    -0.096 F 
ATOM     11  F3  UNL d   1      -1.050  -1.109   0.864  0.00  0.00    -0.097 F 
ATOM     12  F4  UNL d   1      -0.153  -1.865  -1.598  0.00  0.00    -0.092 F 
ENDROOT
TORSDOF 0
ENDMDL
