MODEL 1
REMARK minimizedAffinity 9.30785084
REMARK minimizedRMSD -1
REMARK  2 active torsions:
REMARK  status: ('A' for Active; 'I' for Inactive)
REMARK    1  A    between atoms: C1_2  and  C2_3 
REMARK    2  A    between atoms: C2_3  and  C3_4 
ROOT
ATOM      1  C3  UNL d   1       4.615   2.773   0.949  0.00  0.00    -0.075 A 
ATOM      2  C4  UNL d   1       4.016   2.613   2.207  0.00  0.00     0.002 A 
ATOM      3  C5  UNL d   1       4.416   1.580   3.055  0.00  0.00     0.002 A 
ATOM      4  C6  UNL d   1       5.410   0.690   2.653  0.00  0.00    -0.004 A 
ATOM      5  C7  UNL d   1       5.999   0.830   1.399  0.00  0.00     0.002 A 
ATOM      6  C8  UNL d   1       5.605   1.865   0.550  0.00  0.00     0.002 A 
ENDROOT
BRANCH   1   7
ATOM      7  C2  UNL d   1       4.207   3.907   0.038  0.00  0.00     0.056 C 
BRANCH   7   8
ATOM      8  C1  UNL d   1       5.234   5.042  -0.043  0.00  0.00     0.007 C 
ATOM      9  C   UNL d   1       5.164   6.000   1.139  0.00  0.00     0.009 C 
ENDBRANCH   7   8
ENDBRANCH   1   7
TORSDOF 2
ENDMDL
