MODEL 1
REMARK minimizedAffinity 6.54759312
REMARK minimizedRMSD -1
REMARK  2 active torsions:
REMARK  status: ('A' for Active; 'I' for Inactive)
REMARK    1  A    between atoms: C1_2  and  C2_3 
REMARK    2  A    between atoms: C2_3  and  C3_4 
ROOT
ATOM      1  C3  UNL d   1       3.866   2.157   2.061  0.00  0.00    -0.075 A 
ATOM      2  C4  UNL d   1       2.841   1.500   1.366  0.00  0.00     0.002 A 
ATOM      3  C5  UNL d   1       2.550   1.840   0.044  0.00  0.00     0.002 A 
ATOM      4  C6  UNL d   1       3.273   2.845  -0.595  0.00  0.00    -0.004 A 
ATOM      5  C7  UNL d   1       4.283   3.516   0.092  0.00  0.00     0.002 A 
ATOM      6  C8  UNL d   1       4.579   3.175   1.413  0.00  0.00     0.002 A 
ENDROOT
BRANCH   1   7
ATOM      7  C2  UNL d   1       4.205   1.774   3.482  0.00  0.00     0.056 C 
BRANCH   7   8
ATOM      8  C1  UNL d   1       3.820   2.831   4.522  0.00  0.00     0.007 C 
ATOM      9  C   UNL d   1       5.023   3.522   5.149  0.00  0.00     0.009 C 
ENDBRANCH   7   8
ENDBRANCH   1   7
TORSDOF 2
ENDMDL
