MODEL 1
REMARK minimizedAffinity 7.09293413
REMARK minimizedRMSD -1
REMARK  2 active torsions:
REMARK  status: ('A' for Active; 'I' for Inactive)
REMARK    1  A    between atoms: C1_2  and  C2_3 
REMARK    2  A    between atoms: C2_3  and  C3_4 
ROOT
ATOM      1  C3  UNL d   1      -1.532  -2.030   0.098  0.00  0.00    -0.075 A 
ATOM      2  C4  UNL d   1      -0.770  -3.110   0.567  0.00  0.00     0.002 A 
ATOM      3  C5  UNL d   1      -0.694  -3.384   1.933  0.00  0.00     0.002 A 
ATOM      4  C6  UNL d   1      -1.368  -2.577   2.846  0.00  0.00    -0.004 A 
ATOM      5  C7  UNL d   1      -2.114  -1.490   2.394  0.00  0.00     0.002 A 
ATOM      6  C8  UNL d   1      -2.195  -1.217   1.027  0.00  0.00     0.002 A 
ENDROOT
BRANCH   1   7
ATOM      7  C2  UNL d   1      -1.642  -1.746  -1.381  0.00  0.00     0.056 C 
BRANCH   7   8
ATOM      8  C1  UNL d   1      -2.999  -1.175  -1.807  0.00  0.00     0.007 C 
ATOM      9  C   UNL d   1      -2.906  -0.233  -3.000  0.00  0.00     0.009 C 
ENDBRANCH   7   8
ENDBRANCH   1   7
TORSDOF 2
ENDMDL
