MODEL 1
REMARK minimizedAffinity 8.84083462
REMARK minimizedRMSD -1
REMARK  2 active torsions:
REMARK  status: ('A' for Active; 'I' for Inactive)
REMARK    1  A    between atoms: C1_2  and  C2_3 
REMARK    2  A    between atoms: C2_3  and  C3_4 
ROOT
ATOM      1  C3  UNL d   1       3.832  -0.202  -2.388  0.00  0.00    -0.075 A 
ATOM      2  C4  UNL d   1       4.774  -1.202  -2.670  0.00  0.00     0.002 A 
ATOM      3  C5  UNL d   1       5.851  -0.942  -3.518  0.00  0.00     0.002 A 
ATOM      4  C6  UNL d   1       5.993   0.314  -4.103  0.00  0.00    -0.004 A 
ATOM      5  C7  UNL d   1       5.054   1.310  -3.844  0.00  0.00     0.002 A 
ATOM      6  C8  UNL d   1       3.978   1.054  -2.991  0.00  0.00     0.002 A 
ENDROOT
BRANCH   1   7
ATOM      7  C2  UNL d   1       2.682  -0.468  -1.447  0.00  0.00     0.056 C 
BRANCH   7   8
ATOM      8  C1  UNL d   1       1.793   0.753  -1.188  0.00  0.00     0.007 C 
ATOM      9  C   UNL d   1       2.268   1.605  -0.019  0.00  0.00     0.009 C 
ENDBRANCH   7   8
ENDBRANCH   1   7
TORSDOF 2
ENDMDL
