MODEL 1
REMARK minimizedAffinity 14.0529547
REMARK minimizedRMSD -1
REMARK  2 active torsions:
REMARK  status: ('A' for Active; 'I' for Inactive)
REMARK    1  A    between atoms: C1_2  and  C2_3 
REMARK    2  A    between atoms: C2_3  and  C3_4 
ROOT
ATOM      1  C3  UNL d   1       3.323   2.437   0.186  0.00  0.00    -0.075 A 
ATOM      2  C4  UNL d   1       3.709   1.127   0.504  0.00  0.00     0.002 A 
ATOM      3  C5  UNL d   1       3.105   0.038  -0.125  0.00  0.00     0.002 A 
ATOM      4  C6  UNL d   1       2.102   0.244  -1.069  0.00  0.00    -0.004 A 
ATOM      5  C7  UNL d   1       1.698   1.541  -1.380  0.00  0.00     0.002 A 
ATOM      6  C8  UNL d   1       2.305   2.632  -0.756  0.00  0.00     0.002 A 
ENDROOT
BRANCH   1   7
ATOM      7  C2  UNL d   1       3.994   3.621   0.842  0.00  0.00     0.056 C 
BRANCH   7   8
ATOM      8  C1  UNL d   1       4.565   4.641  -0.149  0.00  0.00     0.007 C 
ATOM      9  C   UNL d   1       4.840   6.000   0.481  0.00  0.00     0.009 C 
ENDBRANCH   7   8
ENDBRANCH   1   7
TORSDOF 2
ENDMDL
