MODEL 1
REMARK minimizedAffinity 16.9135647
REMARK minimizedRMSD -1
REMARK  2 active torsions:
REMARK  status: ('A' for Active; 'I' for Inactive)
REMARK    1  A    between atoms: C1_2  and  C2_3 
REMARK    2  A    between atoms: C2_3  and  C3_4 
ROOT
ATOM      1  C3  UNL d   1      -1.143  -2.700   0.427  0.00  0.00    -0.075 A 
ATOM      2  C4  UNL d   1      -2.241  -1.835   0.532  0.00  0.00     0.002 A 
ATOM      3  C5  UNL d   1      -2.604  -1.017  -0.539  0.00  0.00     0.002 A 
ATOM      4  C6  UNL d   1      -1.869  -1.047  -1.722  0.00  0.00    -0.004 A 
ATOM      5  C7  UNL d   1      -0.766  -1.891  -1.832  0.00  0.00     0.002 A 
ATOM      6  C8  UNL d   1      -0.403  -2.713  -0.764  0.00  0.00     0.002 A 
ENDROOT
BRANCH   1   7
ATOM      7  C2  UNL d   1      -0.763  -3.609   1.571  0.00  0.00     0.056 C 
BRANCH   7   8
ATOM      8  C1  UNL d   1      -0.424  -5.041   1.145  0.00  0.00     0.007 C 
ATOM      9  C   UNL d   1      -0.280  -5.999   2.320  0.00  0.00     0.009 C 
ENDBRANCH   7   8
ENDBRANCH   1   7
TORSDOF 2
ENDMDL
