MODEL 1
REMARK minimizedAffinity 21.4888248
REMARK minimizedRMSD -1
REMARK  2 active torsions:
REMARK  status: ('A' for Active; 'I' for Inactive)
REMARK    1  A    between atoms: C1_2  and  C2_3 
REMARK    2  A    between atoms: C2_3  and  C3_4 
ROOT
ATOM      1  C3  UNL d   1      -0.918  -3.445   0.286  0.00  0.00    -0.075 A 
ATOM      2  C4  UNL d   1      -1.000  -4.567  -0.552  0.00  0.00     0.002 A 
ATOM      3  C5  UNL d   1      -0.611  -5.825  -0.092  0.00  0.00     0.002 A 
ATOM      4  C6  UNL d   1      -0.126  -5.976   1.205  0.00  0.00    -0.004 A 
ATOM      5  C7  UNL d   1      -0.024  -4.866   2.041  0.00  0.00     0.002 A 
ATOM      6  C8  UNL d   1      -0.417  -3.606   1.584  0.00  0.00     0.002 A 
ENDROOT
BRANCH   1   7
ATOM      7  C2  UNL d   1      -1.365  -2.086  -0.197  0.00  0.00     0.056 C 
BRANCH   7   8
ATOM      8  C1  UNL d   1      -2.792  -1.714   0.222  0.00  0.00     0.007 C 
ATOM      9  C   UNL d   1      -3.467  -2.784   1.069  0.00  0.00     0.009 C 
ENDBRANCH   7   8
ENDBRANCH   1   7
TORSDOF 2
ENDMDL
