MODEL 1
REMARK minimizedAffinity -0.292227119
REMARK minimizedRMSD -1
REMARK  2 active torsions:
REMARK  status: ('A' for Active; 'I' for Inactive)
REMARK    1  A    between atoms: C1_2  and  C2_3 
REMARK    2  A    between atoms: C2_3  and  C3_4 
ROOT
ATOM      1  C3  UNL d   1       0.027  -0.587  -0.360  0.00  0.00    -0.075 A 
ATOM      2  C4  UNL d   1       0.794   0.472  -0.868  0.00  0.00     0.002 A 
ATOM      3  C5  UNL d   1       0.217   1.723  -1.087  0.00  0.00     0.002 A 
ATOM      4  C6  UNL d   1      -1.133   1.929  -0.812  0.00  0.00    -0.004 A 
ATOM      5  C7  UNL d   1      -1.908   0.880  -0.323  0.00  0.00     0.002 A 
ATOM      6  C8  UNL d   1      -1.333  -0.372  -0.099  0.00  0.00     0.002 A 
ENDROOT
BRANCH   1   7
ATOM      7  C2  UNL d   1       0.652  -1.935  -0.093  0.00  0.00     0.056 C 
BRANCH   7   8
ATOM      8  C1  UNL d   1       1.840  -2.263  -1.003  0.00  0.00     0.007 C 
ATOM      9  C   UNL d   1       1.547  -2.032  -2.480  0.00  0.00     0.009 C 
ENDBRANCH   7   8
ENDBRANCH   1   7
TORSDOF 2
ENDMDL
