MODEL 1
REMARK minimizedAffinity -1.78512394
REMARK minimizedRMSD -1
REMARK  2 active torsions:
REMARK  status: ('A' for Active; 'I' for Inactive)
REMARK    1  A    between atoms: C1_2  and  C2_3 
REMARK    2  A    between atoms: C2_3  and  C3_4 
ROOT
ATOM      1  C3  UNL d   1       0.349  -0.259  -0.048  0.00  0.00    -0.075 A 
ATOM      2  C4  UNL d   1       0.248   0.839  -0.915  0.00  0.00     0.002 A 
ATOM      3  C5  UNL d   1      -0.190   2.077  -0.442  0.00  0.00     0.002 A 
ATOM      4  C6  UNL d   1      -0.541   2.229   0.897  0.00  0.00    -0.004 A 
ATOM      5  C7  UNL d   1      -0.460   1.141   1.764  0.00  0.00     0.002 A 
ATOM      6  C8  UNL d   1      -0.018  -0.097   1.294  0.00  0.00     0.002 A 
ENDROOT
BRANCH   1   7
ATOM      7  C2  UNL d   1       0.850  -1.593  -0.548  0.00  0.00     0.056 C 
BRANCH   7   8
ATOM      8  C1  UNL d   1       2.262  -1.547  -1.140  0.00  0.00     0.007 C 
ATOM      9  C   UNL d   1       2.275  -1.549  -2.663  0.00  0.00     0.009 C 
ENDBRANCH   7   8
ENDBRANCH   1   7
TORSDOF 2
ENDMDL
