MODEL 1
REMARK minimizedAffinity -1.74145138
REMARK minimizedRMSD -1
REMARK  2 active torsions:
REMARK  status: ('A' for Active; 'I' for Inactive)
REMARK    1  A    between atoms: C1_2  and  C2_3 
REMARK    2  A    between atoms: C2_3  and  C3_4 
ROOT
ATOM      1  C3  UNL d   1      -0.971   0.036   0.618  0.00  0.00    -0.075 A 
ATOM      2  C4  UNL d   1      -1.005  -0.543  -0.659  0.00  0.00     0.002 A 
ATOM      3  C5  UNL d   1      -0.086  -1.531  -1.013  0.00  0.00     0.002 A 
ATOM      4  C6  UNL d   1       0.882  -1.945  -0.102  0.00  0.00    -0.004 A 
ATOM      5  C7  UNL d   1       0.936  -1.365   1.164  0.00  0.00     0.002 A 
ATOM      6  C8  UNL d   1       0.015  -0.379   1.523  0.00  0.00     0.002 A 
ENDROOT
BRANCH   1   7
ATOM      7  C2  UNL d   1      -1.981   1.086   1.018  0.00  0.00     0.056 C 
BRANCH   7   8
ATOM      8  C1  UNL d   1      -1.782   1.635   2.435  0.00  0.00     0.007 C 
ATOM      9  C   UNL d   1      -2.156   0.638   3.523  0.00  0.00     0.009 C 
ENDBRANCH   7   8
ENDBRANCH   1   7
TORSDOF 2
ENDMDL
