MODEL 1
REMARK minimizedAffinity -4.20264912
REMARK minimizedRMSD -1
REMARK  2 active torsions:
REMARK  status: ('A' for Active; 'I' for Inactive)
REMARK    1  A    between atoms: C1_2  and  C2_3 
REMARK    2  A    between atoms: C2_3  and  C3_4 
ROOT
ATOM      1  C3  UNL d   1      -0.298   0.404   1.418  0.00  0.00    -0.075 A 
ATOM      2  C4  UNL d   1       0.980  -0.063   1.759  0.00  0.00     0.002 A 
ATOM      3  C5  UNL d   1       1.589  -1.071   1.011  0.00  0.00     0.002 A 
ATOM      4  C6  UNL d   1       0.926  -1.631  -0.078  0.00  0.00    -0.004 A 
ATOM      5  C7  UNL d   1      -0.351  -1.187  -0.416  0.00  0.00     0.002 A 
ATOM      6  C8  UNL d   1      -0.961  -0.175   0.328  0.00  0.00     0.002 A 
ENDROOT
BRANCH   1   7
ATOM      7  C2  UNL d   1      -0.950   1.515   2.206  0.00  0.00     0.056 C 
BRANCH   7   8
ATOM      8  C1  UNL d   1      -2.015   1.035   3.198  0.00  0.00     0.007 C 
ATOM      9  C   UNL d   1      -1.481   0.036   4.215  0.00  0.00     0.009 C 
ENDBRANCH   7   8
ENDBRANCH   1   7
TORSDOF 2
ENDMDL
