MODEL 1
REMARK minimizedAffinity -3.78643203
REMARK minimizedRMSD -1
REMARK  2 active torsions:
REMARK  status: ('A' for Active; 'I' for Inactive)
REMARK    1  A    between atoms: C1_2  and  C2_3 
REMARK    2  A    between atoms: C2_3  and  C3_4 
ROOT
ATOM      1  C3  UNL d   1       0.238  -0.954   0.564  0.00  0.00    -0.075 A 
ATOM      2  C4  UNL d   1       0.595  -0.189   1.684  0.00  0.00     0.002 A 
ATOM      3  C5  UNL d   1      -0.179   0.906   2.070  0.00  0.00     0.002 A 
ATOM      4  C6  UNL d   1      -1.311   1.256   1.338  0.00  0.00    -0.004 A 
ATOM      5  C7  UNL d   1      -1.666   0.513   0.214  0.00  0.00     0.002 A 
ATOM      6  C8  UNL d   1      -0.896  -0.586  -0.172  0.00  0.00     0.002 A 
ENDROOT
BRANCH   1   7
ATOM      7  C2  UNL d   1       1.054  -2.158   0.159  0.00  0.00     0.056 C 
BRANCH   7   8
ATOM      8  C1  UNL d   1       1.882  -1.950  -1.114  0.00  0.00     0.007 C 
ATOM      9  C   UNL d   1       3.183  -1.196  -0.867  0.00  0.00     0.009 C 
ENDBRANCH   7   8
ENDBRANCH   1   7
TORSDOF 2
ENDMDL
