MODEL 1
REMARK minimizedAffinity -0.193861663
REMARK minimizedRMSD -1
REMARK  2 active torsions:
REMARK  status: ('A' for Active; 'I' for Inactive)
REMARK    1  A    between atoms: C1_2  and  C2_3 
REMARK    2  A    between atoms: C2_3  and  C3_4 
ROOT
ATOM      1  C3  UNL d   1       0.107   0.605   2.470  0.00  0.00    -0.075 A 
ATOM      2  C4  UNL d   1       0.762   0.894   3.676  0.00  0.00     0.002 A 
ATOM      3  C5  UNL d   1       0.081   1.525   4.718  0.00  0.00     0.002 A 
ATOM      4  C6  UNL d   1      -1.256   1.883   4.564  0.00  0.00    -0.004 A 
ATOM      5  C7  UNL d   1      -1.912   1.616   3.364  0.00  0.00     0.002 A 
ATOM      6  C8  UNL d   1      -1.235   0.981   2.322  0.00  0.00     0.002 A 
ENDROOT
BRANCH   1   7
ATOM      7  C2  UNL d   1       0.830  -0.104   1.349  0.00  0.00     0.056 C 
BRANCH   7   8
ATOM      8  C1  UNL d   1      -0.101  -0.747   0.316  0.00  0.00     0.007 C 
ATOM      9  C   UNL d   1       0.576  -1.003  -1.024  0.00  0.00     0.009 C 
ENDBRANCH   7   8
ENDBRANCH   1   7
TORSDOF 2
ENDMDL
