MODEL 1
REMARK minimizedAffinity -3.89959335
REMARK minimizedRMSD -1
REMARK  2 active torsions:
REMARK  status: ('A' for Active; 'I' for Inactive)
REMARK    1  A    between atoms: C1_2  and  C2_3 
REMARK    2  A    between atoms: C2_3  and  C3_4 
ROOT
ATOM      1  C3  UNL d   1       0.403  -0.033  -0.166  0.00  0.00    -0.075 A 
ATOM      2  C4  UNL d   1       0.601  -1.410  -0.337  0.00  0.00     0.002 A 
ATOM      3  C5  UNL d   1       1.771  -1.890  -0.927  0.00  0.00     0.002 A 
ATOM      4  C6  UNL d   1       2.751  -1.000  -1.361  0.00  0.00    -0.004 A 
ATOM      5  C7  UNL d   1       2.558   0.372  -1.210  0.00  0.00     0.002 A 
ATOM      6  C8  UNL d   1       1.390   0.854  -0.617  0.00  0.00     0.002 A 
ENDROOT
BRANCH   1   7
ATOM      7  C2  UNL d   1      -0.848   0.491   0.498  0.00  0.00     0.056 C 
BRANCH   7   8
ATOM      8  C1  UNL d   1      -1.375  -0.400   1.627  0.00  0.00     0.007 C 
ATOM      9  C   UNL d   1      -2.324   0.325   2.572  0.00  0.00     0.009 C 
ENDBRANCH   7   8
ENDBRANCH   1   7
TORSDOF 2
ENDMDL
