MODEL 1
REMARK minimizedAffinity -2.10795307
REMARK minimizedRMSD -1
REMARK  2 active torsions:
REMARK  status: ('A' for Active; 'I' for Inactive)
REMARK    1  A    between atoms: C1_2  and  C2_3 
REMARK    2  A    between atoms: C2_3  and  C3_4 
ROOT
ATOM      1  C3  UNL d   1      -0.112  -0.422   0.030  0.00  0.00    -0.075 A 
ATOM      2  C4  UNL d   1       0.641  -1.109   0.994  0.00  0.00     0.002 A 
ATOM      3  C5  UNL d   1       1.742  -1.878   0.616  0.00  0.00     0.002 A 
ATOM      4  C6  UNL d   1       2.098  -1.977  -0.727  0.00  0.00    -0.004 A 
ATOM      5  C7  UNL d   1       1.348  -1.312  -1.694  0.00  0.00     0.002 A 
ATOM      6  C8  UNL d   1       0.248  -0.539  -1.319  0.00  0.00     0.002 A 
ENDROOT
BRANCH   1   7
ATOM      7  C2  UNL d   1      -1.287   0.435   0.436  0.00  0.00     0.056 C 
BRANCH   7   8
ATOM      8  C1  UNL d   1      -1.828   0.130   1.837  0.00  0.00     0.007 C 
ATOM      9  C   UNL d   1      -1.939   1.366   2.719  0.00  0.00     0.009 C 
ENDBRANCH   7   8
ENDBRANCH   1   7
TORSDOF 2
ENDMDL
