MODEL 1
REMARK minimizedAffinity -5.34080315
REMARK minimizedRMSD -1
REMARK  2 active torsions:
REMARK  status: ('A' for Active; 'I' for Inactive)
REMARK    1  A    between atoms: C1_2  and  C2_3 
REMARK    2  A    between atoms: C2_3  and  C3_4 
ROOT
ATOM      1  C3  UNL d   1      -0.754   0.361  -0.091  0.00  0.00    -0.075 A 
ATOM      2  C4  UNL d   1      -0.537  -1.022  -0.023  0.00  0.00     0.002 A 
ATOM      3  C5  UNL d   1       0.685  -1.568  -0.417  0.00  0.00     0.002 A 
ATOM      4  C6  UNL d   1       1.699  -0.740  -0.894  0.00  0.00    -0.004 A 
ATOM      5  C7  UNL d   1       1.489   0.634  -0.982  0.00  0.00     0.002 A 
ATOM      6  C8  UNL d   1       0.268   1.183  -0.583  0.00  0.00     0.002 A 
ENDROOT
BRANCH   1   7
ATOM      7  C2  UNL d   1      -2.064   0.961   0.362  0.00  0.00     0.056 C 
BRANCH   7   8
ATOM      8  C1  UNL d   1      -2.473   0.563   1.784  0.00  0.00     0.007 C 
ATOM      9  C   UNL d   1      -2.024   1.564   2.840  0.00  0.00     0.009 C 
ENDBRANCH   7   8
ENDBRANCH   1   7
TORSDOF 2
ENDMDL
