MODEL 1
REMARK minimizedAffinity -0.875077903
REMARK minimizedRMSD -1
REMARK  2 active torsions:
REMARK  status: ('A' for Active; 'I' for Inactive)
REMARK    1  A    between atoms: C1_2  and  C2_3 
REMARK    2  A    between atoms: C2_3  and  C3_4 
ROOT
ATOM      1  C3  UNL d   1      -0.152  -0.193  -0.393  0.00  0.00    -0.075 A 
ATOM      2  C4  UNL d   1       0.514   0.148  -1.579  0.00  0.00     0.002 A 
ATOM      3  C5  UNL d   1       1.556  -0.645  -2.060  0.00  0.00     0.002 A 
ATOM      4  C6  UNL d   1       1.952  -1.781  -1.357  0.00  0.00    -0.004 A 
ATOM      5  C7  UNL d   1       1.309  -2.120  -0.169  0.00  0.00     0.002 A 
ATOM      6  C8  UNL d   1       0.263  -1.331   0.312  0.00  0.00     0.002 A 
ENDROOT
BRANCH   1   7
ATOM      7  C2  UNL d   1      -1.299   0.645   0.117  0.00  0.00     0.056 C 
BRANCH   7   8
ATOM      8  C1  UNL d   1      -1.380   0.729   1.645  0.00  0.00     0.007 C 
ATOM      9  C   UNL d   1      -2.714   0.251   2.203  0.00  0.00     0.009 C 
ENDBRANCH   7   8
ENDBRANCH   1   7
TORSDOF 2
ENDMDL
