MODEL 1
REMARK minimizedAffinity 3.52906585
REMARK minimizedRMSD -1
REMARK  2 active torsions:
REMARK  status: ('A' for Active; 'I' for Inactive)
REMARK    1  A    between atoms: C1_2  and  C2_3 
REMARK    2  A    between atoms: C2_3  and  C3_4 
ROOT
ATOM      1  C3  UNL d   1      -4.676   0.204   3.002  0.00  0.00    -0.075 A 
ATOM      2  C4  UNL d   1      -3.499  -0.558   2.995  0.00  0.00     0.002 A 
ATOM      3  C5  UNL d   1      -2.284   0.013   3.374  0.00  0.00     0.002 A 
ATOM      4  C6  UNL d   1      -2.228   1.352   3.755  0.00  0.00    -0.004 A 
ATOM      5  C7  UNL d   1      -3.388   2.122   3.750  0.00  0.00     0.002 A 
ATOM      6  C8  UNL d   1      -4.607   1.553   3.376  0.00  0.00     0.002 A 
ENDROOT
BRANCH   1   7
ATOM      7  C2  UNL d   1      -6.000  -0.415   2.621  0.00  0.00     0.056 C 
BRANCH   7   8
ATOM      8  C1  UNL d   1      -5.902  -1.456   1.502  0.00  0.00     0.007 C 
ATOM      9  C   UNL d   1      -5.945  -0.845   0.108  0.00  0.00     0.009 C 
ENDBRANCH   7   8
ENDBRANCH   1   7
TORSDOF 2
ENDMDL
