MODEL 1
REMARK minimizedAffinity 1.69567037
REMARK minimizedRMSD -1
REMARK  2 active torsions:
REMARK  status: ('A' for Active; 'I' for Inactive)
REMARK    1  A    between atoms: C1_2  and  C2_3 
REMARK    2  A    between atoms: C2_3  and  C3_4 
ROOT
ATOM      1  C3  UNL d   1      -1.943  -0.776  -0.814  0.00  0.00    -0.075 A 
ATOM      2  C4  UNL d   1      -1.774  -1.792   0.138  0.00  0.00     0.002 A 
ATOM      3  C5  UNL d   1      -2.420  -1.719   1.373  0.00  0.00     0.002 A 
ATOM      4  C6  UNL d   1      -3.231  -0.628   1.675  0.00  0.00    -0.004 A 
ATOM      5  C7  UNL d   1      -3.393   0.395   0.743  0.00  0.00     0.002 A 
ATOM      6  C8  UNL d   1      -2.752   0.322  -0.495  0.00  0.00     0.002 A 
ENDROOT
BRANCH   1   7
ATOM      7  C2  UNL d   1      -1.271  -0.864  -2.164  0.00  0.00     0.056 C 
BRANCH   7   8
ATOM      8  C1  UNL d   1      -2.172  -1.415  -3.274  0.00  0.00     0.007 C 
ATOM      9  C   UNL d   1      -1.977  -2.905  -3.521  0.00  0.00     0.009 C 
ENDBRANCH   7   8
ENDBRANCH   1   7
TORSDOF 2
ENDMDL
