MODEL 1
REMARK minimizedAffinity -2.22448039
REMARK minimizedRMSD -1
REMARK  2 active torsions:
REMARK  status: ('A' for Active; 'I' for Inactive)
REMARK    1  A    between atoms: C1_2  and  C2_3 
REMARK    2  A    between atoms: C2_3  and  C3_4 
ROOT
ATOM      1  C3  UNL d   1      -5.499   5.395   3.401  0.00  0.00    -0.075 A 
ATOM      2  C4  UNL d   1      -5.968   5.924   2.189  0.00  0.00     0.002 A 
ATOM      3  C5  UNL d   1      -5.543   5.391   0.972  0.00  0.00     0.002 A 
ATOM      4  C6  UNL d   1      -4.636   4.333   0.950  0.00  0.00    -0.004 A 
ATOM      5  C7  UNL d   1      -4.151   3.812   2.147  0.00  0.00     0.002 A 
ATOM      6  C8  UNL d   1      -4.578   4.340   3.366  0.00  0.00     0.002 A 
ENDROOT
BRANCH   1   7
ATOM      7  C2  UNL d   1      -5.978   5.948   4.722  0.00  0.00     0.056 C 
BRANCH   7   8
ATOM      8  C1  UNL d   1      -6.000   4.919   5.857  0.00  0.00     0.007 C 
ATOM      9  C   UNL d   1      -6.000   3.479   5.362  0.00  0.00     0.009 C 
ENDBRANCH   7   8
ENDBRANCH   1   7
TORSDOF 2
ENDMDL
