MODEL 1
REMARK minimizedAffinity -0.838749588
REMARK minimizedRMSD -1
REMARK  2 active torsions:
REMARK  status: ('A' for Active; 'I' for Inactive)
REMARK    1  A    between atoms: C1_2  and  C2_3 
REMARK    2  A    between atoms: C2_3  and  C3_4 
ROOT
ATOM      1  C3  UNL d   1      -3.923   1.030   2.255  0.00  0.00    -0.075 A 
ATOM      2  C4  UNL d   1      -4.925   1.716   1.553  0.00  0.00     0.002 A 
ATOM      3  C5  UNL d   1      -5.242   3.035   1.880  0.00  0.00     0.002 A 
ATOM      4  C6  UNL d   1      -4.570   3.680   2.916  0.00  0.00    -0.004 A 
ATOM      5  C7  UNL d   1      -3.585   3.002   3.631  0.00  0.00     0.002 A 
ATOM      6  C8  UNL d   1      -3.263   1.684   3.304  0.00  0.00     0.002 A 
ENDROOT
BRANCH   1   7
ATOM      7  C2  UNL d   1      -3.555  -0.388   1.888  0.00  0.00     0.056 C 
BRANCH   7   8
ATOM      8  C1  UNL d   1      -2.702  -1.104   2.940  0.00  0.00     0.007 C 
ATOM      9  C   UNL d   1      -3.442  -2.232   3.646  0.00  0.00     0.009 C 
ENDBRANCH   7   8
ENDBRANCH   1   7
TORSDOF 2
ENDMDL
