MODEL 1
REMARK minimizedAffinity -1.3057586
REMARK minimizedRMSD -1
REMARK  2 active torsions:
REMARK  status: ('A' for Active; 'I' for Inactive)
REMARK    1  A    between atoms: C1_2  and  C2_3 
REMARK    2  A    between atoms: C2_3  and  C3_4 
ROOT
ATOM      1  C3  UNL d   1      -5.747   4.241   4.122  0.00  0.00    -0.075 A 
ATOM      2  C4  UNL d   1      -5.266   3.337   3.163  0.00  0.00     0.002 A 
ATOM      3  C5  UNL d   1      -5.008   3.759   1.859  0.00  0.00     0.002 A 
ATOM      4  C6  UNL d   1      -5.237   5.084   1.494  0.00  0.00    -0.004 A 
ATOM      5  C7  UNL d   1      -5.730   5.987   2.434  0.00  0.00     0.002 A 
ATOM      6  C8  UNL d   1      -5.985   5.568   3.741  0.00  0.00     0.002 A 
ENDROOT
BRANCH   1   7
ATOM      7  C2  UNL d   1      -6.000   3.797   5.543  0.00  0.00     0.056 C 
BRANCH   7   8
ATOM      8  C1  UNL d   1      -5.289   2.495   5.926  0.00  0.00     0.007 C 
ATOM      9  C   UNL d   1      -3.774   2.637   5.999  0.00  0.00     0.009 C 
ENDBRANCH   7   8
ENDBRANCH   1   7
TORSDOF 2
ENDMDL
