MODEL 1
REMARK minimizedAffinity 5.38024616
REMARK minimizedRMSD -1
REMARK  2 active torsions:
REMARK  status: ('A' for Active; 'I' for Inactive)
REMARK    1  A    between atoms: C1_2  and  C2_3 
REMARK    2  A    between atoms: C2_3  and  C3_4 
ROOT
ATOM      1  C3  UNL d   1       0.028   0.750  -4.731  0.00  0.00    -0.075 A 
ATOM      2  C4  UNL d   1       0.622   0.223  -3.576  0.00  0.00     0.002 A 
ATOM      3  C5  UNL d   1       1.892  -0.353  -3.632  0.00  0.00     0.002 A 
ATOM      4  C6  UNL d   1       2.578  -0.418  -4.842  0.00  0.00    -0.004 A 
ATOM      5  C7  UNL d   1       1.990   0.088  -6.000  0.00  0.00     0.002 A 
ATOM      6  C8  UNL d   1       0.722   0.668  -5.946  0.00  0.00     0.002 A 
ENDROOT
BRANCH   1   7
ATOM      7  C2  UNL d   1      -1.334   1.400  -4.672  0.00  0.00     0.056 C 
BRANCH   7   8
ATOM      8  C1  UNL d   1      -1.731   2.134  -5.957  0.00  0.00     0.007 C 
ATOM      9  C   UNL d   1      -3.205   2.515  -6.000  0.00  0.00     0.009 C 
ENDBRANCH   7   8
ENDBRANCH   1   7
TORSDOF 2
ENDMDL
