MODEL 1
REMARK minimizedAffinity -1.37276566
REMARK minimizedRMSD -1
REMARK  2 active torsions:
REMARK  status: ('A' for Active; 'I' for Inactive)
REMARK    1  A    between atoms: C1_2  and  C2_3 
REMARK    2  A    between atoms: C2_3  and  C3_4 
ROOT
ATOM      1  C3  UNL d   1      -4.825   4.729   4.370  0.00  0.00    -0.075 A 
ATOM      2  C4  UNL d   1      -5.962   3.908   4.394  0.00  0.00     0.002 A 
ATOM      3  C5  UNL d   1      -6.000   2.775   5.208  0.00  0.00     0.002 A 
ATOM      4  C6  UNL d   1      -4.901   2.445   5.999  0.00  0.00    -0.004 A 
ATOM      5  C7  UNL d   1      -3.761   3.244   5.970  0.00  0.00     0.002 A 
ATOM      6  C8  UNL d   1      -3.722   4.381   5.160  0.00  0.00     0.002 A 
ENDROOT
BRANCH   1   7
ATOM      7  C2  UNL d   1      -4.789   5.973   3.514  0.00  0.00     0.056 C 
BRANCH   7   8
ATOM      8  C1  UNL d   1      -4.643   5.693   2.014  0.00  0.00     0.007 C 
ATOM      9  C   UNL d   1      -5.969   5.721   1.266  0.00  0.00     0.009 C 
ENDBRANCH   7   8
ENDBRANCH   1   7
TORSDOF 2
ENDMDL
