MODEL 1
REMARK minimizedAffinity -3.5972414
REMARK minimizedRMSD -1
REMARK  2 active torsions:
REMARK  status: ('A' for Active; 'I' for Inactive)
REMARK    1  A    between atoms: C1_2  and  C2_3 
REMARK    2  A    between atoms: C2_3  and  C3_4 
ROOT
ATOM      1  C3  UNL d   1      -5.620   4.209   4.430  0.00  0.00    -0.075 A 
ATOM      2  C4  UNL d   1      -5.075   5.489   4.255  0.00  0.00     0.002 A 
ATOM      3  C5  UNL d   1      -4.860   5.999   2.975  0.00  0.00     0.002 A 
ATOM      4  C6  UNL d   1      -5.176   5.233   1.855  0.00  0.00    -0.004 A 
ATOM      5  C7  UNL d   1      -5.703   3.953   2.016  0.00  0.00     0.002 A 
ATOM      6  C8  UNL d   1      -5.924   3.443   3.297  0.00  0.00     0.002 A 
ENDROOT
BRANCH   1   7
ATOM      7  C2  UNL d   1      -5.883   3.663   5.813  0.00  0.00     0.056 C 
BRANCH   7   8
ATOM      8  C1  UNL d   1      -5.456   2.204   6.000  0.00  0.00     0.007 C 
ATOM      9  C   UNL d   1      -3.945   2.015   5.995  0.00  0.00     0.009 C 
ENDBRANCH   7   8
ENDBRANCH   1   7
TORSDOF 2
ENDMDL
