MODEL 1
REMARK minimizedAffinity -1.71064305
REMARK minimizedRMSD -1
REMARK  2 active torsions:
REMARK  status: ('A' for Active; 'I' for Inactive)
REMARK    1  A    between atoms: C1_2  and  C2_3 
REMARK    2  A    between atoms: C2_3  and  C3_4 
ROOT
ATOM      1  C3  UNL d   1      -5.411   3.730   4.626  0.00  0.00    -0.075 A 
ATOM      2  C4  UNL d   1      -4.976   3.393   3.336  0.00  0.00     0.002 A 
ATOM      3  C5  UNL d   1      -4.947   4.354   2.325  0.00  0.00     0.002 A 
ATOM      4  C6  UNL d   1      -5.361   5.658   2.587  0.00  0.00    -0.004 A 
ATOM      5  C7  UNL d   1      -5.811   6.000   3.861  0.00  0.00     0.002 A 
ATOM      6  C8  UNL d   1      -5.837   5.041   4.875  0.00  0.00     0.002 A 
ENDROOT
BRANCH   1   7
ATOM      7  C2  UNL d   1      -5.417   2.702   5.732  0.00  0.00     0.056 C 
BRANCH   7   8
ATOM      8  C1  UNL d   1      -4.049   2.065   6.000  0.00  0.00     0.007 C 
ATOM      9  C   UNL d   1      -2.908   3.074   6.000  0.00  0.00     0.009 C 
ENDBRANCH   7   8
ENDBRANCH   1   7
TORSDOF 2
ENDMDL
