MODEL 1
REMARK minimizedAffinity -3.35378933
REMARK minimizedRMSD -1
REMARK  2 active torsions:
REMARK  status: ('A' for Active; 'I' for Inactive)
REMARK    1  A    between atoms: C1_2  and  C2_3 
REMARK    2  A    between atoms: C2_3  and  C3_4 
ROOT
ATOM      1  C3  UNL d   1      -5.693   3.903   3.327  0.00  0.00    -0.075 A 
ATOM      2  C4  UNL d   1      -5.917   4.844   4.342  0.00  0.00     0.002 A 
ATOM      3  C5  UNL d   1      -5.615   4.540   5.669  0.00  0.00     0.002 A 
ATOM      4  C6  UNL d   1      -5.097   3.290   6.000  0.00  0.00    -0.004 A 
ATOM      5  C7  UNL d   1      -4.886   2.341   5.002  0.00  0.00     0.002 A 
ATOM      6  C8  UNL d   1      -5.183   2.644   3.672  0.00  0.00     0.002 A 
ENDROOT
BRANCH   1   7
ATOM      7  C2  UNL d   1      -5.990   4.237   1.884  0.00  0.00     0.056 C 
BRANCH   7   8
ATOM      8  C1  UNL d   1      -5.654   5.681   1.496  0.00  0.00     0.007 C 
ATOM      9  C   UNL d   1      -4.169   5.999   1.596  0.00  0.00     0.009 C 
ENDBRANCH   7   8
ENDBRANCH   1   7
TORSDOF 2
ENDMDL
