MODEL 1
REMARK minimizedAffinity 3.11316299
REMARK minimizedRMSD -1
REMARK  2 active torsions:
REMARK  status: ('A' for Active; 'I' for Inactive)
REMARK    1  A    between atoms: C1_2  and  C2_3 
REMARK    2  A    between atoms: C2_3  and  C3_4 
ROOT
ATOM      1  C3  UNL d   1       2.261   2.935   2.035  0.00  0.00    -0.075 A 
ATOM      2  C4  UNL d   1       1.194   2.305   2.692  0.00  0.00     0.002 A 
ATOM      3  C5  UNL d   1       1.237   2.093   4.070  0.00  0.00     0.002 A 
ATOM      4  C6  UNL d   1       2.349   2.497   4.806  0.00  0.00    -0.004 A 
ATOM      5  C7  UNL d   1       3.421   3.109   4.161  0.00  0.00     0.002 A 
ATOM      6  C8  UNL d   1       3.379   3.327   2.783  0.00  0.00     0.002 A 
ENDROOT
BRANCH   1   7
ATOM      7  C2  UNL d   1       2.208   3.194   0.548  0.00  0.00     0.056 C 
BRANCH   7   8
ATOM      8  C1  UNL d   1       3.497   3.788  -0.028  0.00  0.00     0.007 C 
ATOM      9  C   UNL d   1       3.739   3.402  -1.481  0.00  0.00     0.009 C 
ENDBRANCH   7   8
ENDBRANCH   1   7
TORSDOF 2
ENDMDL
