MODEL 1
REMARK minimizedAffinity -1.28146541
REMARK minimizedRMSD -1
REMARK  2 active torsions:
REMARK  status: ('A' for Active; 'I' for Inactive)
REMARK    1  A    between atoms: C1_2  and  C2_3 
REMARK    2  A    between atoms: C2_3  and  C3_4 
ROOT
ATOM      1  C3  UNL d   1      -4.818   3.618   3.285  0.00  0.00    -0.075 A 
ATOM      2  C4  UNL d   1      -5.999   3.544   4.038  0.00  0.00     0.002 A 
ATOM      3  C5  UNL d   1      -5.961   3.156   5.378  0.00  0.00     0.002 A 
ATOM      4  C6  UNL d   1      -4.747   2.828   5.977  0.00  0.00    -0.004 A 
ATOM      5  C7  UNL d   1      -3.570   2.882   5.233  0.00  0.00     0.002 A 
ATOM      6  C8  UNL d   1      -3.604   3.274   3.894  0.00  0.00     0.002 A 
ENDROOT
BRANCH   1   7
ATOM      7  C2  UNL d   1      -4.849   4.066   1.843  0.00  0.00     0.056 C 
BRANCH   7   8
ATOM      8  C1  UNL d   1      -5.994   5.029   1.513  0.00  0.00     0.007 C 
ATOM      9  C   UNL d   1      -5.971   5.519   0.071  0.00  0.00     0.009 C 
ENDBRANCH   7   8
ENDBRANCH   1   7
TORSDOF 2
ENDMDL
