MODEL 1
REMARK minimizedAffinity -4.12647867
REMARK minimizedRMSD -1
REMARK  2 active torsions:
REMARK  status: ('A' for Active; 'I' for Inactive)
REMARK    1  A    between atoms: C1_2  and  C2_3 
REMARK    2  A    between atoms: C2_3  and  C3_4 
ROOT
ATOM      1  C3  UNL d   1      -5.365   3.422   4.182  0.00  0.00    -0.075 A 
ATOM      2  C4  UNL d   1      -5.052   3.632   2.832  0.00  0.00     0.002 A 
ATOM      3  C5  UNL d   1      -5.100   4.915   2.285  0.00  0.00     0.002 A 
ATOM      4  C6  UNL d   1      -5.471   5.999   3.077  0.00  0.00    -0.004 A 
ATOM      5  C7  UNL d   1      -5.800   5.799   4.416  0.00  0.00     0.002 A 
ATOM      6  C8  UNL d   1      -5.749   4.518   4.967  0.00  0.00     0.002 A 
ENDROOT
BRANCH   1   7
ATOM      7  C2  UNL d   1      -5.286   2.040   4.787  0.00  0.00     0.056 C 
BRANCH   7   8
ATOM      8  C1  UNL d   1      -4.354   1.942   6.000  0.00  0.00     0.007 C 
ATOM      9  C   UNL d   1      -3.013   2.631   5.783  0.00  0.00     0.009 C 
ENDBRANCH   7   8
ENDBRANCH   1   7
TORSDOF 2
ENDMDL
