MODEL 1
REMARK minimizedAffinity -3.41797137
REMARK minimizedRMSD -1
REMARK  2 active torsions:
REMARK  status: ('A' for Active; 'I' for Inactive)
REMARK    1  A    between atoms: C1_2  and  C2_3 
REMARK    2  A    between atoms: C2_3  and  C3_4 
ROOT
ATOM      1  C3  UNL d   1      -5.918   3.656   4.478  0.00  0.00    -0.075 A 
ATOM      2  C4  UNL d   1      -5.812   5.051   4.581  0.00  0.00     0.002 A 
ATOM      3  C5  UNL d   1      -5.812   5.847   3.436  0.00  0.00     0.002 A 
ATOM      4  C6  UNL d   1      -5.906   5.261   2.175  0.00  0.00    -0.004 A 
ATOM      5  C7  UNL d   1      -5.995   3.876   2.060  0.00  0.00     0.002 A 
ATOM      6  C8  UNL d   1      -6.000   3.076   3.205  0.00  0.00     0.002 A 
ENDROOT
BRANCH   1   7
ATOM      7  C2  UNL d   1      -5.949   2.790   5.715  0.00  0.00     0.056 C 
BRANCH   7   8
ATOM      8  C1  UNL d   1      -4.682   1.953   5.921  0.00  0.00     0.007 C 
ATOM      9  C   UNL d   1      -3.414   2.792   5.999  0.00  0.00     0.009 C 
ENDBRANCH   7   8
ENDBRANCH   1   7
TORSDOF 2
ENDMDL
