MODEL 1
REMARK minimizedAffinity -4.19386244
REMARK minimizedRMSD -1
REMARK  2 active torsions:
REMARK  status: ('A' for Active; 'I' for Inactive)
REMARK    1  A    between atoms: C1_2  and  C2_3 
REMARK    2  A    between atoms: C2_3  and  C3_4 
ROOT
ATOM      1  C3  UNL d   1      -5.219   4.436   3.706  0.00  0.00    -0.075 A 
ATOM      2  C4  UNL d   1      -4.913   3.068   3.682  0.00  0.00     0.002 A 
ATOM      3  C5  UNL d   1      -5.160   2.267   4.798  0.00  0.00     0.002 A 
ATOM      4  C6  UNL d   1      -5.707   2.825   5.951  0.00  0.00    -0.004 A 
ATOM      5  C7  UNL d   1      -6.000   4.186   5.992  0.00  0.00     0.002 A 
ATOM      6  C8  UNL d   1      -5.757   4.989   4.876  0.00  0.00     0.002 A 
ENDROOT
BRANCH   1   7
ATOM      7  C2  UNL d   1      -4.981   5.302   2.492  0.00  0.00     0.056 C 
BRANCH   7   8
ATOM      8  C1  UNL d   1      -5.415   4.658   1.171  0.00  0.00     0.007 C 
ATOM      9  C   UNL d   1      -4.919   5.412  -0.056  0.00  0.00     0.009 C 
ENDBRANCH   7   8
ENDBRANCH   1   7
TORSDOF 2
ENDMDL
