MODEL 1
REMARK minimizedAffinity -3.46865702
REMARK minimizedRMSD -1
REMARK  2 active torsions:
REMARK  status: ('A' for Active; 'I' for Inactive)
REMARK    1  A    between atoms: C1_2  and  C2_3 
REMARK    2  A    between atoms: C2_3  and  C3_4 
ROOT
ATOM      1  C3  UNL d   1      -5.701   4.113   1.681  0.00  0.00    -0.075 A 
ATOM      2  C4  UNL d   1      -5.246   2.887   1.175  0.00  0.00     0.002 A 
ATOM      3  C5  UNL d   1      -5.072   2.708  -0.197  0.00  0.00     0.002 A 
ATOM      4  C6  UNL d   1      -5.358   3.746  -1.080  0.00  0.00    -0.004 A 
ATOM      5  C7  UNL d   1      -5.827   4.963  -0.590  0.00  0.00     0.002 A 
ATOM      6  C8  UNL d   1      -5.998   5.147   0.783  0.00  0.00     0.002 A 
ENDROOT
BRANCH   1   7
ATOM      7  C2  UNL d   1      -5.864   4.323   3.168  0.00  0.00     0.056 C 
BRANCH   7   8
ATOM      8  C1  UNL d   1      -5.984   5.794   3.580  0.00  0.00     0.007 C 
ATOM      9  C   UNL d   1      -5.997   5.995   5.090  0.00  0.00     0.009 C 
ENDBRANCH   7   8
ENDBRANCH   1   7
TORSDOF 2
ENDMDL
