MODEL 1
REMARK minimizedAffinity -4.37643957
REMARK minimizedRMSD -1
REMARK  2 active torsions:
REMARK  status: ('A' for Active; 'I' for Inactive)
REMARK    1  A    between atoms: C1_2  and  C2_3 
REMARK    2  A    between atoms: C2_3  and  C3_4 
ROOT
ATOM      1  C3  UNL d   1      -4.626   4.235   3.999  0.00  0.00    -0.075 A 
ATOM      2  C4  UNL d   1      -5.630   3.747   4.849  0.00  0.00     0.002 A 
ATOM      3  C5  UNL d   1      -5.325   2.820   5.846  0.00  0.00     0.002 A 
ATOM      4  C6  UNL d   1      -4.018   2.362   6.000  0.00  0.00    -0.004 A 
ATOM      5  C7  UNL d   1      -3.016   2.828   5.150  0.00  0.00     0.002 A 
ATOM      6  C8  UNL d   1      -3.318   3.759   4.155  0.00  0.00     0.002 A 
ENDROOT
BRANCH   1   7
ATOM      7  C2  UNL d   1      -4.944   5.261   2.938  0.00  0.00     0.056 C 
BRANCH   7   8
ATOM      8  C1  UNL d   1      -4.427   4.895   1.542  0.00  0.00     0.007 C 
ATOM      9  C   UNL d   1      -4.973   3.570   1.028  0.00  0.00     0.009 C 
ENDBRANCH   7   8
ENDBRANCH   1   7
TORSDOF 2
ENDMDL
