MODEL 1
REMARK minimizedAffinity -1.27203536
REMARK minimizedRMSD -1
REMARK  0 active torsions:
REMARK  status: ('A' for Active; 'I' for Inactive)
ROOT
ATOM      1  C   UNL d   1       1.013   2.486   1.149  0.00  0.00     0.124 A 
ATOM      2  C1  UNL d   1       2.094   1.644   0.926  0.00  0.00     0.062 A 
ATOM      3  C2  UNL d   1       1.885   0.319   0.555  0.00  0.00     0.162 A 
ATOM      4  C3  UNL d   1       0.589  -0.173   0.404  0.00  0.00    -0.034 A 
ATOM      5  C4  UNL d   1      -0.494   0.679   0.631  0.00  0.00     0.162 A 
ATOM      6  C5  UNL d   1      -0.279   2.003   1.001  0.00  0.00     0.062 A 
ATOM      7  F   UNL d   1      -1.325   2.814   1.217  0.00  0.00    -0.097 F 
ATOM      8  F1  UNL d   1      -1.753   0.238   0.495  0.00  0.00    -0.096 F 
ATOM      9  I   UNL d   1       0.271  -2.154  -0.150  0.00  0.00    -0.060 I 
ATOM     10  F2  UNL d   1       2.948  -0.472   0.346  0.00  0.00    -0.096 F 
ATOM     11  F3  UNL d   1       3.344   2.108   1.069  0.00  0.00    -0.097 F 
ATOM     12  F4  UNL d   1       1.218   3.760   1.506  0.00  0.00    -0.092 F 
ENDROOT
TORSDOF 0
ENDMDL
