MODEL 1
REMARK minimizedAffinity -1.2899406
REMARK minimizedRMSD -1
REMARK  0 active torsions:
REMARK  status: ('A' for Active; 'I' for Inactive)
ROOT
ATOM      1  C   UNL d   1       0.075   1.805   0.640  0.00  0.00     0.124 A 
ATOM      2  C1  UNL d   1       1.008   0.801   0.420  0.00  0.00     0.062 A 
ATOM      3  C2  UNL d   1       0.591  -0.468   0.027  0.00  0.00     0.162 A 
ATOM      4  C3  UNL d   1      -0.765  -0.740  -0.152  0.00  0.00    -0.034 A 
ATOM      5  C4  UNL d   1      -1.698   0.275   0.072  0.00  0.00     0.162 A 
ATOM      6  C5  UNL d   1      -1.277   1.541   0.465  0.00  0.00     0.062 A 
ATOM      7  F   UNL d   1      -2.179   2.510   0.677  0.00  0.00    -0.097 F 
ATOM      8  F1  UNL d   1      -3.010   0.048  -0.090  0.00  0.00    -0.096 F 
ATOM      9  I   UNL d   1      -1.392  -2.635  -0.740  0.00  0.00    -0.060 I 
ATOM     10  F2  UNL d   1       1.515  -1.419  -0.178  0.00  0.00    -0.096 F 
ATOM     11  F3  UNL d   1       2.314   1.053   0.589  0.00  0.00    -0.097 F 
ATOM     12  F4  UNL d   1       0.478   3.024   1.019  0.00  0.00    -0.092 F 
ENDROOT
TORSDOF 0
ENDMDL
