MODEL 1
REMARK minimizedAffinity 4.97299385
REMARK minimizedRMSD -1
REMARK  0 active torsions:
REMARK  status: ('A' for Active; 'I' for Inactive)
ROOT
ATOM      1  C   UNL d   1       0.696   2.191   0.952  0.00  0.00     0.124 A 
ATOM      2  C1  UNL d   1      -0.666   2.003   0.764  0.00  0.00     0.062 A 
ATOM      3  C2  UNL d   1      -1.154   0.760   0.372  0.00  0.00     0.162 A 
ATOM      4  C3  UNL d   1      -0.279  -0.306   0.165  0.00  0.00    -0.034 A 
ATOM      5  C4  UNL d   1       1.090  -0.109   0.354  0.00  0.00     0.162 A 
ATOM      6  C5  UNL d   1       1.573   1.135   0.746  0.00  0.00     0.062 A 
ATOM      7  F   UNL d   1       2.890   1.315   0.927  0.00  0.00    -0.097 F 
ATOM      8  F1  UNL d   1       1.960  -1.113   0.163  0.00  0.00    -0.096 F 
ATOM      9  I   UNL d   1      -1.004  -2.166  -0.422  0.00  0.00    -0.060 I 
ATOM     10  F2  UNL d   1      -2.475   0.607   0.199  0.00  0.00    -0.096 F 
ATOM     11  F3  UNL d   1      -1.515   3.022   0.961  0.00  0.00    -0.097 F 
ATOM     12  F4  UNL d   1       1.163   3.388   1.328  0.00  0.00    -0.092 F 
ENDROOT
TORSDOF 0
ENDMDL
