MODEL 1
REMARK minimizedAffinity -2.83333731
REMARK minimizedRMSD -1
REMARK  0 active torsions:
REMARK  status: ('A' for Active; 'I' for Inactive)
ROOT
ATOM      1  C   UNL d   1       1.330   2.382   0.995  0.00  0.00     0.124 A 
ATOM      2  C1  UNL d   1       0.007   2.143   0.653  0.00  0.00     0.062 A 
ATOM      3  C2  UNL d   1      -0.411   0.855   0.329  0.00  0.00     0.162 A 
ATOM      4  C3  UNL d   1       0.496  -0.204   0.346  0.00  0.00    -0.034 A 
ATOM      5  C4  UNL d   1       1.826   0.044   0.690  0.00  0.00     0.162 A 
ATOM      6  C5  UNL d   1       2.239   1.333   1.013  0.00  0.00     0.062 A 
ATOM      7  F   UNL d   1       3.518   1.562   1.343  0.00  0.00    -0.097 F 
ATOM      8  F1  UNL d   1       2.724  -0.952   0.717  0.00  0.00    -0.096 F 
ATOM      9  I   UNL d   1      -0.125  -2.131  -0.138  0.00  0.00    -0.060 I 
ATOM     10  F2  UNL d   1      -1.696   0.653   0.002  0.00  0.00    -0.096 F 
ATOM     11  F3  UNL d   1      -0.873   3.155   0.634  0.00  0.00    -0.097 F 
ATOM     12  F4  UNL d   1       1.730   3.622   1.305  0.00  0.00    -0.092 F 
ENDROOT
TORSDOF 0
ENDMDL
