MODEL 1
REMARK minimizedAffinity -3.02264476
REMARK minimizedRMSD -1
REMARK  0 active torsions:
REMARK  status: ('A' for Active; 'I' for Inactive)
ROOT
ATOM      1  C   UNL d   1       0.871   2.334   0.802  0.00  0.00     0.124 A 
ATOM      2  C1  UNL d   1      -0.391   2.071   0.287  0.00  0.00     0.062 A 
ATOM      3  C2  UNL d   1      -0.718   0.788  -0.145  0.00  0.00     0.162 A 
ATOM      4  C3  UNL d   1       0.219  -0.242  -0.062  0.00  0.00    -0.034 A 
ATOM      5  C4  UNL d   1       1.487   0.031   0.456  0.00  0.00     0.162 A 
ATOM      6  C5  UNL d   1       1.808   1.314   0.886  0.00  0.00     0.062 A 
ATOM      7  F   UNL d   1       3.028   1.566   1.383  0.00  0.00    -0.097 F 
ATOM      8  F1  UNL d   1       2.411  -0.936   0.549  0.00  0.00    -0.096 F 
ATOM      9  I   UNL d   1      -0.265  -2.161  -0.707  0.00  0.00    -0.060 I 
ATOM     10  F2  UNL d   1      -1.945   0.563  -0.638  0.00  0.00    -0.096 F 
ATOM     11  F3  UNL d   1      -1.298   3.054   0.204  0.00  0.00    -0.097 F 
ATOM     12  F4  UNL d   1       1.182   3.569   1.216  0.00  0.00    -0.092 F 
ENDROOT
TORSDOF 0
ENDMDL
