MODEL 1
REMARK minimizedAffinity -0.380518287
REMARK minimizedRMSD -1
REMARK  0 active torsions:
REMARK  status: ('A' for Active; 'I' for Inactive)
ROOT
ATOM      1  C   UNL d   1       0.315   1.775   0.544  0.00  0.00     0.124 A 
ATOM      2  C1  UNL d   1       1.240   0.743   0.614  0.00  0.00     0.062 A 
ATOM      3  C2  UNL d   1       0.885  -0.543   0.220  0.00  0.00     0.162 A 
ATOM      4  C3  UNL d   1      -0.402  -0.806  -0.249  0.00  0.00    -0.034 A 
ATOM      5  C4  UNL d   1      -1.328   0.237  -0.315  0.00  0.00     0.162 A 
ATOM      6  C5  UNL d   1      -0.968   1.521   0.080  0.00  0.00     0.062 A 
ATOM      7  F   UNL d   1      -1.864   2.517   0.012  0.00  0.00    -0.097 F 
ATOM      8  F1  UNL d   1      -2.574   0.020  -0.761  0.00  0.00    -0.096 F 
ATOM      9  I   UNL d   1      -0.938  -2.728  -0.839  0.00  0.00    -0.060 I 
ATOM     10  F2  UNL d   1       1.800  -1.521   0.298  0.00  0.00    -0.096 F 
ATOM     11  F3  UNL d   1       2.480   0.986   1.063  0.00  0.00    -0.097 F 
ATOM     12  F4  UNL d   1       0.659   3.012   0.925  0.00  0.00    -0.092 F 
ENDROOT
TORSDOF 0
ENDMDL
