MODEL 1
REMARK minimizedAffinity -0.0159034543
REMARK minimizedRMSD -1
REMARK  0 active torsions:
REMARK  status: ('A' for Active; 'I' for Inactive)
ROOT
ATOM      1  C   UNL d   1       0.481   1.757   0.656  0.00  0.00     0.124 A 
ATOM      2  C1  UNL d   1       1.378   0.713   0.484  0.00  0.00     0.062 A 
ATOM      3  C2  UNL d   1       0.928  -0.534   0.061  0.00  0.00     0.162 A 
ATOM      4  C3  UNL d   1      -0.428  -0.743  -0.195  0.00  0.00    -0.034 A 
ATOM      5  C4  UNL d   1      -1.324   0.312  -0.019  0.00  0.00     0.162 A 
ATOM      6  C5  UNL d   1      -0.869   1.556   0.405  0.00  0.00     0.062 A 
ATOM      7  F   UNL d   1      -1.737   2.565   0.570  0.00  0.00    -0.097 F 
ATOM      8  F1  UNL d   1      -2.634   0.146  -0.256  0.00  0.00    -0.096 F 
ATOM      9  I   UNL d   1      -1.105  -2.606  -0.828  0.00  0.00    -0.060 I 
ATOM     10  F2  UNL d   1       1.817  -1.526  -0.097  0.00  0.00    -0.096 F 
ATOM     11  F3  UNL d   1       2.683   0.904   0.728  0.00  0.00    -0.097 F 
ATOM     12  F4  UNL d   1       0.917   2.956   1.065  0.00  0.00    -0.092 F 
ENDROOT
TORSDOF 0
ENDMDL
