MODEL 1
REMARK minimizedAffinity 4.07663107
REMARK minimizedRMSD -1
REMARK  0 active torsions:
REMARK  status: ('A' for Active; 'I' for Inactive)
ROOT
ATOM      1  C   UNL d   1       0.567   1.873   0.618  0.00  0.00     0.124 A 
ATOM      2  C1  UNL d   1      -0.799   1.646   0.720  0.00  0.00     0.062 A 
ATOM      3  C2  UNL d   1      -1.301   0.350   0.639  0.00  0.00     0.162 A 
ATOM      4  C3  UNL d   1      -0.437  -0.730   0.457  0.00  0.00    -0.034 A 
ATOM      5  C4  UNL d   1       0.935  -0.493   0.354  0.00  0.00     0.162 A 
ATOM      6  C5  UNL d   1       1.432   0.803   0.435  0.00  0.00     0.062 A 
ATOM      7  F   UNL d   1       2.752   1.021   0.336  0.00  0.00    -0.097 F 
ATOM      8  F1  UNL d   1       1.794  -1.508   0.178  0.00  0.00    -0.096 F 
ATOM      9  I   UNL d   1      -1.184  -2.668   0.335  0.00  0.00    -0.060 I 
ATOM     10  F2  UNL d   1      -2.625   0.160   0.741  0.00  0.00    -0.096 F 
ATOM     11  F3  UNL d   1      -1.637   2.677   0.896  0.00  0.00    -0.097 F 
ATOM     12  F4  UNL d   1       1.047   3.120   0.695  0.00  0.00    -0.092 F 
ENDROOT
TORSDOF 0
ENDMDL
