MODEL 1
REMARK minimizedAffinity -2.72975993
REMARK minimizedRMSD -1
REMARK  0 active torsions:
REMARK  status: ('A' for Active; 'I' for Inactive)
ROOT
ATOM      1  C   UNL d   1       0.945   2.017   0.718  0.00  0.00     0.124 A 
ATOM      2  C1  UNL d   1      -0.428   1.816   0.755  0.00  0.00     0.062 A 
ATOM      3  C2  UNL d   1      -0.952   0.535   0.603  0.00  0.00     0.162 A 
ATOM      4  C3  UNL d   1      -0.103  -0.555   0.414  0.00  0.00    -0.034 A 
ATOM      5  C4  UNL d   1       1.277  -0.345   0.377  0.00  0.00     0.162 A 
ATOM      6  C5  UNL d   1       1.796   0.937   0.529  0.00  0.00     0.062 A 
ATOM      7  F   UNL d   1       3.123   1.129   0.493  0.00  0.00    -0.097 F 
ATOM      8  F1  UNL d   1       2.122  -1.371   0.197  0.00  0.00    -0.096 F 
ATOM      9  I   UNL d   1      -0.882  -2.471   0.186  0.00  0.00    -0.060 I 
ATOM     10  F2  UNL d   1      -2.282   0.370   0.643  0.00  0.00    -0.096 F 
ATOM     11  F3  UNL d   1      -1.252   2.857   0.936  0.00  0.00    -0.097 F 
ATOM     12  F4  UNL d   1       1.447   3.250   0.864  0.00  0.00    -0.092 F 
ENDROOT
TORSDOF 0
ENDMDL
