MODEL 1
REMARK minimizedAffinity -2.57508349
REMARK minimizedRMSD -1
REMARK  0 active torsions:
REMARK  status: ('A' for Active; 'I' for Inactive)
ROOT
ATOM      1  C   UNL d   1       1.131   2.025   0.970  0.00  0.00     0.124 A 
ATOM      2  C1  UNL d   1      -0.162   1.795   0.521  0.00  0.00     0.062 A 
ATOM      3  C2  UNL d   1      -0.541   0.523   0.102  0.00  0.00     0.162 A 
ATOM      4  C3  UNL d   1       0.374  -0.530   0.132  0.00  0.00    -0.034 A 
ATOM      5  C4  UNL d   1       1.673  -0.290   0.585  0.00  0.00     0.162 A 
ATOM      6  C5  UNL d   1       2.047   0.983   1.002  0.00  0.00     0.062 A 
ATOM      7  F   UNL d   1       3.296   1.203   1.436  0.00  0.00    -0.097 F 
ATOM      8  F1  UNL d   1       2.577  -1.280   0.627  0.00  0.00    -0.096 F 
ATOM      9  I   UNL d   1      -0.189  -2.434  -0.493  0.00  0.00    -0.060 I 
ATOM     10  F2  UNL d   1      -1.797   0.329  -0.328  0.00  0.00    -0.096 F 
ATOM     11  F3  UNL d   1      -1.048   2.801   0.488  0.00  0.00    -0.097 F 
ATOM     12  F4  UNL d   1       1.494   3.250   1.371  0.00  0.00    -0.092 F 
ENDROOT
TORSDOF 0
ENDMDL
