MODEL 1
REMARK minimizedAffinity -2.18221498
REMARK minimizedRMSD -1
REMARK  0 active torsions:
REMARK  status: ('A' for Active; 'I' for Inactive)
ROOT
ATOM      1  C   UNL d   1       2.005   0.707   0.858  0.00  0.00     0.124 A 
ATOM      2  C1  UNL d   1       1.378  -0.488   0.531  0.00  0.00     0.062 A 
ATOM      3  C2  UNL d   1      -0.005  -0.537   0.390  0.00  0.00     0.162 A 
ATOM      4  C3  UNL d   1      -0.773   0.613   0.574  0.00  0.00    -0.034 A 
ATOM      5  C4  UNL d   1      -0.136   1.811   0.903  0.00  0.00     0.162 A 
ATOM      6  C5  UNL d   1       1.247   1.855   1.043  0.00  0.00     0.062 A 
ATOM      7  F   UNL d   1       1.850   3.010   1.358  0.00  0.00    -0.097 F 
ATOM      8  F1  UNL d   1      -0.844   2.935   1.087  0.00  0.00    -0.096 F 
ATOM      9  I   UNL d   1      -2.842   0.544   0.364  0.00  0.00    -0.060 I 
ATOM     10  F2  UNL d   1      -0.584  -1.705   0.074  0.00  0.00    -0.096 F 
ATOM     11  F3  UNL d   1       2.108  -1.598   0.353  0.00  0.00    -0.097 F 
ATOM     12  F4  UNL d   1       3.336   0.752   0.994  0.00  0.00    -0.092 F 
ENDROOT
TORSDOF 0
ENDMDL
