MODEL 1
REMARK minimizedAffinity -5.16270733
REMARK minimizedRMSD -1
REMARK  0 active torsions:
REMARK  status: ('A' for Active; 'I' for Inactive)
ROOT
ATOM      1  C   UNL d   1       1.602   2.282   0.623  0.00  0.00     0.124 A 
ATOM      2  C1  UNL d   1       0.268   2.079   0.296  0.00  0.00     0.062 A 
ATOM      3  C2  UNL d   1      -0.187   0.804  -0.027  0.00  0.00     0.162 A 
ATOM      4  C3  UNL d   1       0.692  -0.279  -0.023  0.00  0.00    -0.034 A 
ATOM      5  C4  UNL d   1       2.032  -0.067   0.307  0.00  0.00     0.162 A 
ATOM      6  C5  UNL d   1       2.482   1.209   0.629  0.00  0.00     0.062 A 
ATOM      7  F   UNL d   1       3.770   1.403   0.945  0.00  0.00    -0.097 F 
ATOM      8  F1  UNL d   1       2.904  -1.086   0.321  0.00  0.00    -0.096 F 
ATOM      9  I   UNL d   1       0.015  -2.188  -0.504  0.00  0.00    -0.060 I 
ATOM     10  F2  UNL d   1      -1.481   0.637  -0.340  0.00  0.00    -0.096 F 
ATOM     11  F3  UNL d   1      -0.584   3.114   0.289  0.00  0.00    -0.097 F 
ATOM     12  F4  UNL d   1       2.037   3.510   0.932  0.00  0.00    -0.092 F 
ENDROOT
TORSDOF 0
ENDMDL
