MODEL 1
REMARK minimizedAffinity -0.570109308
REMARK minimizedRMSD -1
REMARK  0 active torsions:
REMARK  status: ('A' for Active; 'I' for Inactive)
ROOT
ATOM      1  C   UNL d   1       0.684   2.239   0.847  0.00  0.00     0.124 A 
ATOM      2  C1  UNL d   1       1.521   1.136   0.934  0.00  0.00     0.062 A 
ATOM      3  C2  UNL d   1       1.087  -0.109   0.486  0.00  0.00     0.162 A 
ATOM      4  C3  UNL d   1      -0.190  -0.256  -0.054  0.00  0.00    -0.034 A 
ATOM      5  C4  UNL d   1      -1.026   0.858  -0.138  0.00  0.00     0.162 A 
ATOM      6  C5  UNL d   1      -0.589   2.100   0.312  0.00  0.00     0.062 A 
ATOM      7  F   UNL d   1      -1.399   3.165   0.227  0.00  0.00    -0.097 F 
ATOM      8  F1  UNL d   1      -2.261   0.752  -0.652  0.00  0.00    -0.096 F 
ATOM      9  I   UNL d   1      -0.842  -2.115  -0.725  0.00  0.00    -0.060 I 
ATOM     10  F2  UNL d   1       1.918  -1.158   0.583  0.00  0.00    -0.096 F 
ATOM     11  F3  UNL d   1       2.751   1.268   1.452  0.00  0.00    -0.097 F 
ATOM     12  F4  UNL d   1       1.103   3.435   1.280  0.00  0.00    -0.092 F 
ENDROOT
TORSDOF 0
ENDMDL
