MODEL 1
REMARK minimizedAffinity 5.34954834
REMARK minimizedRMSD -1
REMARK  0 active torsions:
REMARK  status: ('A' for Active; 'I' for Inactive)
ROOT
ATOM      1  C   UNL d   1       0.096   1.731   0.715  0.00  0.00     0.124 A 
ATOM      2  C1  UNL d   1       1.081   0.759   0.610  0.00  0.00     0.062 A 
ATOM      3  C2  UNL d   1       0.814  -0.439  -0.047  0.00  0.00     0.162 A 
ATOM      4  C3  UNL d   1      -0.443  -0.671  -0.605  0.00  0.00    -0.034 A 
ATOM      5  C4  UNL d   1      -1.428   0.311  -0.495  0.00  0.00     0.162 A 
ATOM      6  C5  UNL d   1      -1.157   1.507   0.163  0.00  0.00     0.062 A 
ATOM      7  F   UNL d   1      -2.110   2.445   0.264  0.00  0.00    -0.097 F 
ATOM      8  F1  UNL d   1      -2.648   0.121  -1.020  0.00  0.00    -0.096 F 
ATOM      9  I   UNL d   1      -0.845  -2.461  -1.589  0.00  0.00    -0.060 I 
ATOM     10  F2  UNL d   1       1.785  -1.361  -0.134  0.00  0.00    -0.096 F 
ATOM     11  F3  UNL d   1       2.292   0.973   1.144  0.00  0.00    -0.097 F 
ATOM     12  F4  UNL d   1       0.354   2.882   1.349  0.00  0.00    -0.092 F 
ENDROOT
TORSDOF 0
ENDMDL
