MODEL 1
REMARK minimizedAffinity -1.70877576
REMARK minimizedRMSD -1
REMARK  0 active torsions:
REMARK  status: ('A' for Active; 'I' for Inactive)
ROOT
ATOM      1  C   UNL d   1      -1.853   0.846   0.557  0.00  0.00     0.124 A 
ATOM      2  C1  UNL d   1      -1.003   1.111  -0.507  0.00  0.00     0.062 A 
ATOM      3  C2  UNL d   1      -0.401   0.065  -1.199  0.00  0.00     0.162 A 
ATOM      4  C3  UNL d   1      -0.648  -1.258  -0.830  0.00  0.00    -0.034 A 
ATOM      5  C4  UNL d   1      -1.505  -1.516   0.242  0.00  0.00     0.162 A 
ATOM      6  C5  UNL d   1      -2.104  -0.467   0.930  0.00  0.00     0.062 A 
ATOM      7  F   UNL d   1      -2.925  -0.725   1.958  0.00  0.00    -0.097 F 
ATOM      8  F1  UNL d   1      -1.765  -2.776   0.623  0.00  0.00    -0.096 F 
ATOM      9  I   UNL d   1       0.250  -2.826  -1.863  0.00  0.00    -0.060 I 
ATOM     10  F2  UNL d   1       0.417   0.350  -2.223  0.00  0.00    -0.096 F 
ATOM     11  F3  UNL d   1      -0.759   2.379  -0.868  0.00  0.00    -0.097 F 
ATOM     12  F4  UNL d   1      -2.430   1.855   1.223  0.00  0.00    -0.092 F 
ENDROOT
TORSDOF 0
ENDMDL
