MODEL 1
REMARK minimizedAffinity -0.513510287
REMARK minimizedRMSD -1
REMARK  0 active torsions:
REMARK  status: ('A' for Active; 'I' for Inactive)
ROOT
ATOM      1  C   UNL d   1      -0.316   2.162   0.598  0.00  0.00     0.124 A 
ATOM      2  C1  UNL d   1       1.021   1.904   0.869  0.00  0.00     0.062 A 
ATOM      3  C2  UNL d   1       1.504   0.600   0.829  0.00  0.00     0.162 A 
ATOM      4  C3  UNL d   1       0.650  -0.458   0.516  0.00  0.00    -0.034 A 
ATOM      5  C4  UNL d   1      -0.693  -0.191   0.246  0.00  0.00     0.162 A 
ATOM      6  C5  UNL d   1      -1.171   1.115   0.288  0.00  0.00     0.062 A 
ATOM      7  F   UNL d   1      -2.463   1.362   0.026  0.00  0.00    -0.097 F 
ATOM      8  F1  UNL d   1      -1.542  -1.184  -0.058  0.00  0.00    -0.096 F 
ATOM      9  I   UNL d   1       1.369  -2.410   0.455  0.00  0.00    -0.060 I 
ATOM     10  F2  UNL d   1       2.801   0.380   1.094  0.00  0.00    -0.096 F 
ATOM     11  F3  UNL d   1       1.849   2.915   1.170  0.00  0.00    -0.097 F 
ATOM     12  F4  UNL d   1      -0.779   3.418   0.639  0.00  0.00    -0.092 F 
ENDROOT
TORSDOF 0
ENDMDL
