MODEL 1
REMARK minimizedAffinity 11.1057301
REMARK minimizedRMSD -1
REMARK  0 active torsions:
REMARK  status: ('A' for Active; 'I' for Inactive)
ROOT
ATOM      1  C1  DEN d   1       3.975   3.733   1.928  0.00  0.00     0.130 A 
ATOM      2  C2  DEN d   1       4.600   5.033   1.699  0.00  0.00    -0.031 A 
ATOM      3  C3  DEN d   1       3.767   5.776   0.733  0.00  0.00     0.027 A 
ATOM      4  C4  DEN d   1       1.578   5.047  -0.421  0.00  0.00     0.027 A 
ATOM      5  C5  DEN d   1       0.664   4.024  -0.550  0.00  0.00    -0.003 A 
ATOM      6  C6  DEN d   1       0.807   2.830   0.105  0.00  0.00     0.001 A 
ATOM      7  C7  DEN d   1       1.864   2.645   0.957  0.00  0.00     0.017 A 
ATOM      8  C8  DEN d   1       2.794   3.669   1.087  0.00  0.00    -0.094 A 
ATOM      9  C9  DEN d   1       2.625   4.873   0.425  0.00  0.00    -0.072 A 
ENDROOT
TORSDOF 0
ENDMDL
