MODEL 1
REMARK minimizedAffinity 11.1391058
REMARK minimizedRMSD -1
REMARK  0 active torsions:
REMARK  status: ('A' for Active; 'I' for Inactive)
ROOT
ATOM      1  C1  DEN d   1      -0.568   2.411  -0.034  0.00  0.00     0.130 A 
ATOM      2  C2  DEN d   1       0.323   1.401   0.530  0.00  0.00    -0.031 A 
ATOM      3  C3  DEN d   1       1.680   1.979   0.605  0.00  0.00     0.027 A 
ATOM      4  C4  DEN d   1       2.483   4.329  -0.090  0.00  0.00     0.027 A 
ATOM      5  C5  DEN d   1       2.092   5.534  -0.631  0.00  0.00    -0.003 A 
ATOM      6  C6  DEN d   1       0.806   5.769  -1.039  0.00  0.00     0.001 A 
ATOM      7  C7  DEN d   1      -0.147   4.800  -0.871  0.00  0.00     0.017 A 
ATOM      8  C8  DEN d   1       0.240   3.580  -0.333  0.00  0.00    -0.094 A 
ATOM      9  C9  DEN d   1       1.543   3.366   0.085  0.00  0.00    -0.072 A 
ENDROOT
TORSDOF 0
ENDMDL
