MODEL 1
REMARK minimizedAffinity 15.8518114
REMARK minimizedRMSD -1
REMARK  0 active torsions:
REMARK  status: ('A' for Active; 'I' for Inactive)
ROOT
ATOM      1  C1  DEN d   1       1.728  -1.502   3.160  0.00  0.00     0.130 A 
ATOM      2  C2  DEN d   1       2.273  -1.103   1.865  0.00  0.00    -0.031 A 
ATOM      3  C3  DEN d   1       3.746  -1.138   1.960  0.00  0.00     0.027 A 
ATOM      4  C4  DEN d   1       5.228  -1.771   3.974  0.00  0.00     0.027 A 
ATOM      5  C5  DEN d   1       5.220  -2.168   5.293  0.00  0.00    -0.003 A 
ATOM      6  C6  DEN d   1       4.057  -2.336   5.998  0.00  0.00     0.001 A 
ATOM      7  C7  DEN d   1       2.852  -2.151   5.373  0.00  0.00     0.017 A 
ATOM      8  C8  DEN d   1       2.852  -1.744   4.046  0.00  0.00    -0.094 A 
ATOM      9  C9  DEN d   1       4.038  -1.591   3.347  0.00  0.00    -0.072 A 
ENDROOT
TORSDOF 0
ENDMDL
