MODEL 1
REMARK minimizedAffinity 0.0707595944
REMARK minimizedRMSD -1
REMARK  0 active torsions:
REMARK  status: ('A' for Active; 'I' for Inactive)
ROOT
ATOM      1  C1  DEN d   1      -3.827   2.208  -3.076  0.00  0.00     0.130 A 
ATOM      2  C2  DEN d   1      -4.768   1.122  -3.338  0.00  0.00    -0.031 A 
ATOM      3  C3  DEN d   1      -5.787   1.620  -4.284  0.00  0.00     0.027 A 
ATOM      4  C4  DEN d   1      -5.996   3.952  -5.365  0.00  0.00     0.027 A 
ATOM      5  C5  DEN d   1      -5.439   5.209  -5.439  0.00  0.00    -0.003 A 
ATOM      6  C6  DEN d   1      -4.334   5.562  -4.710  0.00  0.00     0.001 A 
ATOM      7  C7  DEN d   1      -3.724   4.632  -3.909  0.00  0.00     0.017 A 
ATOM      8  C8  DEN d   1      -4.285   3.365  -3.824  0.00  0.00    -0.094 A 
ATOM      9  C9  DEN d   1      -5.395   3.024  -4.579  0.00  0.00    -0.072 A 
ENDROOT
TORSDOF 0
ENDMDL
