MODEL 1
REMARK minimizedAffinity 11.1271315
REMARK minimizedRMSD -1
REMARK  0 active torsions:
REMARK  status: ('A' for Active; 'I' for Inactive)
ROOT
ATOM      1  C1  DEN d   1       3.064  -2.030   1.188  0.00  0.00     0.130 A 
ATOM      2  C2  DEN d   1       1.995  -1.051   1.011  0.00  0.00    -0.031 A 
ATOM      3  C3  DEN d   1       1.874  -0.276   2.262  0.00  0.00     0.027 A 
ATOM      4  C4  DEN d   1       3.234  -0.492   4.443  0.00  0.00     0.027 A 
ATOM      5  C5  DEN d   1       4.241  -1.189   5.074  0.00  0.00    -0.003 A 
ATOM      6  C6  DEN d   1       4.898  -2.228   4.471  0.00  0.00     0.001 A 
ATOM      7  C7  DEN d   1       4.586  -2.572   3.182  0.00  0.00     0.017 A 
ATOM      8  C8  DEN d   1       3.566  -1.879   2.542  0.00  0.00    -0.094 A 
ATOM      9  C9  DEN d   1       2.923  -0.823   3.164  0.00  0.00    -0.072 A 
ENDROOT
TORSDOF 0
ENDMDL
