MODEL 1
REMARK minimizedAffinity 1.28350055
REMARK minimizedRMSD -1
REMARK  0 active torsions:
REMARK  status: ('A' for Active; 'I' for Inactive)
ROOT
ATOM      1  C1  DEN d   1      -4.631   1.839  -3.397  0.00  0.00     0.130 A 
ATOM      2  C2  DEN d   1      -5.999   1.952  -3.897  0.00  0.00    -0.031 A 
ATOM      3  C3  DEN d   1      -6.000   2.925  -5.007  0.00  0.00     0.027 A 
ATOM      4  C4  DEN d   1      -4.027   4.257  -5.999  0.00  0.00     0.027 A 
ATOM      5  C5  DEN d   1      -2.676   4.505  -5.898  0.00  0.00    -0.003 A 
ATOM      6  C6  DEN d   1      -1.894   3.912  -4.942  0.00  0.00     0.001 A 
ATOM      7  C7  DEN d   1      -2.450   3.006  -4.077  0.00  0.00     0.017 A 
ATOM      8  C8  DEN d   1      -3.813   2.757  -4.168  0.00  0.00    -0.094 A 
ATOM      9  C9  DEN d   1      -4.584   3.358  -5.150  0.00  0.00    -0.072 A 
ENDROOT
TORSDOF 0
ENDMDL
