MODEL 1
REMARK minimizedAffinity 13.2931967
REMARK minimizedRMSD -1
REMARK  0 active torsions:
REMARK  status: ('A' for Active; 'I' for Inactive)
ROOT
ATOM      1  C1  DEN d   1      -3.737   1.626  -6.000  0.00  0.00     0.130 A 
ATOM      2  C2  DEN d   1      -2.379   1.107  -5.863  0.00  0.00    -0.031 A 
ATOM      3  C3  DEN d   1      -1.517   2.203  -5.378  0.00  0.00     0.027 A 
ATOM      4  C4  DEN d   1      -2.151   4.641  -4.824  0.00  0.00     0.027 A 
ATOM      5  C5  DEN d   1      -3.183   5.554  -4.795  0.00  0.00    -0.003 A 
ATOM      6  C6  DEN d   1      -4.453   5.234  -5.194  0.00  0.00     0.001 A 
ATOM      7  C7  DEN d   1      -4.735   3.955  -5.598  0.00  0.00     0.017 A 
ATOM      8  C8  DEN d   1      -3.699   3.031  -5.637  0.00  0.00    -0.094 A 
ATOM      9  C9  DEN d   1      -2.424   3.372  -5.218  0.00  0.00    -0.072 A 
ENDROOT
TORSDOF 0
ENDMDL
