MODEL 1
REMARK minimizedAffinity 8.56078053
REMARK minimizedRMSD -1
REMARK  0 active torsions:
REMARK  status: ('A' for Active; 'I' for Inactive)
ROOT
ATOM      1  C1  DEN d   1       2.638   0.628  -1.055  0.00  0.00     0.130 A 
ATOM      2  C2  DEN d   1       2.378   0.508   0.377  0.00  0.00    -0.031 A 
ATOM      3  C3  DEN d   1       3.407   1.286   1.095  0.00  0.00     0.027 A 
ATOM      4  C4  DEN d   1       5.365   2.663   0.133  0.00  0.00     0.027 A 
ATOM      5  C5  DEN d   1       6.000   3.054  -1.025  0.00  0.00    -0.003 A 
ATOM      6  C6  DEN d   1       5.582   2.639  -2.262  0.00  0.00     0.001 A 
ATOM      7  C7  DEN d   1       4.472   1.845  -2.373  0.00  0.00     0.017 A 
ATOM      8  C8  DEN d   1       3.831   1.440  -1.209  0.00  0.00    -0.094 A 
ATOM      9  C9  DEN d   1       4.261   1.880   0.031  0.00  0.00    -0.072 A 
ENDROOT
TORSDOF 0
ENDMDL
