MODEL 1
REMARK minimizedAffinity 10.6721649
REMARK minimizedRMSD -1
REMARK  0 active torsions:
REMARK  status: ('A' for Active; 'I' for Inactive)
ROOT
ATOM      1  C1  DEN d   1      -1.286   0.076  -1.948  0.00  0.00     0.130 A 
ATOM      2  C2  DEN d   1      -0.443  -0.822  -1.163  0.00  0.00    -0.031 A 
ATOM      3  C3  DEN d   1      -0.534  -2.170  -1.758  0.00  0.00     0.027 A 
ATOM      4  C4  DEN d   1      -1.888  -2.950  -3.811  0.00  0.00     0.027 A 
ATOM      5  C5  DEN d   1      -2.764  -2.550  -4.796  0.00  0.00    -0.003 A 
ATOM      6  C6  DEN d   1      -3.231  -1.266  -4.879  0.00  0.00     0.001 A 
ATOM      7  C7  DEN d   1      -2.789  -0.323  -3.989  0.00  0.00     0.017 A 
ATOM      8  C8  DEN d   1      -1.912  -0.720  -2.988  0.00  0.00    -0.094 A 
ATOM      9  C9  DEN d   1      -1.442  -2.021  -2.928  0.00  0.00    -0.072 A 
ENDROOT
TORSDOF 0
ENDMDL
