MODEL 1
REMARK minimizedAffinity 7.7784009
REMARK minimizedRMSD -1
REMARK  0 active torsions:
REMARK  status: ('A' for Active; 'I' for Inactive)
ROOT
ATOM      1  C1  DEN d   1       2.399   0.024  -0.961  0.00  0.00     0.130 A 
ATOM      2  C2  DEN d   1       2.130  -0.432   0.400  0.00  0.00    -0.031 A 
ATOM      3  C3  DEN d   1       3.039   0.290   1.312  0.00  0.00     0.027 A 
ATOM      4  C4  DEN d   1       4.826   2.064   0.753  0.00  0.00     0.027 A 
ATOM      5  C5  DEN d   1       5.428   2.769  -0.266  0.00  0.00    -0.003 A 
ATOM      6  C6  DEN d   1       5.090   2.585  -1.580  0.00  0.00     0.001 A 
ATOM      7  C7  DEN d   1       4.090   1.706  -1.907  0.00  0.00     0.017 A 
ATOM      8  C8  DEN d   1       3.483   0.987  -0.886  0.00  0.00    -0.094 A 
ATOM      9  C9  DEN d   1       3.831   1.197   0.438  0.00  0.00    -0.072 A 
ENDROOT
TORSDOF 0
ENDMDL
