MODEL 1
REMARK minimizedAffinity 1.53009379
REMARK minimizedRMSD -1
REMARK  0 active torsions:
REMARK  status: ('A' for Active; 'I' for Inactive)
ROOT
ATOM      1  C1  DEN d   1       5.405   3.279  -0.309  0.00  0.00     0.130 A 
ATOM      2  C2  DEN d   1       5.998   3.556  -1.615  0.00  0.00    -0.031 A 
ATOM      3  C3  DEN d   1       5.296   2.733  -2.619  0.00  0.00     0.027 A 
ATOM      4  C4  DEN d   1       3.354   1.069  -2.283  0.00  0.00     0.027 A 
ATOM      5  C5  DEN d   1       2.520   0.490  -1.352  0.00  0.00    -0.003 A 
ATOM      6  C6  DEN d   1       2.612   0.771  -0.015  0.00  0.00     0.001 A 
ATOM      7  C7  DEN d   1       3.528   1.691   0.424  0.00  0.00     0.017 A 
ATOM      8  C8  DEN d   1       4.377   2.273  -0.508  0.00  0.00    -0.094 A 
ATOM      9  C9  DEN d   1       4.260   1.984  -1.857  0.00  0.00    -0.072 A 
ENDROOT
TORSDOF 0
ENDMDL
