MODEL 1
REMARK minimizedAffinity 15.9016819
REMARK minimizedRMSD -1
REMARK  0 active torsions:
REMARK  status: ('A' for Active; 'I' for Inactive)
ROOT
ATOM      1  C1  DEN d   1       2.662   0.448  -0.997  0.00  0.00     0.130 A 
ATOM      2  C2  DEN d   1       2.365   0.042   0.374  0.00  0.00    -0.031 A 
ATOM      3  C3  DEN d   1       3.367   0.664   1.261  0.00  0.00     0.027 A 
ATOM      4  C4  DEN d   1       5.336   2.214   0.650  0.00  0.00     0.027 A 
ATOM      5  C5  DEN d   1       5.998   2.832  -0.388  0.00  0.00    -0.003 A 
ATOM      6  C6  DEN d   1       5.618   2.673  -1.694  0.00  0.00     0.001 A 
ATOM      7  C7  DEN d   1       4.519   1.912  -1.993  0.00  0.00     0.017 A 
ATOM      8  C8  DEN d   1       3.851   1.280  -0.952  0.00  0.00    -0.094 A 
ATOM      9  C9  DEN d   1       4.243   1.463   0.363  0.00  0.00    -0.072 A 
ENDROOT
TORSDOF 0
ENDMDL
