MODEL 1
REMARK minimizedAffinity 9.62949276
REMARK minimizedRMSD -1
REMARK  0 active torsions:
REMARK  status: ('A' for Active; 'I' for Inactive)
ROOT
ATOM      1  C1  DEN d   1       2.974   0.595  -2.021  0.00  0.00     0.130 A 
ATOM      2  C2  DEN d   1       2.391   0.309  -0.713  0.00  0.00    -0.031 A 
ATOM      3  C3  DEN d   1       3.145   1.075   0.300  0.00  0.00     0.027 A 
ATOM      4  C4  DEN d   1       5.144   2.672  -0.029  0.00  0.00     0.027 A 
ATOM      5  C5  DEN d   1       5.999   3.223  -0.958  0.00  0.00    -0.003 A 
ATOM      6  C6  DEN d   1       5.929   2.913  -2.290  0.00  0.00     0.001 A 
ATOM      7  C7  DEN d   1       4.953   2.062  -2.738  0.00  0.00     0.017 A 
ATOM      8  C8  DEN d   1       4.091   1.497  -1.807  0.00  0.00    -0.094 A 
ATOM      9  C9  DEN d   1       4.171   1.832  -0.466  0.00  0.00    -0.072 A 
ENDROOT
TORSDOF 0
ENDMDL
