MODEL 1
REMARK minimizedAffinity -6.42702293
REMARK minimizedRMSD -1
REMARK  0 active torsions:
REMARK  status: ('A' for Active; 'I' for Inactive)
ROOT
ATOM      1  C4' PXY d   1      -1.599   0.424  -3.451  0.00  0.00     0.077 C 
ATOM      2  C1' PXY d   1       0.179  -1.723   1.612  0.00  0.00     0.077 C 
ATOM      3  C1  PXY d   1      -0.276  -1.153   0.284  0.00  0.00    -0.082 A 
ATOM      4  C2  PXY d   1      -1.568  -1.110  -0.002  0.00  0.00     0.003 A 
ATOM      5  C3  PXY d   1      -1.995  -0.627  -1.212  0.00  0.00     0.003 A 
ATOM      6  C4  PXY d   1      -1.094  -0.134  -2.118  0.00  0.00    -0.082 A 
ATOM      7  C5  PXY d   1       0.224  -0.165  -1.830  0.00  0.00     0.003 A 
ATOM      8  C6  PXY d   1       0.640  -0.697  -0.613  0.00  0.00     0.003 A 
ENDROOT
TORSDOF 0
ENDMDL
