MODEL 1
REMARK minimizedAffinity -2.0533464
REMARK minimizedRMSD -1
REMARK  0 active torsions:
REMARK  status: ('A' for Active; 'I' for Inactive)
ROOT
ATOM      1  C4' PXY d   1       1.846   0.999   0.411  0.00  0.00     0.077 C 
ATOM      2  C1' PXY d   1      -3.338  -1.178  -0.931  0.00  0.00     0.077 C 
ATOM      3  C1  PXY d   1      -1.978  -0.601  -0.591  0.00  0.00    -0.082 A 
ATOM      4  C2  PXY d   1      -1.235  -1.182   0.337  0.00  0.00     0.003 A 
ATOM      5  C3  PXY d   1      -0.016  -0.656   0.680  0.00  0.00     0.003 A 
ATOM      6  C4  PXY d   1       0.471   0.446   0.028  0.00  0.00    -0.082 A 
ATOM      7  C5  PXY d   1      -0.277   1.038  -0.927  0.00  0.00     0.003 A 
ATOM      8  C6  PXY d   1      -1.529   0.512  -1.232  0.00  0.00     0.003 A 
ENDROOT
TORSDOF 0
ENDMDL
