MODEL 1
REMARK minimizedAffinity -2.97621274
REMARK minimizedRMSD -1
REMARK  0 active torsions:
REMARK  status: ('A' for Active; 'I' for Inactive)
ROOT
ATOM      1  C4' PXY d   1       1.675   0.810   0.023  0.00  0.00     0.077 C 
ATOM      2  C1' PXY d   1      -3.637  -1.471   0.015  0.00  0.00     0.077 C 
ATOM      3  C1  PXY d   1      -2.242  -0.878   0.005  0.00  0.00    -0.082 A 
ATOM      4  C2  PXY d   1      -1.638  -0.608   1.151  0.00  0.00     0.003 A 
ATOM      5  C3  PXY d   1      -0.389  -0.041   1.160  0.00  0.00     0.003 A 
ATOM      6  C4  PXY d   1       0.270   0.202  -0.015  0.00  0.00    -0.082 A 
ATOM      7  C5  PXY d   1      -0.335  -0.081  -1.188  0.00  0.00     0.003 A 
ATOM      8  C6  PXY d   1      -1.620  -0.617  -1.177  0.00  0.00     0.003 A 
ENDROOT
TORSDOF 0
ENDMDL
