MODEL 1
REMARK minimizedAffinity -1.82390499
REMARK minimizedRMSD -1
REMARK  0 active torsions:
REMARK  status: ('A' for Active; 'I' for Inactive)
ROOT
ATOM      1  C4' PXY d   1      -3.654  -0.627  -0.689  0.00  0.00     0.077 C 
ATOM      2  C1' PXY d   1       2.005   0.512  -0.379  0.00  0.00     0.077 C 
ATOM      3  C1  PXY d   1       0.520   0.222  -0.470  0.00  0.00    -0.082 A 
ATOM      4  C2  PXY d   1      -0.110  -0.298   0.571  0.00  0.00     0.003 A 
ATOM      5  C3  PXY d   1      -1.446  -0.597   0.495  0.00  0.00     0.003 A 
ATOM      6  C4  PXY d   1      -2.157  -0.310  -0.639  0.00  0.00    -0.082 A 
ATOM      7  C5  PXY d   1      -1.524   0.231  -1.702  0.00  0.00     0.003 A 
ATOM      8  C6  PXY d   1      -0.158   0.488  -1.619  0.00  0.00     0.003 A 
ENDROOT
TORSDOF 0
ENDMDL
