MODEL 1
REMARK minimizedAffinity -3.69981432
REMARK minimizedRMSD -1
REMARK  0 active torsions:
REMARK  status: ('A' for Active; 'I' for Inactive)
ROOT
ATOM      1  C4' PXY d   1      -1.068   0.076  -3.696  0.00  0.00     0.077 C 
ATOM      2  C1' PXY d   1      -1.229  -1.663   1.815  0.00  0.00     0.077 C 
ATOM      3  C1  PXY d   1      -1.194  -1.218   0.366  0.00  0.00    -0.082 A 
ATOM      4  C2  PXY d   1      -0.222  -0.421  -0.050  0.00  0.00     0.003 A 
ATOM      5  C3  PXY d   1      -0.193   0.017  -1.349  0.00  0.00     0.003 A 
ATOM      6  C4  PXY d   1      -1.138  -0.407  -2.244  0.00  0.00    -0.082 A 
ATOM      7  C5  PXY d   1      -2.126  -1.228  -1.830  0.00  0.00     0.003 A 
ATOM      8  C6  PXY d   1      -2.161  -1.628  -0.498  0.00  0.00     0.003 A 
ENDROOT
TORSDOF 0
ENDMDL
