MODEL 1
REMARK minimizedAffinity -4.98743153
REMARK minimizedRMSD -1
REMARK  0 active torsions:
REMARK  status: ('A' for Active; 'I' for Inactive)
ROOT
ATOM      1  C4' PXY d   1      -2.352  -2.581  -3.693  0.00  0.00     0.077 C 
ATOM      2  C1' PXY d   1      -2.030  -0.065   1.501  0.00  0.00     0.077 C 
ATOM      3  C1  PXY d   1      -2.111  -0.713   0.134  0.00  0.00    -0.082 A 
ATOM      4  C2  PXY d   1      -2.832  -1.811  -0.028  0.00  0.00     0.003 A 
ATOM      5  C3  PXY d   1      -2.891  -2.428  -1.251  0.00  0.00     0.003 A 
ATOM      6  C4  PXY d   1      -2.248  -1.887  -2.332  0.00  0.00    -0.082 A 
ATOM      7  C5  PXY d   1      -1.519  -0.761  -2.178  0.00  0.00     0.003 A 
ATOM      8  C6  PXY d   1      -1.439  -0.173  -0.919  0.00  0.00     0.003 A 
ENDROOT
TORSDOF 0
ENDMDL
