MODEL 1
REMARK minimizedAffinity -4.49948359
REMARK minimizedRMSD -1
REMARK  0 active torsions:
REMARK  status: ('A' for Active; 'I' for Inactive)
ROOT
ATOM      1  C4' PXY d   1       1.925   1.225   0.602  0.00  0.00     0.077 C 
ATOM      2  C1' PXY d   1      -2.740  -1.562  -1.369  0.00  0.00     0.077 C 
ATOM      3  C1  PXY d   1      -1.517  -0.838  -0.841  0.00  0.00    -0.082 A 
ATOM      4  C2  PXY d   1      -1.223   0.368  -1.298  0.00  0.00     0.003 A 
ATOM      5  C3  PXY d   1      -0.103   1.023  -0.855  0.00  0.00     0.003 A 
ATOM      6  C4  PXY d   1       0.695   0.461   0.104  0.00  0.00    -0.082 A 
ATOM      7  C5  PXY d   1       0.396  -0.765   0.584  0.00  0.00     0.003 A 
ATOM      8  C6  PXY d   1      -0.723  -1.432   0.091  0.00  0.00     0.003 A 
ENDROOT
TORSDOF 0
ENDMDL
