MODEL 1
REMARK minimizedAffinity -2.3819325
REMARK minimizedRMSD -1
REMARK  0 active torsions:
REMARK  status: ('A' for Active; 'I' for Inactive)
ROOT
ATOM      1  C4' PXY d   1      -1.528  -2.322   1.971  0.00  0.00     0.077 C 
ATOM      2  C1' PXY d   1      -1.390   0.959  -2.786  0.00  0.00     0.077 C 
ATOM      3  C1  PXY d   1      -1.418   0.107  -1.532  0.00  0.00    -0.082 A 
ATOM      4  C2  PXY d   1      -1.683  -1.186  -1.626  0.00  0.00     0.003 A 
ATOM      5  C3  PXY d   1      -1.744  -1.965  -0.499  0.00  0.00     0.003 A 
ATOM      6  C4  PXY d   1      -1.479  -1.426   0.731  0.00  0.00    -0.082 A 
ATOM      7  C5  PXY d   1      -1.197  -0.109   0.834  0.00  0.00     0.003 A 
ATOM      8  C6  PXY d   1      -1.181   0.672  -0.317  0.00  0.00     0.003 A 
ENDROOT
TORSDOF 0
ENDMDL
