MODEL 1
REMARK minimizedAffinity -2.49903631
REMARK minimizedRMSD -1
REMARK  0 active torsions:
REMARK  status: ('A' for Active; 'I' for Inactive)
ROOT
ATOM      1  C4' PXY d   1      -2.568  -3.070  -3.329  0.00  0.00     0.077 C 
ATOM      2  C1' PXY d   1      -0.953   0.643   0.797  0.00  0.00     0.077 C 
ATOM      3  C1  PXY d   1      -1.381  -0.339  -0.276  0.00  0.00    -0.082 A 
ATOM      4  C2  PXY d   1      -0.824  -0.281  -1.475  0.00  0.00     0.003 A 
ATOM      5  C3  PXY d   1      -1.222  -1.141  -2.467  0.00  0.00     0.003 A 
ATOM      6  C4  PXY d   1      -2.160  -2.105  -2.213  0.00  0.00    -0.082 A 
ATOM      7  C5  PXY d   1      -2.725  -2.177  -0.989  0.00  0.00     0.003 A 
ATOM      8  C6  PXY d   1      -2.337  -1.269  -0.008  0.00  0.00     0.003 A 
ENDROOT
TORSDOF 0
ENDMDL
