MODEL 1
REMARK minimizedAffinity -3.62085581
REMARK minimizedRMSD -1
REMARK  0 active torsions:
REMARK  status: ('A' for Active; 'I' for Inactive)
ROOT
ATOM      1  C4' PXY d   1      -1.470  -1.396   2.090  0.00  0.00     0.077 C 
ATOM      2  C1' PXY d   1      -0.898   0.838  -3.211  0.00  0.00     0.077 C 
ATOM      3  C1  PXY d   1      -1.035   0.253  -1.819  0.00  0.00    -0.082 A 
ATOM      4  C2  PXY d   1      -2.078  -0.508  -1.529  0.00  0.00     0.003 A 
ATOM      5  C3  PXY d   1      -2.234  -1.019  -0.266  0.00  0.00     0.003 A 
ATOM      6  C4  PXY d   1      -1.286  -0.792   0.695  0.00  0.00    -0.082 A 
ATOM      7  C5  PXY d   1      -0.214  -0.025   0.404  0.00  0.00     0.003 A 
ATOM      8  C6  PXY d   1      -0.095   0.518  -0.872  0.00  0.00     0.003 A 
ENDROOT
TORSDOF 0
ENDMDL
