MODEL 1
REMARK minimizedAffinity -5.58463955
REMARK minimizedRMSD -1
REMARK  0 active torsions:
REMARK  status: ('A' for Active; 'I' for Inactive)
ROOT
ATOM      1  C4' PXY d   1      -1.454   0.057  -0.515  0.00  0.00     0.077 C 
ATOM      2  C1' PXY d   1       3.104   3.100   1.322  0.00  0.00     0.077 C 
ATOM      3  C1  PXY d   1       1.916   2.291   0.840  0.00  0.00    -0.082 A 
ATOM      4  C2  PXY d   1       0.925   2.898   0.209  0.00  0.00     0.003 A 
ATOM      5  C3  PXY d   1      -0.172   2.187  -0.206  0.00  0.00     0.003 A 
ATOM      6  C4  PXY d   1      -0.230   0.832  -0.019  0.00  0.00    -0.082 A 
ATOM      7  C5  PXY d   1       0.783   0.204   0.615  0.00  0.00     0.003 A 
ATOM      8  C6  PXY d   1       1.868   0.950   1.064  0.00  0.00     0.003 A 
ENDROOT
TORSDOF 0
ENDMDL
