MODEL 1
REMARK minimizedAffinity -4.58106565
REMARK minimizedRMSD -1
REMARK  0 active torsions:
REMARK  status: ('A' for Active; 'I' for Inactive)
ROOT
ATOM      1  C4' PXY d   1      -0.747   1.572  -2.273  0.00  0.00     0.077 C 
ATOM      2  C1' PXY d   1      -2.593  -2.897   0.895  0.00  0.00     0.077 C 
ATOM      3  C1  PXY d   1      -2.102  -1.721   0.075  0.00  0.00    -0.082 A 
ATOM      4  C2  PXY d   1      -2.799  -1.320  -0.977  0.00  0.00     0.003 A 
ATOM      5  C3  PXY d   1      -2.353  -0.278  -1.749  0.00  0.00     0.003 A 
ATOM      6  C4  PXY d   1      -1.210   0.395  -1.410  0.00  0.00    -0.082 A 
ATOM      7  C5  PXY d   1      -0.499  -0.001  -0.333  0.00  0.00     0.003 A 
ATOM      8  C6  PXY d   1      -0.947  -1.087   0.414  0.00  0.00     0.003 A 
ENDROOT
TORSDOF 0
ENDMDL
