MODEL 1
REMARK minimizedAffinity -5.13417625
REMARK minimizedRMSD -1
REMARK  0 active torsions:
REMARK  status: ('A' for Active; 'I' for Inactive)
ROOT
ATOM      1  C4' PXY d   1       1.992   1.063   0.287  0.00  0.00     0.077 C 
ATOM      2  C1' PXY d   1      -3.100  -1.026  -1.481  0.00  0.00     0.077 C 
ATOM      3  C1  PXY d   1      -1.760  -0.478  -1.030  0.00  0.00    -0.082 A 
ATOM      4  C2  PXY d   1      -1.349  -0.694   0.209  0.00  0.00     0.003 A 
ATOM      5  C3  PXY d   1      -0.155  -0.178   0.643  0.00  0.00     0.003 A 
ATOM      6  C4  PXY d   1       0.651   0.521  -0.215  0.00  0.00    -0.082 A 
ATOM      7  C5  PXY d   1       0.243   0.736  -1.484  0.00  0.00     0.003 A 
ATOM      8  C6  PXY d   1      -0.991   0.239  -1.893  0.00  0.00     0.003 A 
ENDROOT
TORSDOF 0
ENDMDL
