MODEL 1
REMARK minimizedAffinity -1.9095968
REMARK minimizedRMSD -1
REMARK  0 active torsions:
REMARK  status: ('A' for Active; 'I' for Inactive)
ROOT
ATOM      1  C4' PXY d   1      -3.436   2.119   1.275  0.00  0.00     0.077 C 
ATOM      2  C1' PXY d   1       0.660  -1.958   1.422  0.00  0.00     0.077 C 
ATOM      3  C1  PXY d   1      -0.406  -0.880   1.387  0.00  0.00    -0.082 A 
ATOM      4  C2  PXY d   1      -1.682  -1.219   1.474  0.00  0.00     0.003 A 
ATOM      5  C3  PXY d   1      -2.660  -0.260   1.412  0.00  0.00     0.003 A 
ATOM      6  C4  PXY d   1      -2.326   1.065   1.315  0.00  0.00    -0.082 A 
ATOM      7  C5  PXY d   1      -1.026   1.419   1.236  0.00  0.00     0.003 A 
ATOM      8  C6  PXY d   1      -0.050   0.427   1.259  0.00  0.00     0.003 A 
ENDROOT
TORSDOF 0
ENDMDL
