MODEL 1
REMARK minimizedAffinity -3.19012213
REMARK minimizedRMSD -1
REMARK  0 active torsions:
REMARK  status: ('A' for Active; 'I' for Inactive)
ROOT
ATOM      1  C4' PXY d   1      -2.235  -1.448  -2.852  0.00  0.00     0.077 C 
ATOM      2  C1' PXY d   1      -1.097   0.790   2.355  0.00  0.00     0.077 C 
ATOM      3  C1  PXY d   1      -1.406   0.196   0.995  0.00  0.00    -0.082 A 
ATOM      4  C2  PXY d   1      -0.449   0.115   0.084  0.00  0.00     0.003 A 
ATOM      5  C3  PXY d   1      -0.719  -0.390  -1.162  0.00  0.00     0.003 A 
ATOM      6  C4  PXY d   1      -1.967  -0.865  -1.462  0.00  0.00    -0.082 A 
ATOM      7  C5  PXY d   1      -2.946  -0.795  -0.535  0.00  0.00     0.003 A 
ATOM      8  C6  PXY d   1      -2.662  -0.242   0.711  0.00  0.00     0.003 A 
ENDROOT
TORSDOF 0
ENDMDL
