MODEL 1
REMARK minimizedAffinity -3.93970895
REMARK minimizedRMSD -1
REMARK  0 active torsions:
REMARK  status: ('A' for Active; 'I' for Inactive)
ROOT
ATOM      1  C4' PXY d   1       1.344  -0.269   0.868  0.00  0.00     0.077 C 
ATOM      2  C1' PXY d   1       4.679   4.117  -0.882  0.00  0.00     0.077 C 
ATOM      3  C1  PXY d   1       3.811   2.967  -0.411  0.00  0.00    -0.082 A 
ATOM      4  C2  PXY d   1       3.263   2.155  -1.300  0.00  0.00     0.003 A 
ATOM      5  C3  PXY d   1       2.448   1.129  -0.894  0.00  0.00     0.003 A 
ATOM      6  C4  PXY d   1       2.236   0.900   0.439  0.00  0.00    -0.082 A 
ATOM      7  C5  PXY d   1       2.800   1.718   1.353  0.00  0.00     0.003 A 
ATOM      8  C6  PXY d   1       3.590   2.778   0.918  0.00  0.00     0.003 A 
ENDROOT
TORSDOF 0
ENDMDL
