MODEL 1
REMARK minimizedAffinity -2.53147292
REMARK minimizedRMSD -1
REMARK  0 active torsions:
REMARK  status: ('A' for Active; 'I' for Inactive)
ROOT
ATOM      1  C4' PXY d   1      -0.199   0.410  -3.496  0.00  0.00     0.077 C 
ATOM      2  C1' PXY d   1      -1.076  -1.245   1.973  0.00  0.00     0.077 C 
ATOM      3  C1  PXY d   1      -0.855  -0.820   0.535  0.00  0.00    -0.082 A 
ATOM      4  C2  PXY d   1       0.289  -0.251   0.189  0.00  0.00     0.003 A 
ATOM      5  C3  PXY d   1       0.493   0.169  -1.100  0.00  0.00     0.003 A 
ATOM      6  C4  PXY d   1      -0.462  -0.044  -2.057  0.00  0.00    -0.082 A 
ATOM      7  C5  PXY d   1      -1.627  -0.634  -1.715  0.00  0.00     0.003 A 
ATOM      8  C6  PXY d   1      -1.831  -1.015  -0.392  0.00  0.00     0.003 A 
ENDROOT
TORSDOF 0
ENDMDL
