MODEL 1
REMARK minimizedAffinity -4.10077953
REMARK minimizedRMSD -1
REMARK  0 active torsions:
REMARK  status: ('A' for Active; 'I' for Inactive)
ROOT
ATOM      1  C4' PXY d   1      -3.528  -0.591  -0.483  0.00  0.00     0.077 C 
ATOM      2  C1' PXY d   1       2.152   0.425  -0.145  0.00  0.00     0.077 C 
ATOM      3  C1  PXY d   1       0.662   0.167  -0.244  0.00  0.00    -0.082 A 
ATOM      4  C2  PXY d   1       0.006  -0.290   0.811  0.00  0.00     0.003 A 
ATOM      5  C3  PXY d   1      -1.336  -0.559   0.730  0.00  0.00     0.003 A 
ATOM      6  C4  PXY d   1      -2.024  -0.307  -0.427  0.00  0.00    -0.082 A 
ATOM      7  C5  PXY d   1      -1.364   0.169  -1.504  0.00  0.00     0.003 A 
ATOM      8  C6  PXY d   1       0.006   0.397  -1.413  0.00  0.00     0.003 A 
ENDROOT
TORSDOF 0
ENDMDL
