MODEL 1
REMARK minimizedAffinity -5.01756096
REMARK minimizedRMSD -1
REMARK  0 active torsions:
REMARK  status: ('A' for Active; 'I' for Inactive)
ROOT
ATOM      1  C4' PXY d   1       2.198   0.413   0.408  0.00  0.00     0.077 C 
ATOM      2  C1' PXY d   1      -3.461  -0.559  -0.254  0.00  0.00     0.077 C 
ATOM      3  C1  PXY d   1      -1.975  -0.309  -0.092  0.00  0.00    -0.082 A 
ATOM      4  C2  PXY d   1      -1.461  -0.182   1.121  0.00  0.00     0.003 A 
ATOM      5  C3  PXY d   1      -0.124   0.076   1.284  0.00  0.00     0.003 A 
ATOM      6  C4  PXY d   1       0.705   0.151   0.197  0.00  0.00    -0.082 A 
ATOM      7  C5  PXY d   1       0.190   0.011  -1.043  0.00  0.00     0.003 A 
ATOM      8  C6  PXY d   1      -1.176  -0.209  -1.189  0.00  0.00     0.003 A 
ENDROOT
TORSDOF 0
ENDMDL
