MODEL 1
REMARK minimizedAffinity -1.5975883
REMARK minimizedRMSD -1
REMARK  0 active torsions:
REMARK  status: ('A' for Active; 'I' for Inactive)
ROOT
ATOM      1  C4' PXY d   1       3.514   4.021   0.171  0.00  0.00     0.077 C 
ATOM      2  C1' PXY d   1       1.275  -1.037   1.850  0.00  0.00     0.077 C 
ATOM      3  C1  PXY d   1       1.856   0.296   1.419  0.00  0.00    -0.082 A 
ATOM      4  C2  PXY d   1       2.253   0.462   0.168  0.00  0.00     0.003 A 
ATOM      5  C3  PXY d   1       2.811   1.650  -0.230  0.00  0.00     0.003 A 
ATOM      6  C4  PXY d   1       2.913   2.696   0.648  0.00  0.00    -0.082 A 
ATOM      7  C5  PXY d   1       2.500   2.537   1.923  0.00  0.00     0.003 A 
ATOM      8  C6  PXY d   1       1.975   1.310   2.318  0.00  0.00     0.003 A 
ENDROOT
TORSDOF 0
ENDMDL
