MODEL 1
REMARK minimizedAffinity 5.37423897
REMARK minimizedRMSD -1
REMARK  0 active torsions:
REMARK  status: ('A' for Active; 'I' for Inactive)
ROOT
ATOM      1  C   UNL d   1       1.882   1.403   1.007  0.00  0.00     0.023 A 
ATOM      2  C1  UNL d   1       0.859   0.559   1.436  0.00  0.00     0.003 A 
ATOM      3  C2  UNL d   1      -0.391   0.601   0.814  0.00  0.00     0.048 A 
ATOM      4  C3  UNL d   1      -0.609   1.490  -0.238  0.00  0.00     0.023 A 
ATOM      5  C4  UNL d   1       0.413   2.336  -0.672  0.00  0.00     0.048 A 
ATOM      6  C5  UNL d   1       1.660   2.291  -0.046  0.00  0.00     0.003 A 
ATOM      7  I   UNL d   1      -2.467   1.555  -1.167  0.00  0.00    -0.146 I 
ENDROOT
TORSDOF 0
ENDMDL
