MODEL 1
REMARK minimizedAffinity -2.28587151
REMARK minimizedRMSD -1
REMARK  0 active torsions:
REMARK  status: ('A' for Active; 'I' for Inactive)
ROOT
ATOM      1  C   UNL d   1      -3.053  -0.551  -3.010  0.00  0.00     0.023 A 
ATOM      2  C1  UNL d   1      -3.252   0.606  -2.256  0.00  0.00     0.003 A 
ATOM      3  C2  UNL d   1      -2.317   0.980  -1.288  0.00  0.00     0.048 A 
ATOM      4  C3  UNL d   1      -1.184   0.193  -1.081  0.00  0.00     0.023 A 
ATOM      5  C4  UNL d   1      -0.980  -0.964  -1.834  0.00  0.00     0.048 A 
ATOM      6  C5  UNL d   1      -1.919  -1.335  -2.800  0.00  0.00     0.003 A 
ATOM      7  I   UNL d   1       0.209   0.748   0.357  0.00  0.00    -0.146 I 
ENDROOT
TORSDOF 0
ENDMDL
