MODEL 1
REMARK minimizedAffinity -1.55298722
REMARK minimizedRMSD -1
REMARK  0 active torsions:
REMARK  status: ('A' for Active; 'I' for Inactive)
ROOT
ATOM      1  C   UNL d   1       2.084   0.830   0.779  0.00  0.00     0.023 A 
ATOM      2  C1  UNL d   1       1.299  -0.293   1.045  0.00  0.00     0.003 A 
ATOM      3  C2  UNL d   1       0.055  -0.439   0.429  0.00  0.00     0.048 A 
ATOM      4  C3  UNL d   1      -0.399   0.541  -0.454  0.00  0.00     0.023 A 
ATOM      5  C4  UNL d   1       0.383   1.666  -0.724  0.00  0.00     0.048 A 
ATOM      6  C5  UNL d   1       1.626   1.808  -0.104  0.00  0.00     0.003 A 
ATOM      7  I   UNL d   1      -2.250   0.327  -1.373  0.00  0.00    -0.146 I 
ENDROOT
TORSDOF 0
ENDMDL
