MODEL 1
REMARK minimizedAffinity -3.5732007
REMARK minimizedRMSD -1
REMARK  0 active torsions:
REMARK  status: ('A' for Active; 'I' for Inactive)
ROOT
ATOM      1  C   UNL d   1      -2.466  -0.847  -2.325  0.00  0.00     0.023 A 
ATOM      2  C1  UNL d   1      -3.034  -0.508  -3.553  0.00  0.00     0.003 A 
ATOM      3  C2  UNL d   1      -3.548   0.775  -3.755  0.00  0.00     0.048 A 
ATOM      4  C3  UNL d   1      -3.489   1.713  -2.725  0.00  0.00     0.023 A 
ATOM      5  C4  UNL d   1      -2.921   1.378  -1.495  0.00  0.00     0.048 A 
ATOM      6  C5  UNL d   1      -2.410   0.094  -1.298  0.00  0.00     0.003 A 
ATOM      7  I   UNL d   1      -4.253   3.623  -3.024  0.00  0.00    -0.146 I 
ENDROOT
TORSDOF 0
ENDMDL
