MODEL 1
REMARK minimizedAffinity -4.29719496
REMARK minimizedRMSD -1
REMARK  0 active torsions:
REMARK  status: ('A' for Active; 'I' for Inactive)
ROOT
ATOM      1  C   UNL d   1       2.686  -1.221   1.629  0.00  0.00     0.023 A 
ATOM      2  C1  UNL d   1       1.533  -1.972   1.860  0.00  0.00     0.003 A 
ATOM      3  C2  UNL d   1       0.368  -1.706   1.138  0.00  0.00     0.048 A 
ATOM      4  C3  UNL d   1       0.363  -0.688   0.185  0.00  0.00     0.023 A 
ATOM      5  C4  UNL d   1       1.514   0.065  -0.051  0.00  0.00     0.048 A 
ATOM      6  C5  UNL d   1       2.676  -0.204   0.675  0.00  0.00     0.003 A 
ATOM      7  I   UNL d   1      -1.370  -0.290  -0.891  0.00  0.00    -0.146 I 
ENDROOT
TORSDOF 0
ENDMDL
