MODEL 1
REMARK minimizedAffinity -5.23648977
REMARK minimizedRMSD -1
REMARK  0 active torsions:
REMARK  status: ('A' for Active; 'I' for Inactive)
ROOT
ATOM      1  C   UNL d   1       3.549  -1.779   1.788  0.00  0.00     0.023 A 
ATOM      2  C1  UNL d   1       2.357  -2.163   2.403  0.00  0.00     0.003 A 
ATOM      3  C2  UNL d   1       1.147  -1.590   2.003  0.00  0.00     0.048 A 
ATOM      4  C3  UNL d   1       1.137  -0.635   0.988  0.00  0.00     0.023 A 
ATOM      5  C4  UNL d   1       2.327  -0.248   0.369  0.00  0.00     0.048 A 
ATOM      6  C5  UNL d   1       3.534  -0.823   0.772  0.00  0.00     0.003 A 
ATOM      7  I   UNL d   1      -0.661   0.219   0.391  0.00  0.00    -0.146 I 
ENDROOT
TORSDOF 0
ENDMDL
