MODEL 1
REMARK minimizedAffinity -2.9053967
REMARK minimizedRMSD -1
REMARK  0 active torsions:
REMARK  status: ('A' for Active; 'I' for Inactive)
ROOT
ATOM      1  C   UNL d   1       2.348  -0.033   1.650  0.00  0.00     0.023 A 
ATOM      2  C1  UNL d   1       2.132   0.983   0.719  0.00  0.00     0.003 A 
ATOM      3  C2  UNL d   1       0.964   0.993  -0.046  0.00  0.00     0.048 A 
ATOM      4  C3  UNL d   1       0.016  -0.014   0.126  0.00  0.00     0.023 A 
ATOM      5  C4  UNL d   1       0.228  -1.033   1.057  0.00  0.00     0.048 A 
ATOM      6  C5  UNL d   1       1.397  -1.039   1.819  0.00  0.00     0.003 A 
ATOM      7  I   UNL d   1      -1.724  -0.001  -1.011  0.00  0.00    -0.146 I 
ENDROOT
TORSDOF 0
ENDMDL
