MODEL 1
REMARK minimizedAffinity -1.68924952
REMARK minimizedRMSD -1
REMARK  0 active torsions:
REMARK  status: ('A' for Active; 'I' for Inactive)
ROOT
ATOM      1  C   UNL d   1       1.843   0.657   1.293  0.00  0.00     0.023 A 
ATOM      2  C1  UNL d   1       1.263   1.817   0.778  0.00  0.00     0.003 A 
ATOM      3  C2  UNL d   1       0.053   1.745   0.085  0.00  0.00     0.048 A 
ATOM      4  C3  UNL d   1      -0.573   0.511  -0.088  0.00  0.00     0.023 A 
ATOM      5  C4  UNL d   1       0.003  -0.652   0.427  0.00  0.00     0.048 A 
ATOM      6  C5  UNL d   1       1.214  -0.575   1.118  0.00  0.00     0.003 A 
ATOM      7  I   UNL d   1      -2.374   0.402  -1.119  0.00  0.00    -0.146 I 
ENDROOT
TORSDOF 0
ENDMDL
