MODEL 1
REMARK minimizedAffinity -4.05441999
REMARK minimizedRMSD -1
REMARK  1 active torsions:
REMARK  status: ('A' for Active; 'I' for Inactive)
REMARK    1  A    between atoms: N_2  and  C1_3 
ROOT
ATOM      1  C1  UNL d   1      -0.429   0.108   2.018  0.00  0.00     0.143 A 
ATOM      2  C2  UNL d   1      -0.453  -0.161   0.645  0.00  0.00    -0.057 A 
ATOM      3  C3  UNL d   1       0.632  -0.773   0.006  0.00  0.00     0.033 A 
ATOM      4  C4  UNL d   1       1.775  -1.102   0.726  0.00  0.00    -0.042 A 
ATOM      5  C5  UNL d   1       1.831  -0.822   2.087  0.00  0.00     0.033 A 
ATOM      6  C6  UNL d   1       0.742  -0.216   2.720  0.00  0.00    -0.057 A 
ENDROOT
BRANCH   1   7
ATOM      7  N   UNL d   1      -1.435   0.804   2.692  0.00  0.00    -0.732 N 
ATOM      8  C   UNL d   1      -1.122   1.983   3.471  0.00  0.00     0.284 C 
ATOM      9  H3  UNL d   1      -2.288   0.884   2.142  0.00  0.00     0.395 HD
ENDBRANCH   1   7
TORSDOF 1
ENDMDL
