MODEL 1
REMARK minimizedAffinity -6.12807608
REMARK minimizedRMSD -1
REMARK  2 active torsions:
REMARK  status: ('A' for Active; 'I' for Inactive)
REMARK    1  A    between atoms: C1_2  and  C2_3 
REMARK    2  A    between atoms: C2_3  and  C3_4 
ROOT
ATOM      1  C3  UNL d   1      -0.155  -0.672   1.531  0.00  0.00    -0.075 A 
ATOM      2  C4  UNL d   1       1.124  -0.125   1.352  0.00  0.00     0.002 A 
ATOM      3  C5  UNL d   1       1.490   0.433   0.127  0.00  0.00     0.002 A 
ATOM      4  C6  UNL d   1       0.589   0.442  -0.935  0.00  0.00    -0.004 A 
ATOM      5  C7  UNL d   1      -0.679  -0.114  -0.774  0.00  0.00     0.002 A 
ATOM      6  C8  UNL d   1      -1.049  -0.669   0.453  0.00  0.00     0.002 A 
ENDROOT
BRANCH   1   7
ATOM      7  C2  UNL d   1      -0.568  -1.251   2.864  0.00  0.00     0.056 C 
BRANCH   7   8
ATOM      8  C1  UNL d   1      -1.488  -0.338   3.682  0.00  0.00     0.007 C 
ATOM      9  C   UNL d   1      -0.842   0.172   4.964  0.00  0.00     0.009 C 
ENDBRANCH   7   8
ENDBRANCH   1   7
TORSDOF 2
ENDMDL
