MODEL 1
REMARK minimizedAffinity -4.84327459
REMARK minimizedRMSD -1
REMARK  2 active torsions:
REMARK  status: ('A' for Active; 'I' for Inactive)
REMARK    1  A    between atoms: C1_2  and  C2_3 
REMARK    2  A    between atoms: C2_3  and  C3_4 
ROOT
ATOM      1  C3  UNL d   1       0.511  -0.435  -1.560  0.00  0.00    -0.075 A 
ATOM      2  C4  UNL d   1       1.024  -1.740  -1.565  0.00  0.00     0.002 A 
ATOM      3  C5  UNL d   1       1.433  -2.336  -2.759  0.00  0.00     0.002 A 
ATOM      4  C6  UNL d   1       1.327  -1.640  -3.961  0.00  0.00    -0.004 A 
ATOM      5  C7  UNL d   1       0.804  -0.348  -3.970  0.00  0.00     0.002 A 
ATOM      6  C8  UNL d   1       0.397   0.252  -2.777  0.00  0.00     0.002 A 
ENDROOT
BRANCH   1   7
ATOM      7  C2  UNL d   1       0.094   0.227  -0.269  0.00  0.00     0.056 C 
BRANCH   7   8
ATOM      8  C1  UNL d   1      -0.539  -0.732   0.746  0.00  0.00     0.007 C 
ATOM      9  C   UNL d   1      -1.300  -0.016   1.854  0.00  0.00     0.009 C 
ENDBRANCH   7   8
ENDBRANCH   1   7
TORSDOF 2
ENDMDL
