MODEL 1
REMARK minimizedAffinity -2.2199564
REMARK minimizedRMSD -1
REMARK  2 active torsions:
REMARK  status: ('A' for Active; 'I' for Inactive)
REMARK    1  A    between atoms: C1_2  and  C2_3 
REMARK    2  A    between atoms: C2_3  and  C3_4 
ROOT
ATOM      1  C3  UNL d   1      -0.058   0.005  -0.533  0.00  0.00    -0.075 A 
ATOM      2  C4  UNL d   1       1.107  -0.102   0.239  0.00  0.00     0.002 A 
ATOM      3  C5  UNL d   1       1.071   0.137   1.614  0.00  0.00     0.002 A 
ATOM      4  C6  UNL d   1      -0.126   0.494   2.230  0.00  0.00    -0.004 A 
ATOM      5  C7  UNL d   1      -1.287   0.619   1.470  0.00  0.00     0.002 A 
ATOM      6  C8  UNL d   1      -1.254   0.377   0.096  0.00  0.00     0.002 A 
ENDROOT
BRANCH   1   7
ATOM      7  C2  UNL d   1      -0.032  -0.281  -2.015  0.00  0.00     0.056 C 
BRANCH   7   8
ATOM      8  C1  UNL d   1       1.367  -0.216  -2.638  0.00  0.00     0.007 C 
ATOM      9  C   UNL d   1       1.638  -1.344  -3.624  0.00  0.00     0.009 C 
ENDBRANCH   7   8
ENDBRANCH   1   7
TORSDOF 2
ENDMDL
