MODEL 1
REMARK minimizedAffinity -4.3401494
REMARK minimizedRMSD -1
REMARK  2 active torsions:
REMARK  status: ('A' for Active; 'I' for Inactive)
REMARK    1  A    between atoms: C1_2  and  C2_3 
REMARK    2  A    between atoms: C2_3  and  C3_4 
ROOT
ATOM      1  C3  UNL d   1       0.267  -0.234  -1.649  0.00  0.00    -0.075 A 
ATOM      2  C4  UNL d   1      -0.393  -1.337  -2.210  0.00  0.00     0.002 A 
ATOM      3  C5  UNL d   1       0.085  -1.927  -3.381  0.00  0.00     0.002 A 
ATOM      4  C6  UNL d   1       1.219  -1.417  -4.010  0.00  0.00    -0.004 A 
ATOM      5  C7  UNL d   1       1.872  -0.311  -3.470  0.00  0.00     0.002 A 
ATOM      6  C8  UNL d   1       1.399   0.278  -2.296  0.00  0.00     0.002 A 
ENDROOT
BRANCH   1   7
ATOM      7  C2  UNL d   1      -0.227   0.391  -0.366  0.00  0.00     0.056 C 
BRANCH   7   8
ATOM      8  C1  UNL d   1       0.738   0.239   0.814  0.00  0.00     0.007 C 
ATOM      9  C   UNL d   1       0.057   0.382   2.169  0.00  0.00     0.009 C 
ENDBRANCH   7   8
ENDBRANCH   1   7
TORSDOF 2
ENDMDL
