MODEL 1
REMARK minimizedAffinity -3.06348419
REMARK minimizedRMSD -1
REMARK  2 active torsions:
REMARK  status: ('A' for Active; 'I' for Inactive)
REMARK    1  A    between atoms: C1_2  and  C2_3 
REMARK    2  A    between atoms: C2_3  and  C3_4 
ROOT
ATOM      1  C3  UNL d   1      -0.109   0.304  -0.027  0.00  0.00    -0.075 A 
ATOM      2  C4  UNL d   1      -1.415   0.641   0.359  0.00  0.00     0.002 A 
ATOM      3  C5  UNL d   1      -1.730   0.824   1.706  0.00  0.00     0.002 A 
ATOM      4  C6  UNL d   1      -0.749   0.662   2.682  0.00  0.00    -0.004 A 
ATOM      5  C7  UNL d   1       0.547   0.311   2.311  0.00  0.00     0.002 A 
ATOM      6  C8  UNL d   1       0.866   0.132   0.964  0.00  0.00     0.002 A 
ENDROOT
BRANCH   1   7
ATOM      7  C2  UNL d   1       0.245   0.134  -1.485  0.00  0.00     0.056 C 
BRANCH   7   8
ATOM      8  C1  UNL d   1       1.292  -0.953  -1.750  0.00  0.00     0.007 C 
ATOM      9  C   UNL d   1       1.749  -1.006  -3.202  0.00  0.00     0.009 C 
ENDBRANCH   7   8
ENDBRANCH   1   7
TORSDOF 2
ENDMDL
