MODEL 1
REMARK minimizedAffinity -1.31736183
REMARK minimizedRMSD -1
REMARK  2 active torsions:
REMARK  status: ('A' for Active; 'I' for Inactive)
REMARK    1  A    between atoms: C1_2  and  C2_3 
REMARK    2  A    between atoms: C2_3  and  C3_4 
ROOT
ATOM      1  C3  UNL d   1      -0.613   0.065   0.645  0.00  0.00    -0.075 A 
ATOM      2  C4  UNL d   1      -1.869   0.343   0.087  0.00  0.00     0.002 A 
ATOM      3  C5  UNL d   1      -2.949   0.678   0.904  0.00  0.00     0.002 A 
ATOM      4  C6  UNL d   1      -2.791   0.729   2.287  0.00  0.00    -0.004 A 
ATOM      5  C7  UNL d   1      -1.552   0.440   2.854  0.00  0.00     0.002 A 
ATOM      6  C8  UNL d   1      -0.468   0.109   2.038  0.00  0.00     0.002 A 
ENDROOT
BRANCH   1   7
ATOM      7  C2  UNL d   1       0.568  -0.269  -0.235  0.00  0.00     0.056 C 
BRANCH   7   8
ATOM      8  C1  UNL d   1       1.616   0.845  -0.321  0.00  0.00     0.007 C 
ATOM      9  C   UNL d   1       2.280   1.150   1.015  0.00  0.00     0.009 C 
ENDBRANCH   7   8
ENDBRANCH   1   7
TORSDOF 2
ENDMDL
