MODEL 1
REMARK minimizedAffinity 2.68215537
REMARK minimizedRMSD -1
REMARK  2 active torsions:
REMARK  status: ('A' for Active; 'I' for Inactive)
REMARK    1  A    between atoms: C1_2  and  C2_3 
REMARK    2  A    between atoms: C2_3  and  C3_4 
ROOT
ATOM      1  C3  UNL d   1       0.011   0.103  -0.083  0.00  0.00    -0.075 A 
ATOM      2  C4  UNL d   1       0.535  -0.515   1.062  0.00  0.00     0.002 A 
ATOM      3  C5  UNL d   1       1.694  -0.024   1.664  0.00  0.00     0.002 A 
ATOM      4  C6  UNL d   1       2.348   1.082   1.124  0.00  0.00    -0.004 A 
ATOM      5  C7  UNL d   1       1.845   1.693  -0.022  0.00  0.00     0.002 A 
ATOM      6  C8  UNL d   1       0.683   1.207  -0.624  0.00  0.00     0.002 A 
ENDROOT
BRANCH   1   7
ATOM      7  C2  UNL d   1      -1.260  -0.405  -0.722  0.00  0.00     0.056 C 
BRANCH   7   8
ATOM      8  C1  UNL d   1      -2.461   0.530  -0.551  0.00  0.00     0.007 C 
ATOM      9  C   UNL d   1      -2.797   0.816   0.907  0.00  0.00     0.009 C 
ENDBRANCH   7   8
ENDBRANCH   1   7
TORSDOF 2
ENDMDL
