MODEL 1
REMARK minimizedAffinity -5.40107489
REMARK minimizedRMSD -1
REMARK  2 active torsions:
REMARK  status: ('A' for Active; 'I' for Inactive)
REMARK    1  A    between atoms: C1_2  and  C2_3 
REMARK    2  A    between atoms: C2_3  and  C3_4 
ROOT
ATOM      1  C3  UNL d   1      -0.058   0.027  -0.071  0.00  0.00    -0.075 A 
ATOM      2  C4  UNL d   1       0.753  -0.034   1.072  0.00  0.00     0.002 A 
ATOM      3  C5  UNL d   1       0.184  -0.199   2.335  0.00  0.00     0.002 A 
ATOM      4  C6  UNL d   1      -1.199  -0.294   2.473  0.00  0.00    -0.004 A 
ATOM      5  C7  UNL d   1      -2.015  -0.218   1.347  0.00  0.00     0.002 A 
ATOM      6  C8  UNL d   1      -1.448  -0.057   0.081  0.00  0.00     0.002 A 
ENDROOT
BRANCH   1   7
ATOM      7  C2  UNL d   1       0.552   0.175  -1.444  0.00  0.00     0.056 C 
BRANCH   7   8
ATOM      8  C1  UNL d   1       0.480  -1.094  -2.299  0.00  0.00     0.007 C 
ATOM      9  C   UNL d   1       1.391  -1.049  -3.519  0.00  0.00     0.009 C 
ENDBRANCH   7   8
ENDBRANCH   1   7
TORSDOF 2
ENDMDL
