MODEL 1
REMARK minimizedAffinity -3.75273418
REMARK minimizedRMSD -1
REMARK  2 active torsions:
REMARK  status: ('A' for Active; 'I' for Inactive)
REMARK    1  A    between atoms: C1_2  and  C2_3 
REMARK    2  A    between atoms: C2_3  and  C3_4 
ROOT
ATOM      1  C3  UNL d   1      -0.379   0.509   0.009  0.00  0.00    -0.075 A 
ATOM      2  C4  UNL d   1      -1.751   0.776   0.124  0.00  0.00     0.002 A 
ATOM      3  C5  UNL d   1      -2.358   0.841   1.378  0.00  0.00     0.002 A 
ATOM      4  C6  UNL d   1      -1.605   0.629   2.531  0.00  0.00    -0.004 A 
ATOM      5  C7  UNL d   1      -0.245   0.346   2.428  0.00  0.00     0.002 A 
ATOM      6  C8  UNL d   1       0.366   0.285   1.175  0.00  0.00     0.002 A 
ENDROOT
BRANCH   1   7
ATOM      7  C2  UNL d   1       0.289   0.467  -1.344  0.00  0.00     0.056 C 
BRANCH   7   8
ATOM      8  C1  UNL d   1       0.891  -0.897  -1.701  0.00  0.00     0.007 C 
ATOM      9  C   UNL d   1       0.677  -1.285  -3.158  0.00  0.00     0.009 C 
ENDBRANCH   7   8
ENDBRANCH   1   7
TORSDOF 2
ENDMDL
