MODEL 1
REMARK minimizedAffinity -2.62364793
REMARK minimizedRMSD -1
REMARK  2 active torsions:
REMARK  status: ('A' for Active; 'I' for Inactive)
REMARK    1  A    between atoms: C1_2  and  C2_3 
REMARK    2  A    between atoms: C2_3  and  C3_4 
ROOT
ATOM      1  C3  UNL d   1       0.505  -0.303  -1.790  0.00  0.00    -0.075 A 
ATOM      2  C4  UNL d   1      -0.361  -1.282  -2.299  0.00  0.00     0.002 A 
ATOM      3  C5  UNL d   1       0.020  -2.069  -3.386  0.00  0.00     0.002 A 
ATOM      4  C6  UNL d   1       1.265  -1.882  -3.983  0.00  0.00    -0.004 A 
ATOM      5  C7  UNL d   1       2.126  -0.901  -3.497  0.00  0.00     0.002 A 
ATOM      6  C8  UNL d   1       1.749  -0.115  -2.407  0.00  0.00     0.002 A 
ENDROOT
BRANCH   1   7
ATOM      7  C2  UNL d   1       0.110   0.532  -0.596  0.00  0.00     0.056 C 
BRANCH   7   8
ATOM      8  C1  UNL d   1       1.179   0.597   0.500  0.00  0.00     0.007 C 
ATOM      9  C   UNL d   1       0.666   0.157   1.865  0.00  0.00     0.009 C 
ENDBRANCH   7   8
ENDBRANCH   1   7
TORSDOF 2
ENDMDL
