MODEL 1
REMARK minimizedAffinity -3.73772216
REMARK minimizedRMSD -1
REMARK  2 active torsions:
REMARK  status: ('A' for Active; 'I' for Inactive)
REMARK    1  A    between atoms: C1_2  and  C2_3 
REMARK    2  A    between atoms: C2_3  and  C3_4 
ROOT
ATOM      1  C3  UNL d   1       0.142   0.295  -0.385  0.00  0.00    -0.075 A 
ATOM      2  C4  UNL d   1       1.352   0.085   0.292  0.00  0.00     0.002 A 
ATOM      3  C5  UNL d   1       1.405   0.146   1.684  0.00  0.00     0.002 A 
ATOM      4  C6  UNL d   1       0.254   0.428   2.417  0.00  0.00    -0.004 A 
ATOM      5  C7  UNL d   1      -0.950   0.654   1.754  0.00  0.00     0.002 A 
ATOM      6  C8  UNL d   1      -1.007   0.589   0.361  0.00  0.00     0.002 A 
ENDROOT
BRANCH   1   7
ATOM      7  C2  UNL d   1       0.071   0.200  -1.890  0.00  0.00     0.056 C 
BRANCH   7   8
ATOM      8  C1  UNL d   1       1.393  -0.203  -2.552  0.00  0.00     0.007 C 
ATOM      9  C   UNL d   1       1.214  -1.196  -3.693  0.00  0.00     0.009 C 
ENDBRANCH   7   8
ENDBRANCH   1   7
TORSDOF 2
ENDMDL
