MODEL 1
REMARK minimizedAffinity -0.933369875
REMARK minimizedRMSD -1
REMARK  0 active torsions:
REMARK  status: ('A' for Active; 'I' for Inactive)
ROOT
ATOM      1  C   UNL d   1       4.873   5.706   1.196  0.00  0.00     0.172 C 
ATOM      2  N   UNL d   1       4.184   5.624  -0.071  0.00  0.00    -0.070 N 
ATOM      3  C1  UNL d   1       2.908   5.164  -0.257  0.00  0.00    -0.004 A 
ATOM      4  C2  UNL d   1       2.622   5.249  -1.603  0.00  0.00    -0.047 A 
ATOM      5  C3  UNL d   1       3.766   5.776  -2.247  0.00  0.00    -0.047 A 
ATOM      6  C4  UNL d   1       4.718   6.000  -1.275  0.00  0.00    -0.004 A 
ENDROOT
TORSDOF 0
ENDMDL
