MODEL 1
REMARK minimizedAffinity 4.38833857
REMARK minimizedRMSD -1
REMARK  0 active torsions:
REMARK  status: ('A' for Active; 'I' for Inactive)
ROOT
ATOM      1  C   UNL d   1       2.431  -5.970   4.004  0.00  0.00     0.172 C 
ATOM      2  N   UNL d   1       3.781  -5.977   4.517  0.00  0.00    -0.070 N 
ATOM      3  C1  UNL d   1       4.923  -5.966   3.760  0.00  0.00    -0.004 A 
ATOM      4  C2  UNL d   1       5.999  -5.977   4.620  0.00  0.00    -0.047 A 
ATOM      5  C3  UNL d   1       5.487  -5.996   5.939  0.00  0.00    -0.047 A 
ATOM      6  C4  UNL d   1       4.112  -5.995   5.846  0.00  0.00    -0.004 A 
ENDROOT
TORSDOF 0
ENDMDL
