MODEL 1
REMARK minimizedAffinity -1.6574595
REMARK minimizedRMSD -1
REMARK  0 active torsions:
REMARK  status: ('A' for Active; 'I' for Inactive)
ROOT
ATOM      1  C   UNL d   1       4.082   3.766  -3.558  0.00  0.00     0.172 C 
ATOM      2  N   UNL d   1       4.713   2.659  -4.236  0.00  0.00    -0.070 N 
ATOM      3  C1  UNL d   1       5.649   2.760  -5.230  0.00  0.00    -0.004 A 
ATOM      4  C2  UNL d   1       6.000   1.482  -5.611  0.00  0.00    -0.047 A 
ATOM      5  C3  UNL d   1       5.247   0.583  -4.820  0.00  0.00    -0.047 A 
ATOM      6  C4  UNL d   1       4.459   1.338  -3.977  0.00  0.00    -0.004 A 
ENDROOT
TORSDOF 0
ENDMDL
