MODEL 1
REMARK minimizedAffinity -0.304977268
REMARK minimizedRMSD -1
REMARK  0 active torsions:
REMARK  status: ('A' for Active; 'I' for Inactive)
ROOT
ATOM      1  C   UNL d   1       1.569  -0.207  -1.554  0.00  0.00     0.172 C 
ATOM      2  N   UNL d   1       1.262   0.701  -0.474  0.00  0.00    -0.070 N 
ATOM      3  C1  UNL d   1       0.103   1.417  -0.338  0.00  0.00    -0.004 A 
ATOM      4  C2  UNL d   1       0.199   2.160   0.818  0.00  0.00    -0.047 A 
ATOM      5  C3  UNL d   1       1.460   1.882   1.397  0.00  0.00    -0.047 A 
ATOM      6  C4  UNL d   1       2.097   0.975   0.576  0.00  0.00    -0.004 A 
ENDROOT
TORSDOF 0
ENDMDL
