MODEL 1
REMARK minimizedAffinity -1.20393622
REMARK minimizedRMSD -1
REMARK  0 active torsions:
REMARK  status: ('A' for Active; 'I' for Inactive)
ROOT
ATOM      1  C   UNL d   1      -0.082   0.479  -0.967  0.00  0.00     0.172 C 
ATOM      2  N   UNL d   1       0.955  -0.523  -1.032  0.00  0.00    -0.070 N 
ATOM      3  C1  UNL d   1       1.126  -1.554  -0.146  0.00  0.00    -0.004 A 
ATOM      4  C2  UNL d   1       2.220  -2.284  -0.554  0.00  0.00    -0.047 A 
ATOM      5  C3  UNL d   1       2.725  -1.672  -1.726  0.00  0.00    -0.047 A 
ATOM      6  C4  UNL d   1       1.923  -0.584  -1.999  0.00  0.00    -0.004 A 
ENDROOT
TORSDOF 0
ENDMDL
