MODEL 1
REMARK minimizedAffinity 4.91149664
REMARK minimizedRMSD -1
REMARK  0 active torsions:
REMARK  status: ('A' for Active; 'I' for Inactive)
ROOT
ATOM      1  C   UNL d   1      -2.040   0.026  -0.601  0.00  0.00     0.172 C 
ATOM      2  N   UNL d   1      -3.388  -0.294  -0.193  0.00  0.00    -0.070 N 
ATOM      3  C1  UNL d   1      -3.851  -0.303   1.095  0.00  0.00    -0.004 A 
ATOM      4  C2  UNL d   1      -5.182  -0.657   1.063  0.00  0.00    -0.047 A 
ATOM      5  C3  UNL d   1      -5.532  -0.869  -0.292  0.00  0.00    -0.047 A 
ATOM      6  C4  UNL d   1      -4.402  -0.637  -1.048  0.00  0.00    -0.004 A 
ENDROOT
TORSDOF 0
ENDMDL
