MODEL 1
REMARK minimizedAffinity 4.08902359
REMARK minimizedRMSD -1
REMARK  0 active torsions:
REMARK  status: ('A' for Active; 'I' for Inactive)
ROOT
ATOM      1  C   UNL d   1       1.972  -3.017   0.817  0.00  0.00     0.172 C 
ATOM      2  N   UNL d   1       2.971  -2.452   1.694  0.00  0.00    -0.070 N 
ATOM      3  C1  UNL d   1       3.829  -3.162   2.490  0.00  0.00    -0.004 A 
ATOM      4  C2  UNL d   1       4.621  -2.260   3.167  0.00  0.00    -0.047 A 
ATOM      5  C3  UNL d   1       4.224  -0.963   2.765  0.00  0.00    -0.047 A 
ATOM      6  C4  UNL d   1       3.201  -1.111   1.852  0.00  0.00    -0.004 A 
ENDROOT
TORSDOF 0
ENDMDL
