MODEL 1
REMARK minimizedAffinity 4.44024801
REMARK minimizedRMSD -1
REMARK  0 active torsions:
REMARK  status: ('A' for Active; 'I' for Inactive)
ROOT
ATOM      1  C   UNL d   1      -0.869  -1.106  -0.820  0.00  0.00     0.172 C 
ATOM      2  N   UNL d   1       0.445  -1.446  -1.314  0.00  0.00    -0.070 N 
ATOM      3  C1  UNL d   1       1.616  -1.326  -0.614  0.00  0.00    -0.004 A 
ATOM      4  C2  UNL d   1       2.641  -1.752  -1.431  0.00  0.00    -0.047 A 
ATOM      5  C3  UNL d   1       2.066  -2.141  -2.665  0.00  0.00    -0.047 A 
ATOM      6  C4  UNL d   1       0.705  -1.940  -2.564  0.00  0.00    -0.004 A 
ENDROOT
TORSDOF 0
ENDMDL
