MODEL 1
REMARK minimizedAffinity 7.93789864
REMARK minimizedRMSD -1
REMARK  0 active torsions:
REMARK  status: ('A' for Active; 'I' for Inactive)
ROOT
ATOM      1  C   UNL d   1       2.586  -4.598   0.074  0.00  0.00     0.172 C 
ATOM      2  N   UNL d   1       2.534  -3.346  -0.644  0.00  0.00    -0.070 N 
ATOM      3  C1  UNL d   1       1.452  -2.863  -1.330  0.00  0.00    -0.004 A 
ATOM      4  C2  UNL d   1       1.805  -1.646  -1.871  0.00  0.00    -0.047 A 
ATOM      5  C3  UNL d   1       3.146  -1.389  -1.499  0.00  0.00    -0.047 A 
ATOM      6  C4  UNL d   1       3.573  -2.458  -0.740  0.00  0.00    -0.004 A 
ENDROOT
TORSDOF 0
ENDMDL
