MODEL 1
REMARK minimizedAffinity 1.48923874
REMARK minimizedRMSD -1
REMARK  0 active torsions:
REMARK  status: ('A' for Active; 'I' for Inactive)
ROOT
ATOM      1  C   UNL d   1       2.643  -2.243  -1.269  0.00  0.00     0.172 C 
ATOM      2  N   UNL d   1       2.356  -0.916  -1.760  0.00  0.00    -0.070 N 
ATOM      3  C1  UNL d   1       2.882  -0.353  -2.892  0.00  0.00    -0.004 A 
ATOM      4  C2  UNL d   1       2.362   0.918  -3.012  0.00  0.00    -0.047 A 
ATOM      5  C3  UNL d   1       1.493   1.125  -1.914  0.00  0.00    -0.047 A 
ATOM      6  C4  UNL d   1       1.508  -0.026  -1.155  0.00  0.00    -0.004 A 
ENDROOT
TORSDOF 0
ENDMDL
