MODEL 1
REMARK minimizedAffinity 1.76041031
REMARK minimizedRMSD -1
REMARK  0 active torsions:
REMARK  status: ('A' for Active; 'I' for Inactive)
ROOT
ATOM      1  C   UNL d   1       1.862  -4.356   0.522  0.00  0.00     0.172 C 
ATOM      2  N   UNL d   1       1.942  -3.279  -0.437  0.00  0.00    -0.070 N 
ATOM      3  C1  UNL d   1       0.909  -2.818  -1.208  0.00  0.00    -0.004 A 
ATOM      4  C2  UNL d   1       1.391  -1.789  -1.988  0.00  0.00    -0.047 A 
ATOM      5  C3  UNL d   1       2.762  -1.627  -1.675  0.00  0.00    -0.047 A 
ATOM      6  C4  UNL d   1       3.077  -2.562  -0.712  0.00  0.00    -0.004 A 
ENDROOT
TORSDOF 0
ENDMDL
