MODEL 1
REMARK minimizedAffinity -2.72945356
REMARK minimizedRMSD -1
REMARK  0 active torsions:
REMARK  status: ('A' for Active; 'I' for Inactive)
ROOT
ATOM      1  C   UNL d   1       1.870  -3.785   0.667  0.00  0.00     0.172 C 
ATOM      2  N   UNL d   1       1.966  -2.677  -0.255  0.00  0.00    -0.070 N 
ATOM      3  C1  UNL d   1       0.908  -2.016  -0.821  0.00  0.00    -0.004 A 
ATOM      4  C2  UNL d   1       1.416  -1.028  -1.636  0.00  0.00    -0.047 A 
ATOM      5  C3  UNL d   1       2.828  -1.097  -1.557  0.00  0.00    -0.047 A 
ATOM      6  C4  UNL d   1       3.140  -2.127  -0.695  0.00  0.00    -0.004 A 
ENDROOT
TORSDOF 0
ENDMDL
