MODEL 1
REMARK minimizedAffinity -0.478447139
REMARK minimizedRMSD -1
REMARK  0 active torsions:
REMARK  status: ('A' for Active; 'I' for Inactive)
ROOT
ATOM      1  C   UNL d   1       1.073  -1.937  -1.472  0.00  0.00     0.172 C 
ATOM      2  N   UNL d   1       1.700  -2.957  -0.663  0.00  0.00    -0.070 N 
ATOM      3  C1  UNL d   1       2.735  -3.763  -1.056  0.00  0.00    -0.004 A 
ATOM      4  C2  UNL d   1       3.043  -4.597  -0.004  0.00  0.00    -0.047 A 
ATOM      5  C3  UNL d   1       2.163  -4.282   1.058  0.00  0.00    -0.047 A 
ATOM      6  C4  UNL d   1       1.342  -3.263   0.623  0.00  0.00    -0.004 A 
ENDROOT
TORSDOF 0
ENDMDL
