MODEL 1
REMARK minimizedAffinity 4.6458354
REMARK minimizedRMSD -1
REMARK  0 active torsions:
REMARK  status: ('A' for Active; 'I' for Inactive)
ROOT
ATOM      1  C   UNL d   1       4.996   4.128   1.308  0.00  0.00     0.172 C 
ATOM      2  N   UNL d   1       5.037   4.747   0.004  0.00  0.00    -0.070 N 
ATOM      3  C1  UNL d   1       4.129   4.550  -1.002  0.00  0.00    -0.004 A 
ATOM      4  C2  UNL d   1       4.518   5.318  -2.078  0.00  0.00    -0.047 A 
ATOM      5  C3  UNL d   1       5.701   6.000  -1.706  0.00  0.00    -0.047 A 
ATOM      6  C4  UNL d   1       6.000   5.628  -0.412  0.00  0.00    -0.004 A 
ENDROOT
TORSDOF 0
ENDMDL
