MODEL 1
REMARK minimizedAffinity -2.88523102
REMARK minimizedRMSD -1
REMARK  0 active torsions:
REMARK  status: ('A' for Active; 'I' for Inactive)
ROOT
ATOM      1  N1  IND d   1       0.252  -0.065  -0.846  0.00  0.00    -0.196 N 
ATOM      2  C2  IND d   1       0.900  -0.878   0.041  0.00  0.00     0.054 A 
ATOM      3  C3  IND d   1       0.465  -0.643   1.300  0.00  0.00    -0.031 A 
ATOM      4  C4  IND d   1      -1.376   0.957   2.122  0.00  0.00     0.051 A 
ATOM      5  C5  IND d   1      -2.228   1.934   1.687  0.00  0.00    -0.031 A 
ATOM      6  C6  IND d   1      -2.300   2.299   0.358  0.00  0.00     0.015 A 
ATOM      7  C7  IND d   1      -1.527   1.692  -0.591  0.00  0.00    -0.016 A 
ATOM      8  C8  IND d   1      -0.657   0.704  -0.152  0.00  0.00    -0.047 A 
ATOM      9  C9  IND d   1      -0.549   0.359   1.201  0.00  0.00    -0.096 A 
ATOM     10  HN1 IND d   1       0.388  -0.038  -1.694  0.00  0.00     0.298 HD
ENDROOT
TORSDOF 0
ENDMDL
