MODEL 1
REMARK minimizedAffinity -5.89191818
REMARK minimizedRMSD -1
REMARK  0 active torsions:
REMARK  status: ('A' for Active; 'I' for Inactive)
ROOT
ATOM      1  N1  IND d   1       1.300   1.198  -1.510  0.00  0.00    -0.196 N 
ATOM      2  C2  IND d   1       1.107   2.453  -2.018  0.00  0.00     0.054 A 
ATOM      3  C3  IND d   1       0.028   3.031  -1.444  0.00  0.00    -0.031 A 
ATOM      4  C4  IND d   1      -1.505   2.143   0.423  0.00  0.00     0.051 A 
ATOM      5  C5  IND d   1      -1.746   1.031   1.181  0.00  0.00    -0.031 A 
ATOM      6  C6  IND d   1      -0.968  -0.104   1.080  0.00  0.00     0.015 A 
ATOM      7  C7  IND d   1       0.094  -0.165   0.222  0.00  0.00    -0.016 A 
ATOM      8  C8  IND d   1       0.338   0.959  -0.554  0.00  0.00    -0.047 A 
ATOM      9  C9  IND d   1      -0.475   2.098  -0.486  0.00  0.00    -0.096 A 
ATOM     10  HN1 IND d   1       1.919   0.651  -1.748  0.00  0.00     0.298 HD
ENDROOT
TORSDOF 0
ENDMDL
