MODEL 1
REMARK minimizedAffinity -2.12727642
REMARK minimizedRMSD -1
REMARK  0 active torsions:
REMARK  status: ('A' for Active; 'I' for Inactive)
ROOT
ATOM      1  N1  IND d   1       0.601   1.360  -1.433  0.00  0.00    -0.196 N 
ATOM      2  C2  IND d   1       0.748   0.005  -1.336  0.00  0.00     0.054 A 
ATOM      3  C3  IND d   1       0.095  -0.462  -0.248  0.00  0.00    -0.031 A 
ATOM      4  C4  IND d   1      -1.364   0.804   1.453  0.00  0.00     0.051 A 
ATOM      5  C5  IND d   1      -1.766   2.064   1.801  0.00  0.00    -0.031 A 
ATOM      6  C6  IND d   1      -1.395   3.175   1.072  0.00  0.00     0.015 A 
ATOM      7  C7  IND d   1      -0.613   3.067  -0.043  0.00  0.00    -0.016 A 
ATOM      8  C8  IND d   1      -0.197   1.790  -0.395  0.00  0.00    -0.047 A 
ATOM      9  C9  IND d   1      -0.536   0.663   0.365  0.00  0.00    -0.096 A 
ATOM     10  HN1 IND d   1       0.948   1.861  -2.040  0.00  0.00     0.298 HD
ENDROOT
TORSDOF 0
ENDMDL
