MODEL 1
REMARK minimizedAffinity -5.9623661
REMARK minimizedRMSD -1
REMARK  0 active torsions:
REMARK  status: ('A' for Active; 'I' for Inactive)
ROOT
ATOM      1  N1  IND d   1       1.007   1.588  -0.927  0.00  0.00    -0.196 N 
ATOM      2  C2  IND d   1       1.795   0.472  -0.970  0.00  0.00     0.054 A 
ATOM      3  C3  IND d   1       1.376  -0.435  -0.059  0.00  0.00    -0.031 A 
ATOM      4  C4  IND d   1      -0.641  -0.339   1.536  0.00  0.00     0.051 A 
ATOM      5  C5  IND d   1      -1.637   0.494   1.965  0.00  0.00    -0.031 A 
ATOM      6  C6  IND d   1      -1.806   1.758   1.440  0.00  0.00     0.015 A 
ATOM      7  C7  IND d   1      -0.991   2.235   0.453  0.00  0.00    -0.016 A 
ATOM      8  C8  IND d   1       0.025   1.395   0.020  0.00  0.00    -0.047 A 
ATOM      9  C9  IND d   1       0.229   0.127   0.579  0.00  0.00    -0.096 A 
ATOM     10  HN1 IND d   1       1.108   2.293  -1.409  0.00  0.00     0.298 HD
ENDROOT
TORSDOF 0
ENDMDL
