MODEL 1
REMARK minimizedAffinity -0.515081584
REMARK minimizedRMSD -1
REMARK  0 active torsions:
REMARK  status: ('A' for Active; 'I' for Inactive)
ROOT
ATOM      1  N1  IND d   1       0.485   1.919  -1.724  0.00  0.00    -0.196 N 
ATOM      2  C2  IND d   1      -0.363   2.797  -1.108  0.00  0.00     0.054 A 
ATOM      3  C3  IND d   1      -0.966   2.206  -0.052  0.00  0.00    -0.031 A 
ATOM      4  C4  IND d   1      -0.635  -0.161   0.906  0.00  0.00     0.051 A 
ATOM      5  C5  IND d   1       0.008  -1.342   0.662  0.00  0.00    -0.031 A 
ATOM      6  C6  IND d   1       0.862  -1.498  -0.411  0.00  0.00     0.015 A 
ATOM      7  C7  IND d   1       1.115  -0.472  -1.276  0.00  0.00    -0.016 A 
ATOM      8  C8  IND d   1       0.458   0.727  -1.035  0.00  0.00    -0.047 A 
ATOM      9  C9  IND d   1      -0.442   0.879   0.027  0.00  0.00    -0.096 A 
ATOM     10  HN1 IND d   1       0.955   2.084  -2.425  0.00  0.00     0.298 HD
ENDROOT
TORSDOF 0
ENDMDL
