MODEL 1
REMARK minimizedAffinity -4.70323563
REMARK minimizedRMSD -1
REMARK  0 active torsions:
REMARK  status: ('A' for Active; 'I' for Inactive)
ROOT
ATOM      1  N1  IND d   1      -1.384   0.320   1.695  0.00  0.00    -0.196 N 
ATOM      2  C2  IND d   1      -2.057   1.507   1.769  0.00  0.00     0.054 A 
ATOM      3  C3  IND d   1      -1.573   2.380   0.857  0.00  0.00    -0.031 A 
ATOM      4  C4  IND d   1       0.251   2.038  -0.927  0.00  0.00     0.051 A 
ATOM      5  C5  IND d   1       1.179   1.132  -1.359  0.00  0.00    -0.031 A 
ATOM      6  C6  IND d   1       1.300  -0.118  -0.786  0.00  0.00     0.015 A 
ATOM      7  C7  IND d   1       0.487  -0.513   0.238  0.00  0.00    -0.016 A 
ATOM      8  C8  IND d   1      -0.451   0.407   0.685  0.00  0.00    -0.047 A 
ATOM      9  C9  IND d   1      -0.550   1.691   0.135  0.00  0.00    -0.096 A 
ATOM     10  HN1 IND d   1      -1.520  -0.366   2.195  0.00  0.00     0.298 HD
ENDROOT
TORSDOF 0
ENDMDL
