MODEL 1
REMARK minimizedAffinity -5.3690052
REMARK minimizedRMSD -1
REMARK  0 active torsions:
REMARK  status: ('A' for Active; 'I' for Inactive)
ROOT
ATOM      1  N1  IND d   1      -1.505  -0.038   1.492  0.00  0.00    -0.196 N 
ATOM      2  C2  IND d   1      -2.244   1.098   1.670  0.00  0.00     0.054 A 
ATOM      3  C3  IND d   1      -1.775   2.093   0.885  0.00  0.00    -0.031 A 
ATOM      4  C4  IND d   1       0.131   2.049  -0.846  0.00  0.00     0.051 A 
ATOM      5  C5  IND d   1       1.122   1.246  -1.337  0.00  0.00    -0.031 A 
ATOM      6  C6  IND d   1       1.289  -0.053  -0.904  0.00  0.00     0.015 A 
ATOM      7  C7  IND d   1       0.461  -0.604   0.033  0.00  0.00    -0.016 A 
ATOM      8  C8  IND d   1      -0.542   0.211   0.539  0.00  0.00    -0.047 A 
ATOM      9  C9  IND d   1      -0.690   1.544   0.134  0.00  0.00    -0.096 A 
ATOM     10  HN1 IND d   1      -1.623  -0.783   1.905  0.00  0.00     0.298 HD
ENDROOT
TORSDOF 0
ENDMDL
