MODEL 1
REMARK minimizedAffinity -5.69862032
REMARK minimizedRMSD -1
REMARK  0 active torsions:
REMARK  status: ('A' for Active; 'I' for Inactive)
ROOT
ATOM      1  N1  IND d   1       0.706  -0.529   0.949  0.00  0.00    -0.196 N 
ATOM      2  C2  IND d   1       1.417  -0.330  -0.201  0.00  0.00     0.054 A 
ATOM      3  C3  IND d   1       0.806   0.593  -0.978  0.00  0.00    -0.031 A 
ATOM      4  C4  IND d   1      -1.314   1.978  -0.511  0.00  0.00     0.051 A 
ATOM      5  C5  IND d   1      -2.329   2.122   0.392  0.00  0.00    -0.031 A 
ATOM      6  C6  IND d   1      -2.385   1.376   1.552  0.00  0.00     0.015 A 
ATOM      7  C7  IND d   1      -1.416   0.463   1.858  0.00  0.00    -0.016 A 
ATOM      8  C8  IND d   1      -0.387   0.309   0.940  0.00  0.00    -0.047 A 
ATOM      9  C9  IND d   1      -0.348   1.033  -0.259  0.00  0.00    -0.096 A 
ATOM     10  HN1 IND d   1       0.908  -1.085   1.574  0.00  0.00     0.298 HD
ENDROOT
TORSDOF 0
ENDMDL
