MODEL 1
REMARK minimizedAffinity -1.63900816
REMARK minimizedRMSD -1
REMARK  0 active torsions:
REMARK  status: ('A' for Active; 'I' for Inactive)
ROOT
ATOM      1  N1  IND d   1      -0.438  -0.375  -0.754  0.00  0.00    -0.196 N 
ATOM      2  C2  IND d   1       0.783  -0.842  -0.354  0.00  0.00     0.054 A 
ATOM      3  C3  IND d   1       1.170  -0.229   0.787  0.00  0.00    -0.031 A 
ATOM      4  C4  IND d   1      -0.087   1.498   2.224  0.00  0.00     0.051 A 
ATOM      5  C5  IND d   1      -1.222   2.259   2.247  0.00  0.00    -0.031 A 
ATOM      6  C6  IND d   1      -2.174   2.177   1.251  0.00  0.00     0.015 A 
ATOM      7  C7  IND d   1      -2.032   1.319   0.198  0.00  0.00    -0.016 A 
ATOM      8  C8  IND d   1      -0.877   0.550   0.168  0.00  0.00    -0.047 A 
ATOM      9  C9  IND d   1       0.113   0.659   1.153  0.00  0.00    -0.096 A 
ATOM     10  HN1 IND d   1      -0.861  -0.618  -1.462  0.00  0.00     0.298 HD
ENDROOT
TORSDOF 0
ENDMDL
