MODEL 1
REMARK minimizedAffinity -1.92578483
REMARK minimizedRMSD -1
REMARK  0 active torsions:
REMARK  status: ('A' for Active; 'I' for Inactive)
ROOT
ATOM      1  N1  IND d   1       0.652   0.420  -0.769  0.00  0.00    -0.196 N 
ATOM      2  C2  IND d   1       0.726  -0.790  -0.137  0.00  0.00     0.054 A 
ATOM      3  C3  IND d   1       0.031  -0.758   1.022  0.00  0.00    -0.031 A 
ATOM      4  C4  IND d   1      -1.386   1.141   2.028  0.00  0.00     0.051 A 
ATOM      5  C5  IND d   1      -1.726   2.451   1.833  0.00  0.00    -0.031 A 
ATOM      6  C6  IND d   1      -1.285   3.163   0.737  0.00  0.00     0.015 A 
ATOM      7  C7  IND d   1      -0.492   2.587  -0.215  0.00  0.00    -0.016 A 
ATOM      8  C8  IND d   1      -0.138   1.260  -0.016  0.00  0.00    -0.047 A 
ATOM      9  C9  IND d   1      -0.548   0.544   1.116  0.00  0.00    -0.096 A 
ATOM     10  HN1 IND d   1       1.035   0.622  -1.512  0.00  0.00     0.298 HD
ENDROOT
TORSDOF 0
ENDMDL
