MODEL 1
REMARK minimizedAffinity -1.46140671
REMARK minimizedRMSD -1
REMARK  0 active torsions:
REMARK  status: ('A' for Active; 'I' for Inactive)
ROOT
ATOM      1  N1  IND d   1      -0.308  -0.330  -1.559  0.00  0.00    -0.196 N 
ATOM      2  C2  IND d   1       0.155  -0.044  -0.305  0.00  0.00     0.054 A 
ATOM      3  C3  IND d   1       0.916  -1.061   0.159  0.00  0.00    -0.031 A 
ATOM      4  C4  IND d   1       1.617  -3.244  -1.011  0.00  0.00     0.051 A 
ATOM      5  C5  IND d   1       1.413  -3.969  -2.152  0.00  0.00    -0.031 A 
ATOM      6  C6  IND d   1       0.610  -3.506  -3.175  0.00  0.00     0.015 A 
ATOM      7  C7  IND d   1      -0.011  -2.292  -3.100  0.00  0.00    -0.016 A 
ATOM      8  C8  IND d   1       0.188  -1.557  -1.940  0.00  0.00    -0.047 A 
ATOM      9  C9  IND d   1       0.967  -2.040  -0.881  0.00  0.00    -0.096 A 
ATOM     10  HN1 IND d   1      -0.822   0.173  -2.030  0.00  0.00     0.298 HD
ENDROOT
TORSDOF 0
ENDMDL
