MODEL 1
REMARK minimizedAffinity -4.49951649
REMARK minimizedRMSD -1
REMARK  0 active torsions:
REMARK  status: ('A' for Active; 'I' for Inactive)
ROOT
ATOM      1  N1  IND d   1       0.803  -0.395   1.869  0.00  0.00    -0.196 N 
ATOM      2  C2  IND d   1       1.006  -1.172   0.763  0.00  0.00     0.054 A 
ATOM      3  C3  IND d   1       0.222  -0.753  -0.257  0.00  0.00    -0.031 A 
ATOM      4  C4  IND d   1      -1.392   1.249  -0.362  0.00  0.00     0.051 A 
ATOM      5  C5  IND d   1      -1.940   2.233   0.412  0.00  0.00    -0.031 A 
ATOM      6  C6  IND d   1      -1.593   2.396   1.738  0.00  0.00     0.015 A 
ATOM      7  C7  IND d   1      -0.672   1.584   2.338  0.00  0.00    -0.016 A 
ATOM      8  C8  IND d   1      -0.119   0.580   1.556  0.00  0.00    -0.047 A 
ATOM      9  C9  IND d   1      -0.498   0.383   0.223  0.00  0.00    -0.096 A 
ATOM     10  HN1 IND d   1       1.186  -0.498   2.632  0.00  0.00     0.298 HD
ENDROOT
TORSDOF 0
ENDMDL
