MODEL 1
REMARK minimizedAffinity -3.72689319
REMARK minimizedRMSD -1
REMARK  0 active torsions:
REMARK  status: ('A' for Active; 'I' for Inactive)
ROOT
ATOM      1  N1  IND d   1       0.258  -0.260  -1.501  0.00  0.00    -0.196 N 
ATOM      2  C2  IND d   1       0.995  -1.346  -1.116  0.00  0.00     0.054 A 
ATOM      3  C3  IND d   1       0.903  -1.526   0.220  0.00  0.00    -0.031 A 
ATOM      4  C4  IND d   1      -0.481  -0.222   1.955  0.00  0.00     0.051 A 
ATOM      5  C5  IND d   1      -1.286   0.874   2.087  0.00  0.00    -0.031 A 
ATOM      6  C6  IND d   1      -1.626   1.663   1.008  0.00  0.00     0.015 A 
ATOM      7  C7  IND d   1      -1.181   1.377  -0.252  0.00  0.00    -0.016 A 
ATOM      8  C8  IND d   1      -0.358   0.268  -0.389  0.00  0.00    -0.047 A 
ATOM      9  C9  IND d   1       0.025  -0.512   0.710  0.00  0.00    -0.096 A 
ATOM     10  HN1 IND d   1       0.192   0.041  -2.304  0.00  0.00     0.298 HD
ENDROOT
TORSDOF 0
ENDMDL
