MODEL 1
REMARK minimizedAffinity -2.32293653
REMARK minimizedRMSD -1
REMARK  0 active torsions:
REMARK  status: ('A' for Active; 'I' for Inactive)
ROOT
ATOM      1  N1  IND d   1      -1.540   1.909  -0.098  0.00  0.00    -0.196 N 
ATOM      2  C2  IND d   1      -2.045   1.916   1.173  0.00  0.00     0.054 A 
ATOM      3  C3  IND d   1      -1.542   0.882   1.884  0.00  0.00    -0.031 A 
ATOM      4  C4  IND d   1       0.200  -0.884   1.194  0.00  0.00     0.051 A 
ATOM      5  C5  IND d   1       0.924  -1.320   0.120  0.00  0.00    -0.031 A 
ATOM      6  C6  IND d   1       0.865  -0.688  -1.105  0.00  0.00     0.015 A 
ATOM      7  C7  IND d   1       0.084   0.416  -1.300  0.00  0.00    -0.016 A 
ATOM      8  C8  IND d   1      -0.658   0.858  -0.214  0.00  0.00    -0.047 A 
ATOM      9  C9  IND d   1      -0.634   0.195   1.020  0.00  0.00    -0.096 A 
ATOM     10  HN1 IND d   1      -1.740   2.468  -0.720  0.00  0.00     0.298 HD
ENDROOT
TORSDOF 0
ENDMDL
