MODEL 1
REMARK minimizedAffinity -3.8082037
REMARK minimizedRMSD -1
REMARK  0 active torsions:
REMARK  status: ('A' for Active; 'I' for Inactive)
ROOT
ATOM      1  N1  IND d   1      -0.775  -2.249  -2.210  0.00  0.00    -0.196 N 
ATOM      2  C2  IND d   1       0.446  -2.413  -2.802  0.00  0.00     0.054 A 
ATOM      3  C3  IND d   1       1.416  -1.860  -2.040  0.00  0.00    -0.031 A 
ATOM      4  C4  IND d   1       1.239  -0.725   0.264  0.00  0.00     0.051 A 
ATOM      5  C5  IND d   1       0.326  -0.309   1.192  0.00  0.00    -0.031 A 
ATOM      6  C6  IND d   1      -1.027  -0.524   1.032  0.00  0.00     0.015 A 
ATOM      7  C7  IND d   1      -1.520  -1.178  -0.062  0.00  0.00    -0.016 A 
ATOM      8  C8  IND d   1      -0.597  -1.596  -1.010  0.00  0.00    -0.047 A 
ATOM      9  C9  IND d   1       0.774  -1.342  -0.873  0.00  0.00    -0.096 A 
ATOM     10  HN1 IND d   1      -1.528  -2.510  -2.532  0.00  0.00     0.298 HD
ENDROOT
TORSDOF 0
ENDMDL
