MODEL 1
REMARK minimizedAffinity -4.81327009
REMARK minimizedRMSD -1
REMARK  0 active torsions:
REMARK  status: ('A' for Active; 'I' for Inactive)
ROOT
ATOM      1  N1  IND d   1       1.342  -0.477   0.198  0.00  0.00    -0.196 N 
ATOM      2  C2  IND d   1       1.819  -0.082  -1.020  0.00  0.00     0.054 A 
ATOM      3  C3  IND d   1       1.058   0.916  -1.522  0.00  0.00    -0.031 A 
ATOM      4  C4  IND d   1      -0.955   2.126  -0.468  0.00  0.00     0.051 A 
ATOM      5  C5  IND d   1      -1.783   2.094   0.619  0.00  0.00    -0.031 A 
ATOM      6  C6  IND d   1      -1.607   1.186   1.643  0.00  0.00     0.015 A 
ATOM      7  C7  IND d   1      -0.584   0.280   1.623  0.00  0.00    -0.016 A 
ATOM      8  C8  IND d   1       0.255   0.306   0.518  0.00  0.00    -0.047 A 
ATOM      9  C9  IND d   1       0.055   1.197  -0.544  0.00  0.00    -0.096 A 
ATOM     10  HN1 IND d   1       1.666  -1.109   0.683  0.00  0.00     0.298 HD
ENDROOT
TORSDOF 0
ENDMDL
