MODEL 1
REMARK minimizedAffinity 7.9903841
REMARK minimizedRMSD -1
REMARK  0 active torsions:
REMARK  status: ('A' for Active; 'I' for Inactive)
ROOT
ATOM      1  N1  IND d   1       1.634   4.221   0.022  0.00  0.00    -0.196 N 
ATOM      2  C2  IND d   1       1.490   4.903  -1.153  0.00  0.00     0.054 A 
ATOM      3  C3  IND d   1       0.371   4.500  -1.797  0.00  0.00    -0.031 A 
ATOM      4  C4  IND d   1      -1.423   2.809  -1.055  0.00  0.00     0.051 A 
ATOM      5  C5  IND d   1      -1.709   1.904  -0.072  0.00  0.00    -0.031 A 
ATOM      6  C6  IND d   1      -0.880   1.723   1.016  0.00  0.00     0.015 A 
ATOM      7  C7  IND d   1       0.266   2.452   1.168  0.00  0.00    -0.016 A 
ATOM      8  C8  IND d   1       0.563   3.367   0.168  0.00  0.00    -0.047 A 
ATOM      9  C9  IND d   1      -0.253   3.525  -0.960  0.00  0.00    -0.096 A 
ATOM     10  HN1 IND d   1       2.285   4.310   0.577  0.00  0.00     0.298 HD
ENDROOT
TORSDOF 0
ENDMDL
