MODEL 1
REMARK minimizedAffinity 4.17701054
REMARK minimizedRMSD -1
REMARK  0 active torsions:
REMARK  status: ('A' for Active; 'I' for Inactive)
ROOT
ATOM      1  N1  IND d   1      -1.887   3.415  -3.415  0.00  0.00    -0.196 N 
ATOM      2  C2  IND d   1      -3.031   2.715  -3.151  0.00  0.00     0.054 A 
ATOM      3  C3  IND d   1      -2.912   2.040  -1.986  0.00  0.00    -0.031 A 
ATOM      4  C4  IND d   1      -0.967   2.020  -0.299  0.00  0.00     0.051 A 
ATOM      5  C5  IND d   1       0.308   2.477  -0.120  0.00  0.00    -0.031 A 
ATOM      6  C6  IND d   1       0.929   3.288  -1.048  0.00  0.00     0.015 A 
ATOM      7  C7  IND d   1       0.290   3.684  -2.189  0.00  0.00    -0.016 A 
ATOM      8  C8  IND d   1      -1.003   3.216  -2.377  0.00  0.00    -0.047 A 
ATOM      9  C9  IND d   1      -1.623   2.359  -1.459  0.00  0.00    -0.096 A 
ATOM     10  HN1 IND d   1      -1.743   3.898  -4.111  0.00  0.00     0.298 HD
ENDROOT
TORSDOF 0
ENDMDL
