MODEL 1
REMARK minimizedAffinity 7.02450132
REMARK minimizedRMSD -1
REMARK  0 active torsions:
REMARK  status: ('A' for Active; 'I' for Inactive)
ROOT
ATOM      1  N1  IND d   1      -0.868   1.615   0.006  0.00  0.00    -0.196 N 
ATOM      2  C2  IND d   1      -0.068   2.676  -0.316  0.00  0.00     0.054 A 
ATOM      3  C3  IND d   1      -0.468   3.230  -1.483  0.00  0.00    -0.031 A 
ATOM      4  C4  IND d   1      -2.473   2.622  -2.979  0.00  0.00     0.051 A 
ATOM      5  C5  IND d   1      -3.473   1.701  -3.118  0.00  0.00    -0.031 A 
ATOM      6  C6  IND d   1      -3.662   0.686  -2.203  0.00  0.00     0.015 A 
ATOM      7  C7  IND d   1      -2.860   0.560  -1.103  0.00  0.00    -0.016 A 
ATOM      8  C8  IND d   1      -1.839   1.489  -0.963  0.00  0.00    -0.047 A 
ATOM      9  C9  IND d   1      -1.616   2.496  -1.911  0.00  0.00    -0.096 A 
ATOM     10  HN1 IND d   1      -0.779   1.111   0.697  0.00  0.00     0.298 HD
ENDROOT
TORSDOF 0
ENDMDL
