MODEL 1
REMARK minimizedAffinity 22.924839
REMARK minimizedRMSD -1
REMARK  0 active torsions:
REMARK  status: ('A' for Active; 'I' for Inactive)
ROOT
ATOM      1  N1  IND d   1       4.583  -5.999  -1.679  0.00  0.00    -0.196 N 
ATOM      2  C2  IND d   1       5.615  -5.298  -1.122  0.00  0.00     0.054 A 
ATOM      3  C3  IND d   1       5.143  -4.242  -0.422  0.00  0.00    -0.031 A 
ATOM      4  C4  IND d   1       2.708  -3.533   0.025  0.00  0.00     0.051 A 
ATOM      5  C5  IND d   1       1.419  -3.842  -0.306  0.00  0.00    -0.031 A 
ATOM      6  C6  IND d   1       1.111  -4.909  -1.125  0.00  0.00     0.015 A 
ATOM      7  C7  IND d   1       2.086  -5.717  -1.638  0.00  0.00    -0.016 A 
ATOM      8  C8  IND d   1       3.397  -5.402  -1.310  0.00  0.00    -0.047 A 
ATOM      9  C9  IND d   1       3.718  -4.296  -0.514  0.00  0.00    -0.096 A 
ATOM     10  HN1 IND d   1       4.661  -6.696  -2.177  0.00  0.00     0.298 HD
ENDROOT
TORSDOF 0
ENDMDL
