MODEL 1
REMARK minimizedAffinity 8.08106422
REMARK minimizedRMSD -1
REMARK  0 active torsions:
REMARK  status: ('A' for Active; 'I' for Inactive)
ROOT
ATOM      1  N1  IND d   1      -0.709   2.310  -2.209  0.00  0.00    -0.196 N 
ATOM      2  C2  IND d   1      -1.885   3.006  -2.274  0.00  0.00     0.054 A 
ATOM      3  C3  IND d   1      -2.928   2.194  -1.992  0.00  0.00    -0.031 A 
ATOM      4  C4  IND d   1      -2.930  -0.285  -1.297  0.00  0.00     0.051 A 
ATOM      5  C5  IND d   1      -2.100  -1.359  -1.136  0.00  0.00    -0.031 A 
ATOM      6  C6  IND d   1      -0.737  -1.263  -1.325  0.00  0.00     0.015 A 
ATOM      7  C7  IND d   1      -0.148  -0.080  -1.673  0.00  0.00    -0.016 A 
ATOM      8  C8  IND d   1      -0.988   1.011  -1.845  0.00  0.00    -0.047 A 
ATOM      9  C9  IND d   1      -2.377   0.909  -1.696  0.00  0.00    -0.096 A 
ATOM     10  HN1 IND d   1       0.072   2.630  -2.369  0.00  0.00     0.298 HD
ENDROOT
TORSDOF 0
ENDMDL
