MODEL 1
REMARK minimizedAffinity 10.1908684
REMARK minimizedRMSD -1
REMARK  0 active torsions:
REMARK  status: ('A' for Active; 'I' for Inactive)
ROOT
ATOM      1  N1  IND d   1      -3.176   1.876  -2.196  0.00  0.00    -0.196 N 
ATOM      2  C2  IND d   1      -3.659   0.755  -1.579  0.00  0.00     0.054 A 
ATOM      3  C3  IND d   1      -2.835   0.380  -0.575  0.00  0.00    -0.031 A 
ATOM      4  C4  IND d   1      -0.695   1.516   0.297  0.00  0.00     0.051 A 
ATOM      5  C5  IND d   1       0.163   2.545   0.030  0.00  0.00    -0.031 A 
ATOM      6  C6  IND d   1      -0.054   3.424  -1.012  0.00  0.00     0.015 A 
ATOM      7  C7  IND d   1      -1.148   3.312  -1.822  0.00  0.00    -0.016 A 
ATOM      8  C8  IND d   1      -2.018   2.263  -1.559  0.00  0.00    -0.047 A 
ATOM      9  C9  IND d   1      -1.781   1.343  -0.529  0.00  0.00    -0.096 A 
ATOM     10  HN1 IND d   1      -3.535   2.271  -2.870  0.00  0.00     0.298 HD
ENDROOT
TORSDOF 0
ENDMDL
