MODEL 1
REMARK minimizedAffinity 9.55461502
REMARK minimizedRMSD -1
REMARK  0 active torsions:
REMARK  status: ('A' for Active; 'I' for Inactive)
ROOT
ATOM      1  N1  IND d   1       0.756   4.439  -2.304  0.00  0.00    -0.196 N 
ATOM      2  C2  IND d   1       0.197   5.640  -2.637  0.00  0.00     0.054 A 
ATOM      3  C3  IND d   1      -0.728   6.000  -1.719  0.00  0.00    -0.031 A 
ATOM      4  C4  IND d   1      -1.410   4.818   0.464  0.00  0.00     0.051 A 
ATOM      5  C5  IND d   1      -1.202   3.671   1.179  0.00  0.00    -0.031 A 
ATOM      6  C6  IND d   1      -0.311   2.704   0.762  0.00  0.00     0.015 A 
ATOM      7  C7  IND d   1       0.418   2.853  -0.384  0.00  0.00    -0.016 A 
ATOM      8  C8  IND d   1       0.204   4.012  -1.116  0.00  0.00    -0.047 A 
ATOM      9  C9  IND d   1      -0.731   4.978  -0.720  0.00  0.00    -0.096 A 
ATOM     10  HN1 IND d   1       1.353   4.020  -2.759  0.00  0.00     0.298 HD
ENDROOT
TORSDOF 0
ENDMDL
