MODEL 1
REMARK minimizedAffinity 15.7519636
REMARK minimizedRMSD -1
REMARK  0 active torsions:
REMARK  status: ('A' for Active; 'I' for Inactive)
ROOT
ATOM      1  N1  IND d   1       4.538  -2.593  -0.277  0.00  0.00    -0.196 N 
ATOM      2  C2  IND d   1       3.469  -1.769  -0.061  0.00  0.00     0.054 A 
ATOM      3  C3  IND d   1       2.318  -2.394  -0.396  0.00  0.00    -0.031 A 
ATOM      4  C4  IND d   1       1.946  -4.803  -1.224  0.00  0.00     0.051 A 
ATOM      5  C5  IND d   1       2.623  -5.926  -1.610  0.00  0.00    -0.031 A 
ATOM      6  C6  IND d   1       4.000  -5.997  -1.569  0.00  0.00     0.015 A 
ATOM      7  C7  IND d   1       4.755  -4.948  -1.126  0.00  0.00    -0.016 A 
ATOM      8  C8  IND d   1       4.072  -3.804  -0.740  0.00  0.00    -0.047 A 
ATOM      9  C9  IND d   1       2.677  -3.710  -0.820  0.00  0.00    -0.096 A 
ATOM     10  HN1 IND d   1       5.363  -2.389  -0.146  0.00  0.00     0.298 HD
ENDROOT
TORSDOF 0
ENDMDL
