MODEL 1
REMARK minimizedAffinity 15.8126545
REMARK minimizedRMSD -1
REMARK  0 active torsions:
REMARK  status: ('A' for Active; 'I' for Inactive)
ROOT
ATOM      1  C   UNL d   1       5.921   4.028   6.000  0.00  0.00    -0.002 A 
ATOM      2  C1  UNL d   1       5.994   2.994   5.077  0.00  0.00     0.010 A 
ATOM      3  C2  UNL d   1       5.065   2.900   4.040  0.00  0.00     0.041 A 
ATOM      4  C3  UNL d   1       4.051   3.874   3.943  0.00  0.00    -0.075 A 
ATOM      5  S   UNL d   1       2.804   3.962   2.756  0.00  0.00     0.015 SA
ATOM      6  C4  UNL d   1       2.146   5.375   3.445  0.00  0.00     0.022 A 
ATOM      7  C5  UNL d   1       2.847   5.783   4.554  0.00  0.00     0.026 A 
ATOM      8  C6  UNL d   1       3.957   4.925   4.860  0.00  0.00    -0.082 A 
ATOM      9  C7  UNL d   1       4.914   4.992   5.901  0.00  0.00     0.045 A 
ENDROOT
TORSDOF 0
ENDMDL
