MODEL 1
REMARK minimizedAffinity 4.68768978
REMARK minimizedRMSD -1
REMARK  0 active torsions:
REMARK  status: ('A' for Active; 'I' for Inactive)
ROOT
ATOM      1  C   UNL d   1       3.954  -0.130  -1.611  0.00  0.00    -0.002 A 
ATOM      2  C1  UNL d   1       3.437   0.831  -0.754  0.00  0.00     0.010 A 
ATOM      3  C2  UNL d   1       2.428   0.505   0.154  0.00  0.00     0.041 A 
ATOM      4  C3  UNL d   1       1.943  -0.818   0.187  0.00  0.00    -0.075 A 
ATOM      5  S   UNL d   1       0.711  -1.448   1.216  0.00  0.00     0.015 SA
ATOM      6  C4  UNL d   1       0.843  -3.008   0.543  0.00  0.00     0.022 A 
ATOM      7  C5  UNL d   1       1.798  -3.065  -0.444  0.00  0.00     0.026 A 
ATOM      8  C6  UNL d   1       2.449  -1.804  -0.665  0.00  0.00    -0.082 A 
ATOM      9  C7  UNL d   1       3.471  -1.441  -1.574  0.00  0.00     0.045 A 
ENDROOT
TORSDOF 0
ENDMDL
