MODEL 1
REMARK minimizedAffinity 17.6310902
REMARK minimizedRMSD -1
REMARK  0 active torsions:
REMARK  status: ('A' for Active; 'I' for Inactive)
ROOT
ATOM      1  C   UNL d   1       5.024   1.814  -0.798  0.00  0.00    -0.002 A 
ATOM      2  C1  UNL d   1       5.557   0.983   0.177  0.00  0.00     0.010 A 
ATOM      3  C2  UNL d   1       4.795  -0.051   0.723  0.00  0.00     0.041 A 
ATOM      4  C3  UNL d   1       3.476  -0.240   0.267  0.00  0.00    -0.075 A 
ATOM      5  S   UNL d   1       2.357  -1.443   0.791  0.00  0.00     0.015 SA
ATOM      6  C4  UNL d   1       1.145  -0.883  -0.268  0.00  0.00     0.022 A 
ATOM      7  C5  UNL d   1       1.566   0.195  -1.010  0.00  0.00     0.026 A 
ATOM      8  C6  UNL d   1       2.917   0.583  -0.715  0.00  0.00    -0.082 A 
ATOM      9  C7  UNL d   1       3.714   1.624  -1.248  0.00  0.00     0.045 A 
ENDROOT
TORSDOF 0
ENDMDL
