MODEL 1
REMARK minimizedAffinity 7.77769804
REMARK minimizedRMSD -1
REMARK  0 active torsions:
REMARK  status: ('A' for Active; 'I' for Inactive)
ROOT
ATOM      1  C   UNL d   1      -3.001   1.065  -4.846  0.00  0.00    -0.002 A 
ATOM      2  C1  UNL d   1      -4.330   1.302  -5.168  0.00  0.00     0.010 A 
ATOM      3  C2  UNL d   1      -5.323   1.217  -4.190  0.00  0.00     0.041 A 
ATOM      4  C3  UNL d   1      -4.954   0.889  -2.870  0.00  0.00    -0.075 A 
ATOM      5  S   UNL d   1      -5.999   0.729  -1.508  0.00  0.00     0.015 SA
ATOM      6  C4  UNL d   1      -4.705   0.344  -0.467  0.00  0.00     0.022 A 
ATOM      7  C5  UNL d   1      -3.499   0.333  -1.126  0.00  0.00     0.026 A 
ATOM      8  C6  UNL d   1      -3.622   0.647  -2.522  0.00  0.00    -0.082 A 
ATOM      9  C7  UNL d   1      -2.639   0.740  -3.536  0.00  0.00     0.045 A 
ENDROOT
TORSDOF 0
ENDMDL
