MODEL 1
REMARK minimizedAffinity -4.50360537
REMARK minimizedRMSD -1
REMARK  1 active torsions:
REMARK  status: ('A' for Active; 'I' for Inactive)
REMARK    1  A    between atoms: C1_2  and  C2_3 
ROOT
ATOM      1  C2  UNL d   1       0.307  -0.697   0.747  0.00  0.00    -0.076 A 
ATOM      2  C3  UNL d   1      -0.906  -0.217   1.272  0.00  0.00     0.004 A 
ATOM      3  C4  UNL d   1      -1.383  -0.667   2.502  0.00  0.00    -0.003 A 
ATOM      4  C5  UNL d   1      -0.656  -1.604   3.227  0.00  0.00     0.000 A 
ATOM      5  C6  UNL d   1       0.558  -2.078   2.730  0.00  0.00     0.000 A 
ATOM      6  C7  UNL d   1       1.062  -1.622   1.500  0.00  0.00    -0.073 A 
ATOM      7  C8  UNL d   1       2.373  -2.171   1.009  0.00  0.00     0.078 C 
ENDROOT
BRANCH   1   8
ATOM      8  C1  UNL d   1       0.761  -0.193  -0.604  0.00  0.00     0.053 C 
ATOM      9  C   UNL d   1       1.395   1.187  -0.528  0.00  0.00     0.018 C 
ENDBRANCH   1   8
TORSDOF 1
ENDMDL
