MODEL 1
REMARK minimizedAffinity -4.25732231
REMARK minimizedRMSD -1
REMARK  1 active torsions:
REMARK  status: ('A' for Active; 'I' for Inactive)
REMARK    1  A    between atoms: C1_2  and  C2_3 
ROOT
ATOM      1  C2  UNL d   1      -1.082   0.878  -1.278  0.00  0.00    -0.076 A 
ATOM      2  C3  UNL d   1      -1.404  -0.452  -1.597  0.00  0.00     0.004 A 
ATOM      3  C4  UNL d   1      -1.998  -0.774  -2.817  0.00  0.00    -0.003 A 
ATOM      4  C5  UNL d   1      -2.278   0.230  -3.737  0.00  0.00     0.000 A 
ATOM      5  C6  UNL d   1      -1.949   1.553  -3.444  0.00  0.00     0.000 A 
ATOM      6  C7  UNL d   1      -1.336   1.892  -2.226  0.00  0.00    -0.073 A 
ATOM      7  C8  UNL d   1      -1.008   3.336  -1.959  0.00  0.00     0.078 C 
ENDROOT
BRANCH   1   8
ATOM      8  C1  UNL d   1      -0.464   1.170   0.071  0.00  0.00     0.053 C 
ATOM      9  C   UNL d   1       0.570   0.130   0.475  0.00  0.00     0.018 C 
ENDBRANCH   1   8
TORSDOF 1
ENDMDL
