MODEL 1
REMARK minimizedAffinity -4.95446873
REMARK minimizedRMSD -1
REMARK  1 active torsions:
REMARK  status: ('A' for Active; 'I' for Inactive)
REMARK    1  A    between atoms: C1_2  and  C2_3 
ROOT
ATOM      1  C2  UNL d   1       0.170  -0.422   0.479  0.00  0.00    -0.076 A 
ATOM      2  C3  UNL d   1      -0.403  -0.891   1.674  0.00  0.00     0.004 A 
ATOM      3  C4  UNL d   1       0.126  -1.997   2.337  0.00  0.00    -0.003 A 
ATOM      4  C5  UNL d   1       1.237  -2.652   1.815  0.00  0.00     0.000 A 
ATOM      5  C6  UNL d   1       1.828  -2.189   0.640  0.00  0.00     0.000 A 
ATOM      6  C7  UNL d   1       1.317  -1.066  -0.032  0.00  0.00    -0.073 A 
ATOM      7  C8  UNL d   1       1.991  -0.614  -1.299  0.00  0.00     0.078 C 
ENDROOT
BRANCH   1   8
ATOM      8  C1  UNL d   1      -0.464   0.765  -0.210  0.00  0.00     0.053 C 
ATOM      9  C   UNL d   1      -1.396   0.355  -1.340  0.00  0.00     0.018 C 
ENDBRANCH   1   8
TORSDOF 1
ENDMDL
