MODEL 1
REMARK minimizedAffinity -2.87152028
REMARK minimizedRMSD -1
REMARK  1 active torsions:
REMARK  status: ('A' for Active; 'I' for Inactive)
REMARK    1  A    between atoms: C1_2  and  C2_3 
ROOT
ATOM      1  C2  UNL d   1       0.165  -0.562  -0.065  0.00  0.00    -0.076 A 
ATOM      2  C3  UNL d   1       1.377  -0.590  -0.776  0.00  0.00     0.004 A 
ATOM      3  C4  UNL d   1       2.406  -1.454  -0.406  0.00  0.00    -0.003 A 
ATOM      4  C5  UNL d   1       2.239  -2.306   0.681  0.00  0.00     0.000 A 
ATOM      5  C6  UNL d   1       1.036  -2.304   1.387  0.00  0.00     0.000 A 
ATOM      6  C7  UNL d   1      -0.017  -1.450   1.017  0.00  0.00    -0.073 A 
ATOM      7  C8  UNL d   1      -1.290  -1.485   1.817  0.00  0.00     0.078 C 
ENDROOT
BRANCH   1   8
ATOM      8  C1  UNL d   1      -0.905   0.416  -0.495  0.00  0.00     0.053 C 
ATOM      9  C   UNL d   1      -1.572   0.012  -1.801  0.00  0.00     0.018 C 
ENDBRANCH   1   8
TORSDOF 1
ENDMDL
