MODEL 1
REMARK minimizedAffinity -5.33613634
REMARK minimizedRMSD -1
REMARK  1 active torsions:
REMARK  status: ('A' for Active; 'I' for Inactive)
REMARK    1  A    between atoms: C1_2  and  C2_3 
ROOT
ATOM      1  C2  UNL d   1       0.165  -0.165   0.655  0.00  0.00    -0.076 A 
ATOM      2  C3  UNL d   1      -0.501  -1.113   1.451  0.00  0.00     0.004 A 
ATOM      3  C4  UNL d   1       0.141  -2.276   1.871  0.00  0.00    -0.003 A 
ATOM      4  C5  UNL d   1       1.461  -2.510   1.503  0.00  0.00     0.000 A 
ATOM      5  C6  UNL d   1       2.144  -1.573   0.728  0.00  0.00     0.000 A 
ATOM      6  C7  UNL d   1       1.516  -0.387   0.309  0.00  0.00    -0.073 A 
ATOM      7  C8  UNL d   1       2.297   0.586  -0.530  0.00  0.00     0.078 C 
ENDROOT
BRANCH   1   8
ATOM      8  C1  UNL d   1      -0.591   1.065   0.206  0.00  0.00     0.053 C 
ATOM      9  C   UNL d   1      -1.016   0.988  -1.252  0.00  0.00     0.018 C 
ENDBRANCH   1   8
TORSDOF 1
ENDMDL
