MODEL 1
REMARK minimizedAffinity 0.196555302
REMARK minimizedRMSD -1
REMARK  1 active torsions:
REMARK  status: ('A' for Active; 'I' for Inactive)
REMARK    1  A    between atoms: C1_2  and  C2_3 
ROOT
ATOM      1  C2  UNL d   1      -1.598   1.739  -3.447  0.00  0.00    -0.076 A 
ATOM      2  C3  UNL d   1      -0.697   0.994  -2.666  0.00  0.00     0.004 A 
ATOM      3  C4  UNL d   1      -1.105  -0.166  -2.010  0.00  0.00    -0.003 A 
ATOM      4  C5  UNL d   1      -2.421  -0.601  -2.125  0.00  0.00     0.000 A 
ATOM      5  C6  UNL d   1      -3.324   0.115  -2.910  0.00  0.00     0.000 A 
ATOM      6  C7  UNL d   1      -2.924   1.278  -3.591  0.00  0.00    -0.073 A 
ATOM      7  C8  UNL d   1      -3.941   2.015  -4.419  0.00  0.00     0.078 C 
ENDROOT
BRANCH   1   8
ATOM      8  C1  UNL d   1      -1.105   3.003  -4.113  0.00  0.00     0.053 C 
ATOM      9  C   UNL d   1      -0.256   3.858  -3.185  0.00  0.00     0.018 C 
ENDBRANCH   1   8
TORSDOF 1
ENDMDL
