MODEL 1
REMARK minimizedAffinity -2.4884522
REMARK minimizedRMSD -1
REMARK  1 active torsions:
REMARK  status: ('A' for Active; 'I' for Inactive)
REMARK    1  A    between atoms: C1_2  and  C2_3 
ROOT
ATOM      1  C2  UNL d   1       0.562  -0.727   0.452  0.00  0.00    -0.076 A 
ATOM      2  C3  UNL d   1      -0.077  -1.650   1.298  0.00  0.00     0.004 A 
ATOM      3  C4  UNL d   1       0.646  -2.652   1.944  0.00  0.00    -0.003 A 
ATOM      4  C5  UNL d   1       2.020  -2.746   1.755  0.00  0.00     0.000 A 
ATOM      5  C6  UNL d   1       2.673  -1.828   0.933  0.00  0.00     0.000 A 
ATOM      6  C7  UNL d   1       1.962  -0.803   0.287  0.00  0.00    -0.073 A 
ATOM      7  C8  UNL d   1       2.716   0.156  -0.593  0.00  0.00     0.078 C 
ENDROOT
BRANCH   1   8
ATOM      8  C1  UNL d   1      -0.278   0.320  -0.243  0.00  0.00     0.053 C 
ATOM      9  C   UNL d   1      -0.383   1.609   0.558  0.00  0.00     0.018 C 
ENDBRANCH   1   8
TORSDOF 1
ENDMDL
