MODEL 1
REMARK minimizedAffinity -4.24722242
REMARK minimizedRMSD -1
REMARK  1 active torsions:
REMARK  status: ('A' for Active; 'I' for Inactive)
REMARK    1  A    between atoms: C1_2  and  C2_3 
ROOT
ATOM      1  C2  UNL d   1       0.087  -1.203   0.943  0.00  0.00    -0.076 A 
ATOM      2  C3  UNL d   1      -0.917  -1.089   1.920  0.00  0.00     0.004 A 
ATOM      3  C4  UNL d   1      -1.585   0.117   2.125  0.00  0.00    -0.003 A 
ATOM      4  C5  UNL d   1      -1.259   1.230   1.357  0.00  0.00     0.000 A 
ATOM      5  C6  UNL d   1      -0.277   1.130   0.372  0.00  0.00     0.000 A 
ATOM      6  C7  UNL d   1       0.394  -0.083   0.141  0.00  0.00    -0.073 A 
ATOM      7  C8  UNL d   1       1.449  -0.132  -0.931  0.00  0.00     0.078 C 
ENDROOT
BRANCH   1   8
ATOM      8  C1  UNL d   1       0.795  -2.529   0.784  0.00  0.00     0.053 C 
ATOM      9  C   UNL d   1       2.184  -2.527   1.405  0.00  0.00     0.018 C 
ENDBRANCH   1   8
TORSDOF 1
ENDMDL
