MODEL 1
REMARK minimizedAffinity -5.29217911
REMARK minimizedRMSD -1
REMARK  1 active torsions:
REMARK  status: ('A' for Active; 'I' for Inactive)
REMARK    1  A    between atoms: C1_2  and  C2_3 
ROOT
ATOM      1  C2  UNL d   1       0.079  -0.020  -0.050  0.00  0.00    -0.076 A 
ATOM      2  C3  UNL d   1      -0.699  -1.006   0.581  0.00  0.00     0.004 A 
ATOM      3  C4  UNL d   1      -0.115  -2.167   1.085  0.00  0.00    -0.003 A 
ATOM      4  C5  UNL d   1       1.257  -2.360   0.967  0.00  0.00     0.000 A 
ATOM      5  C6  UNL d   1       2.047  -1.384   0.360  0.00  0.00     0.000 A 
ATOM      6  C7  UNL d   1       1.476  -0.201  -0.139  0.00  0.00    -0.073 A 
ATOM      7  C8  UNL d   1       2.374   0.815  -0.790  0.00  0.00     0.078 C 
ENDROOT
BRANCH   1   8
ATOM      8  C1  UNL d   1      -0.613   1.205  -0.602  0.00  0.00     0.053 C 
ATOM      9  C   UNL d   1      -1.753   0.855  -1.547  0.00  0.00     0.018 C 
ENDBRANCH   1   8
TORSDOF 1
ENDMDL
