MODEL 1
REMARK minimizedAffinity -5.27322197
REMARK minimizedRMSD -1
REMARK  1 active torsions:
REMARK  status: ('A' for Active; 'I' for Inactive)
REMARK    1  A    between atoms: C1_2  and  C2_3 
ROOT
ATOM      1  C2  UNL d   1       0.396  -0.845   0.401  0.00  0.00    -0.076 A 
ATOM      2  C3  UNL d   1       1.305  -1.916   0.356  0.00  0.00     0.004 A 
ATOM      3  C4  UNL d   1       1.167  -3.010   1.209  0.00  0.00    -0.003 A 
ATOM      4  C5  UNL d   1       0.118  -3.050   2.121  0.00  0.00     0.000 A 
ATOM      5  C6  UNL d   1      -0.803  -2.004   2.168  0.00  0.00     0.000 A 
ATOM      6  C7  UNL d   1      -0.688  -0.901   1.303  0.00  0.00    -0.073 A 
ATOM      7  C8  UNL d   1      -1.706   0.202   1.401  0.00  0.00     0.078 C 
ENDROOT
BRANCH   1   8
ATOM      8  C1  UNL d   1       0.612   0.327  -0.530  0.00  0.00     0.053 C 
ATOM      9  C   UNL d   1       2.085   0.647  -0.732  0.00  0.00     0.018 C 
ENDBRANCH   1   8
TORSDOF 1
ENDMDL
