MODEL 1
REMARK minimizedAffinity -1.83947563
REMARK minimizedRMSD -1
REMARK  1 active torsions:
REMARK  status: ('A' for Active; 'I' for Inactive)
REMARK    1  A    between atoms: C1_2  and  C2_3 
ROOT
ATOM      1  C2  UNL d   1      -1.159   1.253  -1.312  0.00  0.00    -0.076 A 
ATOM      2  C3  UNL d   1      -1.454   2.390  -2.083  0.00  0.00     0.004 A 
ATOM      3  C4  UNL d   1      -2.110   2.276  -3.308  0.00  0.00    -0.003 A 
ATOM      4  C5  UNL d   1      -2.483   1.022  -3.780  0.00  0.00     0.000 A 
ATOM      5  C6  UNL d   1      -2.215  -0.115  -3.019  0.00  0.00     0.000 A 
ATOM      6  C7  UNL d   1      -1.568  -0.016  -1.775  0.00  0.00    -0.073 A 
ATOM      7  C8  UNL d   1      -1.298  -1.276  -1.000  0.00  0.00     0.078 C 
ENDROOT
BRANCH   1   8
ATOM      8  C1  UNL d   1      -0.421   1.436  -0.005  0.00  0.00     0.053 C 
ATOM      9  C   UNL d   1       1.045   1.041  -0.103  0.00  0.00     0.018 C 
ENDBRANCH   1   8
TORSDOF 1
ENDMDL
