MODEL 1
REMARK minimizedAffinity -1.62075233
REMARK minimizedRMSD -1
REMARK  1 active torsions:
REMARK  status: ('A' for Active; 'I' for Inactive)
REMARK    1  A    between atoms: C1_2  and  C2_3 
ROOT
ATOM      1  C2  UNL d   1      -0.673   0.638  -1.483  0.00  0.00    -0.076 A 
ATOM      2  C3  UNL d   1      -0.967   0.278  -2.810  0.00  0.00     0.004 A 
ATOM      3  C4  UNL d   1      -1.974   0.927  -3.523  0.00  0.00    -0.003 A 
ATOM      4  C5  UNL d   1      -2.702   1.948  -2.921  0.00  0.00     0.000 A 
ATOM      5  C6  UNL d   1      -2.411   2.330  -1.612  0.00  0.00     0.000 A 
ATOM      6  C7  UNL d   1      -1.388   1.697  -0.885  0.00  0.00    -0.073 A 
ATOM      7  C8  UNL d   1      -1.121   2.146   0.526  0.00  0.00     0.078 C 
ENDROOT
BRANCH   1   8
ATOM      8  C1  UNL d   1       0.412  -0.119  -0.751  0.00  0.00     0.053 C 
ATOM      9  C   UNL d   1      -0.147  -1.213   0.147  0.00  0.00     0.018 C 
ENDBRANCH   1   8
TORSDOF 1
ENDMDL
