MODEL 1
REMARK minimizedAffinity -3.25747895
REMARK minimizedRMSD -1
REMARK  3 active torsions:
REMARK  status: ('A' for Active; 'I' for Inactive)
REMARK    1  A    between atoms: C3'_2  and  C2'_3 
REMARK    2  A    between atoms: C2'_3  and  C1'_4 
REMARK    3  A    between atoms: C1'_4  and  C1_5 
ROOT
ATOM      1  C1  N4B d   1       5.543  -4.277   3.337  0.00  0.00    -0.075 A 
ATOM      2  C2  N4B d   1       5.353  -4.481   4.721  0.00  0.00     0.002 A 
ATOM      3  C3  N4B d   1       5.090  -3.413   5.544  0.00  0.00     0.002 A 
ATOM      4  C4  N4B d   1       5.033  -2.134   5.010  0.00  0.00    -0.004 A 
ATOM      5  C5  N4B d   1       5.193  -1.948   3.668  0.00  0.00     0.002 A 
ATOM      6  C6  N4B d   1       5.453  -3.013   2.829  0.00  0.00     0.002 A 
ENDROOT
BRANCH   1   7
ATOM      7  C1' N4B d   1       5.917  -5.402   2.412  0.00  0.00     0.057 C 
BRANCH   7   8
ATOM      8  C2' N4B d   1       5.998  -4.871   0.984  0.00  0.00     0.009 C 
BRANCH   8   9
ATOM      9  C3' N4B d   1       6.000  -5.993  -0.040  0.00  0.00     0.004 C 
ATOM     10  C4' N4B d   1       5.963  -5.489  -1.453  0.00  0.00     0.003 C 
ENDBRANCH   8   9
ENDBRANCH   7   8
ENDBRANCH   1   7
TORSDOF 3
ENDMDL
