MODEL 1
REMARK minimizedAffinity -1.33547461
REMARK minimizedRMSD -1
REMARK  3 active torsions:
REMARK  status: ('A' for Active; 'I' for Inactive)
REMARK    1  A    between atoms: C3'_2  and  C2'_3 
REMARK    2  A    between atoms: C2'_3  and  C1'_4 
REMARK    3  A    between atoms: C1'_4  and  C1_5 
ROOT
ATOM      1  C1  N4B d   1       5.891  -3.176   2.931  0.00  0.00    -0.075 A 
ATOM      2  C2  N4B d   1       5.692  -2.037   3.742  0.00  0.00     0.002 A 
ATOM      3  C3  N4B d   1       5.568  -2.177   5.102  0.00  0.00     0.002 A 
ATOM      4  C4  N4B d   1       5.619  -3.441   5.670  0.00  0.00    -0.004 A 
ATOM      5  C5  N4B d   1       5.837  -4.533   4.882  0.00  0.00     0.002 A 
ATOM      6  C6  N4B d   1       5.968  -4.408   3.514  0.00  0.00     0.002 A 
ENDROOT
BRANCH   1   7
ATOM      7  C1' N4B d   1       5.947  -3.083   1.430  0.00  0.00     0.057 C 
BRANCH   7   8
ATOM      8  C2' N4B d   1       6.000  -4.490   0.843  0.00  0.00     0.009 C 
BRANCH   8   9
ATOM      9  C3' N4B d   1       5.998  -4.472  -0.676  0.00  0.00     0.004 C 
ATOM     10  C4' N4B d   1       6.000  -5.847  -1.274  0.00  0.00     0.003 C 
ENDBRANCH   8   9
ENDBRANCH   7   8
ENDBRANCH   1   7
TORSDOF 3
ENDMDL
