MODEL 1
REMARK minimizedAffinity -2.91169882
REMARK minimizedRMSD -1
REMARK  3 active torsions:
REMARK  status: ('A' for Active; 'I' for Inactive)
REMARK    1  A    between atoms: C3'_2  and  C2'_3 
REMARK    2  A    between atoms: C2'_3  and  C1'_4 
REMARK    3  A    between atoms: C1'_4  and  C1_5 
ROOT
ATOM      1  C1  N4B d   1       5.806  -4.371   3.954  0.00  0.00    -0.075 A 
ATOM      2  C2  N4B d   1       5.907  -3.129   3.289  0.00  0.00     0.002 A 
ATOM      3  C3  N4B d   1       5.991  -3.089   1.919  0.00  0.00     0.002 A 
ATOM      4  C4  N4B d   1       5.994  -4.273   1.197  0.00  0.00    -0.004 A 
ATOM      5  C5  N4B d   1       5.870  -5.467   1.845  0.00  0.00     0.002 A 
ATOM      6  C6  N4B d   1       5.782  -5.522   3.222  0.00  0.00     0.002 A 
ENDROOT
BRANCH   1   7
ATOM      7  C1' N4B d   1       5.800  -4.469   5.455  0.00  0.00     0.057 C 
BRANCH   7   8
ATOM      8  C2' N4B d   1       4.369  -4.309   5.961  0.00  0.00     0.009 C 
BRANCH   8   9
ATOM      9  C3' N4B d   1       3.871  -2.882   5.816  0.00  0.00     0.004 C 
ATOM     10  C4' N4B d   1       4.959  -1.866   6.000  0.00  0.00     0.003 C 
ENDBRANCH   8   9
ENDBRANCH   7   8
ENDBRANCH   1   7
TORSDOF 3
ENDMDL
