MODEL 1
REMARK minimizedAffinity -1.15721822
REMARK minimizedRMSD -1
REMARK  3 active torsions:
REMARK  status: ('A' for Active; 'I' for Inactive)
REMARK    1  A    between atoms: C3'_2  and  C2'_3 
REMARK    2  A    between atoms: C2'_3  and  C1'_4 
REMARK    3  A    between atoms: C1'_4  and  C1_5 
ROOT
ATOM      1  C1  N4B d   1       5.903  -3.198   3.655  0.00  0.00    -0.075 A 
ATOM      2  C2  N4B d   1       5.932  -3.244   5.066  0.00  0.00     0.002 A 
ATOM      3  C3  N4B d   1       5.989  -4.455   5.711  0.00  0.00     0.002 A 
ATOM      4  C4  N4B d   1       5.999  -5.628   4.971  0.00  0.00    -0.004 A 
ATOM      5  C5  N4B d   1       5.997  -5.573   3.608  0.00  0.00     0.002 A 
ATOM      6  C6  N4B d   1       5.944  -4.363   2.945  0.00  0.00     0.002 A 
ENDROOT
BRANCH   1   7
ATOM      7  C1' N4B d   1       5.754  -1.901   2.906  0.00  0.00     0.057 C 
BRANCH   7   8
ATOM      8  C2' N4B d   1       5.262  -2.194   1.492  0.00  0.00     0.009 C 
BRANCH   8   9
ATOM      9  C3' N4B d   1       3.748  -2.128   1.392  0.00  0.00     0.004 C 
ATOM     10  C4' N4B d   1       3.269  -1.868  -0.005  0.00  0.00     0.003 C 
ENDBRANCH   8   9
ENDBRANCH   7   8
ENDBRANCH   1   7
TORSDOF 3
ENDMDL
