MODEL 1
REMARK minimizedAffinity -1.74921155
REMARK minimizedRMSD -1
REMARK  3 active torsions:
REMARK  status: ('A' for Active; 'I' for Inactive)
REMARK    1  A    between atoms: C3'_2  and  C2'_3 
REMARK    2  A    between atoms: C2'_3  and  C1'_4 
REMARK    3  A    between atoms: C1'_4  and  C1_5 
ROOT
ATOM      1  C1  N4B d   1       5.835  -3.633   3.765  0.00  0.00    -0.075 A 
ATOM      2  C2  N4B d   1       5.918  -4.776   2.940  0.00  0.00     0.002 A 
ATOM      3  C3  N4B d   1       5.999  -4.633   1.576  0.00  0.00     0.002 A 
ATOM      4  C4  N4B d   1       5.979  -3.365   1.017  0.00  0.00    -0.004 A 
ATOM      5  C5  N4B d   1       5.924  -2.265   1.823  0.00  0.00     0.002 A 
ATOM      6  C6  N4B d   1       5.847  -2.393   3.195  0.00  0.00     0.002 A 
ENDROOT
BRANCH   1   7
ATOM      7  C1' N4B d   1       5.658  -3.741   5.255  0.00  0.00     0.057 C 
BRANCH   7   8
ATOM      8  C2' N4B d   1       5.768  -5.206   5.668  0.00  0.00     0.009 C 
BRANCH   8   9
ATOM      9  C3' N4B d   1       4.412  -5.806   5.999  0.00  0.00     0.004 C 
ATOM     10  C4' N4B d   1       3.366  -5.479   4.975  0.00  0.00     0.003 C 
ENDBRANCH   8   9
ENDBRANCH   7   8
ENDBRANCH   1   7
TORSDOF 3
ENDMDL
