MODEL 1
REMARK minimizedAffinity -1.2796036
REMARK minimizedRMSD -1
REMARK  3 active torsions:
REMARK  status: ('A' for Active; 'I' for Inactive)
REMARK    1  A    between atoms: C3'_2  and  C2'_3 
REMARK    2  A    between atoms: C2'_3  and  C1'_4 
REMARK    3  A    between atoms: C1'_4  and  C1_5 
ROOT
ATOM      1  C1  N4B d   1       5.997  -4.131   4.161  0.00  0.00    -0.075 A 
ATOM      2  C2  N4B d   1       5.988  -5.519   3.899  0.00  0.00     0.002 A 
ATOM      3  C3  N4B d   1       5.909  -5.972   2.605  0.00  0.00     0.002 A 
ATOM      4  C4  N4B d   1       5.820  -5.061   1.563  0.00  0.00    -0.004 A 
ATOM      5  C5  N4B d   1       5.855  -3.722   1.823  0.00  0.00     0.002 A 
ATOM      6  C6  N4B d   1       5.938  -3.253   3.119  0.00  0.00     0.002 A 
ENDROOT
BRANCH   1   7
ATOM      7  C1' N4B d   1       5.996  -3.589   5.564  0.00  0.00     0.057 C 
BRANCH   7   8
ATOM      8  C2' N4B d   1       4.923  -2.511   5.683  0.00  0.00     0.009 C 
BRANCH   8   9
ATOM      9  C3' N4B d   1       3.537  -3.106   5.862  0.00  0.00     0.004 C 
ATOM     10  C4' N4B d   1       3.559  -4.600   5.993  0.00  0.00     0.003 C 
ENDBRANCH   8   9
ENDBRANCH   7   8
ENDBRANCH   1   7
TORSDOF 3
ENDMDL
