MODEL 1
REMARK minimizedAffinity -3.30661893
REMARK minimizedRMSD -1
REMARK  3 active torsions:
REMARK  status: ('A' for Active; 'I' for Inactive)
REMARK    1  A    between atoms: C3'_2  and  C2'_3 
REMARK    2  A    between atoms: C2'_3  and  C1'_4 
REMARK    3  A    between atoms: C1'_4  and  C1_5 
ROOT
ATOM      1  C1  N4B d   1       5.380  -2.844   3.521  0.00  0.00    -0.075 A 
ATOM      2  C2  N4B d   1       5.468  -4.173   3.053  0.00  0.00     0.002 A 
ATOM      3  C3  N4B d   1       5.782  -4.418   1.738  0.00  0.00     0.002 A 
ATOM      4  C4  N4B d   1       5.991  -3.354   0.873  0.00  0.00    -0.004 A 
ATOM      5  C5  N4B d   1       5.929  -2.074   1.340  0.00  0.00     0.002 A 
ATOM      6  C6  N4B d   1       5.619  -1.813   2.659  0.00  0.00     0.002 A 
ENDROOT
BRANCH   1   7
ATOM      7  C1' N4B d   1       4.956  -2.525   4.929  0.00  0.00     0.057 C 
BRANCH   7   8
ATOM      8  C2' N4B d   1       5.970  -3.116   5.903  0.00  0.00     0.009 C 
BRANCH   8   9
ATOM      9  C3' N4B d   1       5.856  -4.628   5.996  0.00  0.00     0.004 C 
ATOM     10  C4' N4B d   1       4.434  -5.105   5.972  0.00  0.00     0.003 C 
ENDBRANCH   8   9
ENDBRANCH   7   8
ENDBRANCH   1   7
TORSDOF 3
ENDMDL
