MODEL 1
REMARK minimizedAffinity -1.28327668
REMARK minimizedRMSD -1
REMARK  3 active torsions:
REMARK  status: ('A' for Active; 'I' for Inactive)
REMARK    1  A    between atoms: C3'_2  and  C2'_3 
REMARK    2  A    between atoms: C2'_3  and  C1'_4 
REMARK    3  A    between atoms: C1'_4  and  C1_5 
ROOT
ATOM      1  C1  N4B d   1       5.681  -3.892   3.386  0.00  0.00    -0.075 A 
ATOM      2  C2  N4B d   1       5.327  -4.753   4.448  0.00  0.00     0.002 A 
ATOM      3  C3  N4B d   1       5.286  -4.274   5.735  0.00  0.00     0.002 A 
ATOM      4  C4  N4B d   1       5.611  -2.950   5.985  0.00  0.00    -0.004 A 
ATOM      5  C5  N4B d   1       5.928  -2.119   4.951  0.00  0.00     0.002 A 
ATOM      6  C6  N4B d   1       5.969  -2.585   3.652  0.00  0.00     0.002 A 
ENDROOT
BRANCH   1   7
ATOM      7  C1' N4B d   1       5.823  -4.390   1.974  0.00  0.00     0.057 C 
BRANCH   7   8
ATOM      8  C2' N4B d   1       5.983  -3.198   1.036  0.00  0.00     0.009 C 
BRANCH   8   9
ATOM      9  C3' N4B d   1       5.997  -3.620  -0.423  0.00  0.00     0.004 C 
ATOM     10  C4' N4B d   1       5.997  -5.110  -0.596  0.00  0.00     0.003 C 
ENDBRANCH   8   9
ENDBRANCH   7   8
ENDBRANCH   1   7
TORSDOF 3
ENDMDL
