MODEL 1
REMARK minimizedAffinity -2.63925004
REMARK minimizedRMSD -1
REMARK  3 active torsions:
REMARK  status: ('A' for Active; 'I' for Inactive)
REMARK    1  A    between atoms: C3'_2  and  C2'_3 
REMARK    2  A    between atoms: C2'_3  and  C1'_4 
REMARK    3  A    between atoms: C1'_4  and  C1_5 
ROOT
ATOM      1  C1  N4B d   1       5.899  -3.921   4.171  0.00  0.00    -0.075 A 
ATOM      2  C2  N4B d   1       6.000  -4.857   3.118  0.00  0.00     0.002 A 
ATOM      3  C3  N4B d   1       5.947  -4.431   1.814  0.00  0.00     0.002 A 
ATOM      4  C4  N4B d   1       5.774  -3.082   1.539  0.00  0.00    -0.004 A 
ATOM      5  C5  N4B d   1       5.703  -2.182   2.561  0.00  0.00     0.002 A 
ATOM      6  C6  N4B d   1       5.759  -2.595   3.877  0.00  0.00     0.002 A 
ENDROOT
BRANCH   1   7
ATOM      7  C1' N4B d   1       5.865  -4.348   5.613  0.00  0.00     0.057 C 
BRANCH   7   8
ATOM      8  C2' N4B d   1       5.441  -5.812   5.692  0.00  0.00     0.009 C 
BRANCH   8   9
ATOM      9  C3' N4B d   1       3.961  -5.959   6.000  0.00  0.00     0.004 C 
ATOM     10  C4' N4B d   1       3.097  -5.812   4.783  0.00  0.00     0.003 C 
ENDBRANCH   8   9
ENDBRANCH   7   8
ENDBRANCH   1   7
TORSDOF 3
ENDMDL
