MODEL 1
REMARK minimizedAffinity -1.93691933
REMARK minimizedRMSD -1
REMARK  3 active torsions:
REMARK  status: ('A' for Active; 'I' for Inactive)
REMARK    1  A    between atoms: C3'_2  and  C2'_3 
REMARK    2  A    between atoms: C2'_3  and  C1'_4 
REMARK    3  A    between atoms: C1'_4  and  C1_5 
ROOT
ATOM      1  C1  N4B d   1       5.679  -4.120   4.446  0.00  0.00    -0.075 A 
ATOM      2  C2  N4B d   1       5.970  -4.999   3.379  0.00  0.00     0.002 A 
ATOM      3  C3  N4B d   1       5.999  -4.528   2.090  0.00  0.00     0.002 A 
ATOM      4  C4  N4B d   1       5.724  -3.192   1.841  0.00  0.00    -0.004 A 
ATOM      5  C5  N4B d   1       5.469  -2.344   2.879  0.00  0.00     0.002 A 
ATOM      6  C6  N4B d   1       5.440  -2.803   4.181  0.00  0.00     0.002 A 
ENDROOT
BRANCH   1   7
ATOM      7  C1' N4B d   1       5.552  -4.607   5.863  0.00  0.00     0.057 C 
BRANCH   7   8
ATOM      8  C2' N4B d   1       4.927  -5.999   5.861  0.00  0.00     0.009 C 
BRANCH   8   9
ATOM      9  C3' N4B d   1       3.422  -5.946   5.666  0.00  0.00     0.004 C 
ATOM     10  C4' N4B d   1       3.024  -5.917   4.220  0.00  0.00     0.003 C 
ENDBRANCH   8   9
ENDBRANCH   7   8
ENDBRANCH   1   7
TORSDOF 3
ENDMDL
