MODEL 1
REMARK minimizedAffinity 0.787780523
REMARK minimizedRMSD -1
REMARK  3 active torsions:
REMARK  status: ('A' for Active; 'I' for Inactive)
REMARK    1  A    between atoms: C3'_2  and  C2'_3 
REMARK    2  A    between atoms: C2'_3  and  C1'_4 
REMARK    3  A    between atoms: C1'_4  and  C1_5 
ROOT
ATOM      1  C1  N4B d   1       5.805  -3.925   3.985  0.00  0.00    -0.075 A 
ATOM      2  C2  N4B d   1       5.778  -2.769   3.174  0.00  0.00     0.002 A 
ATOM      3  C3  N4B d   1       5.865  -2.887   1.808  0.00  0.00     0.002 A 
ATOM      4  C4  N4B d   1       5.998  -4.143   1.235  0.00  0.00    -0.004 A 
ATOM      5  C5  N4B d   1       5.997  -5.256   2.024  0.00  0.00     0.002 A 
ATOM      6  C6  N4B d   1       5.907  -5.153   3.398  0.00  0.00     0.002 A 
ENDROOT
BRANCH   1   7
ATOM      7  C1' N4B d   1       5.800  -3.841   5.487  0.00  0.00     0.057 C 
BRANCH   7   8
ATOM      8  C2' N4B d   1       4.388  -4.110   5.999  0.00  0.00     0.009 C 
BRANCH   8   9
ATOM      9  C3' N4B d   1       4.053  -5.591   5.989  0.00  0.00     0.004 C 
ATOM     10  C4' N4B d   1       3.024  -5.947   4.957  0.00  0.00     0.003 C 
ENDBRANCH   8   9
ENDBRANCH   7   8
ENDBRANCH   1   7
TORSDOF 3
ENDMDL
