MODEL 1
REMARK minimizedAffinity -2.35099316
REMARK minimizedRMSD -1
REMARK  3 active torsions:
REMARK  status: ('A' for Active; 'I' for Inactive)
REMARK    1  A    between atoms: C3'_2  and  C2'_3 
REMARK    2  A    between atoms: C2'_3  and  C1'_4 
REMARK    3  A    between atoms: C1'_4  and  C1_5 
ROOT
ATOM      1  C1  N4B d   1       5.254  -3.710   4.393  0.00  0.00    -0.075 A 
ATOM      2  C2  N4B d   1       5.999  -4.906   4.301  0.00  0.00     0.002 A 
ATOM      3  C3  N4B d   1       5.639  -5.999   5.050  0.00  0.00     0.002 A 
ATOM      4  C4  N4B d   1       4.552  -5.914   5.908  0.00  0.00    -0.004 A 
ATOM      5  C5  N4B d   1       3.822  -4.763   5.972  0.00  0.00     0.002 A 
ATOM      6  C6  N4B d   1       4.171  -3.658   5.222  0.00  0.00     0.002 A 
ENDROOT
BRANCH   1   7
ATOM      7  C1' N4B d   1       5.661  -2.462   3.658  0.00  0.00     0.057 C 
BRANCH   7   8
ATOM      8  C2' N4B d   1       5.973  -2.815   2.207  0.00  0.00     0.009 C 
BRANCH   8   9
ATOM      9  C3' N4B d   1       5.148  -3.993   1.719  0.00  0.00     0.004 C 
ATOM     10  C4' N4B d   1       5.993  -5.152   1.281  0.00  0.00     0.003 C 
ENDBRANCH   8   9
ENDBRANCH   7   8
ENDBRANCH   1   7
TORSDOF 3
ENDMDL
