MODEL 1
REMARK minimizedAffinity -2.33459902
REMARK minimizedRMSD -1
REMARK  0 active torsions:
REMARK  status: ('A' for Active; 'I' for Inactive)
ROOT
ATOM      1  C   UNL d   1       1.388   4.406   0.258  0.00  0.00     0.023 A 
ATOM      2  C1  UNL d   1       1.190   3.367   1.168  0.00  0.00     0.003 A 
ATOM      3  C2  UNL d   1       1.119   2.047   0.717  0.00  0.00     0.048 A 
ATOM      4  C3  UNL d   1       1.248   1.773  -0.644  0.00  0.00     0.023 A 
ATOM      5  C4  UNL d   1       1.448   2.809  -1.557  0.00  0.00     0.048 A 
ATOM      6  C5  UNL d   1       1.517   4.127  -1.102  0.00  0.00     0.003 A 
ATOM      7  I   UNL d   1       1.143  -0.191  -1.316  0.00  0.00    -0.146 I 
ENDROOT
TORSDOF 0
ENDMDL
