MODEL 1
REMARK minimizedAffinity -0.265575439
REMARK minimizedRMSD -1
REMARK  0 active torsions:
REMARK  status: ('A' for Active; 'I' for Inactive)
ROOT
ATOM      1  C   UNL d   1       1.203   1.798  -1.931  0.00  0.00     0.023 A 
ATOM      2  C1  UNL d   1       1.371   0.559  -1.313  0.00  0.00     0.003 A 
ATOM      3  C2  UNL d   1       1.519   0.484   0.074  0.00  0.00     0.048 A 
ATOM      4  C3  UNL d   1       1.496   1.652   0.836  0.00  0.00     0.023 A 
ATOM      5  C4  UNL d   1       1.327   2.893   0.221  0.00  0.00     0.048 A 
ATOM      6  C5  UNL d   1       1.181   2.964  -1.165  0.00  0.00     0.003 A 
ATOM      7  I   UNL d   1       1.715   1.542   2.900  0.00  0.00    -0.146 I 
ENDROOT
TORSDOF 0
ENDMDL
