MODEL 1
REMARK minimizedAffinity 0.273665875
REMARK minimizedRMSD -1
REMARK  0 active torsions:
REMARK  status: ('A' for Active; 'I' for Inactive)
ROOT
ATOM      1  C   UNL d   1       0.575   1.277  -0.996  0.00  0.00     0.023 A 
ATOM      2  C1  UNL d   1       0.664   1.911  -2.235  0.00  0.00     0.003 A 
ATOM      3  C2  UNL d   1       1.076   3.243  -2.311  0.00  0.00     0.048 A 
ATOM      4  C3  UNL d   1       1.398   3.935  -1.143  0.00  0.00     0.023 A 
ATOM      5  C4  UNL d   1       1.311   3.304   0.099  0.00  0.00     0.048 A 
ATOM      6  C5  UNL d   1       0.899   1.972   0.169  0.00  0.00     0.003 A 
ATOM      7  I   UNL d   1       2.011   5.918  -1.253  0.00  0.00    -0.146 I 
ENDROOT
TORSDOF 0
ENDMDL
