MODEL 1
REMARK minimizedAffinity -3.57042217
REMARK minimizedRMSD -1
REMARK  0 active torsions:
REMARK  status: ('A' for Active; 'I' for Inactive)
ROOT
ATOM      1  C   UNL d   1       0.923   0.227  -0.455  0.00  0.00     0.023 A 
ATOM      2  C1  UNL d   1       1.201   0.879  -1.656  0.00  0.00     0.003 A 
ATOM      3  C2  UNL d   1       1.499   2.243  -1.659  0.00  0.00     0.048 A 
ATOM      4  C3  UNL d   1       1.518   2.949  -0.457  0.00  0.00     0.023 A 
ATOM      5  C4  UNL d   1       1.242   2.301   0.748  0.00  0.00     0.048 A 
ATOM      6  C5  UNL d   1       0.943   0.937   0.746  0.00  0.00     0.003 A 
ATOM      7  I   UNL d   1       1.962   4.979  -0.459  0.00  0.00    -0.146 I 
ENDROOT
TORSDOF 0
ENDMDL
