MODEL 1
REMARK minimizedAffinity 4.66156101
REMARK minimizedRMSD -1
REMARK  0 active torsions:
REMARK  status: ('A' for Active; 'I' for Inactive)
ROOT
ATOM      1  C   UNL d   1       1.050   1.494  -0.550  0.00  0.00     0.023 A 
ATOM      2  C1  UNL d   1       1.159   1.957  -1.862  0.00  0.00     0.003 A 
ATOM      3  C2  UNL d   1       1.624   3.250  -2.111  0.00  0.00     0.048 A 
ATOM      4  C3  UNL d   1       1.979   4.074  -1.045  0.00  0.00     0.023 A 
ATOM      5  C4  UNL d   1       1.873   3.616   0.269  0.00  0.00     0.048 A 
ATOM      6  C5  UNL d   1       1.406   2.323   0.514  0.00  0.00     0.003 A 
ATOM      7  I   UNL d   1       2.672   5.999  -1.414  0.00  0.00    -0.146 I 
ENDROOT
TORSDOF 0
ENDMDL
