MODEL 1
REMARK minimizedAffinity 0.0682433397
REMARK minimizedRMSD -1
REMARK  0 active torsions:
REMARK  status: ('A' for Active; 'I' for Inactive)
ROOT
ATOM      1  C   UNL d   1       1.227   1.156  -0.346  0.00  0.00     0.023 A 
ATOM      2  C1  UNL d   1       1.477   1.674  -1.617  0.00  0.00     0.003 A 
ATOM      3  C2  UNL d   1       1.662   3.047  -1.789  0.00  0.00     0.048 A 
ATOM      4  C3  UNL d   1       1.597   3.897  -0.685  0.00  0.00     0.023 A 
ATOM      5  C4  UNL d   1       1.348   3.383   0.589  0.00  0.00     0.048 A 
ATOM      6  C5  UNL d   1       1.163   2.010   0.755  0.00  0.00     0.003 A 
ATOM      7  I   UNL d   1       1.872   5.941  -0.939  0.00  0.00    -0.146 I 
ENDROOT
TORSDOF 0
ENDMDL
