MODEL 1
REMARK minimizedAffinity -2.37252116
REMARK minimizedRMSD -1
REMARK  0 active torsions:
REMARK  status: ('A' for Active; 'I' for Inactive)
ROOT
ATOM      1  C   UNL d   1       0.748   0.782  -0.354  0.00  0.00     0.023 A 
ATOM      2  C1  UNL d   1       0.626   1.607   0.764  0.00  0.00     0.003 A 
ATOM      3  C2  UNL d   1       0.879   2.976   0.654  0.00  0.00     0.048 A 
ATOM      4  C3  UNL d   1       1.253   3.513  -0.577  0.00  0.00     0.023 A 
ATOM      5  C4  UNL d   1       1.375   2.691  -1.699  0.00  0.00     0.048 A 
ATOM      6  C5  UNL d   1       1.122   1.323  -1.584  0.00  0.00     0.003 A 
ATOM      7  I   UNL d   1       1.630   5.550  -0.743  0.00  0.00    -0.146 I 
ENDROOT
TORSDOF 0
ENDMDL
