MODEL 1
REMARK minimizedAffinity 6.83440065
REMARK minimizedRMSD -1
REMARK  0 active torsions:
REMARK  status: ('A' for Active; 'I' for Inactive)
ROOT
ATOM      1  C   UNL d   1       1.176   0.642  -2.040  0.00  0.00     0.023 A 
ATOM      2  C1  UNL d   1       0.379   1.604  -2.660  0.00  0.00     0.003 A 
ATOM      3  C2  UNL d   1       0.537   2.954  -2.342  0.00  0.00     0.048 A 
ATOM      4  C3  UNL d   1       1.495   3.336  -1.404  0.00  0.00     0.023 A 
ATOM      5  C4  UNL d   1       2.296   2.377  -0.781  0.00  0.00     0.048 A 
ATOM      6  C5  UNL d   1       2.133   1.028  -1.101  0.00  0.00     0.003 A 
ATOM      7  I   UNL d   1       1.732   5.345  -0.929  0.00  0.00    -0.146 I 
ENDROOT
TORSDOF 0
ENDMDL
