MODEL 1
REMARK minimizedAffinity -0.388973355
REMARK minimizedRMSD -1
REMARK  0 active torsions:
REMARK  status: ('A' for Active; 'I' for Inactive)
ROOT
ATOM      1  C   UNL d   1       1.188   0.065  -1.576  0.00  0.00     0.023 A 
ATOM      2  C1  UNL d   1       0.462   0.973  -2.347  0.00  0.00     0.003 A 
ATOM      3  C2  UNL d   1       0.541   2.341  -2.077  0.00  0.00     0.048 A 
ATOM      4  C3  UNL d   1       1.349   2.794  -1.034  0.00  0.00     0.023 A 
ATOM      5  C4  UNL d   1       2.077   1.890  -0.260  0.00  0.00     0.048 A 
ATOM      6  C5  UNL d   1       1.994   0.523  -0.534  0.00  0.00     0.003 A 
ATOM      7  I   UNL d   1       1.468   4.829  -0.630  0.00  0.00    -0.146 I 
ENDROOT
TORSDOF 0
ENDMDL
