MODEL 1
REMARK minimizedAffinity -1.97136796
REMARK minimizedRMSD -1
REMARK  0 active torsions:
REMARK  status: ('A' for Active; 'I' for Inactive)
ROOT
ATOM      1  C   UNL d   1       0.786   0.023  -0.507  0.00  0.00     0.023 A 
ATOM      2  C1  UNL d   1       0.605   0.733   0.681  0.00  0.00     0.003 A 
ATOM      3  C2  UNL d   1       0.744   2.122   0.694  0.00  0.00     0.048 A 
ATOM      4  C3  UNL d   1       1.062   2.796  -0.485  0.00  0.00     0.023 A 
ATOM      5  C4  UNL d   1       1.243   2.091  -1.676  0.00  0.00     0.048 A 
ATOM      6  C5  UNL d   1       1.105   0.702  -1.683  0.00  0.00     0.003 A 
ATOM      7  I   UNL d   1       1.268   4.864  -0.468  0.00  0.00    -0.146 I 
ENDROOT
TORSDOF 0
ENDMDL
