MODEL 1
REMARK minimizedAffinity -2.08601713
REMARK minimizedRMSD -1
REMARK  0 active torsions:
REMARK  status: ('A' for Active; 'I' for Inactive)
ROOT
ATOM      1  C   UNL d   1       1.799   4.896   0.283  0.00  0.00     0.023 A 
ATOM      2  C1  UNL d   1       1.559   3.764   1.063  0.00  0.00     0.003 A 
ATOM      3  C2  UNL d   1       1.399   2.517   0.456  0.00  0.00     0.048 A 
ATOM      4  C3  UNL d   1       1.482   2.408  -0.932  0.00  0.00     0.023 A 
ATOM      5  C4  UNL d   1       1.723   3.537  -1.716  0.00  0.00     0.048 A 
ATOM      6  C5  UNL d   1       1.881   4.782  -1.105  0.00  0.00     0.003 A 
ATOM      7  I   UNL d   1       1.245   0.553  -1.839  0.00  0.00    -0.146 I 
ENDROOT
TORSDOF 0
ENDMDL
