MODEL 1
REMARK minimizedAffinity 1.50509357
REMARK minimizedRMSD -1
REMARK  0 active torsions:
REMARK  status: ('A' for Active; 'I' for Inactive)
ROOT
ATOM      1  C   UNL d   1       0.752   1.304  -0.767  0.00  0.00     0.023 A 
ATOM      2  C1  UNL d   1       0.760   1.988   0.448  0.00  0.00     0.003 A 
ATOM      3  C2  UNL d   1       1.123   3.335   0.491  0.00  0.00     0.048 A 
ATOM      4  C3  UNL d   1       1.477   3.993  -0.687  0.00  0.00     0.023 A 
ATOM      5  C4  UNL d   1       1.470   3.313  -1.906  0.00  0.00     0.048 A 
ATOM      6  C5  UNL d   1       1.107   1.966  -1.943  0.00  0.00     0.003 A 
ATOM      7  I   UNL d   1       2.018   5.999  -0.626  0.00  0.00    -0.146 I 
ENDROOT
TORSDOF 0
ENDMDL
