MODEL 1
REMARK minimizedAffinity 5.60722733
REMARK minimizedRMSD -1
REMARK  0 active torsions:
REMARK  status: ('A' for Active; 'I' for Inactive)
ROOT
ATOM      1  C   UNL d   1       1.391   0.918  -0.664  0.00  0.00     0.023 A 
ATOM      2  C1  UNL d   1       1.529   1.577  -1.886  0.00  0.00     0.003 A 
ATOM      3  C2  UNL d   1       1.606   2.971  -1.924  0.00  0.00     0.048 A 
ATOM      4  C3  UNL d   1       1.546   3.700  -0.737  0.00  0.00     0.023 A 
ATOM      5  C4  UNL d   1       1.409   3.045   0.488  0.00  0.00     0.048 A 
ATOM      6  C5  UNL d   1       1.331   1.651   0.521  0.00  0.00     0.003 A 
ATOM      7  I   UNL d   1       1.662   5.774  -0.791  0.00  0.00    -0.146 I 
ENDROOT
TORSDOF 0
ENDMDL
