MODEL 1
REMARK minimizedAffinity -0.32674098
REMARK minimizedRMSD -1
REMARK  0 active torsions:
REMARK  status: ('A' for Active; 'I' for Inactive)
ROOT
ATOM      1  C   UNL d   1       1.184  -0.755  -2.310  0.00  0.00     0.023 A 
ATOM      2  C1  UNL d   1       1.386   0.625  -2.279  0.00  0.00     0.003 A 
ATOM      3  C2  UNL d   1       1.517   1.286  -1.056  0.00  0.00     0.048 A 
ATOM      4  C3  UNL d   1       1.448   0.560   0.133  0.00  0.00     0.023 A 
ATOM      5  C4  UNL d   1       1.247  -0.821   0.106  0.00  0.00     0.048 A 
ATOM      6  C5  UNL d   1       1.115  -1.477  -1.119  0.00  0.00     0.003 A 
ATOM      7  I   UNL d   1       1.644   1.540   1.955  0.00  0.00    -0.146 I 
ENDROOT
TORSDOF 0
ENDMDL
