MODEL 1
REMARK minimizedAffinity -3.01054716
REMARK minimizedRMSD -1
REMARK  0 active torsions:
REMARK  status: ('A' for Active; 'I' for Inactive)
ROOT
ATOM      1  C   UNL d   1       1.014   4.667   0.228  0.00  0.00     0.023 A 
ATOM      2  C1  UNL d   1       0.806   3.686   1.197  0.00  0.00     0.003 A 
ATOM      3  C2  UNL d   1       0.979   2.338   0.876  0.00  0.00     0.048 A 
ATOM      4  C3  UNL d   1       1.362   1.979  -0.416  0.00  0.00     0.023 A 
ATOM      5  C4  UNL d   1       1.572   2.957  -1.389  0.00  0.00     0.048 A 
ATOM      6  C5  UNL d   1       1.397   4.304  -1.063  0.00  0.00     0.003 A 
ATOM      7  I   UNL d   1       1.621  -0.027  -0.896  0.00  0.00    -0.146 I 
ENDROOT
TORSDOF 0
ENDMDL
