MODEL 1
REMARK minimizedAffinity -3.66363049
REMARK minimizedRMSD -1
REMARK  1 active torsions:
REMARK  status: ('A' for Active; 'I' for Inactive)
REMARK    1  A    between atoms: C1_2  and  C2_3 
ROOT
ATOM      1  C2  UNL d   1       3.645  -0.208  -1.838  0.00  0.00    -0.081 A 
ATOM      2  C3  UNL d   1       3.696  -1.373  -1.063  0.00  0.00     0.006 A 
ATOM      3  C4  UNL d   1       2.796  -1.564  -0.012  0.00  0.00     0.002 A 
ATOM      4  C5  UNL d   1       1.825  -0.599   0.275  0.00  0.00    -0.080 A 
ATOM      5  C6  UNL d   1       0.832  -0.806   1.380  0.00  0.00     0.076 C 
ATOM      6  C7  UNL d   1       1.785   0.573  -0.488  0.00  0.00     0.002 A 
ATOM      7  C8  UNL d   1       2.686   0.765  -1.538  0.00  0.00     0.006 A 
ENDROOT
BRANCH   1   8
ATOM      8  C1  UNL d   1       4.573  -0.027  -3.012  0.00  0.00     0.054 C 
ATOM      9  C   UNL d   1       5.999  -0.423  -2.656  0.00  0.00     0.018 C 
ENDBRANCH   1   8
TORSDOF 1
ENDMDL
