MODEL 1
REMARK minimizedAffinity -0.955123484
REMARK minimizedRMSD -1
REMARK  1 active torsions:
REMARK  status: ('A' for Active; 'I' for Inactive)
REMARK    1  A    between atoms: C1_2  and  C2_3 
ROOT
ATOM      1  C2  UNL d   1       3.901   0.073  -1.603  0.00  0.00    -0.081 A 
ATOM      2  C3  UNL d   1       3.709  -1.237  -1.147  0.00  0.00     0.006 A 
ATOM      3  C4  UNL d   1       2.617  -1.552  -0.335  0.00  0.00     0.002 A 
ATOM      4  C5  UNL d   1       1.694  -0.564   0.027  0.00  0.00    -0.080 A 
ATOM      5  C6  UNL d   1       0.500  -0.895   0.873  0.00  0.00     0.076 C 
ATOM      6  C7  UNL d   1       1.895   0.748  -0.414  0.00  0.00     0.002 A 
ATOM      7  C8  UNL d   1       2.987   1.063  -1.225  0.00  0.00     0.006 A 
ENDROOT
BRANCH   1   8
ATOM      8  C1  UNL d   1       5.042   0.401  -2.531  0.00  0.00     0.054 C 
ATOM      9  C   UNL d   1       6.000  -0.773  -2.669  0.00  0.00     0.018 C 
ENDBRANCH   1   8
TORSDOF 1
ENDMDL
