MODEL 1
REMARK minimizedAffinity -0.741852522
REMARK minimizedRMSD -1
REMARK  1 active torsions:
REMARK  status: ('A' for Active; 'I' for Inactive)
REMARK    1  A    between atoms: C1_2  and  C2_3 
ROOT
ATOM      1  C2  UNL d   1       0.481  -0.628   1.269  0.00  0.00    -0.081 A 
ATOM      2  C3  UNL d   1       1.294  -1.767   1.231  0.00  0.00     0.006 A 
ATOM      3  C4  UNL d   1       2.356  -1.850   0.326  0.00  0.00     0.002 A 
ATOM      4  C5  UNL d   1       2.627  -0.792  -0.549  0.00  0.00    -0.080 A 
ATOM      5  C6  UNL d   1       3.782  -0.856  -1.503  0.00  0.00     0.076 C 
ATOM      6  C7  UNL d   1       1.804   0.338  -0.523  0.00  0.00     0.002 A 
ATOM      7  C8  UNL d   1       0.742   0.421   0.380  0.00  0.00     0.006 A 
ENDROOT
BRANCH   1   8
ATOM      8  C1  UNL d   1      -0.624  -0.509   2.286  0.00  0.00     0.054 C 
ATOM      9  C   UNL d   1      -1.779  -1.446   1.961  0.00  0.00     0.018 C 
ENDBRANCH   1   8
TORSDOF 1
ENDMDL
