MODEL 1
REMARK minimizedAffinity -1.52251101
REMARK minimizedRMSD -1
REMARK  1 active torsions:
REMARK  status: ('A' for Active; 'I' for Inactive)
REMARK    1  A    between atoms: C1_2  and  C2_3 
ROOT
ATOM      1  C2  UNL d   1       3.400  -0.250  -1.444  0.00  0.00    -0.081 A 
ATOM      2  C3  UNL d   1       2.771   0.555  -0.487  0.00  0.00     0.006 A 
ATOM      3  C4  UNL d   1       1.748   0.038   0.312  0.00  0.00     0.002 A 
ATOM      4  C5  UNL d   1       1.344  -1.294   0.173  0.00  0.00    -0.080 A 
ATOM      5  C6  UNL d   1       0.268  -1.870   1.045  0.00  0.00     0.076 C 
ATOM      6  C7  UNL d   1       1.960  -2.094  -0.795  0.00  0.00     0.002 A 
ATOM      7  C8  UNL d   1       2.982  -1.577  -1.595  0.00  0.00     0.006 A 
ENDROOT
BRANCH   1   8
ATOM      8  C1  UNL d   1       4.546   0.286  -2.263  0.00  0.00     0.054 C 
ATOM      9  C   UNL d   1       5.275  -0.833  -2.993  0.00  0.00     0.018 C 
ENDBRANCH   1   8
TORSDOF 1
ENDMDL
