MODEL 1
REMARK minimizedAffinity 5.5911088
REMARK minimizedRMSD -1
REMARK  1 active torsions:
REMARK  status: ('A' for Active; 'I' for Inactive)
REMARK    1  A    between atoms: C1_2  and  C2_3 
ROOT
ATOM      1  C2  UNL d   1       2.880  -1.237  -1.233  0.00  0.00    -0.081 A 
ATOM      2  C3  UNL d   1       3.002   0.109  -0.867  0.00  0.00     0.006 A 
ATOM      3  C4  UNL d   1       2.151   0.661   0.093  0.00  0.00     0.002 A 
ATOM      4  C5  UNL d   1       1.170  -0.124   0.708  0.00  0.00    -0.080 A 
ATOM      5  C6  UNL d   1       0.270   0.449   1.762  0.00  0.00     0.076 C 
ATOM      6  C7  UNL d   1       1.037  -1.464   0.330  0.00  0.00     0.002 A 
ATOM      7  C8  UNL d   1       1.887  -2.017  -0.630  0.00  0.00     0.006 A 
ENDROOT
BRANCH   1   8
ATOM      8  C1  UNL d   1       3.839  -1.853  -2.220  0.00  0.00     0.054 C 
ATOM      9  C   UNL d   1       4.944  -0.878  -2.600  0.00  0.00     0.018 C 
ENDBRANCH   1   8
TORSDOF 1
ENDMDL
