MODEL 1
REMARK minimizedAffinity -2.59573126
REMARK minimizedRMSD -1
REMARK  1 active torsions:
REMARK  status: ('A' for Active; 'I' for Inactive)
REMARK    1  A    between atoms: C1_2  and  C2_3 
ROOT
ATOM      1  C2  UNL d   1      -0.065  -1.174   1.209  0.00  0.00    -0.081 A 
ATOM      2  C3  UNL d   1       0.615  -2.394   1.302  0.00  0.00     0.006 A 
ATOM      3  C4  UNL d   1       1.846  -2.569   0.667  0.00  0.00     0.002 A 
ATOM      4  C5  UNL d   1       2.422  -1.525  -0.065  0.00  0.00    -0.080 A 
ATOM      5  C6  UNL d   1       3.758  -1.690  -0.727  0.00  0.00     0.076 C 
ATOM      6  C7  UNL d   1       1.735  -0.312  -0.173  0.00  0.00     0.002 A 
ATOM      7  C8  UNL d   1       0.503  -0.136   0.462  0.00  0.00     0.006 A 
ENDROOT
BRANCH   1   8
ATOM      8  C1  UNL d   1      -1.362  -0.960   1.947  0.00  0.00     0.054 C 
ATOM      9  C   UNL d   1      -2.510  -1.700   1.274  0.00  0.00     0.018 C 
ENDBRANCH   1   8
TORSDOF 1
ENDMDL
