MODEL 1
REMARK minimizedAffinity -2.87269807
REMARK minimizedRMSD -1
REMARK  1 active torsions:
REMARK  status: ('A' for Active; 'I' for Inactive)
REMARK    1  A    between atoms: C1_2  and  C2_3 
ROOT
ATOM      1  C2  UNL d   1       3.328  -0.219  -1.509  0.00  0.00    -0.081 A 
ATOM      2  C3  UNL d   1       2.198   0.374  -0.935  0.00  0.00     0.006 A 
ATOM      3  C4  UNL d   1       1.376  -0.355  -0.072  0.00  0.00     0.002 A 
ATOM      4  C5  UNL d   1       1.675  -1.687   0.236  0.00  0.00    -0.080 A 
ATOM      5  C6  UNL d   1       0.819  -2.472   1.184  0.00  0.00     0.076 C 
ATOM      6  C7  UNL d   1       2.795  -2.285  -0.352  0.00  0.00     0.002 A 
ATOM      7  C8  UNL d   1       3.616  -1.556  -1.215  0.00  0.00     0.006 A 
ENDROOT
BRANCH   1   8
ATOM      8  C1  UNL d   1       4.252   0.584  -2.389  0.00  0.00     0.054 C 
ATOM      9  C   UNL d   1       5.470  -0.230  -2.801  0.00  0.00     0.018 C 
ENDBRANCH   1   8
TORSDOF 1
ENDMDL
