MODEL 1
REMARK minimizedAffinity -1.15251362
REMARK minimizedRMSD -1
REMARK  1 active torsions:
REMARK  status: ('A' for Active; 'I' for Inactive)
REMARK    1  A    between atoms: C1_2  and  C2_3 
ROOT
ATOM      1  C2  UNL d   1       1.608  -1.672   0.109  0.00  0.00    -0.081 A 
ATOM      2  C3  UNL d   1       1.313  -0.310   0.244  0.00  0.00     0.006 A 
ATOM      3  C4  UNL d   1       2.175   0.657  -0.279  0.00  0.00     0.002 A 
ATOM      4  C5  UNL d   1       3.342   0.279  -0.952  0.00  0.00    -0.080 A 
ATOM      5  C6  UNL d   1       4.260   1.306  -1.545  0.00  0.00     0.076 C 
ATOM      6  C7  UNL d   1       3.645  -1.082  -1.073  0.00  0.00     0.002 A 
ATOM      7  C8  UNL d   1       2.784  -2.049  -0.549  0.00  0.00     0.006 A 
ENDROOT
BRANCH   1   8
ATOM      8  C1  UNL d   1       0.649  -2.718   0.615  0.00  0.00     0.054 C 
ATOM      9  C   UNL d   1       1.361  -4.034   0.894  0.00  0.00     0.018 C 
ENDBRANCH   1   8
TORSDOF 1
ENDMDL
