MODEL 1
REMARK minimizedAffinity -3.25545263
REMARK minimizedRMSD -1
REMARK  1 active torsions:
REMARK  status: ('A' for Active; 'I' for Inactive)
REMARK    1  A    between atoms: C1_2  and  C2_3 
ROOT
ATOM      1  C2  UNL d   1       3.519  -0.526  -1.320  0.00  0.00    -0.081 A 
ATOM      2  C3  UNL d   1       2.888   0.699  -1.074  0.00  0.00     0.006 A 
ATOM      3  C4  UNL d   1       1.707   0.751  -0.331  0.00  0.00     0.002 A 
ATOM      4  C5  UNL d   1       1.142  -0.420   0.186  0.00  0.00    -0.080 A 
ATOM      5  C6  UNL d   1      -0.110  -0.376   1.012  0.00  0.00     0.076 C 
ATOM      6  C7  UNL d   1       1.763  -1.646  -0.074  0.00  0.00     0.002 A 
ATOM      7  C8  UNL d   1       2.944  -1.698  -0.818  0.00  0.00     0.006 A 
ENDROOT
BRANCH   1   8
ATOM      8  C1  UNL d   1       4.828  -0.578  -2.067  0.00  0.00     0.054 C 
ATOM      9  C   UNL d   1       5.254   0.807  -2.533  0.00  0.00     0.018 C 
ENDBRANCH   1   8
TORSDOF 1
ENDMDL
