MODEL 1
REMARK minimizedAffinity -4.14782476
REMARK minimizedRMSD -1
REMARK  1 active torsions:
REMARK  status: ('A' for Active; 'I' for Inactive)
REMARK    1  A    between atoms: C1_2  and  C2_3 
ROOT
ATOM      1  C2  UNL d   1       3.841   0.211  -1.769  0.00  0.00    -0.081 A 
ATOM      2  C3  UNL d   1       3.711  -1.117  -1.343  0.00  0.00     0.006 A 
ATOM      3  C4  UNL d   1       2.627  -1.505  -0.553  0.00  0.00     0.002 A 
ATOM      4  C5  UNL d   1       1.651  -0.574  -0.181  0.00  0.00    -0.080 A 
ATOM      5  C6  UNL d   1       0.466  -0.984   0.642  0.00  0.00     0.076 C 
ATOM      6  C7  UNL d   1       1.789   0.756  -0.591  0.00  0.00     0.002 A 
ATOM      7  C8  UNL d   1       2.873   1.145  -1.381  0.00  0.00     0.006 A 
ENDROOT
BRANCH   1   8
ATOM      8  C1  UNL d   1       4.974   0.618  -2.675  0.00  0.00     0.054 C 
ATOM      9  C   UNL d   1       6.000  -0.498  -2.814  0.00  0.00     0.018 C 
ENDBRANCH   1   8
TORSDOF 1
ENDMDL
