MODEL 1
REMARK minimizedAffinity -3.01980376
REMARK minimizedRMSD -1
REMARK  1 active torsions:
REMARK  status: ('A' for Active; 'I' for Inactive)
REMARK    1  A    between atoms: C1_2  and  C2_3 
ROOT
ATOM      1  C2  UNL d   1       2.392  -0.177  -0.283  0.00  0.00    -0.081 A 
ATOM      2  C3  UNL d   1       3.086  -1.346  -0.619  0.00  0.00     0.006 A 
ATOM      3  C4  UNL d   1       4.132  -1.308  -1.544  0.00  0.00     0.002 A 
ATOM      4  C5  UNL d   1       4.506  -0.100  -2.143  0.00  0.00    -0.080 A 
ATOM      5  C6  UNL d   1       5.646  -0.040  -3.115  0.00  0.00     0.076 C 
ATOM      6  C7  UNL d   1       3.801   1.065  -1.821  0.00  0.00     0.002 A 
ATOM      7  C8  UNL d   1       2.755   1.027  -0.896  0.00  0.00     0.006 A 
ENDROOT
BRANCH   1   8
ATOM      8  C1  UNL d   1       1.307  -0.204   0.762  0.00  0.00     0.054 C 
ATOM      9  C   UNL d   1       0.942  -1.632   1.145  0.00  0.00     0.018 C 
ENDBRANCH   1   8
TORSDOF 1
ENDMDL
