MODEL 1
REMARK minimizedAffinity -4.04599142
REMARK minimizedRMSD -1
REMARK  0 active torsions:
REMARK  status: ('A' for Active; 'I' for Inactive)
ROOT
ATOM      1  O1  BZF d   1      -0.772  -1.146  -0.836  0.00  0.00    -0.204 OA
ATOM      2  C2  BZF d   1       0.029  -0.485  -1.747  0.00  0.00     0.174 A 
ATOM      3  C3  BZF d   1       0.847   0.385  -1.120  0.00  0.00    -0.012 A 
ATOM      4  C3A BZF d   1       0.602   0.194   0.276  0.00  0.00    -0.107 A 
ATOM      5  C4  BZF d   1       1.121   0.758   1.407  0.00  0.00     0.055 A 
ATOM      6  C5  BZF d   1       0.613   0.401   2.616  0.00  0.00    -0.016 A 
ATOM      7  C6  BZF d   1      -0.416  -0.510   2.731  0.00  0.00     0.022 A 
ATOM      8  C7  BZF d   1      -0.960  -1.100   1.638  0.00  0.00     0.029 A 
ATOM      9  C7A BZF d   1      -0.426  -0.766   0.417  0.00  0.00     0.058 A 
ENDROOT
TORSDOF 0
ENDMDL
