MODEL 1
REMARK minimizedAffinity -1.23892367
REMARK minimizedRMSD -1
REMARK  0 active torsions:
REMARK  status: ('A' for Active; 'I' for Inactive)
ROOT
ATOM      1  O1  BZF d   1      -1.853   1.042  -1.485  0.00  0.00    -0.204 OA
ATOM      2  C2  BZF d   1      -3.140   0.902  -1.004  0.00  0.00     0.174 A 
ATOM      3  C3  BZF d   1      -3.141   0.257   0.180  0.00  0.00    -0.012 A 
ATOM      4  C3A BZF d   1      -1.761   0.058   0.501  0.00  0.00    -0.107 A 
ATOM      5  C4  BZF d   1      -1.116  -0.514   1.561  0.00  0.00     0.055 A 
ATOM      6  C5  BZF d   1       0.239  -0.614   1.534  0.00  0.00    -0.016 A 
ATOM      7  C6  BZF d   1       0.979  -0.158   0.463  0.00  0.00     0.022 A 
ATOM      8  C7  BZF d   1       0.385   0.421  -0.609  0.00  0.00     0.029 A 
ATOM      9  C7A BZF d   1      -0.982   0.553  -0.570  0.00  0.00     0.058 A 
ENDROOT
TORSDOF 0
ENDMDL
