MODEL 1
REMARK minimizedAffinity 4.14334106
REMARK minimizedRMSD -1
REMARK  0 active torsions:
REMARK  status: ('A' for Active; 'I' for Inactive)
ROOT
ATOM      1  O1  BZF d   1      -3.744  -0.521   2.971  0.00  0.00    -0.204 OA
ATOM      2  C2  BZF d   1      -4.239   0.497   2.178  0.00  0.00     0.174 A 
ATOM      3  C3  BZF d   1      -3.235   1.251   1.686  0.00  0.00    -0.012 A 
ATOM      4  C3A BZF d   1      -2.033   0.613   2.129  0.00  0.00    -0.107 A 
ATOM      5  C4  BZF d   1      -0.706   0.881   1.949  0.00  0.00     0.055 A 
ATOM      6  C5  BZF d   1       0.216   0.105   2.577  0.00  0.00    -0.016 A 
ATOM      7  C6  BZF d   1      -0.153  -0.943   3.395  0.00  0.00     0.022 A 
ATOM      8  C7  BZF d   1      -1.457  -1.251   3.600  0.00  0.00     0.029 A 
ATOM      9  C7A BZF d   1      -2.390  -0.489   2.941  0.00  0.00     0.058 A 
ENDROOT
TORSDOF 0
ENDMDL
