MODEL 1
REMARK minimizedAffinity 6.79153252
REMARK minimizedRMSD -1
REMARK  0 active torsions:
REMARK  status: ('A' for Active; 'I' for Inactive)
ROOT
ATOM      1  O1  BZF d   1      -3.286   0.800  -0.679  0.00  0.00    -0.204 OA
ATOM      2  C2  BZF d   1      -2.022   0.585  -1.192  0.00  0.00     0.174 A 
ATOM      3  C3  BZF d   1      -1.130   0.387  -0.200  0.00  0.00    -0.012 A 
ATOM      4  C3A BZF d   1      -1.900   0.393   1.005  0.00  0.00    -0.107 A 
ATOM      5  C4  BZF d   1      -1.582   0.231   2.323  0.00  0.00     0.055 A 
ATOM      6  C5  BZF d   1      -2.558   0.366   3.260  0.00  0.00    -0.016 A 
ATOM      7  C6  BZF d   1      -3.859   0.668   2.914  0.00  0.00     0.022 A 
ATOM      8  C7  BZF d   1      -4.223   0.833   1.619  0.00  0.00     0.029 A 
ATOM      9  C7A BZF d   1      -3.246   0.665   0.669  0.00  0.00     0.058 A 
ENDROOT
TORSDOF 0
ENDMDL
