MODEL 1
REMARK minimizedAffinity 10.4092951
REMARK minimizedRMSD -1
REMARK  0 active torsions:
REMARK  status: ('A' for Active; 'I' for Inactive)
ROOT
ATOM      1  O1  BZF d   1      -0.128   0.287   1.133  0.00  0.00    -0.204 OA
ATOM      2  C2  BZF d   1       0.396   0.397   2.407  0.00  0.00     0.174 A 
ATOM      3  C3  BZF d   1      -0.588   0.500   3.322  0.00  0.00    -0.012 A 
ATOM      4  C3A BZF d   1      -1.805   0.359   2.583  0.00  0.00    -0.107 A 
ATOM      5  C4  BZF d   1      -3.124   0.357   2.937  0.00  0.00     0.055 A 
ATOM      6  C5  BZF d   1      -4.069   0.270   1.965  0.00  0.00    -0.016 A 
ATOM      7  C6  BZF d   1      -3.732   0.190   0.630  0.00  0.00     0.022 A 
ATOM      8  C7  BZF d   1      -2.437   0.183   0.230  0.00  0.00     0.029 A 
ATOM      9  C7A BZF d   1      -1.479   0.237   1.213  0.00  0.00     0.058 A 
ENDROOT
TORSDOF 0
ENDMDL
