MODEL 1
REMARK minimizedAffinity 6.60412788
REMARK minimizedRMSD -1
REMARK  0 active torsions:
REMARK  status: ('A' for Active; 'I' for Inactive)
ROOT
ATOM      1  O1  BZF d   1      -3.238   0.588  -0.747  0.00  0.00    -0.204 OA
ATOM      2  C2  BZF d   1      -2.054   0.164  -1.317  0.00  0.00     0.174 A 
ATOM      3  C3  BZF d   1      -1.192  -0.261  -0.371  0.00  0.00    -0.012 A 
ATOM      4  C3A BZF d   1      -1.915  -0.178   0.861  0.00  0.00    -0.107 A 
ATOM      5  C4  BZF d   1      -1.601  -0.477   2.156  0.00  0.00     0.055 A 
ATOM      6  C5  BZF d   1      -2.508  -0.212   3.133  0.00  0.00    -0.016 A 
ATOM      7  C6  BZF d   1      -3.733   0.356   2.852  0.00  0.00     0.022 A 
ATOM      8  C7  BZF d   1      -4.092   0.665   1.582  0.00  0.00     0.029 A 
ATOM      9  C7A BZF d   1      -3.191   0.368   0.589  0.00  0.00     0.058 A 
ENDROOT
TORSDOF 0
ENDMDL
