MODEL 1
REMARK minimizedAffinity 7.17583609
REMARK minimizedRMSD -1
REMARK  0 active torsions:
REMARK  status: ('A' for Active; 'I' for Inactive)
ROOT
ATOM      1  O1  BZF d   1      -0.614  -0.011   1.239  0.00  0.00    -0.204 OA
ATOM      2  C2  BZF d   1      -1.349  -0.035   2.409  0.00  0.00     0.174 A 
ATOM      3  C3  BZF d   1      -2.648   0.232   2.163  0.00  0.00    -0.012 A 
ATOM      4  C3A BZF d   1      -2.747   0.343   0.740  0.00  0.00    -0.107 A 
ATOM      5  C4  BZF d   1      -3.786   0.584  -0.112  0.00  0.00     0.055 A 
ATOM      6  C5  BZF d   1      -3.534   0.704  -1.443  0.00  0.00    -0.016 A 
ATOM      7  C6  BZF d   1      -2.257   0.594  -1.953  0.00  0.00     0.022 A 
ATOM      8  C7  BZF d   1      -1.196   0.350  -1.147  0.00  0.00     0.029 A 
ATOM      9  C7A BZF d   1      -1.451   0.196   0.194  0.00  0.00     0.058 A 
ENDROOT
TORSDOF 0
ENDMDL
