MODEL 1
REMARK minimizedAffinity 7.07545376
REMARK minimizedRMSD -1
REMARK  0 active torsions:
REMARK  status: ('A' for Active; 'I' for Inactive)
ROOT
ATOM      1  O1  BZF d   1      -2.291  -0.623   2.715  0.00  0.00    -0.204 OA
ATOM      2  C2  BZF d   1      -1.226   0.166   2.325  0.00  0.00     0.174 A 
ATOM      3  C3  BZF d   1      -1.590   1.003   1.332  0.00  0.00    -0.012 A 
ATOM      4  C3A BZF d   1      -2.992   0.784   1.149  0.00  0.00    -0.107 A 
ATOM      5  C4  BZF d   1      -3.927   1.330   0.317  0.00  0.00     0.055 A 
ATOM      6  C5  BZF d   1      -5.196   0.843   0.339  0.00  0.00    -0.016 A 
ATOM      7  C6  BZF d   1      -5.562  -0.192   1.176  0.00  0.00     0.022 A 
ATOM      8  C7  BZF d   1      -4.671  -0.762   2.023  0.00  0.00     0.029 A 
ATOM      9  C7A BZF d   1      -3.396  -0.249   2.026  0.00  0.00     0.058 A 
ENDROOT
TORSDOF 0
ENDMDL
