MODEL 1
REMARK minimizedAffinity 4.98566961
REMARK minimizedRMSD -1
REMARK  0 active torsions:
REMARK  status: ('A' for Active; 'I' for Inactive)
ROOT
ATOM      1  O1  BZF d   1       0.598   1.454  -0.324  0.00  0.00    -0.204 OA
ATOM      2  C2  BZF d   1       1.495   2.447  -0.667  0.00  0.00     0.174 A 
ATOM      3  C3  BZF d   1       2.043   2.998   0.435  0.00  0.00    -0.012 A 
ATOM      4  C3A BZF d   1       1.520   2.244   1.532  0.00  0.00    -0.107 A 
ATOM      5  C4  BZF d   1       1.705   2.303   2.884  0.00  0.00     0.055 A 
ATOM      6  C5  BZF d   1       0.989   1.470   3.685  0.00  0.00    -0.016 A 
ATOM      7  C6  BZF d   1       0.078   0.572   3.169  0.00  0.00     0.022 A 
ATOM      8  C7  BZF d   1      -0.135   0.473   1.834  0.00  0.00     0.029 A 
ATOM      9  C7A BZF d   1       0.610   1.291   1.020  0.00  0.00     0.058 A 
ENDROOT
TORSDOF 0
ENDMDL
