MODEL 1
REMARK minimizedAffinity -3.4145925
REMARK minimizedRMSD -1
REMARK  0 active torsions:
REMARK  status: ('A' for Active; 'I' for Inactive)
ROOT
ATOM      1  O1  BZF d   1      -1.140   1.069  -1.068  0.00  0.00    -0.204 OA
ATOM      2  C2  BZF d   1      -0.481   0.965  -2.278  0.00  0.00     0.174 A 
ATOM      3  C3  BZF d   1       0.803   0.598  -2.093  0.00  0.00    -0.012 A 
ATOM      4  C3A BZF d   1       0.932   0.375  -0.686  0.00  0.00    -0.107 A 
ATOM      5  C4  BZF d   1       1.968  -0.024   0.110  0.00  0.00     0.055 A 
ATOM      6  C5  BZF d   1       1.786  -0.073   1.456  0.00  0.00    -0.016 A 
ATOM      7  C6  BZF d   1       0.584   0.273   2.039  0.00  0.00     0.022 A 
ATOM      8  C7  BZF d   1      -0.474   0.670   1.290  0.00  0.00     0.029 A 
ATOM      9  C7A BZF d   1      -0.302   0.689  -0.073  0.00  0.00     0.058 A 
ENDROOT
TORSDOF 0
ENDMDL
