MODEL 1
REMARK minimizedAffinity 8.25147533
REMARK minimizedRMSD -1
REMARK  0 active torsions:
REMARK  status: ('A' for Active; 'I' for Inactive)
ROOT
ATOM      1  O1  BZF d   1      -2.034   1.703   2.266  0.00  0.00    -0.204 OA
ATOM      2  C2  BZF d   1      -3.128   0.862   2.210  0.00  0.00     0.174 A 
ATOM      3  C3  BZF d   1      -2.746  -0.428   2.297  0.00  0.00    -0.012 A 
ATOM      4  C3A BZF d   1      -1.331  -0.388   2.507  0.00  0.00    -0.107 A 
ATOM      5  C4  BZF d   1      -0.381  -1.352   2.687  0.00  0.00     0.055 A 
ATOM      6  C5  BZF d   1       0.923  -0.983   2.792  0.00  0.00    -0.016 A 
ATOM      7  C6  BZF d   1       1.312   0.339   2.717  0.00  0.00     0.022 A 
ATOM      8  C7  BZF d   1       0.404   1.331   2.545  0.00  0.00     0.029 A 
ATOM      9  C7A BZF d   1      -0.917   0.964   2.472  0.00  0.00     0.058 A 
ENDROOT
TORSDOF 0
ENDMDL
