MODEL 1
REMARK minimizedAffinity 0.425973862
REMARK minimizedRMSD -1
REMARK  0 active torsions:
REMARK  status: ('A' for Active; 'I' for Inactive)
ROOT
ATOM      1  O1  BZF d   1      -0.820   0.181   4.354  0.00  0.00    -0.204 OA
ATOM      2  C2  BZF d   1      -2.138  -0.223   4.263  0.00  0.00     0.174 A 
ATOM      3  C3  BZF d   1      -2.574  -0.151   2.989  0.00  0.00    -0.012 A 
ATOM      4  C3A BZF d   1      -1.431   0.239   2.222  0.00  0.00    -0.107 A 
ATOM      5  C4  BZF d   1      -1.226   0.462   0.890  0.00  0.00     0.055 A 
ATOM      6  C5  BZF d   1      -0.010   0.904   0.474  0.00  0.00    -0.016 A 
ATOM      7  C6  BZF d   1       1.020   1.138   1.361  0.00  0.00     0.022 A 
ATOM      8  C7  BZF d   1       0.866   0.926   2.691  0.00  0.00     0.029 A 
ATOM      9  C7A BZF d   1      -0.352   0.448   3.111  0.00  0.00     0.058 A 
ENDROOT
TORSDOF 0
ENDMDL
