MODEL 1
REMARK minimizedAffinity 3.19312477
REMARK minimizedRMSD -1
REMARK  0 active torsions:
REMARK  status: ('A' for Active; 'I' for Inactive)
ROOT
ATOM      1  O1  BZF d   1      -1.126   0.739  -0.031  0.00  0.00    -0.204 OA
ATOM      2  C2  BZF d   1      -0.600   0.992  -1.283  0.00  0.00     0.174 A 
ATOM      3  C3  BZF d   1       0.745   1.074  -1.230  0.00  0.00    -0.012 A 
ATOM      4  C3A BZF d   1       1.087   0.767   0.125  0.00  0.00    -0.107 A 
ATOM      5  C4  BZF d   1       2.273   0.673   0.796  0.00  0.00     0.055 A 
ATOM      6  C5  BZF d   1       2.259   0.428   2.132  0.00  0.00    -0.016 A 
ATOM      7  C6  BZF d   1       1.078   0.277   2.830  0.00  0.00     0.022 A 
ATOM      8  C7  BZF d   1      -0.123   0.358   2.207  0.00  0.00     0.029 A 
ATOM      9  C7A BZF d   1      -0.111   0.573   0.851  0.00  0.00     0.058 A 
ENDROOT
TORSDOF 0
ENDMDL
