MODEL 1
REMARK minimizedAffinity 4.6607666
REMARK minimizedRMSD -1
REMARK  0 active torsions:
REMARK  status: ('A' for Active; 'I' for Inactive)
ROOT
ATOM      1  O1  BZF d   1       1.851   0.504   2.624  0.00  0.00    -0.204 OA
ATOM      2  C2  BZF d   1       2.838   0.056   1.769  0.00  0.00     0.174 A 
ATOM      3  C3  BZF d   1       2.344  -0.143   0.530  0.00  0.00    -0.012 A 
ATOM      4  C3A BZF d   1       0.982   0.289   0.594  0.00  0.00    -0.107 A 
ATOM      5  C4  BZF d   1      -0.028   0.353  -0.323  0.00  0.00     0.055 A 
ATOM      6  C5  BZF d   1      -1.262   0.756   0.079  0.00  0.00    -0.016 A 
ATOM      7  C6  BZF d   1      -1.523   1.096   1.390  0.00  0.00     0.022 A 
ATOM      8  C7  BZF d   1      -0.552   1.053   2.335  0.00  0.00     0.029 A 
ATOM      9  C7A BZF d   1       0.704   0.679   1.925  0.00  0.00     0.058 A 
ENDROOT
TORSDOF 0
ENDMDL
