MODEL 1
REMARK minimizedAffinity -0.598700583
REMARK minimizedRMSD -1
REMARK  0 active torsions:
REMARK  status: ('A' for Active; 'I' for Inactive)
ROOT
ATOM      1  O1  BZF d   1      -1.340   0.718   1.992  0.00  0.00    -0.204 OA
ATOM      2  C2  BZF d   1      -0.653   0.612   3.186  0.00  0.00     0.174 A 
ATOM      3  C3  BZF d   1       0.646   0.325   2.967  0.00  0.00    -0.012 A 
ATOM      4  C3A BZF d   1       0.800   0.338   1.545  0.00  0.00    -0.107 A 
ATOM      5  C4  BZF d   1       1.865   0.140   0.713  0.00  0.00     0.055 A 
ATOM      6  C5  BZF d   1       1.665   0.149  -0.631  0.00  0.00    -0.016 A 
ATOM      7  C6  BZF d   1       0.414   0.348  -1.177  0.00  0.00     0.022 A 
ATOM      8  C7  BZF d   1      -0.672   0.554  -0.393  0.00  0.00     0.029 A 
ATOM      9  C7A BZF d   1      -0.468   0.578   0.965  0.00  0.00     0.058 A 
ENDROOT
TORSDOF 0
ENDMDL
