MODEL 1
REMARK minimizedAffinity -2.46927762
REMARK minimizedRMSD -1
REMARK  0 active torsions:
REMARK  status: ('A' for Active; 'I' for Inactive)
ROOT
ATOM      1  O1  BZF d   1      -0.019   0.005   2.929  0.00  0.00    -0.204 OA
ATOM      2  C2  BZF d   1      -0.815  -1.067   3.285  0.00  0.00     0.174 A 
ATOM      3  C3  BZF d   1      -1.188  -1.769   2.196  0.00  0.00    -0.012 A 
ATOM      4  C3A BZF d   1      -0.512  -1.148   1.098  0.00  0.00    -0.107 A 
ATOM      5  C4  BZF d   1      -0.469  -1.402  -0.243  0.00  0.00     0.055 A 
ATOM      6  C5  BZF d   1       0.230  -0.563  -1.052  0.00  0.00    -0.016 A 
ATOM      7  C6  BZF d   1       0.891   0.541  -0.556  0.00  0.00     0.022 A 
ATOM      8  C7  BZF d   1       0.882   0.831   0.768  0.00  0.00     0.029 A 
ATOM      9  C7A BZF d   1       0.204  -0.033   1.593  0.00  0.00     0.058 A 
ENDROOT
TORSDOF 0
ENDMDL
