MODEL 1
REMARK minimizedAffinity -0.85870415
REMARK minimizedRMSD -1
REMARK  0 active torsions:
REMARK  status: ('A' for Active; 'I' for Inactive)
ROOT
ATOM      1  O1  BZF d   1       0.332   0.026   3.472  0.00  0.00    -0.204 OA
ATOM      2  C2  BZF d   1      -0.681  -0.899   3.638  0.00  0.00     0.174 A 
ATOM      3  C3  BZF d   1      -1.230  -1.226   2.451  0.00  0.00    -0.012 A 
ATOM      4  C3A BZF d   1      -0.454  -0.527   1.472  0.00  0.00    -0.107 A 
ATOM      5  C4  BZF d   1      -0.501  -0.462   0.109  0.00  0.00     0.055 A 
ATOM      6  C5  BZF d   1       0.353   0.371  -0.542  0.00  0.00    -0.016 A 
ATOM      7  C6  BZF d   1       1.261   1.156   0.138  0.00  0.00     0.022 A 
ATOM      8  C7  BZF d   1       1.348   1.121   1.490  0.00  0.00     0.029 A 
ATOM      9  C7A BZF d   1       0.509   0.256   2.148  0.00  0.00     0.058 A 
ENDROOT
TORSDOF 0
ENDMDL
