MODEL 1
REMARK minimizedAffinity -1.25360334
REMARK minimizedRMSD -1
REMARK  1 active torsions:
REMARK  status: ('A' for Active; 'I' for Inactive)
REMARK    1  A    between atoms: C1_2  and  C2_3 
ROOT
ATOM      1  C2  UNL d   1      -1.840  -1.977   0.179  0.00  0.00    -0.077 A 
ATOM      2  C3  UNL d   1      -2.558  -2.520  -0.896  0.00  0.00     0.002 A 
ATOM      3  C4  UNL d   1      -1.991  -3.516  -1.693  0.00  0.00     0.002 A 
ATOM      4  C5  UNL d   1      -0.706  -3.980  -1.422  0.00  0.00    -0.004 A 
ATOM      5  C6  UNL d   1       0.018  -3.445  -0.357  0.00  0.00     0.002 A 
ATOM      6  C7  UNL d   1      -0.547  -2.449   0.441  0.00  0.00     0.002 A 
ENDROOT
BRANCH   1   7
ATOM      7  C1  UNL d   1      -2.469  -0.938   1.070  0.00  0.00     0.055 C 
ATOM      8  C   UNL d   1      -3.366  -1.579   2.119  0.00  0.00     0.019 C 
ENDBRANCH   1   7
TORSDOF 1
ENDMDL
