MODEL 1
REMARK minimizedAffinity -4.23629284
REMARK minimizedRMSD -1
REMARK  1 active torsions:
REMARK  status: ('A' for Active; 'I' for Inactive)
REMARK    1  A    between atoms: C1_2  and  C2_3 
ROOT
ATOM      1  C2  UNL d   1      -2.222  -4.110  -0.178  0.00  0.00    -0.077 A 
ATOM      2  C3  UNL d   1      -0.853  -3.940  -0.430  0.00  0.00     0.002 A 
ATOM      3  C4  UNL d   1      -0.183  -2.810   0.045  0.00  0.00     0.002 A 
ATOM      4  C5  UNL d   1      -0.872  -1.846   0.778  0.00  0.00    -0.004 A 
ATOM      5  C6  UNL d   1      -2.234  -2.006   1.032  0.00  0.00     0.002 A 
ATOM      6  C7  UNL d   1      -2.906  -3.133   0.557  0.00  0.00     0.002 A 
ENDROOT
BRANCH   1   7
ATOM      7  C1  UNL d   1      -2.936  -5.351  -0.647  0.00  0.00     0.055 C 
ATOM      8  C   UNL d   1      -4.182  -5.620   0.183  0.00  0.00     0.019 C 
ENDBRANCH   1   7
TORSDOF 1
ENDMDL
