MODEL 1
REMARK minimizedAffinity -1.72789323
REMARK minimizedRMSD -1
REMARK  1 active torsions:
REMARK  status: ('A' for Active; 'I' for Inactive)
REMARK    1  A    between atoms: C1_2  and  C2_3 
ROOT
ATOM      1  C2  UNL d   1      -0.701  -3.693  -0.767  0.00  0.00    -0.077 A 
ATOM      2  C3  UNL d   1      -2.079  -3.617  -1.011  0.00  0.00     0.002 A 
ATOM      3  C4  UNL d   1      -2.770  -4.723  -1.508  0.00  0.00     0.002 A 
ATOM      4  C5  UNL d   1      -2.093  -5.914  -1.762  0.00  0.00    -0.004 A 
ATOM      5  C6  UNL d   1      -0.722  -5.999  -1.524  0.00  0.00     0.002 A 
ATOM      6  C7  UNL d   1      -0.029  -4.894  -1.028  0.00  0.00     0.002 A 
ENDROOT
BRANCH   1   7
ATOM      7  C1  UNL d   1       0.037  -2.516  -0.184  0.00  0.00     0.055 C 
ATOM      8  C   UNL d   1      -0.926  -1.486   0.386  0.00  0.00     0.019 C 
ENDBRANCH   1   7
TORSDOF 1
ENDMDL
