MODEL 1
REMARK minimizedAffinity 5.77859497
REMARK minimizedRMSD -1
REMARK  1 active torsions:
REMARK  status: ('A' for Active; 'I' for Inactive)
REMARK    1  A    between atoms: C1_2  and  C2_3 
ROOT
ATOM      1  C2  UNL d   1       3.708   3.885   2.378  0.00  0.00    -0.077 A 
ATOM      2  C3  UNL d   1       4.566   2.793   2.189  0.00  0.00     0.002 A 
ATOM      3  C4  UNL d   1       4.047   1.523   1.929  0.00  0.00     0.002 A 
ATOM      4  C5  UNL d   1       2.669   1.335   1.850  0.00  0.00    -0.004 A 
ATOM      5  C6  UNL d   1       1.807   2.414   2.038  0.00  0.00     0.002 A 
ATOM      6  C7  UNL d   1       2.324   3.683   2.300  0.00  0.00     0.002 A 
ENDROOT
BRANCH   1   7
ATOM      7  C1  UNL d   1       4.267   5.264   2.610  0.00  0.00     0.055 C 
ATOM      8  C   UNL d   1       4.718   5.443   4.053  0.00  0.00     0.019 C 
ENDBRANCH   1   7
TORSDOF 1
ENDMDL
