MODEL 1
REMARK minimizedAffinity 8.41213512
REMARK minimizedRMSD -1
REMARK  1 active torsions:
REMARK  status: ('A' for Active; 'I' for Inactive)
REMARK    1  A    between atoms: C1_2  and  C2_3 
ROOT
ATOM      1  C2  UNL d   1       2.461   2.287   1.490  0.00  0.00    -0.077 A 
ATOM      2  C3  UNL d   1       3.688   1.806   1.967  0.00  0.00     0.002 A 
ATOM      3  C4  UNL d   1       4.519   2.627   2.732  0.00  0.00     0.002 A 
ATOM      4  C5  UNL d   1       4.129   3.931   3.030  0.00  0.00    -0.004 A 
ATOM      5  C6  UNL d   1       2.911   4.419   2.559  0.00  0.00     0.002 A 
ATOM      6  C7  UNL d   1       2.080   3.600   1.793  0.00  0.00     0.002 A 
ENDROOT
BRANCH   1   7
ATOM      7  C1  UNL d   1       1.541   1.387   0.706  0.00  0.00     0.055 C 
ATOM      8  C   UNL d   1       2.314   0.272   0.016  0.00  0.00     0.019 C 
ENDBRANCH   1   7
TORSDOF 1
ENDMDL
