MODEL 1
REMARK minimizedAffinity 6.01190472
REMARK minimizedRMSD -1
REMARK  1 active torsions:
REMARK  status: ('A' for Active; 'I' for Inactive)
REMARK    1  A    between atoms: C1_2  and  C2_3 
ROOT
ATOM      1  C2  UNL d   1       2.153   1.986   1.774  0.00  0.00    -0.077 A 
ATOM      2  C3  UNL d   1       1.599   3.007   2.558  0.00  0.00     0.002 A 
ATOM      3  C4  UNL d   1       2.426   3.879   3.269  0.00  0.00     0.002 A 
ATOM      4  C5  UNL d   1       3.811   3.741   3.200  0.00  0.00    -0.004 A 
ATOM      5  C6  UNL d   1       4.371   2.727   2.424  0.00  0.00     0.002 A 
ATOM      6  C7  UNL d   1       3.546   1.854   1.714  0.00  0.00     0.002 A 
ENDROOT
BRANCH   1   7
ATOM      7  C1  UNL d   1       1.264   1.076   0.967  0.00  0.00     0.055 C 
ATOM      8  C   UNL d   1       2.071  -0.011   0.270  0.00  0.00     0.019 C 
ENDBRANCH   1   7
TORSDOF 1
ENDMDL
