MODEL 1
REMARK minimizedAffinity -0.181877419
REMARK minimizedRMSD -1
REMARK  1 active torsions:
REMARK  status: ('A' for Active; 'I' for Inactive)
REMARK    1  A    between atoms: C1_2  and  C2_3 
ROOT
ATOM      1  C2  UNL d   1       3.144   2.522   2.351  0.00  0.00    -0.077 A 
ATOM      2  C3  UNL d   1       3.653   3.829   2.347  0.00  0.00     0.002 A 
ATOM      3  C4  UNL d   1       3.070   4.816   3.144  0.00  0.00     0.002 A 
ATOM      4  C5  UNL d   1       1.979   4.506   3.953  0.00  0.00    -0.004 A 
ATOM      5  C6  UNL d   1       1.464   3.211   3.962  0.00  0.00     0.002 A 
ATOM      6  C7  UNL d   1       2.045   2.223   3.166  0.00  0.00     0.002 A 
ENDROOT
BRANCH   1   7
ATOM      7  C1  UNL d   1       3.802   1.445   1.530  0.00  0.00     0.055 C 
ATOM      8  C   UNL d   1       2.786   0.702   0.674  0.00  0.00     0.019 C 
ENDBRANCH   1   7
TORSDOF 1
ENDMDL
