MODEL 1
REMARK minimizedAffinity 4.69134474
REMARK minimizedRMSD -1
REMARK  1 active torsions:
REMARK  status: ('A' for Active; 'I' for Inactive)
REMARK    1  A    between atoms: C1_2  and  C2_3 
ROOT
ATOM      1  C2  UNL d   1       1.842   3.727   2.444  0.00  0.00    -0.077 A 
ATOM      2  C3  UNL d   1       1.654   2.428   1.951  0.00  0.00     0.002 A 
ATOM      3  C4  UNL d   1       2.746   1.666   1.532  0.00  0.00     0.002 A 
ATOM      4  C5  UNL d   1       4.034   2.193   1.605  0.00  0.00    -0.004 A 
ATOM      5  C6  UNL d   1       4.232   3.484   2.092  0.00  0.00     0.002 A 
ATOM      6  C7  UNL d   1       3.141   4.248   2.510  0.00  0.00     0.002 A 
ENDROOT
BRANCH   1   7
ATOM      7  C1  UNL d   1       0.670   4.531   2.943  0.00  0.00     0.055 C 
ATOM      8  C   UNL d   1       0.701   4.673   4.458  0.00  0.00     0.019 C 
ENDBRANCH   1   7
TORSDOF 1
ENDMDL
