MODEL 1
REMARK minimizedAffinity 6.78286695
REMARK minimizedRMSD -1
REMARK  1 active torsions:
REMARK  status: ('A' for Active; 'I' for Inactive)
REMARK    1  A    between atoms: C1_2  and  C2_3 
ROOT
ATOM      1  C2  UNL d   1       3.939   4.245   2.119  0.00  0.00    -0.077 A 
ATOM      2  C3  UNL d   1       5.316   3.992   2.188  0.00  0.00     0.002 A 
ATOM      3  C4  UNL d   1       5.791   2.680   2.245  0.00  0.00     0.002 A 
ATOM      4  C5  UNL d   1       4.896   1.612   2.229  0.00  0.00    -0.004 A 
ATOM      5  C6  UNL d   1       3.524   1.854   2.162  0.00  0.00     0.002 A 
ATOM      6  C7  UNL d   1       3.048   3.165   2.106  0.00  0.00     0.002 A 
ENDROOT
BRANCH   1   7
ATOM      7  C1  UNL d   1       3.428   5.658   2.008  0.00  0.00     0.055 C 
ATOM      8  C   UNL d   1       3.047   5.998   0.574  0.00  0.00     0.019 C 
ENDBRANCH   1   7
TORSDOF 1
ENDMDL
