MODEL 1
REMARK minimizedAffinity 1.33108687
REMARK minimizedRMSD -1
REMARK  1 active torsions:
REMARK  status: ('A' for Active; 'I' for Inactive)
REMARK    1  A    between atoms: C1_2  and  C2_3 
ROOT
ATOM      1  C2  UNL d   1       3.211   4.535   2.964  0.00  0.00    -0.077 A 
ATOM      2  C3  UNL d   1       4.215   3.649   2.550  0.00  0.00     0.002 A 
ATOM      3  C4  UNL d   1       3.890   2.357   2.132  0.00  0.00     0.002 A 
ATOM      4  C5  UNL d   1       2.560   1.941   2.121  0.00  0.00    -0.004 A 
ATOM      5  C6  UNL d   1       1.554   2.814   2.533  0.00  0.00     0.002 A 
ATOM      6  C7  UNL d   1       1.877   4.105   2.952  0.00  0.00     0.002 A 
ENDROOT
BRANCH   1   7
ATOM      7  C1  UNL d   1       3.555   5.945   3.368  0.00  0.00     0.055 C 
ATOM      8  C   UNL d   1       4.081   5.999   4.795  0.00  0.00     0.019 C 
ENDBRANCH   1   7
TORSDOF 1
ENDMDL
