MODEL 1
REMARK minimizedAffinity 7.74467707
REMARK minimizedRMSD -1
REMARK  1 active torsions:
REMARK  status: ('A' for Active; 'I' for Inactive)
REMARK    1  A    between atoms: C1_2  and  C2_3 
ROOT
ATOM      1  C2  UNL d   1      -4.130   1.326   0.362  0.00  0.00    -0.077 A 
ATOM      2  C3  UNL d   1      -4.456   2.625   0.777  0.00  0.00     0.002 A 
ATOM      3  C4  UNL d   1      -5.385   3.383   0.061  0.00  0.00     0.002 A 
ATOM      4  C5  UNL d   1      -5.999   2.849  -1.070  0.00  0.00    -0.004 A 
ATOM      5  C6  UNL d   1      -5.680   1.559  -1.491  0.00  0.00     0.002 A 
ATOM      6  C7  UNL d   1      -4.751   0.800  -0.778  0.00  0.00     0.002 A 
ENDROOT
BRANCH   1   7
ATOM      7  C1  UNL d   1      -3.165   0.489   1.161  0.00  0.00     0.055 C 
ATOM      8  C   UNL d   1      -2.031  -0.031   0.289  0.00  0.00     0.019 C 
ENDBRANCH   1   7
TORSDOF 1
ENDMDL
