MODEL 1
REMARK minimizedAffinity 7.32285213
REMARK minimizedRMSD -1
REMARK  1 active torsions:
REMARK  status: ('A' for Active; 'I' for Inactive)
REMARK    1  A    between atoms: C1_2  and  C2_3 
ROOT
ATOM      1  C2  UNL d   1       4.400   3.644   3.432  0.00  0.00    -0.077 A 
ATOM      2  C3  UNL d   1       3.211   2.921   3.607  0.00  0.00     0.002 A 
ATOM      3  C4  UNL d   1       2.249   2.888   2.596  0.00  0.00     0.002 A 
ATOM      4  C5  UNL d   1       2.467   3.572   1.402  0.00  0.00    -0.004 A 
ATOM      5  C6  UNL d   1       3.645   4.295   1.218  0.00  0.00     0.002 A 
ATOM      6  C7  UNL d   1       4.607   4.331   2.228  0.00  0.00     0.002 A 
ENDROOT
BRANCH   1   7
ATOM      7  C1  UNL d   1       5.460   3.640   4.501  0.00  0.00     0.055 C 
ATOM      8  C   UNL d   1       5.352   4.869   5.393  0.00  0.00     0.019 C 
ENDBRANCH   1   7
TORSDOF 1
ENDMDL
