MODEL 1
REMARK minimizedAffinity 7.44687033
REMARK minimizedRMSD -1
REMARK  1 active torsions:
REMARK  status: ('A' for Active; 'I' for Inactive)
REMARK    1  A    between atoms: C1_2  and  C2_3 
ROOT
ATOM      1  C2  UNL d   1       2.602   2.214   1.764  0.00  0.00    -0.077 A 
ATOM      2  C3  UNL d   1       2.043   3.486   1.951  0.00  0.00     0.002 A 
ATOM      3  C4  UNL d   1       2.825   4.536   2.437  0.00  0.00     0.002 A 
ATOM      4  C5  UNL d   1       4.169   4.325   2.737  0.00  0.00    -0.004 A 
ATOM      5  C6  UNL d   1       4.733   3.063   2.557  0.00  0.00     0.002 A 
ATOM      6  C7  UNL d   1       3.953   2.012   2.072  0.00  0.00     0.002 A 
ENDROOT
BRANCH   1   7
ATOM      7  C1  UNL d   1       1.773   1.093   1.194  0.00  0.00     0.055 C 
ATOM      8  C   UNL d   1       2.589   0.230   0.242  0.00  0.00     0.019 C 
ENDBRANCH   1   7
TORSDOF 1
ENDMDL
