MODEL 1
REMARK minimizedAffinity -0.816003323
REMARK minimizedRMSD -1
REMARK  1 active torsions:
REMARK  status: ('A' for Active; 'I' for Inactive)
REMARK    1  A    between atoms: C1_2  and  C2_3 
ROOT
ATOM      1  C2  UNL d   1       3.617  -2.804   3.835  0.00  0.00    -0.076 A 
ATOM      2  C3  UNL d   1       3.196  -1.953   2.798  0.00  0.00     0.004 A 
ATOM      3  C4  UNL d   1       1.854  -1.882   2.428  0.00  0.00    -0.003 A 
ATOM      4  C5  UNL d   1       0.910  -2.659   3.090  0.00  0.00     0.000 A 
ATOM      5  C6  UNL d   1       1.307  -3.496   4.133  0.00  0.00     0.000 A 
ATOM      6  C7  UNL d   1       2.654  -3.567   4.529  0.00  0.00    -0.073 A 
ATOM      7  C8  UNL d   1       3.027  -4.491   5.656  0.00  0.00     0.078 C 
ENDROOT
BRANCH   1   8
ATOM      8  C1  UNL d   1       5.089  -2.859   4.174  0.00  0.00     0.053 C 
ATOM      9  C   UNL d   1       5.973  -2.489   2.993  0.00  0.00     0.018 C 
ENDBRANCH   1   8
TORSDOF 1
ENDMDL
