MODEL 1
REMARK minimizedAffinity 8.11260986
REMARK minimizedRMSD -1
REMARK  1 active torsions:
REMARK  status: ('A' for Active; 'I' for Inactive)
REMARK    1  A    between atoms: C1_2  and  C2_3 
ROOT
ATOM      1  C2  UNL d   1      -2.951   2.885   1.129  0.00  0.00    -0.076 A 
ATOM      2  C3  UNL d   1      -3.910   2.588   2.113  0.00  0.00     0.004 A 
ATOM      3  C4  UNL d   1      -5.189   3.141   2.059  0.00  0.00    -0.003 A 
ATOM      4  C5  UNL d   1      -5.530   3.998   1.018  0.00  0.00     0.000 A 
ATOM      5  C6  UNL d   1      -4.597   4.289   0.023  0.00  0.00     0.000 A 
ATOM      6  C7  UNL d   1      -3.309   3.728   0.055  0.00  0.00    -0.073 A 
ATOM      7  C8  UNL d   1      -2.341   4.081  -1.041  0.00  0.00     0.078 C 
ENDROOT
BRANCH   1   8
ATOM      8  C1  UNL d   1      -1.572   2.278   1.255  0.00  0.00     0.053 C 
ATOM      9  C   UNL d   1      -1.510   0.857   0.717  0.00  0.00     0.018 C 
ENDBRANCH   1   8
TORSDOF 1
ENDMDL
