MODEL 1
REMARK minimizedAffinity 6.16601181
REMARK minimizedRMSD -1
REMARK  1 active torsions:
REMARK  status: ('A' for Active; 'I' for Inactive)
REMARK    1  A    between atoms: C1_2  and  C2_3 
ROOT
ATOM      1  C2  UNL d   1       3.068  -2.299   4.441  0.00  0.00    -0.076 A 
ATOM      2  C3  UNL d   1       3.869  -1.439   3.671  0.00  0.00     0.004 A 
ATOM      3  C4  UNL d   1       3.348  -0.773   2.562  0.00  0.00    -0.003 A 
ATOM      4  C5  UNL d   1       2.017  -0.957   2.207  0.00  0.00     0.000 A 
ATOM      5  C6  UNL d   1       1.202  -1.793   2.970  0.00  0.00     0.000 A 
ATOM      6  C7  UNL d   1       1.708  -2.459   4.100  0.00  0.00    -0.073 A 
ATOM      7  C8  UNL d   1       0.786  -3.353   4.883  0.00  0.00     0.078 C 
ENDROOT
BRANCH   1   8
ATOM      8  C1  UNL d   1       3.695  -3.015   5.616  0.00  0.00     0.053 C 
ATOM      9  C   UNL d   1       5.152  -2.629   5.823  0.00  0.00     0.018 C 
ENDBRANCH   1   8
TORSDOF 1
ENDMDL
