MODEL 1
REMARK minimizedAffinity 14.8594103
REMARK minimizedRMSD -1
REMARK  1 active torsions:
REMARK  status: ('A' for Active; 'I' for Inactive)
REMARK    1  A    between atoms: C1_2  and  C2_3 
ROOT
ATOM      1  C2  UNL d   1       4.112   0.024  -4.018  0.00  0.00    -0.076 A 
ATOM      2  C3  UNL d   1       3.686   1.282  -4.477  0.00  0.00     0.004 A 
ATOM      3  C4  UNL d   1       4.405   1.971  -5.453  0.00  0.00    -0.003 A 
ATOM      4  C5  UNL d   1       5.561   1.412  -5.986  0.00  0.00     0.000 A 
ATOM      5  C6  UNL d   1       5.989   0.157  -5.554  0.00  0.00     0.000 A 
ATOM      6  C7  UNL d   1       5.267  -0.558  -4.583  0.00  0.00    -0.073 A 
ATOM      7  C8  UNL d   1       5.778  -1.905  -4.150  0.00  0.00     0.078 C 
ENDROOT
BRANCH   1   8
ATOM      8  C1  UNL d   1       3.307  -0.663  -2.938  0.00  0.00     0.053 C 
ATOM      9  C   UNL d   1       2.130  -1.446  -3.498  0.00  0.00     0.018 C 
ENDBRANCH   1   8
TORSDOF 1
ENDMDL
