MODEL 1
REMARK minimizedAffinity 7.02252769
REMARK minimizedRMSD -1
REMARK  1 active torsions:
REMARK  status: ('A' for Active; 'I' for Inactive)
REMARK    1  A    between atoms: C1_2  and  C2_3 
ROOT
ATOM      1  C2  UNL d   1       0.927   0.815   0.368  0.00  0.00    -0.076 A 
ATOM      2  C3  UNL d   1       1.177   2.167   0.659  0.00  0.00     0.004 A 
ATOM      3  C4  UNL d   1       0.135   3.089   0.737  0.00  0.00    -0.003 A 
ATOM      4  C5  UNL d   1      -1.175   2.674   0.524  0.00  0.00     0.000 A 
ATOM      5  C6  UNL d   1      -1.444   1.333   0.252  0.00  0.00     0.000 A 
ATOM      6  C7  UNL d   1      -0.406   0.387   0.186  0.00  0.00    -0.073 A 
ATOM      7  C8  UNL d   1      -0.752  -1.045  -0.117  0.00  0.00     0.078 C 
ENDROOT
BRANCH   1   8
ATOM      8  C1  UNL d   1       2.100  -0.134   0.270  0.00  0.00     0.053 C 
ATOM      9  C   UNL d   1       2.945  -0.148   1.534  0.00  0.00     0.018 C 
ENDBRANCH   1   8
TORSDOF 1
ENDMDL
