MODEL 1
REMARK minimizedAffinity 13.6697779
REMARK minimizedRMSD -1
REMARK  1 active torsions:
REMARK  status: ('A' for Active; 'I' for Inactive)
REMARK    1  A    between atoms: C1_2  and  C2_3 
ROOT
ATOM      1  C2  UNL d   1       2.913  -2.234   3.483  0.00  0.00    -0.076 A 
ATOM      2  C3  UNL d   1       3.003  -3.625   3.301  0.00  0.00     0.004 A 
ATOM      3  C4  UNL d   1       2.037  -4.481   3.827  0.00  0.00    -0.003 A 
ATOM      4  C5  UNL d   1       0.966  -3.960   4.544  0.00  0.00     0.000 A 
ATOM      5  C6  UNL d   1       0.852  -2.581   4.719  0.00  0.00     0.000 A 
ATOM      6  C7  UNL d   1       1.808  -1.703   4.181  0.00  0.00    -0.073 A 
ATOM      7  C8  UNL d   1       1.638  -0.226   4.406  0.00  0.00     0.078 C 
ENDROOT
BRANCH   1   8
ATOM      8  C1  UNL d   1       4.005  -1.357   2.912  0.00  0.00     0.053 C 
ATOM      9  C   UNL d   1       5.393  -1.796   3.350  0.00  0.00     0.018 C 
ENDBRANCH   1   8
TORSDOF 1
ENDMDL
