MODEL 1
REMARK minimizedAffinity 3.76635766
REMARK minimizedRMSD -1
REMARK  1 active torsions:
REMARK  status: ('A' for Active; 'I' for Inactive)
REMARK    1  A    between atoms: C1_2  and  C2_3 
ROOT
ATOM      1  C2  UNL d   1       3.643  -1.845   3.799  0.00  0.00    -0.076 A 
ATOM      2  C3  UNL d   1       4.971  -1.930   3.348  0.00  0.00     0.004 A 
ATOM      3  C4  UNL d   1       5.998  -2.315   4.208  0.00  0.00    -0.003 A 
ATOM      4  C5  UNL d   1       5.712  -2.622   5.534  0.00  0.00     0.000 A 
ATOM      5  C6  UNL d   1       4.397  -2.560   5.994  0.00  0.00     0.000 A 
ATOM      6  C7  UNL d   1       3.348  -2.190   5.135  0.00  0.00    -0.073 A 
ATOM      7  C8  UNL d   1       1.950  -2.134   5.686  0.00  0.00     0.078 C 
ENDROOT
BRANCH   1   8
ATOM      8  C1  UNL d   1       2.575  -1.396   2.827  0.00  0.00     0.053 C 
ATOM      9  C   UNL d   1       2.140   0.043   3.063  0.00  0.00     0.018 C 
ENDBRANCH   1   8
TORSDOF 1
ENDMDL
