MODEL 1
REMARK minimizedAffinity 5.84295416
REMARK minimizedRMSD -1
REMARK  1 active torsions:
REMARK  status: ('A' for Active; 'I' for Inactive)
REMARK    1  A    between atoms: C1_2  and  C2_3 
ROOT
ATOM      1  C2  UNL d   1       3.574  -1.657   4.040  0.00  0.00    -0.076 A 
ATOM      2  C3  UNL d   1       4.846  -1.483   3.466  0.00  0.00     0.004 A 
ATOM      3  C4  UNL d   1       6.000  -1.859   4.152  0.00  0.00    -0.003 A 
ATOM      4  C5  UNL d   1       5.900  -2.415   5.423  0.00  0.00     0.000 A 
ATOM      5  C6  UNL d   1       4.646  -2.611   6.000  0.00  0.00     0.000 A 
ATOM      6  C7  UNL d   1       3.472  -2.253   5.315  0.00  0.00    -0.073 A 
ATOM      7  C8  UNL d   1       2.146  -2.481   5.987  0.00  0.00     0.078 C 
ENDROOT
BRANCH   1   8
ATOM      8  C1  UNL d   1       2.360  -1.206   3.259  0.00  0.00     0.053 C 
ATOM      9  C   UNL d   1       2.613   0.075   2.478  0.00  0.00     0.018 C 
ENDBRANCH   1   8
TORSDOF 1
ENDMDL
