MODEL 1
REMARK minimizedAffinity -5.49708939
REMARK minimizedRMSD -1
REMARK  1 active torsions:
REMARK  status: ('A' for Active; 'I' for Inactive)
REMARK    1  A    between atoms: C1_2  and  C2_3 
ROOT
ATOM      1  C2  UNL d   1       0.000  -0.322  -0.257  0.00  0.00    -0.073 A 
ATOM      2  C3  UNL d   1      -1.092  -0.312   0.618  0.00  0.00    -0.002 A 
ATOM      3  C4  UNL d   1      -1.171   0.639   1.637  0.00  0.00     0.004 A 
ATOM      4  C5  UNL d   1      -0.164   1.592   1.787  0.00  0.00    -0.004 A 
ATOM      5  C6  UNL d   1       0.930   1.606   0.915  0.00  0.00    -0.075 A 
ATOM      6  C7  UNL d   1       2.022   2.624   1.064  0.00  0.00     0.076 C 
ATOM      7  C8  UNL d   1       1.003   0.647  -0.104  0.00  0.00     0.001 A 
ENDROOT
BRANCH   1   8
ATOM      8  C1  UNL d   1       0.087  -1.342  -1.362  0.00  0.00     0.053 C 
ATOM      9  C   UNL d   1      -1.284  -1.708  -1.909  0.00  0.00     0.018 C 
ENDBRANCH   1   8
TORSDOF 1
ENDMDL
