MODEL 1
REMARK minimizedAffinity -5.78284931
REMARK minimizedRMSD -1
REMARK  1 active torsions:
REMARK  status: ('A' for Active; 'I' for Inactive)
REMARK    1  A    between atoms: C1_2  and  C2_3 
ROOT
ATOM      1  C2  UNL d   1       1.871   1.584   0.463  0.00  0.00    -0.073 A 
ATOM      2  C3  UNL d   1       1.203   2.224   1.512  0.00  0.00    -0.002 A 
ATOM      3  C4  UNL d   1       0.022   1.689   2.027  0.00  0.00     0.004 A 
ATOM      4  C5  UNL d   1      -0.500   0.506   1.503  0.00  0.00    -0.004 A 
ATOM      5  C6  UNL d   1       0.160  -0.155   0.462  0.00  0.00    -0.075 A 
ATOM      6  C7  UNL d   1      -0.389  -1.428  -0.114  0.00  0.00     0.076 C 
ATOM      7  C8  UNL d   1       1.345   0.390  -0.051  0.00  0.00     0.001 A 
ENDROOT
BRANCH   1   8
ATOM      8  C1  UNL d   1       3.151   2.154  -0.092  0.00  0.00     0.053 C 
ATOM      9  C   UNL d   1       3.903   1.145  -0.944  0.00  0.00     0.018 C 
ENDBRANCH   1   8
TORSDOF 1
ENDMDL
