MODEL 1
REMARK minimizedAffinity -2.20606661
REMARK minimizedRMSD -1
REMARK  1 active torsions:
REMARK  status: ('A' for Active; 'I' for Inactive)
REMARK    1  A    between atoms: C1_2  and  C2_3 
ROOT
ATOM      1  C2  UNL d   1      -0.983  -0.311  -0.289  0.00  0.00    -0.073 A 
ATOM      2  C3  UNL d   1      -0.182  -1.454  -0.395  0.00  0.00    -0.002 A 
ATOM      3  C4  UNL d   1      -0.404  -2.377  -1.418  0.00  0.00     0.004 A 
ATOM      4  C5  UNL d   1      -1.421  -2.164  -2.348  0.00  0.00    -0.004 A 
ATOM      5  C6  UNL d   1      -2.225  -1.022  -2.265  0.00  0.00    -0.075 A 
ATOM      6  C7  UNL d   1      -3.325  -0.779  -3.256  0.00  0.00     0.076 C 
ATOM      7  C8  UNL d   1      -1.998  -0.101  -1.233  0.00  0.00     0.001 A 
ENDROOT
BRANCH   1   8
ATOM      8  C1  UNL d   1      -0.744   0.692   0.810  0.00  0.00     0.053 C 
ATOM      9  C   UNL d   1       0.573   1.431   0.631  0.00  0.00     0.018 C 
ENDBRANCH   1   8
TORSDOF 1
ENDMDL
