MODEL 1
REMARK minimizedAffinity -4.66075134
REMARK minimizedRMSD -1
REMARK  1 active torsions:
REMARK  status: ('A' for Active; 'I' for Inactive)
REMARK    1  A    between atoms: C1_2  and  C2_3 
ROOT
ATOM      1  C2  UNL d   1       0.282   0.710   0.679  0.00  0.00    -0.073 A 
ATOM      2  C3  UNL d   1      -0.042   1.904   1.333  0.00  0.00    -0.002 A 
ATOM      3  C4  UNL d   1       0.953   2.835   1.636  0.00  0.00     0.004 A 
ATOM      4  C5  UNL d   1       2.279   2.585   1.283  0.00  0.00    -0.004 A 
ATOM      5  C6  UNL d   1       2.621   1.403   0.618  0.00  0.00    -0.075 A 
ATOM      6  C7  UNL d   1       4.043   1.118   0.234  0.00  0.00     0.076 C 
ATOM      7  C8  UNL d   1       1.617   0.472   0.320  0.00  0.00     0.001 A 
ENDROOT
BRANCH   1   8
ATOM      8  C1  UNL d   1      -0.790  -0.294   0.344  0.00  0.00     0.053 C 
ATOM      9  C   UNL d   1      -0.260  -1.424  -0.524  0.00  0.00     0.018 C 
ENDBRANCH   1   8
TORSDOF 1
ENDMDL
