MODEL 1
REMARK minimizedAffinity -4.79616308
REMARK minimizedRMSD -1
REMARK  1 active torsions:
REMARK  status: ('A' for Active; 'I' for Inactive)
REMARK    1  A    between atoms: C1_2  and  C2_3 
ROOT
ATOM      1  C2  UNL d   1       1.282   1.384   0.629  0.00  0.00    -0.073 A 
ATOM      2  C3  UNL d   1       0.590   1.617   1.823  0.00  0.00    -0.002 A 
ATOM      3  C4  UNL d   1      -0.635   0.992   2.060  0.00  0.00     0.004 A 
ATOM      4  C5  UNL d   1      -1.176   0.124   1.112  0.00  0.00    -0.004 A 
ATOM      5  C6  UNL d   1      -0.493  -0.131  -0.082  0.00  0.00    -0.075 A 
ATOM      6  C7  UNL d   1      -1.063  -1.061  -1.113  0.00  0.00     0.076 C 
ATOM      7  C8  UNL d   1       0.735   0.502  -0.314  0.00  0.00     0.001 A 
ENDROOT
BRANCH   1   8
ATOM      8  C1  UNL d   1       2.609   2.051   0.371  0.00  0.00     0.053 C 
ATOM      9  C   UNL d   1       3.585   1.124  -0.337  0.00  0.00     0.018 C 
ENDBRANCH   1   8
TORSDOF 1
ENDMDL
