MODEL 1
REMARK minimizedAffinity -4.02790737
REMARK minimizedRMSD -1
REMARK  1 active torsions:
REMARK  status: ('A' for Active; 'I' for Inactive)
REMARK    1  A    between atoms: C1_2  and  C2_3 
ROOT
ATOM      1  C2  UNL d   1      -0.332  -0.218   0.069  0.00  0.00    -0.073 A 
ATOM      2  C3  UNL d   1      -1.073  -0.264   1.255  0.00  0.00    -0.002 A 
ATOM      3  C4  UNL d   1      -0.884   0.705   2.242  0.00  0.00     0.004 A 
ATOM      4  C5  UNL d   1       0.041   1.731   2.050  0.00  0.00    -0.004 A 
ATOM      5  C6  UNL d   1       0.782   1.801   0.866  0.00  0.00    -0.075 A 
ATOM      6  C7  UNL d   1       1.782   2.897   0.646  0.00  0.00     0.076 C 
ATOM      7  C8  UNL d   1       0.589   0.823  -0.119  0.00  0.00     0.001 A 
ENDROOT
BRANCH   1   8
ATOM      8  C1  UNL d   1      -0.537  -1.258  -1.003  0.00  0.00     0.053 C 
ATOM      9  C   UNL d   1      -2.001  -1.640  -1.153  0.00  0.00     0.018 C 
ENDBRANCH   1   8
TORSDOF 1
ENDMDL
