MODEL 1
REMARK minimizedAffinity -6.44554853
REMARK minimizedRMSD -1
REMARK  1 active torsions:
REMARK  status: ('A' for Active; 'I' for Inactive)
REMARK    1  A    between atoms: C1_2  and  C2_3 
ROOT
ATOM      1  C2  UNL d   1       1.272   1.695   0.939  0.00  0.00    -0.073 A 
ATOM      2  C3  UNL d   1       0.262   2.186   1.775  0.00  0.00    -0.002 A 
ATOM      3  C4  UNL d   1      -0.989   1.568   1.806  0.00  0.00     0.004 A 
ATOM      4  C5  UNL d   1      -1.241   0.452   1.009  0.00  0.00    -0.004 A 
ATOM      5  C6  UNL d   1      -0.240  -0.060   0.176  0.00  0.00    -0.075 A 
ATOM      6  C7  UNL d   1      -0.496  -1.259  -0.689  0.00  0.00     0.076 C 
ATOM      7  C8  UNL d   1       1.012   0.567   0.148  0.00  0.00     0.001 A 
ENDROOT
BRANCH   1   8
ATOM      8  C1  UNL d   1       2.626   2.355   0.907  0.00  0.00     0.053 C 
ATOM      9  C   UNL d   1       3.621   1.573   0.064  0.00  0.00     0.018 C 
ENDBRANCH   1   8
TORSDOF 1
ENDMDL
