MODEL 1
REMARK minimizedAffinity -5.18170023
REMARK minimizedRMSD -1
REMARK  1 active torsions:
REMARK  status: ('A' for Active; 'I' for Inactive)
REMARK    1  A    between atoms: C1_2  and  C2_3 
ROOT
ATOM      1  C2  UNL d   1      -0.039  -0.311  -0.052  0.00  0.00    -0.073 A 
ATOM      2  C3  UNL d   1      -1.125  -0.043   0.789  0.00  0.00    -0.002 A 
ATOM      3  C4  UNL d   1      -1.055   0.993   1.722  0.00  0.00     0.004 A 
ATOM      4  C5  UNL d   1       0.096   1.774   1.819  0.00  0.00    -0.004 A 
ATOM      5  C6  UNL d   1       1.188   1.529   0.979  0.00  0.00    -0.075 A 
ATOM      6  C7  UNL d   1       2.434   2.359   1.072  0.00  0.00     0.076 C 
ATOM      7  C8  UNL d   1       1.111   0.486   0.047  0.00  0.00     0.001 A 
ENDROOT
BRANCH   1   8
ATOM      8  C1  UNL d   1      -0.112  -1.424  -1.065  0.00  0.00     0.053 C 
ATOM      9  C   UNL d   1      -1.501  -1.554  -1.670  0.00  0.00     0.018 C 
ENDBRANCH   1   8
TORSDOF 1
ENDMDL
