MODEL 1
REMARK minimizedAffinity -4.65565395
REMARK minimizedRMSD -1
REMARK  1 active torsions:
REMARK  status: ('A' for Active; 'I' for Inactive)
REMARK    1  A    between atoms: C1_2  and  C2_3 
ROOT
ATOM      1  C2  UNL d   1       0.270   0.017   0.036  0.00  0.00    -0.073 A 
ATOM      2  C3  UNL d   1      -0.176   1.153   0.721  0.00  0.00    -0.002 A 
ATOM      3  C4  UNL d   1       0.690   2.224   0.947  0.00  0.00     0.004 A 
ATOM      4  C5  UNL d   1       2.005   2.174   0.487  0.00  0.00    -0.004 A 
ATOM      5  C6  UNL d   1       2.466   1.052  -0.210  0.00  0.00    -0.075 A 
ATOM      6  C7  UNL d   1       3.879   0.981  -0.710  0.00  0.00     0.076 C 
ATOM      7  C8  UNL d   1       1.592  -0.021  -0.431  0.00  0.00     0.001 A 
ENDROOT
BRANCH   1   8
ATOM      8  C1  UNL d   1      -0.662  -1.140  -0.216  0.00  0.00     0.053 C 
ATOM      9  C   UNL d   1      -1.168  -1.161  -1.650  0.00  0.00     0.018 C 
ENDBRANCH   1   8
TORSDOF 1
ENDMDL
