MODEL 1
REMARK minimizedAffinity 2.05731654
REMARK minimizedRMSD -1
REMARK  1 active torsions:
REMARK  status: ('A' for Active; 'I' for Inactive)
REMARK    1  A    between atoms: C1_2  and  C2_3 
ROOT
ATOM      1  C2  UNL d   1       1.246   0.037   0.976  0.00  0.00    -0.076 A 
ATOM      2  C3  UNL d   1       0.842  -0.477   2.221  0.00  0.00     0.004 A 
ATOM      3  C4  UNL d   1       1.543  -1.515   2.831  0.00  0.00    -0.003 A 
ATOM      4  C5  UNL d   1       2.661  -2.057   2.207  0.00  0.00     0.000 A 
ATOM      5  C6  UNL d   1       3.087  -1.548   0.980  0.00  0.00     0.000 A 
ATOM      6  C7  UNL d   1       2.401  -0.490   0.359  0.00  0.00    -0.073 A 
ATOM      7  C8  UNL d   1       2.901   0.015  -0.966  0.00  0.00     0.078 C 
ENDROOT
BRANCH   1   8
ATOM      8  C1  UNL d   1       0.430   1.145   0.350  0.00  0.00     0.053 C 
ATOM      9  C   UNL d   1       1.112   2.500   0.453  0.00  0.00     0.018 C 
ENDBRANCH   1   8
TORSDOF 1
ENDMDL
