MODEL 1
REMARK minimizedAffinity 4.95639515
REMARK minimizedRMSD -1
REMARK  1 active torsions:
REMARK  status: ('A' for Active; 'I' for Inactive)
REMARK    1  A    between atoms: C1_2  and  C2_3 
ROOT
ATOM      1  C2  UNL d   1       2.341  -0.707   1.178  0.00  0.00    -0.076 A 
ATOM      2  C3  UNL d   1       1.171  -0.969   1.912  0.00  0.00     0.004 A 
ATOM      3  C4  UNL d   1      -0.051  -0.413   1.536  0.00  0.00    -0.003 A 
ATOM      4  C5  UNL d   1      -0.123   0.413   0.420  0.00  0.00     0.000 A 
ATOM      5  C6  UNL d   1       1.025   0.669  -0.330  0.00  0.00     0.000 A 
ATOM      6  C7  UNL d   1       2.261   0.103   0.025  0.00  0.00    -0.073 A 
ATOM      7  C8  UNL d   1       3.468   0.418  -0.816  0.00  0.00     0.078 C 
ENDROOT
BRANCH   1   8
ATOM      8  C1  UNL d   1       3.642  -1.316   1.649  0.00  0.00     0.053 C 
ATOM      9  C   UNL d   1       4.154  -0.678   2.931  0.00  0.00     0.018 C 
ENDBRANCH   1   8
TORSDOF 1
ENDMDL
