MODEL 1
REMARK minimizedAffinity -0.28048569
REMARK minimizedRMSD -1
REMARK  1 active torsions:
REMARK  status: ('A' for Active; 'I' for Inactive)
REMARK    1  A    between atoms: C1_2  and  C2_3 
ROOT
ATOM      1  C2  UNL d   1       1.644  -0.776   1.475  0.00  0.00    -0.076 A 
ATOM      2  C3  UNL d   1       2.726  -0.530   0.611  0.00  0.00     0.004 A 
ATOM      3  C4  UNL d   1       4.041  -0.613   1.067  0.00  0.00    -0.003 A 
ATOM      4  C5  UNL d   1       4.295  -0.943   2.394  0.00  0.00     0.000 A 
ATOM      5  C6  UNL d   1       3.234  -1.207   3.260  0.00  0.00     0.000 A 
ATOM      6  C7  UNL d   1       1.904  -1.144   2.812  0.00  0.00    -0.073 A 
ATOM      7  C8  UNL d   1       0.799  -1.433   3.791  0.00  0.00     0.078 C 
ENDROOT
BRANCH   1   8
ATOM      8  C1  UNL d   1       0.239  -0.645   0.931  0.00  0.00     0.053 C 
ATOM      9  C   UNL d   1       0.043   0.631   0.126  0.00  0.00     0.018 C 
ENDBRANCH   1   8
TORSDOF 1
ENDMDL
