MODEL 1
REMARK minimizedAffinity 4.8025341
REMARK minimizedRMSD -1
REMARK  1 active torsions:
REMARK  status: ('A' for Active; 'I' for Inactive)
REMARK    1  A    between atoms: C1_2  and  C2_3 
ROOT
ATOM      1  C2  UNL d   1       0.216  -5.539  -4.550  0.00  0.00    -0.076 A 
ATOM      2  C3  UNL d   1       0.751  -5.972  -5.776  0.00  0.00     0.004 A 
ATOM      3  C4  UNL d   1       2.128  -6.000  -5.988  0.00  0.00    -0.003 A 
ATOM      4  C5  UNL d   1       2.994  -5.596  -4.977  0.00  0.00     0.000 A 
ATOM      5  C6  UNL d   1       2.481  -5.180  -3.748  0.00  0.00     0.000 A 
ATOM      6  C7  UNL d   1       1.096  -5.161  -3.513  0.00  0.00    -0.073 A 
ATOM      7  C8  UNL d   1       0.598  -4.698  -2.171  0.00  0.00     0.078 C 
ENDROOT
BRANCH   1   8
ATOM      8  C1  UNL d   1      -1.286  -5.504  -4.387  0.00  0.00     0.053 C 
ATOM      9  C   UNL d   1      -2.020  -5.878  -5.665  0.00  0.00     0.018 C 
ENDBRANCH   1   8
TORSDOF 1
ENDMDL
