MODEL 1
REMARK minimizedAffinity 6.71161985
REMARK minimizedRMSD -1
REMARK  1 active torsions:
REMARK  status: ('A' for Active; 'I' for Inactive)
REMARK    1  A    between atoms: C1_2  and  C2_3 
ROOT
ATOM      1  C2  UNL d   1       2.486  -0.795   0.688  0.00  0.00    -0.076 A 
ATOM      2  C3  UNL d   1       1.580  -1.803   1.058  0.00  0.00     0.004 A 
ATOM      3  C4  UNL d   1       0.233  -1.723   0.706  0.00  0.00    -0.003 A 
ATOM      4  C5  UNL d   1      -0.228  -0.632  -0.023  0.00  0.00     0.000 A 
ATOM      5  C6  UNL d   1       0.661   0.369  -0.414  0.00  0.00     0.000 A 
ATOM      6  C7  UNL d   1       2.024   0.295  -0.081  0.00  0.00    -0.073 A 
ATOM      7  C8  UNL d   1       2.937   1.405  -0.524  0.00  0.00     0.078 C 
ENDROOT
BRANCH   1   8
ATOM      8  C1  UNL d   1       3.929  -0.923   1.121  0.00  0.00     0.053 C 
ATOM      9  C   UNL d   1       4.068  -1.188   2.613  0.00  0.00     0.018 C 
ENDBRANCH   1   8
TORSDOF 1
ENDMDL
