MODEL 1
REMARK minimizedAffinity 4.05228519
REMARK minimizedRMSD -1
REMARK  1 active torsions:
REMARK  status: ('A' for Active; 'I' for Inactive)
REMARK    1  A    between atoms: C1_2  and  C2_3 
ROOT
ATOM      1  C2  UNL d   1       0.070  -5.671  -4.820  0.00  0.00    -0.076 A 
ATOM      2  C3  UNL d   1       0.883  -5.999  -5.919  0.00  0.00     0.004 A 
ATOM      3  C4  UNL d   1       2.244  -5.700  -5.919  0.00  0.00    -0.003 A 
ATOM      4  C5  UNL d   1       2.815  -5.068  -4.820  0.00  0.00     0.000 A 
ATOM      5  C6  UNL d   1       2.027  -4.750  -3.714  0.00  0.00     0.000 A 
ATOM      6  C7  UNL d   1       0.656  -5.060  -3.691  0.00  0.00    -0.073 A 
ATOM      7  C8  UNL d   1      -0.147  -4.690  -2.475  0.00  0.00     0.078 C 
ENDROOT
BRANCH   1   8
ATOM      8  C1  UNL d   1      -1.405  -5.996  -4.888  0.00  0.00     0.053 C 
ATOM      9  C   UNL d   1      -2.119  -5.233  -5.994  0.00  0.00     0.018 C 
ENDBRANCH   1   8
TORSDOF 1
ENDMDL
