MODEL 1
REMARK minimizedAffinity 5.233922
REMARK minimizedRMSD -1
REMARK  1 active torsions:
REMARK  status: ('A' for Active; 'I' for Inactive)
REMARK    1  A    between atoms: C1_2  and  C2_3 
ROOT
ATOM      1  C2  UNL d   1       2.916  -1.094   1.652  0.00  0.00    -0.076 A 
ATOM      2  C3  UNL d   1       4.251  -1.015   1.221  0.00  0.00     0.004 A 
ATOM      3  C4  UNL d   1       5.299  -0.939   2.137  0.00  0.00    -0.003 A 
ATOM      4  C5  UNL d   1       5.027  -0.943   3.501  0.00  0.00     0.000 A 
ATOM      5  C6  UNL d   1       3.710  -1.038   3.948  0.00  0.00     0.000 A 
ATOM      6  C7  UNL d   1       2.644  -1.131   3.037  0.00  0.00    -0.073 A 
ATOM      7  C8  UNL d   1       1.242  -1.226   3.574  0.00  0.00     0.078 C 
ENDROOT
BRANCH   1   8
ATOM      8  C1  UNL d   1       1.820  -1.145   0.612  0.00  0.00     0.053 C 
ATOM      9  C   UNL d   1       1.892   0.014  -0.369  0.00  0.00     0.018 C 
ENDBRANCH   1   8
TORSDOF 1
ENDMDL
