MODEL 1
REMARK minimizedAffinity 10.3877344
REMARK minimizedRMSD -1
REMARK  1 active torsions:
REMARK  status: ('A' for Active; 'I' for Inactive)
REMARK    1  A    between atoms: C1_2  and  C2_3 
ROOT
ATOM      1  C2  UNL d   1      -1.338  -5.288  -4.836  0.00  0.00    -0.076 A 
ATOM      2  C3  UNL d   1      -0.700  -5.972  -5.885  0.00  0.00     0.004 A 
ATOM      3  C4  UNL d   1       0.689  -5.977  -5.998  0.00  0.00    -0.003 A 
ATOM      4  C5  UNL d   1       1.463  -5.298  -5.063  0.00  0.00     0.000 A 
ATOM      5  C6  UNL d   1       0.847  -4.629  -4.005  0.00  0.00     0.000 A 
ATOM      6  C7  UNL d   1      -0.551  -4.628  -3.868  0.00  0.00    -0.073 A 
ATOM      7  C8  UNL d   1      -1.162  -3.885  -2.712  0.00  0.00     0.078 C 
ENDROOT
BRANCH   1   8
ATOM      8  C1  UNL d   1      -2.849  -5.295  -4.780  0.00  0.00     0.053 C 
ATOM      9  C   UNL d   1      -3.392  -4.535  -3.579  0.00  0.00     0.018 C 
ENDBRANCH   1   8
TORSDOF 1
ENDMDL
