MODEL 1
REMARK minimizedAffinity 2.69356918
REMARK minimizedRMSD -1
REMARK  1 active torsions:
REMARK  status: ('A' for Active; 'I' for Inactive)
REMARK    1  A    between atoms: C1_2  and  C2_3 
ROOT
ATOM      1  C2  UNL d   1      -1.766   2.696  -3.847  0.00  0.00    -0.076 A 
ATOM      2  C3  UNL d   1      -3.092   3.051  -4.147  0.00  0.00     0.004 A 
ATOM      3  C4  UNL d   1      -4.151   2.201  -3.832  0.00  0.00    -0.003 A 
ATOM      4  C5  UNL d   1      -3.901   0.983  -3.211  0.00  0.00     0.000 A 
ATOM      5  C6  UNL d   1      -2.593   0.622  -2.889  0.00  0.00     0.000 A 
ATOM      6  C7  UNL d   1      -1.515   1.474  -3.185  0.00  0.00    -0.073 A 
ATOM      7  C8  UNL d   1      -0.124   1.032  -2.822  0.00  0.00     0.078 C 
ENDROOT
BRANCH   1   8
ATOM      8  C1  UNL d   1      -0.656   3.645  -4.237  0.00  0.00     0.053 C 
ATOM      9  C   UNL d   1      -1.068   5.104  -4.117  0.00  0.00     0.018 C 
ENDBRANCH   1   8
TORSDOF 1
ENDMDL
