MODEL 1
REMARK minimizedAffinity -0.606685638
REMARK minimizedRMSD -1
REMARK  1 active torsions:
REMARK  status: ('A' for Active; 'I' for Inactive)
REMARK    1  A    between atoms: C1_2  and  C2_3 
ROOT
ATOM      1  C2  UNL d   1      -0.101  -5.785  -3.678  0.00  0.00    -0.076 A 
ATOM      2  C3  UNL d   1      -1.449  -5.900  -3.294  0.00  0.00     0.004 A 
ATOM      3  C4  UNL d   1      -2.461  -5.997  -4.247  0.00  0.00    -0.003 A 
ATOM      4  C5  UNL d   1      -2.142  -5.982  -5.600  0.00  0.00     0.000 A 
ATOM      5  C6  UNL d   1      -0.809  -5.887  -5.999  0.00  0.00     0.000 A 
ATOM      6  C7  UNL d   1       0.225  -5.804  -5.051  0.00  0.00    -0.073 A 
ATOM      7  C8  UNL d   1       1.644  -5.697  -5.537  0.00  0.00     0.078 C 
ENDROOT
BRANCH   1   8
ATOM      8  C1  UNL d   1       0.951  -5.655  -2.600  0.00  0.00     0.053 C 
ATOM      9  C   UNL d   1       0.488  -4.794  -1.435  0.00  0.00     0.018 C 
ENDBRANCH   1   8
TORSDOF 1
ENDMDL
