MODEL 1
REMARK minimizedAffinity 6.50267839
REMARK minimizedRMSD -1
REMARK  1 active torsions:
REMARK  status: ('A' for Active; 'I' for Inactive)
REMARK    1  A    between atoms: C1_2  and  C2_3 
ROOT
ATOM      1  C2  UNL d   1       1.038  -4.999  -3.783  0.00  0.00    -0.076 A 
ATOM      2  C3  UNL d   1       2.431  -4.813  -3.790  0.00  0.00     0.004 A 
ATOM      3  C4  UNL d   1       3.204  -5.222  -4.875  0.00  0.00    -0.003 A 
ATOM      4  C5  UNL d   1       2.596  -5.822  -5.972  0.00  0.00     0.000 A 
ATOM      5  C6  UNL d   1       1.213  -5.998  -5.990  0.00  0.00     0.000 A 
ATOM      6  C7  UNL d   1       0.417  -5.577  -4.911  0.00  0.00    -0.073 A 
ATOM      7  C8  UNL d   1      -1.069  -5.797  -4.981  0.00  0.00     0.078 C 
ENDROOT
BRANCH   1   8
ATOM      8  C1  UNL d   1       0.254  -4.560  -2.566  0.00  0.00     0.053 C 
ATOM      9  C   UNL d   1       1.068  -3.671  -1.639  0.00  0.00     0.018 C 
ENDBRANCH   1   8
TORSDOF 1
ENDMDL
