MODEL 1
REMARK minimizedAffinity 9.68111897
REMARK minimizedRMSD -1
REMARK  0 active torsions:
REMARK  status: ('A' for Active; 'I' for Inactive)
ROOT
ATOM      1  N1  IND d   1      -2.043   0.878   2.983  0.00  0.00    -0.196 N 
ATOM      2  C2  IND d   1      -1.922   2.083   2.349  0.00  0.00     0.054 A 
ATOM      3  C3  IND d   1      -0.638   2.296   1.984  0.00  0.00    -0.031 A 
ATOM      4  C4  IND d   1       1.410   0.756   2.233  0.00  0.00     0.051 A 
ATOM      5  C5  IND d   1       1.804  -0.433   2.780  0.00  0.00    -0.031 A 
ATOM      6  C6  IND d   1       0.916  -1.264   3.433  0.00  0.00     0.015 A 
ATOM      7  C7  IND d   1      -0.405  -0.940   3.554  0.00  0.00    -0.016 A 
ATOM      8  C8  IND d   1      -0.807   0.270   3.006  0.00  0.00    -0.047 A 
ATOM      9  C9  IND d   1       0.097   1.137   2.380  0.00  0.00    -0.096 A 
ATOM     10  HN1 IND d   1      -2.769   0.554   3.311  0.00  0.00     0.298 HD
ENDROOT
TORSDOF 0
ENDMDL
