MODEL 1
REMARK minimizedAffinity -2.44860148
REMARK minimizedRMSD -1
REMARK  0 active torsions:
REMARK  status: ('A' for Active; 'I' for Inactive)
ROOT
ATOM      1  N1  IND d   1      -6.000   2.421  -1.034  0.00  0.00    -0.196 N 
ATOM      2  C2  IND d   1      -5.006   1.482  -1.042  0.00  0.00     0.054 A 
ATOM      3  C3  IND d   1      -3.795   2.079  -1.093  0.00  0.00    -0.031 A 
ATOM      4  C4  IND d   1      -3.204   4.585  -1.067  0.00  0.00     0.051 A 
ATOM      5  C5  IND d   1      -3.774   5.826  -1.101  0.00  0.00    -0.031 A 
ATOM      6  C6  IND d   1      -5.143   6.000  -1.112  0.00  0.00     0.015 A 
ATOM      7  C7  IND d   1      -5.997   4.934  -1.077  0.00  0.00    -0.016 A 
ATOM      8  C8  IND d   1      -5.421   3.671  -1.050  0.00  0.00    -0.047 A 
ATOM      9  C9  IND d   1      -4.033   3.488  -1.082  0.00  0.00    -0.096 A 
ATOM     10  HN1 IND d   1      -6.844   2.259  -1.021  0.00  0.00     0.298 HD
ENDROOT
TORSDOF 0
ENDMDL
