MODEL 1
REMARK minimizedAffinity 6.20068264
REMARK minimizedRMSD -1
REMARK  0 active torsions:
REMARK  status: ('A' for Active; 'I' for Inactive)
ROOT
ATOM      1  N1  IND d   1       0.717  -0.811   0.402  0.00  0.00    -0.196 N 
ATOM      2  C2  IND d   1       1.972  -0.537   0.869  0.00  0.00     0.054 A 
ATOM      3  C3  IND d   1       1.908   0.303   1.926  0.00  0.00    -0.031 A 
ATOM      4  C4  IND d   1      -0.155   1.275   3.121  0.00  0.00     0.051 A 
ATOM      5  C5  IND d   1      -1.517   1.340   3.036  0.00  0.00    -0.031 A 
ATOM      6  C6  IND d   1      -2.219   0.676   2.050  0.00  0.00     0.015 A 
ATOM      7  C7  IND d   1      -1.582  -0.090   1.116  0.00  0.00    -0.016 A 
ATOM      8  C8  IND d   1      -0.198  -0.153   1.195  0.00  0.00    -0.047 A 
ATOM      9  C9  IND d   1       0.523   0.553   2.167  0.00  0.00    -0.096 A 
ATOM     10  HN1 IND d   1       0.530  -1.309  -0.273  0.00  0.00     0.298 HD
ENDROOT
TORSDOF 0
ENDMDL
