MODEL 1
REMARK minimizedAffinity 1.88846946
REMARK minimizedRMSD -1
REMARK  0 active torsions:
REMARK  status: ('A' for Active; 'I' for Inactive)
ROOT
ATOM      1  N1  IND d   1      -3.912   2.122   0.063  0.00  0.00    -0.196 N 
ATOM      2  C2  IND d   1      -4.490   1.202  -0.766  0.00  0.00     0.054 A 
ATOM      3  C3  IND d   1      -3.895  -0.003  -0.618  0.00  0.00    -0.031 A 
ATOM      4  C4  IND d   1      -2.021  -0.715   0.997  0.00  0.00     0.051 A 
ATOM      5  C5  IND d   1      -1.150  -0.215   1.924  0.00  0.00    -0.031 A 
ATOM      6  C6  IND d   1      -1.157   1.116   2.287  0.00  0.00     0.015 A 
ATOM      7  C7  IND d   1      -2.047   1.998   1.743  0.00  0.00    -0.016 A 
ATOM      8  C8  IND d   1      -2.928   1.495   0.796  0.00  0.00    -0.047 A 
ATOM      9  C9  IND d   1      -2.898   0.154   0.392  0.00  0.00    -0.096 A 
ATOM     10  HN1 IND d   1      -4.126   2.953   0.117  0.00  0.00     0.298 HD
ENDROOT
TORSDOF 0
ENDMDL
