MODEL 1
REMARK minimizedAffinity 15.3620768
REMARK minimizedRMSD -1
REMARK  0 active torsions:
REMARK  status: ('A' for Active; 'I' for Inactive)
ROOT
ATOM      1  N1  IND d   1      -3.791   2.246   0.388  0.00  0.00    -0.196 N 
ATOM      2  C2  IND d   1      -4.541   1.650  -0.588  0.00  0.00     0.054 A 
ATOM      3  C3  IND d   1      -4.229   0.338  -0.684  0.00  0.00    -0.031 A 
ATOM      4  C4  IND d   1      -2.592  -1.062   0.726  0.00  0.00     0.051 A 
ATOM      5  C5  IND d   1      -1.652  -0.951   1.712  0.00  0.00    -0.031 A 
ATOM      6  C6  IND d   1      -1.373   0.255   2.320  0.00  0.00     0.015 A 
ATOM      7  C7  IND d   1      -2.035   1.399   1.972  0.00  0.00    -0.016 A 
ATOM      8  C8  IND d   1      -2.985   1.291   0.967  0.00  0.00    -0.047 A 
ATOM      9  C9  IND d   1      -3.243   0.077   0.316  0.00  0.00    -0.096 A 
ATOM     10  HN1 IND d   1      -3.818   3.078   0.603  0.00  0.00     0.298 HD
ENDROOT
TORSDOF 0
ENDMDL
