MODEL 1
REMARK minimizedAffinity 1.7659024
REMARK minimizedRMSD -1
REMARK  2 active torsions:
REMARK  status: ('A' for Active; 'I' for Inactive)
REMARK    1  A    between atoms: C1_2  and  C2_3 
REMARK    2  A    between atoms: C2_3  and  C3_4 
ROOT
ATOM      1  C3  UNL d   1       2.549  -0.529   0.146  0.00  0.00    -0.075 A 
ATOM      2  C4  UNL d   1       1.383   0.250   0.111  0.00  0.00     0.002 A 
ATOM      3  C5  UNL d   1       1.461   1.643   0.152  0.00  0.00     0.002 A 
ATOM      4  C6  UNL d   1       2.701   2.272   0.238  0.00  0.00    -0.004 A 
ATOM      5  C7  UNL d   1       3.864   1.507   0.291  0.00  0.00     0.002 A 
ATOM      6  C8  UNL d   1       3.790   0.114   0.246  0.00  0.00     0.002 A 
ENDROOT
BRANCH   1   7
ATOM      7  C2  UNL d   1       2.473  -2.036   0.073  0.00  0.00     0.056 C 
BRANCH   7   8
ATOM      8  C1  UNL d   1       2.970  -2.621  -1.253  0.00  0.00     0.007 C 
ATOM      9  C   UNL d   1       2.435  -1.883  -2.473  0.00  0.00     0.009 C 
ENDBRANCH   7   8
ENDBRANCH   1   7
TORSDOF 2
ENDMDL
