MODEL 1
REMARK minimizedAffinity 6.54586172
REMARK minimizedRMSD -1
REMARK  2 active torsions:
REMARK  status: ('A' for Active; 'I' for Inactive)
REMARK    1  A    between atoms: C1_2  and  C2_3 
REMARK    2  A    between atoms: C2_3  and  C3_4 
ROOT
ATOM      1  C3  UNL d   1       2.303   0.197   0.870  0.00  0.00    -0.075 A 
ATOM      2  C4  UNL d   1       1.828  -0.461  -0.274  0.00  0.00     0.002 A 
ATOM      3  C5  UNL d   1       2.249  -1.758  -0.572  0.00  0.00     0.002 A 
ATOM      4  C6  UNL d   1       3.157  -2.407   0.262  0.00  0.00    -0.004 A 
ATOM      5  C7  UNL d   1       3.649  -1.756   1.392  0.00  0.00     0.002 A 
ATOM      6  C8  UNL d   1       3.225  -0.461   1.695  0.00  0.00     0.002 A 
ENDROOT
BRANCH   1   7
ATOM      7  C2  UNL d   1       1.828   1.588   1.214  0.00  0.00     0.056 C 
BRANCH   7   8
ATOM      8  C1  UNL d   1       0.501   1.975   0.552  0.00  0.00     0.007 C 
ATOM      9  C   UNL d   1      -0.701   1.805   1.472  0.00  0.00     0.009 C 
ENDBRANCH   7   8
ENDBRANCH   1   7
TORSDOF 2
ENDMDL
