MODEL 1
REMARK minimizedAffinity 0.599890292
REMARK minimizedRMSD -1
REMARK  2 active torsions:
REMARK  status: ('A' for Active; 'I' for Inactive)
REMARK    1  A    between atoms: C1_2  and  C2_3 
REMARK    2  A    between atoms: C2_3  and  C3_4 
ROOT
ATOM      1  C3  UNL d   1      -2.057   0.370  -2.962  0.00  0.00    -0.075 A 
ATOM      2  C4  UNL d   1      -2.573   0.103  -1.686  0.00  0.00     0.002 A 
ATOM      3  C5  UNL d   1      -3.829   0.584  -1.315  0.00  0.00     0.002 A 
ATOM      4  C6  UNL d   1      -4.579   1.345  -2.209  0.00  0.00    -0.004 A 
ATOM      5  C7  UNL d   1      -4.069   1.631  -3.473  0.00  0.00     0.002 A 
ATOM      6  C8  UNL d   1      -2.814   1.147  -3.849  0.00  0.00     0.002 A 
ENDROOT
BRANCH   1   7
ATOM      7  C2  UNL d   1      -0.711  -0.173  -3.380  0.00  0.00     0.056 C 
BRANCH   7   8
ATOM      8  C1  UNL d   1      -0.222  -1.350  -2.530  0.00  0.00     0.007 C 
ATOM      9  C   UNL d   1       1.207  -1.769  -2.851  0.00  0.00     0.009 C 
ENDBRANCH   7   8
ENDBRANCH   1   7
TORSDOF 2
ENDMDL
