MODEL 1
REMARK minimizedAffinity 3.70140457
REMARK minimizedRMSD -1
REMARK  2 active torsions:
REMARK  status: ('A' for Active; 'I' for Inactive)
REMARK    1  A    between atoms: C1_2  and  C2_3 
REMARK    2  A    between atoms: C2_3  and  C3_4 
ROOT
ATOM      1  C3  UNL d   1      -2.952  -0.059  -3.750  0.00  0.00    -0.075 A 
ATOM      2  C4  UNL d   1      -3.870  -1.015  -3.290  0.00  0.00     0.002 A 
ATOM      3  C5  UNL d   1      -5.131  -1.124  -3.876  0.00  0.00     0.002 A 
ATOM      4  C6  UNL d   1      -5.494  -0.275  -4.919  0.00  0.00    -0.004 A 
ATOM      5  C7  UNL d   1      -4.596   0.689  -5.373  0.00  0.00     0.002 A 
ATOM      6  C8  UNL d   1      -3.332   0.798  -4.791  0.00  0.00     0.002 A 
ENDROOT
BRANCH   1   7
ATOM      7  C2  UNL d   1      -1.574   0.045  -3.140  0.00  0.00     0.056 C 
BRANCH   7   8
ATOM      8  C1  UNL d   1      -0.526  -0.849  -3.811  0.00  0.00     0.007 C 
ATOM      9  C   UNL d   1       0.126  -1.834  -2.850  0.00  0.00     0.009 C 
ENDBRANCH   7   8
ENDBRANCH   1   7
TORSDOF 2
ENDMDL
