MODEL 1
REMARK minimizedAffinity 1.67526734
REMARK minimizedRMSD -1
REMARK  2 active torsions:
REMARK  status: ('A' for Active; 'I' for Inactive)
REMARK    1  A    between atoms: C1_2  and  C2_3 
REMARK    2  A    between atoms: C2_3  and  C3_4 
ROOT
ATOM      1  C3  UNL d   1       1.436   1.893   0.794  0.00  0.00    -0.075 A 
ATOM      2  C4  UNL d   1       2.409   2.836   1.157  0.00  0.00     0.002 A 
ATOM      3  C5  UNL d   1       3.763   2.503   1.131  0.00  0.00     0.002 A 
ATOM      4  C6  UNL d   1       4.162   1.223   0.753  0.00  0.00    -0.004 A 
ATOM      5  C7  UNL d   1       3.203   0.273   0.406  0.00  0.00     0.002 A 
ATOM      6  C8  UNL d   1       1.848   0.604   0.427  0.00  0.00     0.002 A 
ENDROOT
BRANCH   1   7
ATOM      7  C2  UNL d   1      -0.029   2.256   0.792  0.00  0.00     0.056 C 
BRANCH   7   8
ATOM      8  C1  UNL d   1      -0.563   2.704   2.157  0.00  0.00     0.007 C 
ATOM      9  C   UNL d   1      -0.502   1.609   3.214  0.00  0.00     0.009 C 
ENDBRANCH   7   8
ENDBRANCH   1   7
TORSDOF 2
ENDMDL
