MODEL 1
REMARK minimizedAffinity 4.36662865
REMARK minimizedRMSD -1
REMARK  2 active torsions:
REMARK  status: ('A' for Active; 'I' for Inactive)
REMARK    1  A    between atoms: C1_2  and  C2_3 
REMARK    2  A    between atoms: C2_3  and  C3_4 
ROOT
ATOM      1  C3  UNL d   1       2.386   0.537   0.567  0.00  0.00    -0.075 A 
ATOM      2  C4  UNL d   1       1.025   0.545   0.228  0.00  0.00     0.002 A 
ATOM      3  C5  UNL d   1       0.351   1.751   0.032  0.00  0.00     0.002 A 
ATOM      4  C6  UNL d   1       1.025   2.961   0.182  0.00  0.00    -0.004 A 
ATOM      5  C7  UNL d   1       2.373   2.965   0.535  0.00  0.00     0.002 A 
ATOM      6  C8  UNL d   1       3.050   1.760   0.728  0.00  0.00     0.002 A 
ENDROOT
BRANCH   1   7
ATOM      7  C2  UNL d   1       3.128  -0.765   0.752  0.00  0.00     0.056 C 
BRANCH   7   8
ATOM      8  C1  UNL d   1       2.311  -2.007   0.381  0.00  0.00     0.007 C 
ATOM      9  C   UNL d   1       2.321  -2.309  -1.111  0.00  0.00     0.009 C 
ENDBRANCH   7   8
ENDBRANCH   1   7
TORSDOF 2
ENDMDL
