MODEL 1
REMARK minimizedAffinity -4.09338713
REMARK minimizedRMSD -1
REMARK  0 active torsions:
REMARK  status: ('A' for Active; 'I' for Inactive)
ROOT
ATOM      1  C4' PXY d   1      -1.262   1.965   2.291  0.00  0.00     0.077 C 
ATOM      2  C1' PXY d   1       1.326  -0.379  -2.316  0.00  0.00     0.077 C 
ATOM      3  C1  PXY d   1       0.648   0.224  -1.101  0.00  0.00    -0.082 A 
ATOM      4  C2  PXY d   1      -0.104   1.304  -1.241  0.00  0.00     0.003 A 
ATOM      5  C3  PXY d   1      -0.699   1.881  -0.149  0.00  0.00     0.003 A 
ATOM      6  C4  PXY d   1      -0.566   1.317   1.092  0.00  0.00    -0.082 A 
ATOM      7  C5  PXY d   1       0.191   0.209   1.241  0.00  0.00     0.003 A 
ATOM      8  C6  PXY d   1       0.820  -0.338   0.126  0.00  0.00     0.003 A 
ENDROOT
TORSDOF 0
ENDMDL
