MODEL 1
REMARK minimizedAffinity -3.61002827
REMARK minimizedRMSD -1
REMARK  0 active torsions:
REMARK  status: ('A' for Active; 'I' for Inactive)
ROOT
ATOM      1  C4' PXY d   1      -1.217   2.901   1.866  0.00  0.00     0.077 C 
ATOM      2  C1' PXY d   1       0.499  -1.579  -1.360  0.00  0.00     0.077 C 
ATOM      3  C1  PXY d   1       0.053  -0.396  -0.523  0.00  0.00    -0.082 A 
ATOM      4  C2  PXY d   1      -0.049  -0.525   0.790  0.00  0.00     0.003 A 
ATOM      5  C3  PXY d   1      -0.481   0.525   1.558  0.00  0.00     0.003 A 
ATOM      6  C4  PXY d   1      -0.762   1.736   0.983  0.00  0.00    -0.082 A 
ATOM      7  C5  PXY d   1      -0.650   1.878  -0.355  0.00  0.00     0.003 A 
ATOM      8  C6  PXY d   1      -0.249   0.788  -1.122  0.00  0.00     0.003 A 
ENDROOT
TORSDOF 0
ENDMDL
