MODEL 1
REMARK minimizedAffinity -2.07028222
REMARK minimizedRMSD -1
REMARK  0 active torsions:
REMARK  status: ('A' for Active; 'I' for Inactive)
ROOT
ATOM      1  C4' PXY d   1      -0.014   3.238   1.652  0.00  0.00     0.077 C 
ATOM      2  C1' PXY d   1      -0.248  -1.791  -1.188  0.00  0.00     0.077 C 
ATOM      3  C1  PXY d   1      -0.196  -0.467  -0.451  0.00  0.00    -0.082 A 
ATOM      4  C2  PXY d   1       0.908  -0.119   0.190  0.00  0.00     0.003 A 
ATOM      5  C3  PXY d   1       0.961   1.060   0.888  0.00  0.00     0.003 A 
ATOM      6  C4  PXY d   1      -0.108   1.916   0.886  0.00  0.00    -0.082 A 
ATOM      7  C5  PXY d   1      -1.234   1.572   0.225  0.00  0.00     0.003 A 
ATOM      8  C6  PXY d   1      -1.282   0.352  -0.443  0.00  0.00     0.003 A 
ENDROOT
TORSDOF 0
ENDMDL
