MODEL 1
REMARK minimizedAffinity -5.01986265
REMARK minimizedRMSD -1
REMARK  0 active torsions:
REMARK  status: ('A' for Active; 'I' for Inactive)
ROOT
ATOM      1  C4' PXY d   1       0.702  -1.706  -0.857  0.00  0.00     0.077 C 
ATOM      2  C1' PXY d   1      -1.283   3.163   1.545  0.00  0.00     0.077 C 
ATOM      3  C1  PXY d   1      -0.770   1.888   0.905  0.00  0.00    -0.082 A 
ATOM      4  C2  PXY d   1      -0.242   0.942   1.664  0.00  0.00     0.003 A 
ATOM      5  C3  PXY d   1       0.256  -0.204   1.098  0.00  0.00     0.003 A 
ATOM      6  C4  PXY d   1       0.163  -0.406  -0.253  0.00  0.00    -0.082 A 
ATOM      7  C5  PXY d   1      -0.385   0.550  -1.033  0.00  0.00     0.003 A 
ATOM      8  C6  PXY d   1      -0.847   1.723  -0.444  0.00  0.00     0.003 A 
ENDROOT
TORSDOF 0
ENDMDL
