MODEL 1
REMARK minimizedAffinity -2.58119321
REMARK minimizedRMSD -1
REMARK  0 active torsions:
REMARK  status: ('A' for Active; 'I' for Inactive)
ROOT
ATOM      1  C4' PXY d   1      -1.746   2.007  -1.509  0.00  0.00     0.077 C 
ATOM      2  C1' PXY d   1       2.111  -0.576   1.937  0.00  0.00     0.077 C 
ATOM      3  C1  PXY d   1       1.091   0.102   1.043  0.00  0.00    -0.082 A 
ATOM      4  C2  PXY d   1       1.161  -0.059  -0.269  0.00  0.00     0.003 A 
ATOM      5  C3  PXY d   1       0.266   0.573  -1.093  0.00  0.00     0.003 A 
ATOM      6  C4  PXY d   1      -0.743   1.334  -0.567  0.00  0.00    -0.082 A 
ATOM      7  C5  PXY d   1      -0.828   1.494   0.770  0.00  0.00     0.003 A 
ATOM      8  C6  PXY d   1       0.115   0.877   1.588  0.00  0.00     0.003 A 
ENDROOT
TORSDOF 0
ENDMDL
