MODEL 1
REMARK minimizedAffinity -4.53055429
REMARK minimizedRMSD -1
REMARK  0 active torsions:
REMARK  status: ('A' for Active; 'I' for Inactive)
ROOT
ATOM      1  C4' PXY d   1      -0.044  -2.479  -0.980  0.00  0.00     0.077 C 
ATOM      2  C1' PXY d   1      -0.147   2.619   1.742  0.00  0.00     0.077 C 
ATOM      3  C1  PXY d   1      -0.125   1.288   1.018  0.00  0.00    -0.082 A 
ATOM      4  C2  PXY d   1      -0.109   0.164   1.716  0.00  0.00     0.003 A 
ATOM      5  C3  PXY d   1      -0.057  -1.048   1.077  0.00  0.00     0.003 A 
ATOM      6  C4  PXY d   1      -0.076  -1.112  -0.291  0.00  0.00    -0.082 A 
ATOM      7  C5  PXY d   1      -0.103   0.030  -1.010  0.00  0.00     0.003 A 
ATOM      8  C6  PXY d   1      -0.114   1.252  -0.342  0.00  0.00     0.003 A 
ENDROOT
TORSDOF 0
ENDMDL
