MODEL 1
REMARK minimizedAffinity -1.06513107
REMARK minimizedRMSD -1
REMARK  0 active torsions:
REMARK  status: ('A' for Active; 'I' for Inactive)
ROOT
ATOM      1  C4' PXY d   1       0.070  -2.242  -1.637  0.00  0.00     0.077 C 
ATOM      2  C1' PXY d   1       0.242   2.454   1.730  0.00  0.00     0.077 C 
ATOM      3  C1  PXY d   1       0.189   1.229   0.838  0.00  0.00    -0.082 A 
ATOM      4  C2  PXY d   1       0.410   0.032   1.358  0.00  0.00     0.003 A 
ATOM      5  C3  PXY d   1       0.397  -1.083   0.560  0.00  0.00     0.003 A 
ATOM      6  C4  PXY d   1       0.104  -0.978  -0.773  0.00  0.00    -0.082 A 
ATOM      7  C5  PXY d   1      -0.133   0.238  -1.308  0.00  0.00     0.003 A 
ATOM      8  C6  PXY d   1      -0.075   1.362  -0.490  0.00  0.00     0.003 A 
ENDROOT
TORSDOF 0
ENDMDL
