MODEL 1
REMARK minimizedAffinity -3.91355252
REMARK minimizedRMSD -1
REMARK  0 active torsions:
REMARK  status: ('A' for Active; 'I' for Inactive)
ROOT
ATOM      1  C4' PXY d   1      -1.237   2.669   1.589  0.00  0.00     0.077 C 
ATOM      2  C1' PXY d   1       0.887  -2.171  -0.752  0.00  0.00     0.077 C 
ATOM      3  C1  PXY d   1       0.330  -0.896  -0.150  0.00  0.00    -0.082 A 
ATOM      4  C2  PXY d   1       0.515  -0.645   1.136  0.00  0.00     0.003 A 
ATOM      5  C3  PXY d   1      -0.009   0.488   1.704  0.00  0.00     0.003 A 
ATOM      6  C4  PXY d   1      -0.684   1.399   0.937  0.00  0.00    -0.082 A 
ATOM      7  C5  PXY d   1      -0.868   1.155  -0.378  0.00  0.00     0.003 A 
ATOM      8  C6  PXY d   1      -0.363  -0.021  -0.927  0.00  0.00     0.003 A 
ENDROOT
TORSDOF 0
ENDMDL
