MODEL 1
REMARK minimizedAffinity -3.05216956
REMARK minimizedRMSD -1
REMARK  0 active torsions:
REMARK  status: ('A' for Active; 'I' for Inactive)
ROOT
ATOM      1  C4' PXY d   1       0.752  -1.962  -1.198  0.00  0.00     0.077 C 
ATOM      2  C1' PXY d   1      -0.757   2.870   1.592  0.00  0.00     0.077 C 
ATOM      3  C1  PXY d   1      -0.373   1.604   0.853  0.00  0.00    -0.082 A 
ATOM      4  C2  PXY d   1       0.472   0.752   1.411  0.00  0.00     0.003 A 
ATOM      5  C3  PXY d   1       0.856  -0.383   0.744  0.00  0.00     0.003 A 
ATOM      6  C4  PXY d   1       0.328  -0.675  -0.485  0.00  0.00    -0.082 A 
ATOM      7  C5  PXY d   1      -0.543   0.183  -1.056  0.00  0.00     0.003 A 
ATOM      8  C6  PXY d   1      -0.888   1.350  -0.380  0.00  0.00     0.003 A 
ENDROOT
TORSDOF 0
ENDMDL
