MODEL 1
REMARK minimizedAffinity -5.23127031
REMARK minimizedRMSD -1
REMARK  0 active torsions:
REMARK  status: ('A' for Active; 'I' for Inactive)
ROOT
ATOM      1  C4' PXY d   1      -1.313   2.976   1.587  0.00  0.00     0.077 C 
ATOM      2  C1' PXY d   1       0.978  -1.567  -1.156  0.00  0.00     0.077 C 
ATOM      3  C1  PXY d   1       0.377  -0.369  -0.448  0.00  0.00    -0.082 A 
ATOM      4  C2  PXY d   1       0.582  -0.205   0.848  0.00  0.00     0.003 A 
ATOM      5  C3  PXY d   1       0.020   0.856   1.511  0.00  0.00     0.003 A 
ATOM      6  C4  PXY d   1      -0.718   1.786   0.829  0.00  0.00    -0.082 A 
ATOM      7  C5  PXY d   1      -0.923   1.631  -0.496  0.00  0.00     0.003 A 
ATOM      8  C6  PXY d   1      -0.377   0.526  -1.142  0.00  0.00     0.003 A 
ENDROOT
TORSDOF 0
ENDMDL
