MODEL 1
REMARK minimizedAffinity -5.47525978
REMARK minimizedRMSD -1
REMARK  1 active torsions:
REMARK  status: ('A' for Active; 'I' for Inactive)
REMARK    1  A    between atoms: C1_2  and  C2_3 
ROOT
ATOM      1  C2  UNL d   1       0.280  -0.142   0.824  0.00  0.00    -0.076 A 
ATOM      2  C3  UNL d   1      -1.018   0.351   0.606  0.00  0.00     0.004 A 
ATOM      3  C4  UNL d   1      -1.715   1.009   1.618  0.00  0.00    -0.003 A 
ATOM      4  C5  UNL d   1      -1.124   1.186   2.865  0.00  0.00     0.000 A 
ATOM      5  C6  UNL d   1       0.169   0.718   3.093  0.00  0.00     0.000 A 
ATOM      6  C7  UNL d   1       0.892   0.067   2.079  0.00  0.00    -0.073 A 
ATOM      7  C8  UNL d   1       2.282  -0.422   2.382  0.00  0.00     0.078 C 
ENDROOT
BRANCH   1   8
ATOM      8  C1  UNL d   1       0.976  -0.872  -0.302  0.00  0.00     0.053 C 
ATOM      9  C   UNL d   1       0.528  -0.390  -1.673  0.00  0.00     0.018 C 
ENDBRANCH   1   8
TORSDOF 1
ENDMDL
