MODEL 1
REMARK minimizedAffinity -4.01081705
REMARK minimizedRMSD -1
REMARK  1 active torsions:
REMARK  status: ('A' for Active; 'I' for Inactive)
REMARK    1  A    between atoms: C1_2  and  C2_3 
ROOT
ATOM      1  C2  UNL d   1       0.117   0.022   0.811  0.00  0.00    -0.076 A 
ATOM      2  C3  UNL d   1      -1.257   0.310   0.739  0.00  0.00     0.004 A 
ATOM      3  C4  UNL d   1      -1.993   0.590   1.889  0.00  0.00    -0.003 A 
ATOM      4  C5  UNL d   1      -1.366   0.587   3.130  0.00  0.00     0.000 A 
ATOM      5  C6  UNL d   1      -0.000   0.320   3.219  0.00  0.00     0.000 A 
ATOM      6  C7  UNL d   1       0.759   0.052   2.067  0.00  0.00    -0.073 A 
ATOM      7  C8  UNL d   1       2.228  -0.236   2.221  0.00  0.00     0.078 C 
ENDROOT
BRANCH   1   8
ATOM      8  C1  UNL d   1       0.857  -0.301  -0.467  0.00  0.00     0.053 C 
ATOM      9  C   UNL d   1       0.019  -0.037  -1.709  0.00  0.00     0.018 C 
ENDBRANCH   1   8
TORSDOF 1
ENDMDL
