MODEL 1
REMARK minimizedAffinity -4.92107487
REMARK minimizedRMSD -1
REMARK  1 active torsions:
REMARK  status: ('A' for Active; 'I' for Inactive)
REMARK    1  A    between atoms: C1_2  and  C2_3 
ROOT
ATOM      1  C2  UNL d   1       0.197  -0.042   0.748  0.00  0.00    -0.076 A 
ATOM      2  C3  UNL d   1       1.465  -0.608   0.968  0.00  0.00     0.004 A 
ATOM      3  C4  UNL d   1       2.087  -0.513   2.212  0.00  0.00    -0.003 A 
ATOM      4  C5  UNL d   1       1.451   0.150   3.256  0.00  0.00     0.000 A 
ATOM      5  C6  UNL d   1       0.185   0.702   3.060  0.00  0.00     0.000 A 
ATOM      6  C7  UNL d   1      -0.463   0.601   1.817  0.00  0.00    -0.073 A 
ATOM      7  C8  UNL d   1      -1.824   1.221   1.660  0.00  0.00     0.078 C 
ENDROOT
BRANCH   1   8
ATOM      8  C1  UNL d   1      -0.416  -0.153  -0.630  0.00  0.00     0.053 C 
ATOM      9  C   UNL d   1       0.631  -0.212  -1.731  0.00  0.00     0.018 C 
ENDBRANCH   1   8
TORSDOF 1
ENDMDL
