MODEL 1
REMARK minimizedAffinity -4.01229858
REMARK minimizedRMSD -1
REMARK  1 active torsions:
REMARK  status: ('A' for Active; 'I' for Inactive)
REMARK    1  A    between atoms: C1_2  and  C2_3 
ROOT
ATOM      1  C2  UNL d   1       0.683   0.086   1.135  0.00  0.00    -0.076 A 
ATOM      2  C3  UNL d   1      -0.671   0.354   0.871  0.00  0.00     0.004 A 
ATOM      3  C4  UNL d   1      -1.518   0.828   1.872  0.00  0.00    -0.003 A 
ATOM      4  C5  UNL d   1      -1.023   1.043   3.153  0.00  0.00     0.000 A 
ATOM      5  C6  UNL d   1       0.322   0.799   3.429  0.00  0.00     0.000 A 
ATOM      6  C7  UNL d   1       1.192   0.337   2.427  0.00  0.00    -0.073 A 
ATOM      7  C8  UNL d   1       2.632   0.085   2.782  0.00  0.00     0.078 C 
ENDROOT
BRANCH   1   8
ATOM      8  C1  UNL d   1       1.547  -0.453   0.017  0.00  0.00     0.053 C 
ATOM      9  C   UNL d   1       0.733  -1.148  -1.064  0.00  0.00     0.018 C 
ENDBRANCH   1   8
TORSDOF 1
ENDMDL
