MODEL 1
REMARK minimizedAffinity -5.34205532
REMARK minimizedRMSD -1
REMARK  1 active torsions:
REMARK  status: ('A' for Active; 'I' for Inactive)
REMARK    1  A    between atoms: C1_2  and  C2_3 
ROOT
ATOM      1  C2  UNL d   1       0.101   0.237   1.274  0.00  0.00    -0.076 A 
ATOM      2  C3  UNL d   1      -0.689   1.026   2.128  0.00  0.00     0.004 A 
ATOM      3  C4  UNL d   1      -0.290   1.287   3.438  0.00  0.00    -0.003 A 
ATOM      4  C5  UNL d   1       0.906   0.763   3.915  0.00  0.00     0.000 A 
ATOM      5  C6  UNL d   1       1.711  -0.007   3.077  0.00  0.00     0.000 A 
ATOM      6  C7  UNL d   1       1.332  -0.266   1.749  0.00  0.00    -0.073 A 
ATOM      7  C8  UNL d   1       2.235  -1.108   0.891  0.00  0.00     0.078 C 
ENDROOT
BRANCH   1   8
ATOM      8  C1  UNL d   1      -0.396  -0.034  -0.128  0.00  0.00     0.053 C 
ATOM      9  C   UNL d   1      -1.851  -0.474  -0.155  0.00  0.00     0.018 C 
ENDBRANCH   1   8
TORSDOF 1
ENDMDL
