MODEL 1
REMARK minimizedAffinity -5.59171295
REMARK minimizedRMSD -1
REMARK  1 active torsions:
REMARK  status: ('A' for Active; 'I' for Inactive)
REMARK    1  A    between atoms: C1_2  and  C2_3 
ROOT
ATOM      1  C2  UNL d   1       0.358   0.281   1.396  0.00  0.00    -0.076 A 
ATOM      2  C3  UNL d   1       1.556  -0.315   1.826  0.00  0.00     0.004 A 
ATOM      3  C4  UNL d   1       1.911  -0.320   3.174  0.00  0.00    -0.003 A 
ATOM      4  C5  UNL d   1       1.073   0.270   4.114  0.00  0.00     0.000 A 
ATOM      5  C6  UNL d   1      -0.128   0.851   3.707  0.00  0.00     0.000 A 
ATOM      6  C7  UNL d   1      -0.509   0.850   2.354  0.00  0.00    -0.073 A 
ATOM      7  C8  UNL d   1      -1.812   1.495   1.970  0.00  0.00     0.078 C 
ENDROOT
BRANCH   1   8
ATOM      8  C1  UNL d   1       0.039   0.280  -0.082  0.00  0.00     0.053 C 
ATOM      9  C   UNL d   1       0.461  -1.010  -0.768  0.00  0.00     0.018 C 
ENDBRANCH   1   8
TORSDOF 1
ENDMDL
