MODEL 1
REMARK minimizedAffinity -2.95493746
REMARK minimizedRMSD -1
REMARK  1 active torsions:
REMARK  status: ('A' for Active; 'I' for Inactive)
REMARK    1  A    between atoms: C1_2  and  C2_3 
ROOT
ATOM      1  C2  UNL d   1      -0.002  -0.591  -0.430  0.00  0.00    -0.077 A 
ATOM      2  C3  UNL d   1       0.592  -0.980   0.779  0.00  0.00     0.002 A 
ATOM      3  C4  UNL d   1       0.485  -0.169   1.911  0.00  0.00     0.002 A 
ATOM      4  C5  UNL d   1      -0.219   1.032   1.846  0.00  0.00    -0.004 A 
ATOM      5  C6  UNL d   1      -0.811   1.427   0.647  0.00  0.00     0.002 A 
ATOM      6  C7  UNL d   1      -0.704   0.619  -0.485  0.00  0.00     0.002 A 
ENDROOT
BRANCH   1   7
ATOM      7  C1  UNL d   1       0.071  -1.488  -1.639  0.00  0.00     0.055 C 
ATOM      8  C   UNL d   1       0.115  -2.955  -1.238  0.00  0.00     0.019 C 
ENDBRANCH   1   7
TORSDOF 1
ENDMDL
