MODEL 1
REMARK minimizedAffinity 4.80804873
REMARK minimizedRMSD -1
REMARK  1 active torsions:
REMARK  status: ('A' for Active; 'I' for Inactive)
REMARK    1  A    between atoms: C1_2  and  C2_3 
ROOT
ATOM      1  C2  UNL d   1       0.406   0.413   0.036  0.00  0.00    -0.077 A 
ATOM      2  C3  UNL d   1       1.292  -0.664   0.181  0.00  0.00     0.002 A 
ATOM      3  C4  UNL d   1       1.703  -1.073   1.451  0.00  0.00     0.002 A 
ATOM      4  C5  UNL d   1       1.230  -0.414   2.584  0.00  0.00    -0.004 A 
ATOM      5  C6  UNL d   1       0.350   0.658   2.450  0.00  0.00     0.002 A 
ATOM      6  C7  UNL d   1      -0.061   1.069   1.181  0.00  0.00     0.002 A 
ENDROOT
BRANCH   1   7
ATOM      7  C1  UNL d   1      -0.078   0.824  -1.331  0.00  0.00     0.055 C 
ATOM      8  C   UNL d   1      -1.567   1.135  -1.321  0.00  0.00     0.019 C 
ENDBRANCH   1   7
TORSDOF 1
ENDMDL
