MODEL 1
REMARK minimizedAffinity -2.10622048
REMARK minimizedRMSD -1
REMARK  1 active torsions:
REMARK  status: ('A' for Active; 'I' for Inactive)
REMARK    1  A    between atoms: N_2  and  C1_3 
ROOT
ATOM      1  C1  UNL d   1       4.344  -0.449  -1.587  0.00  0.00     0.143 A 
ATOM      2  C2  UNL d   1       3.787   0.832  -1.510  0.00  0.00    -0.057 A 
ATOM      3  C3  UNL d   1       2.514   1.039  -0.966  0.00  0.00     0.033 A 
ATOM      4  C4  UNL d   1       1.761  -0.040  -0.513  0.00  0.00    -0.042 A 
ATOM      5  C5  UNL d   1       2.284  -1.325  -0.602  0.00  0.00     0.033 A 
ATOM      6  C6  UNL d   1       3.559  -1.524  -1.141  0.00  0.00    -0.057 A 
ENDROOT
BRANCH   1   7
ATOM      7  N   UNL d   1       5.563  -0.731  -2.207  0.00  0.00    -0.732 N 
ATOM      8  C   UNL d   1       5.997   0.028  -3.361  0.00  0.00     0.284 C 
ATOM      9  H3  UNL d   1       6.303  -0.928  -1.538  0.00  0.00     0.395 HD
ENDBRANCH   1   7
TORSDOF 1
ENDMDL
