MODEL 1
REMARK minimizedAffinity -0.55451256
REMARK minimizedRMSD -1
REMARK  1 active torsions:
REMARK  status: ('A' for Active; 'I' for Inactive)
REMARK    1  A    between atoms: N_2  and  C1_3 
ROOT
ATOM      1  C1  UNL d   1       0.043  -0.533   1.774  0.00  0.00     0.143 A 
ATOM      2  C2  UNL d   1       0.200  -1.488   0.763  0.00  0.00    -0.057 A 
ATOM      3  C3  UNL d   1       1.188  -1.350  -0.219  0.00  0.00     0.033 A 
ATOM      4  C4  UNL d   1       2.022  -0.237  -0.224  0.00  0.00    -0.042 A 
ATOM      5  C5  UNL d   1       1.868   0.738   0.756  0.00  0.00     0.033 A 
ATOM      6  C6  UNL d   1       0.883   0.591   1.738  0.00  0.00    -0.057 A 
ENDROOT
BRANCH   1   7
ATOM      7  N   UNL d   1      -0.984  -0.563   2.720  0.00  0.00    -0.732 N 
ATOM      8  C   UNL d   1      -2.196  -1.312   2.469  0.00  0.00     0.284 C 
ATOM      9  H3  UNL d   1      -0.634  -0.646   3.671  0.00  0.00     0.395 HD
ENDBRANCH   1   7
TORSDOF 1
ENDMDL
