MODEL 1
REMARK minimizedAffinity -0.322350562
REMARK minimizedRMSD -1
REMARK  1 active torsions:
REMARK  status: ('A' for Active; 'I' for Inactive)
REMARK    1  A    between atoms: N_2  and  C1_3 
ROOT
ATOM      1  C1  UNL d   1       2.638  -0.784  -0.883  0.00  0.00     0.143 A 
ATOM      2  C2  UNL d   1       2.187  -1.843  -0.089  0.00  0.00    -0.057 A 
ATOM      3  C3  UNL d   1       1.223  -1.645   0.907  0.00  0.00     0.033 A 
ATOM      4  C4  UNL d   1       0.714  -0.373   1.147  0.00  0.00    -0.042 A 
ATOM      5  C5  UNL d   1       1.167   0.700   0.387  0.00  0.00     0.033 A 
ATOM      6  C6  UNL d   1       2.124   0.494  -0.611  0.00  0.00    -0.057 A 
ENDROOT
BRANCH   1   7
ATOM      7  N   UNL d   1       3.666  -0.899  -1.823  0.00  0.00    -0.732 N 
ATOM      8  C   UNL d   1       4.251   0.280  -2.424  0.00  0.00     0.284 C 
ATOM      9  H3  UNL d   1       4.342  -1.617  -1.574  0.00  0.00     0.395 HD
ENDBRANCH   1   7
TORSDOF 1
ENDMDL
