MODEL 1
REMARK minimizedAffinity -1.1763854
REMARK minimizedRMSD -1
REMARK  1 active torsions:
REMARK  status: ('A' for Active; 'I' for Inactive)
REMARK    1  A    between atoms: N_2  and  C1_3 
ROOT
ATOM      1  C1  UNL d   1       3.815  -0.625  -1.430  0.00  0.00     0.143 A 
ATOM      2  C2  UNL d   1       3.284   0.659  -1.264  0.00  0.00    -0.057 A 
ATOM      3  C3  UNL d   1       2.106   0.868  -0.536  0.00  0.00     0.033 A 
ATOM      4  C4  UNL d   1       1.420  -0.210   0.014  0.00  0.00    -0.042 A 
ATOM      5  C5  UNL d   1       1.916  -1.497  -0.160  0.00  0.00     0.033 A 
ATOM      6  C6  UNL d   1       3.097  -1.699  -0.882  0.00  0.00    -0.057 A 
ENDROOT
BRANCH   1   7
ATOM      7  N   UNL d   1       4.928  -0.909  -2.225  0.00  0.00    -0.732 N 
ATOM      8  C   UNL d   1       5.734   0.160  -2.774  0.00  0.00     0.284 C 
ATOM      9  H3  UNL d   1       5.467  -1.696  -1.872  0.00  0.00     0.395 HD
ENDBRANCH   1   7
TORSDOF 1
ENDMDL
