MODEL 1
REMARK minimizedAffinity -1.45455348
REMARK minimizedRMSD -1
REMARK  1 active torsions:
REMARK  status: ('A' for Active; 'I' for Inactive)
REMARK    1  A    between atoms: N_2  and  C1_3 
ROOT
ATOM      1  C1  UNL d   1       2.700  -0.840  -1.141  0.00  0.00     0.143 A 
ATOM      2  C2  UNL d   1       2.118  -1.616  -0.132  0.00  0.00    -0.057 A 
ATOM      3  C3  UNL d   1       1.212  -1.061   0.780  0.00  0.00     0.033 A 
ATOM      4  C4  UNL d   1       0.893   0.292   0.717  0.00  0.00    -0.042 A 
ATOM      5  C5  UNL d   1       1.479   1.088  -0.262  0.00  0.00     0.033 A 
ATOM      6  C6  UNL d   1       2.378   0.526  -1.174  0.00  0.00    -0.057 A 
ENDROOT
BRANCH   1   7
ATOM      7  N   UNL d   1       3.682  -1.311  -2.015  0.00  0.00    -0.732 N 
ATOM      8  C   UNL d   1       4.603  -0.394  -2.652  0.00  0.00     0.284 C 
ATOM      9  H3  UNL d   1       4.113  -2.172  -1.688  0.00  0.00     0.395 HD
ENDBRANCH   1   7
TORSDOF 1
ENDMDL
