MODEL 1
REMARK minimizedAffinity 5.55287647
REMARK minimizedRMSD -1
REMARK  1 active torsions:
REMARK  status: ('A' for Active; 'I' for Inactive)
REMARK    1  A    between atoms: N_2  and  C1_3 
ROOT
ATOM      1  C1  UNL d   1      -0.338   3.480  -3.229  0.00  0.00     0.143 A 
ATOM      2  C2  UNL d   1      -1.729   3.346  -3.154  0.00  0.00    -0.057 A 
ATOM      3  C3  UNL d   1      -2.519   4.318  -2.527  0.00  0.00     0.033 A 
ATOM      4  C4  UNL d   1      -1.926   5.429  -1.936  0.00  0.00    -0.042 A 
ATOM      5  C5  UNL d   1      -0.544   5.570  -1.977  0.00  0.00     0.033 A 
ATOM      6  C6  UNL d   1       0.239   4.600  -2.610  0.00  0.00    -0.057 A 
ENDROOT
BRANCH   1   7
ATOM      7  N   UNL d   1       0.510   2.501  -3.752  0.00  0.00    -0.732 N 
ATOM      8  C   UNL d   1       0.021   1.164  -4.013  0.00  0.00     0.284 C 
ATOM      9  H3  UNL d   1       1.126   2.866  -4.475  0.00  0.00     0.395 HD
ENDBRANCH   1   7
TORSDOF 1
ENDMDL
