MODEL 1
REMARK minimizedAffinity -0.955713272
REMARK minimizedRMSD -1
REMARK  1 active torsions:
REMARK  status: ('A' for Active; 'I' for Inactive)
REMARK    1  A    between atoms: N_2  and  C1_3 
ROOT
ATOM      1  C1  UNL d   1       0.056  -0.707   1.533  0.00  0.00     0.143 A 
ATOM      2  C2  UNL d   1       0.434  -1.962   1.042  0.00  0.00    -0.057 A 
ATOM      3  C3  UNL d   1       1.611  -2.127   0.303  0.00  0.00     0.033 A 
ATOM      4  C4  UNL d   1       2.419  -1.032   0.015  0.00  0.00    -0.042 A 
ATOM      5  C5  UNL d   1       2.050   0.228   0.471  0.00  0.00     0.033 A 
ATOM      6  C6  UNL d   1       0.877   0.386   1.215  0.00  0.00    -0.057 A 
ENDROOT
BRANCH   1   7
ATOM      7  N   UNL d   1      -1.152  -0.461   2.190  0.00  0.00    -0.732 N 
ATOM      8  C   UNL d   1      -2.289  -1.334   1.994  0.00  0.00     0.284 C 
ATOM      9  H3  UNL d   1      -1.016  -0.165   3.154  0.00  0.00     0.395 HD
ENDBRANCH   1   7
TORSDOF 1
ENDMDL
