MODEL 1
REMARK minimizedAffinity -2.00091696
REMARK minimizedRMSD -1
REMARK  1 active torsions:
REMARK  status: ('A' for Active; 'I' for Inactive)
REMARK    1  A    between atoms: N_2  and  C1_3 
ROOT
ATOM      1  C1  UNL d   1       2.971  -0.177  -1.475  0.00  0.00     0.143 A 
ATOM      2  C2  UNL d   1       2.595  -1.455  -1.051  0.00  0.00    -0.057 A 
ATOM      3  C3  UNL d   1       1.765  -1.636   0.063  0.00  0.00     0.033 A 
ATOM      4  C4  UNL d   1       1.319  -0.538   0.791  0.00  0.00    -0.042 A 
ATOM      5  C5  UNL d   1       1.701   0.741   0.402  0.00  0.00     0.033 A 
ATOM      6  C6  UNL d   1       2.524   0.915  -0.715  0.00  0.00    -0.057 A 
ENDROOT
BRANCH   1   7
ATOM      7  N   UNL d   1       3.873   0.064  -2.515  0.00  0.00    -0.732 N 
ATOM      8  C   UNL d   1       5.202  -0.508  -2.484  0.00  0.00     0.284 C 
ATOM      9  H3  UNL d   1       3.429   0.034  -3.429  0.00  0.00     0.395 HD
ENDBRANCH   1   7
TORSDOF 1
ENDMDL
