MODEL 1
REMARK minimizedAffinity -1.80046725
REMARK minimizedRMSD -1
REMARK  1 active torsions:
REMARK  status: ('A' for Active; 'I' for Inactive)
REMARK    1  A    between atoms: N_2  and  C1_3 
ROOT
ATOM      1  C1  UNL d   1      -0.718  -0.842   2.060  0.00  0.00     0.143 A 
ATOM      2  C2  UNL d   1      -1.183  -2.104   1.674  0.00  0.00    -0.057 A 
ATOM      3  C3  UNL d   1      -2.525  -2.308   1.329  0.00  0.00     0.033 A 
ATOM      4  C4  UNL d   1      -3.434  -1.257   1.393  0.00  0.00    -0.042 A 
ATOM      5  C5  UNL d   1      -2.999  -0.001   1.798  0.00  0.00     0.033 A 
ATOM      6  C6  UNL d   1      -1.656   0.199   2.135  0.00  0.00    -0.057 A 
ENDROOT
BRANCH   1   7
ATOM      7  N   UNL d   1       0.582  -0.597   2.509  0.00  0.00    -0.732 N 
ATOM      8  C   UNL d   1       1.724  -1.058   1.750  0.00  0.00     0.284 C 
ATOM      9  H3  UNL d   1       0.690   0.339   2.895  0.00  0.00     0.395 HD
ENDBRANCH   1   7
TORSDOF 1
ENDMDL
