MODEL 1
REMARK minimizedAffinity -3.8308742
REMARK minimizedRMSD -1
REMARK  1 active torsions:
REMARK  status: ('A' for Active; 'I' for Inactive)
REMARK    1  A    between atoms: N_2  and  C1_3 
ROOT
ATOM      1  C1  UNL d   1       3.125  -0.276  -1.536  0.00  0.00     0.143 A 
ATOM      2  C2  UNL d   1       2.501   0.952  -1.293  0.00  0.00    -0.057 A 
ATOM      3  C3  UNL d   1       1.542   1.092  -0.282  0.00  0.00     0.033 A 
ATOM      4  C4  UNL d   1       1.169  -0.005   0.487  0.00  0.00    -0.042 A 
ATOM      5  C5  UNL d   1       1.758  -1.241   0.247  0.00  0.00     0.033 A 
ATOM      6  C6  UNL d   1       2.719  -1.373  -0.760  0.00  0.00    -0.057 A 
ENDROOT
BRANCH   1   7
ATOM      7  N   UNL d   1       4.013  -0.503  -2.591  0.00  0.00    -0.732 N 
ATOM      8  C   UNL d   1       5.140   0.379  -2.807  0.00  0.00     0.284 C 
ATOM      9  H3  UNL d   1       4.227  -1.490  -2.713  0.00  0.00     0.395 HD
ENDBRANCH   1   7
TORSDOF 1
ENDMDL
