MODEL 1
REMARK minimizedAffinity -3.55959272
REMARK minimizedRMSD -1
REMARK  0 active torsions:
REMARK  status: ('A' for Active; 'I' for Inactive)
ROOT
ATOM      1  C   UNL d   1      -5.534   4.839   1.710  0.00  0.00     0.077 C 
ATOM      2  C1  UNL d   1      -5.678   4.816   3.203  0.00  0.00    -0.074 A 
ATOM      3  C2  UNL d   1      -5.858   6.000   3.926  0.00  0.00    -0.005 A 
ATOM      4  C3  UNL d   1      -6.000   5.962   5.313  0.00  0.00     0.006 A 
ATOM      5  C4  UNL d   1      -5.964   4.742   5.990  0.00  0.00    -0.005 A 
ATOM      6  C5  UNL d   1      -5.786   3.548   5.283  0.00  0.00    -0.074 A 
ATOM      7  C6  UNL d   1      -5.756   2.228   5.994  0.00  0.00     0.077 C 
ATOM      8  C7  UNL d   1      -5.651   3.594   3.889  0.00  0.00    -0.001 A 
ENDROOT
TORSDOF 0
ENDMDL
