MODEL 1
REMARK minimizedAffinity -0.955113411
REMARK minimizedRMSD -1
REMARK  0 active torsions:
REMARK  status: ('A' for Active; 'I' for Inactive)
ROOT
ATOM      1  C   UNL d   1      -4.456   1.240   5.832  0.00  0.00     0.077 C 
ATOM      2  C1  UNL d   1      -4.894   2.531   5.206  0.00  0.00    -0.074 A 
ATOM      3  C2  UNL d   1      -5.247   3.629   5.997  0.00  0.00    -0.005 A 
ATOM      4  C3  UNL d   1      -5.643   4.827   5.401  0.00  0.00     0.006 A 
ATOM      5  C4  UNL d   1      -5.689   4.938   4.010  0.00  0.00    -0.005 A 
ATOM      6  C5  UNL d   1      -5.338   3.851   3.204  0.00  0.00    -0.074 A 
ATOM      7  C6  UNL d   1      -5.373   3.956   1.708  0.00  0.00     0.077 C 
ATOM      8  C7  UNL d   1      -4.935   2.653   3.810  0.00  0.00    -0.001 A 
ENDROOT
TORSDOF 0
ENDMDL
