MODEL 1
REMARK minimizedAffinity 4.16048002
REMARK minimizedRMSD -1
REMARK  0 active torsions:
REMARK  status: ('A' for Active; 'I' for Inactive)
ROOT
ATOM      1  C   UNL d   1      -2.912   3.665   6.000  0.00  0.00     0.077 C 
ATOM      2  C1  UNL d   1      -3.996   4.363   5.232  0.00  0.00    -0.074 A 
ATOM      3  C2  UNL d   1      -4.870   5.250   5.869  0.00  0.00    -0.005 A 
ATOM      4  C3  UNL d   1      -5.867   5.899   5.140  0.00  0.00     0.006 A 
ATOM      5  C4  UNL d   1      -6.000   5.668   3.771  0.00  0.00    -0.005 A 
ATOM      6  C5  UNL d   1      -5.134   4.785   3.117  0.00  0.00    -0.074 A 
ATOM      7  C6  UNL d   1      -5.257   4.533   1.644  0.00  0.00     0.077 C 
ATOM      8  C7  UNL d   1      -4.131   4.142   3.855  0.00  0.00    -0.001 A 
ENDROOT
TORSDOF 0
ENDMDL
