MODEL 1
REMARK minimizedAffinity -2.45428157
REMARK minimizedRMSD -1
REMARK  0 active torsions:
REMARK  status: ('A' for Active; 'I' for Inactive)
ROOT
ATOM      1  C   UNL d   1      -5.942   4.262   1.137  0.00  0.00     0.077 C 
ATOM      2  C1  UNL d   1      -5.932   4.495   2.618  0.00  0.00    -0.074 A 
ATOM      3  C2  UNL d   1      -6.000   5.790   3.142  0.00  0.00    -0.005 A 
ATOM      4  C3  UNL d   1      -5.999   5.991   4.523  0.00  0.00     0.006 A 
ATOM      5  C4  UNL d   1      -5.930   4.901   5.391  0.00  0.00    -0.005 A 
ATOM      6  C5  UNL d   1      -5.862   3.599   4.886  0.00  0.00    -0.074 A 
ATOM      7  C6  UNL d   1      -5.798   2.416   5.806  0.00  0.00     0.077 C 
ATOM      8  C7  UNL d   1      -5.871   3.405   3.498  0.00  0.00    -0.001 A 
ENDROOT
TORSDOF 0
ENDMDL
