MODEL 1
REMARK minimizedAffinity 10.0822964
REMARK minimizedRMSD -1
REMARK  0 active torsions:
REMARK  status: ('A' for Active; 'I' for Inactive)
ROOT
ATOM      1  C   UNL d   1       1.071  -0.646   2.750  0.00  0.00     0.077 C 
ATOM      2  C1  UNL d   1       0.228  -0.695   1.510  0.00  0.00    -0.074 A 
ATOM      3  C2  UNL d   1       0.815  -0.682   0.241  0.00  0.00    -0.005 A 
ATOM      4  C3  UNL d   1       0.019  -0.738  -0.903  0.00  0.00     0.006 A 
ATOM      5  C4  UNL d   1      -1.370  -0.806  -0.790  0.00  0.00    -0.005 A 
ATOM      6  C5  UNL d   1      -1.975  -0.820   0.471  0.00  0.00    -0.074 A 
ATOM      7  C6  UNL d   1      -3.466  -0.903   0.611  0.00  0.00     0.077 C 
ATOM      8  C7  UNL d   1      -1.168  -0.771   1.616  0.00  0.00    -0.001 A 
ENDROOT
TORSDOF 0
ENDMDL
