MODEL 1
REMARK minimizedAffinity -0.818412662
REMARK minimizedRMSD -1
REMARK  0 active torsions:
REMARK  status: ('A' for Active; 'I' for Inactive)
ROOT
ATOM      1  C   UNL d   1      -4.988   3.832   2.147  0.00  0.00     0.077 C 
ATOM      2  C1  UNL d   1      -4.470   3.428   3.496  0.00  0.00    -0.074 A 
ATOM      3  C2  UNL d   1      -5.342   3.006   4.504  0.00  0.00    -0.005 A 
ATOM      4  C3  UNL d   1      -4.845   2.625   5.750  0.00  0.00     0.006 A 
ATOM      5  C4  UNL d   1      -3.472   2.661   6.000  0.00  0.00    -0.005 A 
ATOM      6  C5  UNL d   1      -2.585   3.078   5.003  0.00  0.00    -0.074 A 
ATOM      7  C6  UNL d   1      -1.106   3.114   5.252  0.00  0.00     0.077 C 
ATOM      8  C7  UNL d   1      -3.092   3.454   3.751  0.00  0.00    -0.001 A 
ENDROOT
TORSDOF 0
ENDMDL
