MODEL 1
REMARK minimizedAffinity -3.82415152
REMARK minimizedRMSD -1
REMARK  0 active torsions:
REMARK  status: ('A' for Active; 'I' for Inactive)
ROOT
ATOM      1  C   UNL d   1      -5.328   1.747   6.000  0.00  0.00     0.077 C 
ATOM      2  C1  UNL d   1      -5.301   3.016   5.200  0.00  0.00    -0.074 A 
ATOM      3  C2  UNL d   1      -4.917   4.227   5.785  0.00  0.00    -0.005 A 
ATOM      4  C3  UNL d   1      -4.888   5.397   5.026  0.00  0.00     0.006 A 
ATOM      5  C4  UNL d   1      -5.241   5.367   3.676  0.00  0.00    -0.005 A 
ATOM      6  C5  UNL d   1      -5.626   4.166   3.074  0.00  0.00    -0.074 A 
ATOM      7  C6  UNL d   1      -5.999   4.115   1.622  0.00  0.00     0.077 C 
ATOM      8  C7  UNL d   1      -5.646   2.993   3.841  0.00  0.00    -0.001 A 
ENDROOT
TORSDOF 0
ENDMDL
