MODEL 1
REMARK minimizedAffinity -2.63750267
REMARK minimizedRMSD -1
REMARK  0 active torsions:
REMARK  status: ('A' for Active; 'I' for Inactive)
ROOT
ATOM      1  C   UNL d   1      -4.703   2.276   5.985  0.00  0.00     0.077 C 
ATOM      2  C1  UNL d   1      -4.910   3.578   5.269  0.00  0.00    -0.074 A 
ATOM      3  C2  UNL d   1      -4.663   4.797   5.909  0.00  0.00    -0.005 A 
ATOM      4  C3  UNL d   1      -4.851   5.999   5.227  0.00  0.00     0.006 A 
ATOM      5  C4  UNL d   1      -5.288   5.995   3.902  0.00  0.00    -0.005 A 
ATOM      6  C5  UNL d   1      -5.539   4.785   3.246  0.00  0.00    -0.074 A 
ATOM      7  C6  UNL d   1      -6.000   4.763   1.819  0.00  0.00     0.077 C 
ATOM      8  C7  UNL d   1      -5.341   3.581   3.935  0.00  0.00    -0.001 A 
ENDROOT
TORSDOF 0
ENDMDL
