MODEL 1
REMARK minimizedAffinity -1.79187465
REMARK minimizedRMSD -1
REMARK  0 active torsions:
REMARK  status: ('A' for Active; 'I' for Inactive)
ROOT
ATOM      1  C   UNL d   1      -5.997   5.662   5.999  0.00  0.00     0.077 C 
ATOM      2  C1  UNL d   1      -5.690   5.053   4.663  0.00  0.00    -0.074 A 
ATOM      3  C2  UNL d   1      -5.143   3.769   4.567  0.00  0.00    -0.005 A 
ATOM      4  C3  UNL d   1      -4.872   3.212   3.317  0.00  0.00     0.006 A 
ATOM      5  C4  UNL d   1      -5.144   3.932   2.153  0.00  0.00    -0.005 A 
ATOM      6  C5  UNL d   1      -5.691   5.216   2.229  0.00  0.00    -0.074 A 
ATOM      7  C6  UNL d   1      -5.998   6.000   0.988  0.00  0.00     0.077 C 
ATOM      8  C7  UNL d   1      -5.968   5.766   3.489  0.00  0.00    -0.001 A 
ENDROOT
TORSDOF 0
ENDMDL
