MODEL 1
REMARK minimizedAffinity -2.98124504
REMARK minimizedRMSD -1
REMARK  0 active torsions:
REMARK  status: ('A' for Active; 'I' for Inactive)
ROOT
ATOM      1  C   UNL d   1      -4.824   2.489   6.000  0.00  0.00     0.077 C 
ATOM      2  C1  UNL d   1      -5.239   3.675   5.180  0.00  0.00    -0.074 A 
ATOM      3  C2  UNL d   1      -5.624   4.872   5.792  0.00  0.00    -0.005 A 
ATOM      4  C3  UNL d   1      -5.998   5.969   5.016  0.00  0.00     0.006 A 
ATOM      5  C4  UNL d   1      -5.992   5.880   3.624  0.00  0.00    -0.005 A 
ATOM      6  C5  UNL d   1      -5.609   4.691   2.995  0.00  0.00    -0.074 A 
ATOM      7  C6  UNL d   1      -5.587   4.582   1.499  0.00  0.00     0.077 C 
ATOM      8  C7  UNL d   1      -5.228   3.596   3.781  0.00  0.00    -0.001 A 
ENDROOT
TORSDOF 0
ENDMDL
