MODEL 1
REMARK minimizedAffinity -1.0872519
REMARK minimizedRMSD -1
REMARK  0 active torsions:
REMARK  status: ('A' for Active; 'I' for Inactive)
ROOT
ATOM      1  C   UNL d   1      -5.740   3.395   1.699  0.00  0.00     0.077 C 
ATOM      2  C1  UNL d   1      -5.667   3.427   3.197  0.00  0.00    -0.074 A 
ATOM      3  C2  UNL d   1      -5.393   2.268   3.929  0.00  0.00    -0.005 A 
ATOM      4  C3  UNL d   1      -5.319   2.316   5.321  0.00  0.00     0.006 A 
ATOM      5  C4  UNL d   1      -5.518   3.521   5.994  0.00  0.00    -0.005 A 
ATOM      6  C5  UNL d   1      -5.793   4.691   5.279  0.00  0.00    -0.074 A 
ATOM      7  C6  UNL d   1      -6.000   5.998   5.987  0.00  0.00     0.077 C 
ATOM      8  C7  UNL d   1      -5.858   4.637   3.880  0.00  0.00    -0.001 A 
ENDROOT
TORSDOF 0
ENDMDL
