MODEL 1
REMARK minimizedAffinity 1.22389591
REMARK minimizedRMSD -1
REMARK  0 active torsions:
REMARK  status: ('A' for Active; 'I' for Inactive)
ROOT
ATOM      1  C   UNL d   1      -5.999   6.000  -0.006  0.00  0.00     0.077 C 
ATOM      2  C1  UNL d   1      -5.618   5.268   1.247  0.00  0.00    -0.074 A 
ATOM      3  C2  UNL d   1      -5.203   3.934   1.202  0.00  0.00    -0.005 A 
ATOM      4  C3  UNL d   1      -4.843   3.269   2.375  0.00  0.00     0.006 A 
ATOM      5  C4  UNL d   1      -4.895   3.932   3.602  0.00  0.00    -0.005 A 
ATOM      6  C5  UNL d   1      -5.307   5.267   3.666  0.00  0.00    -0.074 A 
ATOM      7  C6  UNL d   1      -5.359   5.996   4.975  0.00  0.00     0.077 C 
ATOM      8  C7  UNL d   1      -5.660   5.929   2.483  0.00  0.00    -0.001 A 
ENDROOT
TORSDOF 0
ENDMDL
