MODEL 1
REMARK minimizedAffinity 5.79080248
REMARK minimizedRMSD -1
REMARK  0 active torsions:
REMARK  status: ('A' for Active; 'I' for Inactive)
ROOT
ATOM      1  C   UNL d   1      -4.509   1.965   0.869  0.00  0.00     0.077 C 
ATOM      2  C1  UNL d   1      -5.022   3.374   0.883  0.00  0.00    -0.074 A 
ATOM      3  C2  UNL d   1      -5.284   4.056  -0.309  0.00  0.00    -0.005 A 
ATOM      4  C3  UNL d   1      -5.770   5.363  -0.280  0.00  0.00     0.006 A 
ATOM      5  C4  UNL d   1      -6.000   6.000   0.940  0.00  0.00    -0.005 A 
ATOM      6  C5  UNL d   1      -5.745   5.333   2.143  0.00  0.00    -0.074 A 
ATOM      7  C6  UNL d   1      -5.995   6.000   3.463  0.00  0.00     0.077 C 
ATOM      8  C7  UNL d   1      -5.263   4.018   2.105  0.00  0.00    -0.001 A 
ENDROOT
TORSDOF 0
ENDMDL
