MODEL 1
REMARK minimizedAffinity 3.14654493
REMARK minimizedRMSD -1
REMARK  0 active torsions:
REMARK  status: ('A' for Active; 'I' for Inactive)
ROOT
ATOM      1  C   UNL d   1      -4.600   1.871   1.398  0.00  0.00     0.077 C 
ATOM      2  C1  UNL d   1      -5.074   3.166   1.987  0.00  0.00    -0.074 A 
ATOM      3  C2  UNL d   1      -5.536   4.202   1.169  0.00  0.00    -0.005 A 
ATOM      4  C3  UNL d   1      -5.983   5.397   1.732  0.00  0.00     0.006 A 
ATOM      5  C4  UNL d   1      -5.973   5.568   3.117  0.00  0.00    -0.005 A 
ATOM      6  C5  UNL d   1      -5.515   4.544   3.951  0.00  0.00    -0.074 A 
ATOM      7  C6  UNL d   1      -5.506   4.707   5.442  0.00  0.00     0.077 C 
ATOM      8  C7  UNL d   1      -5.074   3.343   3.378  0.00  0.00    -0.001 A 
ENDROOT
TORSDOF 0
ENDMDL
