MODEL 1
REMARK minimizedAffinity -3.08087635
REMARK minimizedRMSD -1
REMARK  0 active torsions:
REMARK  status: ('A' for Active; 'I' for Inactive)
ROOT
ATOM      1  C   UNL d   1      -5.209   4.961   1.693  0.00  0.00     0.077 C 
ATOM      2  C1  UNL d   1      -5.358   4.905   3.185  0.00  0.00    -0.074 A 
ATOM      3  C2  UNL d   1      -5.857   6.000   3.898  0.00  0.00    -0.005 A 
ATOM      4  C3  UNL d   1      -6.000   5.930   5.284  0.00  0.00     0.006 A 
ATOM      5  C4  UNL d   1      -5.645   4.767   5.969  0.00  0.00    -0.005 A 
ATOM      6  C5  UNL d   1      -5.145   3.662   5.272  0.00  0.00    -0.074 A 
ATOM      7  C6  UNL d   1      -4.769   2.401   5.992  0.00  0.00     0.077 C 
ATOM      8  C7  UNL d   1      -5.012   3.738   3.879  0.00  0.00    -0.001 A 
ENDROOT
TORSDOF 0
ENDMDL
