MODEL 1
REMARK minimizedAffinity -3.24189186
REMARK minimizedRMSD -1
REMARK  0 active torsions:
REMARK  status: ('A' for Active; 'I' for Inactive)
ROOT
ATOM      1  C   UNL d   1      -4.398   1.623   5.231  0.00  0.00     0.077 C 
ATOM      2  C1  UNL d   1      -4.930   3.000   4.967  0.00  0.00    -0.074 A 
ATOM      3  C2  UNL d   1      -5.519   3.751   5.989  0.00  0.00    -0.005 A 
ATOM      4  C3  UNL d   1      -6.000   5.035   5.731  0.00  0.00     0.006 A 
ATOM      5  C4  UNL d   1      -5.898   5.579   4.450  0.00  0.00    -0.005 A 
ATOM      6  C5  UNL d   1      -5.312   4.843   3.416  0.00  0.00    -0.074 A 
ATOM      7  C6  UNL d   1      -5.185   5.416   2.036  0.00  0.00     0.077 C 
ATOM      8  C7  UNL d   1      -4.824   3.557   3.685  0.00  0.00    -0.001 A 
ENDROOT
TORSDOF 0
ENDMDL
