MODEL 1
REMARK minimizedAffinity 9.83500576
REMARK minimizedRMSD -1
REMARK  3 active torsions:
REMARK  status: ('A' for Active; 'I' for Inactive)
REMARK    1  A    between atoms: C3'_2  and  C2'_3 
REMARK    2  A    between atoms: C2'_3  and  C1'_4 
REMARK    3  A    between atoms: C1'_4  and  C1_5 
ROOT
ATOM      1  C1  N4B d   1       0.608   3.453   0.261  0.00  0.00    -0.075 A 
ATOM      2  C2  N4B d   1       1.584   2.953   1.151  0.00  0.00     0.002 A 
ATOM      3  C3  N4B d   1       1.200   2.341   2.318  0.00  0.00     0.002 A 
ATOM      4  C4  N4B d   1      -0.149   2.235   2.626  0.00  0.00    -0.004 A 
ATOM      5  C5  N4B d   1      -1.086   2.698   1.749  0.00  0.00     0.002 A 
ATOM      6  C6  N4B d   1      -0.714   3.311   0.570  0.00  0.00     0.002 A 
ENDROOT
BRANCH   1   7
ATOM      7  C1' N4B d   1       0.981   4.206  -0.986  0.00  0.00     0.057 C 
BRANCH   7   8
ATOM      8  C2' N4B d   1      -0.156   4.097  -1.997  0.00  0.00     0.009 C 
BRANCH   8   9
ATOM      9  C3' N4B d   1      -1.339   4.972  -1.619  0.00  0.00     0.004 C 
ATOM     10  C4' N4B d   1      -2.649   4.412  -2.086  0.00  0.00     0.003 C 
ENDBRANCH   8   9
ENDBRANCH   7   8
ENDBRANCH   1   7
TORSDOF 3
ENDMDL
