MODEL 1
REMARK minimizedAffinity -0.350304067
REMARK minimizedRMSD -1
REMARK  3 active torsions:
REMARK  status: ('A' for Active; 'I' for Inactive)
REMARK    1  A    between atoms: C3'_2  and  C2'_3 
REMARK    2  A    between atoms: C2'_3  and  C1'_4 
REMARK    3  A    between atoms: C1'_4  and  C1_5 
ROOT
ATOM      1  C1  N4B d   1      -0.909   1.833  -1.785  0.00  0.00    -0.075 A 
ATOM      2  C2  N4B d   1      -0.270   1.018  -0.825  0.00  0.00     0.002 A 
ATOM      3  C3  N4B d   1      -0.258  -0.346  -0.981  0.00  0.00     0.002 A 
ATOM      4  C4  N4B d   1      -0.892  -0.917  -2.074  0.00  0.00    -0.004 A 
ATOM      5  C5  N4B d   1      -1.485  -0.121  -3.010  0.00  0.00     0.002 A 
ATOM      6  C6  N4B d   1      -1.501   1.252  -2.868  0.00  0.00     0.002 A 
ENDROOT
BRANCH   1   7
ATOM      7  C1' N4B d   1      -1.022   3.323  -1.613  0.00  0.00     0.057 C 
BRANCH   7   8
ATOM      8  C2' N4B d   1      -0.090   3.770  -0.491  0.00  0.00     0.009 C 
BRANCH   8   9
ATOM      9  C3' N4B d   1       0.354   5.213  -0.661  0.00  0.00     0.004 C 
ATOM     10  C4' N4B d   1      -0.552   5.996  -1.563  0.00  0.00     0.003 C 
ENDBRANCH   8   9
ENDBRANCH   7   8
ENDBRANCH   1   7
TORSDOF 3
ENDMDL
