MODEL 1
REMARK minimizedAffinity 3.79130173
REMARK minimizedRMSD -1
REMARK  3 active torsions:
REMARK  status: ('A' for Active; 'I' for Inactive)
REMARK    1  A    between atoms: C3'_2  and  C2'_3 
REMARK    2  A    between atoms: C2'_3  and  C1'_4 
REMARK    3  A    between atoms: C1'_4  and  C1_5 
ROOT
ATOM      1  C1  N4B d   1      -4.890   4.511  -4.068  0.00  0.00    -0.075 A 
ATOM      2  C2  N4B d   1      -3.531   4.408  -3.697  0.00  0.00     0.002 A 
ATOM      3  C3  N4B d   1      -2.574   5.100  -4.398  0.00  0.00     0.002 A 
ATOM      4  C4  N4B d   1      -2.947   5.883  -5.479  0.00  0.00    -0.004 A 
ATOM      5  C5  N4B d   1      -4.265   5.998  -5.815  0.00  0.00     0.002 A 
ATOM      6  C6  N4B d   1      -5.238   5.311  -5.118  0.00  0.00     0.002 A 
ENDROOT
BRANCH   1   7
ATOM      7  C1' N4B d   1      -5.963   3.706  -3.387  0.00  0.00     0.057 C 
BRANCH   7   8
ATOM      8  C2' N4B d   1      -5.846   2.248  -3.821  0.00  0.00     0.009 C 
BRANCH   8   9
ATOM      9  C3' N4B d   1      -5.798   2.107  -5.333  0.00  0.00     0.004 C 
ATOM     10  C4' N4B d   1      -5.883   0.681  -5.786  0.00  0.00     0.003 C 
ENDBRANCH   8   9
ENDBRANCH   7   8
ENDBRANCH   1   7
TORSDOF 3
ENDMDL
