MODEL 1
REMARK minimizedAffinity -2.4127934
REMARK minimizedRMSD -1
REMARK  3 active torsions:
REMARK  status: ('A' for Active; 'I' for Inactive)
REMARK    1  A    between atoms: C3'_2  and  C2'_3 
REMARK    2  A    between atoms: C2'_3  and  C1'_4 
REMARK    3  A    between atoms: C1'_4  and  C1_5 
ROOT
ATOM      1  C1  N4B d   1      -1.347   2.256  -1.532  0.00  0.00    -0.075 A 
ATOM      2  C2  N4B d   1      -2.277   3.262  -1.875  0.00  0.00     0.002 A 
ATOM      3  C3  N4B d   1      -2.023   4.572  -1.548  0.00  0.00     0.002 A 
ATOM      4  C4  N4B d   1      -0.861   4.895  -0.864  0.00  0.00    -0.004 A 
ATOM      5  C5  N4B d   1       0.044   3.921  -0.559  0.00  0.00     0.002 A 
ATOM      6  C6  N4B d   1      -0.195   2.601  -0.885  0.00  0.00     0.002 A 
ENDROOT
BRANCH   1   7
ATOM      7  C1' N4B d   1      -1.620   0.800  -1.793  0.00  0.00     0.057 C 
BRANCH   7   8
ATOM      8  C2' N4B d   1      -0.402   0.175  -2.466  0.00  0.00     0.009 C 
BRANCH   8   9
ATOM      9  C3' N4B d   1      -0.785  -0.978  -3.377  0.00  0.00     0.004 C 
ATOM     10  C4' N4B d   1      -0.609  -2.317  -2.726  0.00  0.00     0.003 C 
ENDBRANCH   8   9
ENDBRANCH   7   8
ENDBRANCH   1   7
TORSDOF 3
ENDMDL
