MODEL 1
REMARK minimizedAffinity 9.87113953
REMARK minimizedRMSD -1
REMARK  0 active torsions:
REMARK  status: ('A' for Active; 'I' for Inactive)
ROOT
ATOM      1  C   UNL d   1      -3.946  -1.785  -0.959  0.00  0.00     0.077 C 
ATOM      2  C1  UNL d   1      -3.383  -0.891   0.105  0.00  0.00    -0.074 A 
ATOM      3  C2  UNL d   1      -2.846   0.360  -0.216  0.00  0.00    -0.005 A 
ATOM      4  C3  UNL d   1      -2.334   1.184   0.786  0.00  0.00     0.006 A 
ATOM      5  C4  UNL d   1      -2.354   0.767   2.117  0.00  0.00    -0.005 A 
ATOM      6  C5  UNL d   1      -2.887  -0.480   2.458  0.00  0.00    -0.074 A 
ATOM      7  C6  UNL d   1      -2.925  -0.940   3.885  0.00  0.00     0.077 C 
ATOM      8  C7  UNL d   1      -3.406  -1.300   1.446  0.00  0.00    -0.001 A 
ENDROOT
TORSDOF 0
ENDMDL
