MODEL 1
REMARK minimizedAffinity 0.727631807
REMARK minimizedRMSD -1
REMARK  0 active torsions:
REMARK  status: ('A' for Active; 'I' for Inactive)
ROOT
ATOM      1  C   UNL d   1      -1.800   0.521   0.539  0.00  0.00     0.077 C 
ATOM      2  C1  UNL d   1      -1.509  -0.136   1.855  0.00  0.00    -0.074 A 
ATOM      3  C2  UNL d   1      -2.542  -0.651   2.645  0.00  0.00    -0.005 A 
ATOM      4  C3  UNL d   1      -2.255  -1.268   3.863  0.00  0.00     0.006 A 
ATOM      5  C4  UNL d   1      -0.935  -1.375   4.303  0.00  0.00    -0.005 A 
ATOM      6  C5  UNL d   1       0.111  -0.866   3.526  0.00  0.00    -0.074 A 
ATOM      7  C6  UNL d   1       1.536  -0.981   3.980  0.00  0.00     0.077 C 
ATOM      8  C7  UNL d   1      -0.185  -0.254   2.301  0.00  0.00    -0.001 A 
ENDROOT
TORSDOF 0
ENDMDL
