MODEL 1
REMARK minimizedAffinity -0.667133152
REMARK minimizedRMSD -1
REMARK  0 active torsions:
REMARK  status: ('A' for Active; 'I' for Inactive)
ROOT
ATOM      1  C   UNL d   1      -2.140   0.512   1.900  0.00  0.00     0.077 C 
ATOM      2  C1  UNL d   1      -1.555  -0.368   2.964  0.00  0.00    -0.074 A 
ATOM      3  C2  UNL d   1      -2.379  -1.124   3.805  0.00  0.00    -0.005 A 
ATOM      4  C3  UNL d   1      -1.820  -1.945   4.784  0.00  0.00     0.006 A 
ATOM      5  C4  UNL d   1      -0.434  -2.020   4.932  0.00  0.00    -0.005 A 
ATOM      6  C5  UNL d   1       0.405  -1.273   4.100  0.00  0.00    -0.074 A 
ATOM      7  C6  UNL d   1       1.897  -1.349   4.238  0.00  0.00     0.077 C 
ATOM      8  C7  UNL d   1      -0.164  -0.455   3.114  0.00  0.00    -0.001 A 
ENDROOT
TORSDOF 0
ENDMDL
