MODEL 1
REMARK minimizedAffinity 5.56652641
REMARK minimizedRMSD -1
REMARK  0 active torsions:
REMARK  status: ('A' for Active; 'I' for Inactive)
ROOT
ATOM      1  C   UNL d   1      -2.870   1.456  -0.535  0.00  0.00     0.077 C 
ATOM      2  C1  UNL d   1      -2.043   0.933   0.602  0.00  0.00    -0.074 A 
ATOM      3  C2  UNL d   1      -2.633   0.588   1.821  0.00  0.00    -0.005 A 
ATOM      4  C3  UNL d   1      -1.852   0.094   2.866  0.00  0.00     0.006 A 
ATOM      5  C4  UNL d   1      -0.475  -0.059   2.702  0.00  0.00    -0.005 A 
ATOM      6  C5  UNL d   1       0.133   0.280   1.489  0.00  0.00    -0.074 A 
ATOM      7  C6  UNL d   1       1.611   0.112   1.293  0.00  0.00     0.077 C 
ATOM      8  C7  UNL d   1      -0.660   0.769   0.442  0.00  0.00    -0.001 A 
ENDROOT
TORSDOF 0
ENDMDL
