MODEL 1
REMARK minimizedAffinity -0.681524456
REMARK minimizedRMSD -1
REMARK  0 active torsions:
REMARK  status: ('A' for Active; 'I' for Inactive)
ROOT
ATOM      1  C   UNL d   1       0.768  -1.232   4.122  0.00  0.00     0.077 C 
ATOM      2  C1  UNL d   1      -0.083  -0.753   2.984  0.00  0.00    -0.074 A 
ATOM      3  C2  UNL d   1      -1.334  -0.171   3.216  0.00  0.00    -0.005 A 
ATOM      4  C3  UNL d   1      -2.110   0.278   2.148  0.00  0.00     0.006 A 
ATOM      5  C4  UNL d   1      -1.644   0.150   0.839  0.00  0.00    -0.005 A 
ATOM      6  C5  UNL d   1      -0.396  -0.428   0.587  0.00  0.00    -0.074 A 
ATOM      7  C6  UNL d   1       0.123  -0.565  -0.814  0.00  0.00     0.077 C 
ATOM      8  C7  UNL d   1       0.381  -0.871   1.666  0.00  0.00    -0.001 A 
ENDROOT
TORSDOF 0
ENDMDL
