MODEL 1
REMARK minimizedAffinity 1.32465506
REMARK minimizedRMSD -1
REMARK  0 active torsions:
REMARK  status: ('A' for Active; 'I' for Inactive)
ROOT
ATOM      1  C   UNL d   1       0.579  -1.214   3.575  0.00  0.00     0.077 C 
ATOM      2  C1  UNL d   1       0.310  -0.711   2.188  0.00  0.00    -0.074 A 
ATOM      3  C2  UNL d   1       1.357  -0.491   1.287  0.00  0.00    -0.005 A 
ATOM      4  C3  UNL d   1       1.091  -0.032  -0.003  0.00  0.00     0.006 A 
ATOM      5  C4  UNL d   1      -0.223   0.211  -0.405  0.00  0.00    -0.005 A 
ATOM      6  C5  UNL d   1      -1.283  -0.005   0.481  0.00  0.00    -0.074 A 
ATOM      7  C6  UNL d   1      -2.702   0.242   0.062  0.00  0.00     0.077 C 
ATOM      8  C7  UNL d   1      -1.008  -0.472   1.774  0.00  0.00    -0.001 A 
ENDROOT
TORSDOF 0
ENDMDL
