MODEL 1
REMARK minimizedAffinity 1.65248263
REMARK minimizedRMSD -1
REMARK  0 active torsions:
REMARK  status: ('A' for Active; 'I' for Inactive)
ROOT
ATOM      1  C   UNL d   1       0.049  -0.746   5.999  0.00  0.00     0.077 C 
ATOM      2  C1  UNL d   1      -1.141  -0.978   5.115  0.00  0.00    -0.074 A 
ATOM      3  C2  UNL d   1      -2.235  -1.724   5.564  0.00  0.00    -0.005 A 
ATOM      4  C3  UNL d   1      -3.339  -1.923   4.734  0.00  0.00     0.006 A 
ATOM      5  C4  UNL d   1      -3.359  -1.378   3.449  0.00  0.00    -0.005 A 
ATOM      6  C5  UNL d   1      -2.274  -0.629   2.984  0.00  0.00    -0.074 A 
ATOM      7  C6  UNL d   1      -2.283  -0.028   1.609  0.00  0.00     0.077 C 
ATOM      8  C7  UNL d   1      -1.172  -0.427   3.826  0.00  0.00    -0.001 A 
ENDROOT
TORSDOF 0
ENDMDL
