MODEL 1
REMARK minimizedAffinity 0.515090406
REMARK minimizedRMSD -1
REMARK  0 active torsions:
REMARK  status: ('A' for Active; 'I' for Inactive)
ROOT
ATOM      1  C   UNL d   1       1.720  -1.157   3.822  0.00  0.00     0.077 C 
ATOM      2  C1  UNL d   1       0.442  -0.847   3.101  0.00  0.00    -0.074 A 
ATOM      3  C2  UNL d   1      -0.791  -0.928   3.757  0.00  0.00    -0.005 A 
ATOM      4  C3  UNL d   1      -1.971  -0.627   3.076  0.00  0.00     0.006 A 
ATOM      5  C4  UNL d   1      -1.930  -0.242   1.736  0.00  0.00    -0.005 A 
ATOM      6  C5  UNL d   1      -0.706  -0.155   1.064  0.00  0.00    -0.074 A 
ATOM      7  C6  UNL d   1      -0.644   0.267  -0.374  0.00  0.00     0.077 C 
ATOM      8  C7  UNL d   1       0.475  -0.452   1.756  0.00  0.00    -0.001 A 
ENDROOT
TORSDOF 0
ENDMDL
