MODEL 1
REMARK minimizedAffinity 1.26758075
REMARK minimizedRMSD -1
REMARK  0 active torsions:
REMARK  status: ('A' for Active; 'I' for Inactive)
ROOT
ATOM      1  C   UNL d   1       1.933  -0.183   0.391  0.00  0.00     0.077 C 
ATOM      2  C1  UNL d   1       0.711  -0.063   1.252  0.00  0.00    -0.074 A 
ATOM      3  C2  UNL d   1      -0.469   0.496   0.752  0.00  0.00    -0.005 A 
ATOM      4  C3  UNL d   1      -1.600   0.592   1.561  0.00  0.00     0.006 A 
ATOM      5  C4  UNL d   1      -1.564   0.131   2.878  0.00  0.00    -0.005 A 
ATOM      6  C5  UNL d   1      -0.393  -0.432   3.396  0.00  0.00    -0.074 A 
ATOM      7  C6  UNL d   1      -0.339  -0.941   4.805  0.00  0.00     0.077 C 
ATOM      8  C7  UNL d   1       0.738  -0.531   2.574  0.00  0.00    -0.001 A 
ENDROOT
TORSDOF 0
ENDMDL
