MODEL 1
REMARK minimizedAffinity 1.67324579
REMARK minimizedRMSD -1
REMARK  0 active torsions:
REMARK  status: ('A' for Active; 'I' for Inactive)
ROOT
ATOM      1  C   UNL d   1       1.436  -1.073   4.178  0.00  0.00     0.077 C 
ATOM      2  C1  UNL d   1      -0.053  -1.009   4.014  0.00  0.00    -0.074 A 
ATOM      3  C2  UNL d   1      -0.907  -1.473   5.020  0.00  0.00    -0.005 A 
ATOM      4  C3  UNL d   1      -2.291  -1.399   4.858  0.00  0.00     0.006 A 
ATOM      5  C4  UNL d   1      -2.833  -0.862   3.690  0.00  0.00    -0.005 A 
ATOM      6  C5  UNL d   1      -1.995  -0.393   2.673  0.00  0.00    -0.074 A 
ATOM      7  C6  UNL d   1      -2.561   0.196   1.416  0.00  0.00     0.077 C 
ATOM      8  C7  UNL d   1      -0.606  -0.464   2.847  0.00  0.00    -0.001 A 
ENDROOT
TORSDOF 0
ENDMDL
