MODEL 1
REMARK minimizedAffinity -2.85456705
REMARK minimizedRMSD -1
REMARK  2 active torsions:
REMARK  status: ('A' for Active; 'I' for Inactive)
REMARK    1  A    between atoms: C1_2  and  C2_3 
REMARK    2  A    between atoms: C2_3  and  C3_4 
ROOT
ATOM      1  C3  UNL d   1       0.379   0.734  -0.722  0.00  0.00    -0.075 A 
ATOM      2  C4  UNL d   1      -0.338   0.754  -1.927  0.00  0.00     0.002 A 
ATOM      3  C5  UNL d   1       0.107   1.521  -3.004  0.00  0.00     0.002 A 
ATOM      4  C6  UNL d   1       1.266   2.285  -2.886  0.00  0.00    -0.004 A 
ATOM      5  C7  UNL d   1       1.977   2.287  -1.688  0.00  0.00     0.002 A 
ATOM      6  C8  UNL d   1       1.536   1.516  -0.611  0.00  0.00     0.002 A 
ENDROOT
BRANCH   1   7
ATOM      7  C2  UNL d   1      -0.082  -0.117   0.437  0.00  0.00     0.056 C 
BRANCH   7   8
ATOM      8  C1  UNL d   1       0.620  -1.476   0.530  0.00  0.00     0.007 C 
ATOM      9  C   UNL d   1       0.085  -2.352   1.655  0.00  0.00     0.009 C 
ENDBRANCH   7   8
ENDBRANCH   1   7
TORSDOF 2
ENDMDL
