MODEL 1
REMARK minimizedAffinity -0.117149465
REMARK minimizedRMSD -1
REMARK  2 active torsions:
REMARK  status: ('A' for Active; 'I' for Inactive)
REMARK    1  A    between atoms: C1_2  and  C2_3 
REMARK    2  A    between atoms: C2_3  and  C3_4 
ROOT
ATOM      1  C3  UNL d   1       0.530   0.534  -0.248  0.00  0.00    -0.075 A 
ATOM      2  C4  UNL d   1       1.092   0.197   0.992  0.00  0.00     0.002 A 
ATOM      3  C5  UNL d   1       1.072  -1.123   1.443  0.00  0.00     0.002 A 
ATOM      4  C6  UNL d   1       0.482  -2.118   0.668  0.00  0.00    -0.004 A 
ATOM      5  C7  UNL d   1      -0.095  -1.792  -0.558  0.00  0.00     0.002 A 
ATOM      6  C8  UNL d   1      -0.072  -0.473  -1.014  0.00  0.00     0.002 A 
ENDROOT
BRANCH   1   7
ATOM      7  C2  UNL d   1       0.574   1.956  -0.755  0.00  0.00     0.056 C 
BRANCH   7   8
ATOM      8  C1  UNL d   1       1.326   2.122  -2.080  0.00  0.00     0.007 C 
ATOM      9  C   UNL d   1       0.430   2.569  -3.227  0.00  0.00     0.009 C 
ENDBRANCH   7   8
ENDBRANCH   1   7
TORSDOF 2
ENDMDL
