MODEL 1
REMARK minimizedAffinity -4.8270812
REMARK minimizedRMSD -1
REMARK  2 active torsions:
REMARK  status: ('A' for Active; 'I' for Inactive)
REMARK    1  A    between atoms: C1_2  and  C2_3 
REMARK    2  A    between atoms: C2_3  and  C3_4 
ROOT
ATOM      1  C3  UNL d   1      -0.137  -0.015   0.771  0.00  0.00    -0.075 A 
ATOM      2  C4  UNL d   1      -1.260   0.409   1.496  0.00  0.00     0.002 A 
ATOM      3  C5  UNL d   1      -1.901  -0.458   2.380  0.00  0.00     0.002 A 
ATOM      4  C6  UNL d   1      -1.436  -1.761   2.543  0.00  0.00    -0.004 A 
ATOM      5  C7  UNL d   1      -0.332  -2.199   1.815  0.00  0.00     0.002 A 
ATOM      6  C8  UNL d   1       0.315  -1.332   0.933  0.00  0.00     0.002 A 
ENDROOT
BRANCH   1   7
ATOM      7  C2  UNL d   1       0.580   0.928  -0.166  0.00  0.00     0.056 C 
BRANCH   7   8
ATOM      8  C1  UNL d   1       0.451   0.554  -1.647  0.00  0.00     0.007 C 
ATOM      9  C   UNL d   1       0.845   1.684  -2.588  0.00  0.00     0.009 C 
ENDBRANCH   7   8
ENDBRANCH   1   7
TORSDOF 2
ENDMDL
