MODEL 1
REMARK minimizedAffinity -5.3184967
REMARK minimizedRMSD -1
REMARK  2 active torsions:
REMARK  status: ('A' for Active; 'I' for Inactive)
REMARK    1  A    between atoms: C1_2  and  C2_3 
REMARK    2  A    between atoms: C2_3  and  C3_4 
ROOT
ATOM      1  C3  UNL d   1       1.199   1.461  -1.545  0.00  0.00    -0.075 A 
ATOM      2  C4  UNL d   1       0.775   1.976  -2.778  0.00  0.00     0.002 A 
ATOM      3  C5  UNL d   1       1.705   2.433  -3.712  0.00  0.00     0.002 A 
ATOM      4  C6  UNL d   1       3.066   2.391  -3.422  0.00  0.00    -0.004 A 
ATOM      5  C7  UNL d   1       3.498   1.897  -2.193  0.00  0.00     0.002 A 
ATOM      6  C8  UNL d   1       2.571   1.435  -1.258  0.00  0.00     0.002 A 
ENDROOT
BRANCH   1   7
ATOM      7  C2  UNL d   1       0.200   0.937  -0.541  0.00  0.00     0.056 C 
BRANCH   7   8
ATOM      8  C1  UNL d   1       0.833   0.195   0.641  0.00  0.00     0.007 C 
ATOM      9  C   UNL d   1       0.151  -1.131   0.952  0.00  0.00     0.009 C 
ENDBRANCH   7   8
ENDBRANCH   1   7
TORSDOF 2
ENDMDL
