MODEL 1
REMARK minimizedAffinity -5.90843058
REMARK minimizedRMSD -1
REMARK  2 active torsions:
REMARK  status: ('A' for Active; 'I' for Inactive)
REMARK    1  A    between atoms: C1_2  and  C2_3 
REMARK    2  A    between atoms: C2_3  and  C3_4 
ROOT
ATOM      1  C3  UNL d   1       0.155  -0.505  -0.463  0.00  0.00    -0.075 A 
ATOM      2  C4  UNL d   1       0.317  -1.647  -1.261  0.00  0.00     0.002 A 
ATOM      3  C5  UNL d   1      -0.007  -2.910  -0.765  0.00  0.00     0.002 A 
ATOM      4  C6  UNL d   1      -0.487  -3.049   0.535  0.00  0.00    -0.004 A 
ATOM      5  C7  UNL d   1      -0.637  -1.923   1.343  0.00  0.00     0.002 A 
ATOM      6  C8  UNL d   1      -0.317  -0.658   0.847  0.00  0.00     0.002 A 
ENDROOT
BRANCH   1   7
ATOM      7  C2  UNL d   1       0.476   0.867  -1.004  0.00  0.00     0.056 C 
BRANCH   7   8
ATOM      8  C1  UNL d   1       1.277   0.851  -2.311  0.00  0.00     0.007 C 
ATOM      9  C   UNL d   1       0.796   1.883  -3.322  0.00  0.00     0.009 C 
ENDBRANCH   7   8
ENDBRANCH   1   7
TORSDOF 2
ENDMDL
