MODEL 1
REMARK minimizedAffinity -1.35045147
REMARK minimizedRMSD -1
REMARK  2 active torsions:
REMARK  status: ('A' for Active; 'I' for Inactive)
REMARK    1  A    between atoms: C1_2  and  C2_3 
REMARK    2  A    between atoms: C2_3  and  C3_4 
ROOT
ATOM      1  C3  UNL d   1      -0.918  -1.680   1.385  0.00  0.00    -0.075 A 
ATOM      2  C4  UNL d   1      -1.976  -2.030   0.534  0.00  0.00     0.002 A 
ATOM      3  C5  UNL d   1      -2.093  -1.447  -0.728  0.00  0.00     0.002 A 
ATOM      4  C6  UNL d   1      -1.161  -0.501  -1.151  0.00  0.00    -0.004 A 
ATOM      5  C7  UNL d   1      -0.116  -0.133  -0.307  0.00  0.00     0.002 A 
ATOM      6  C8  UNL d   1       0.006  -0.718   0.955  0.00  0.00     0.002 A 
ENDROOT
BRANCH   1   7
ATOM      7  C2  UNL d   1      -0.770  -2.329   2.740  0.00  0.00     0.056 C 
BRANCH   7   8
ATOM      8  C1  UNL d   1       0.684  -2.542   3.173  0.00  0.00     0.007 C 
ATOM      9  C   UNL d   1       0.816  -3.049   4.603  0.00  0.00     0.009 C 
ENDBRANCH   7   8
ENDBRANCH   1   7
TORSDOF 2
ENDMDL
