MODEL 1
REMARK minimizedAffinity -5.11143827
REMARK minimizedRMSD -1
REMARK  2 active torsions:
REMARK  status: ('A' for Active; 'I' for Inactive)
REMARK    1  A    between atoms: C1_2  and  C2_3 
REMARK    2  A    between atoms: C2_3  and  C3_4 
ROOT
ATOM      1  C3  UNL d   1       0.249   0.287  -0.736  0.00  0.00    -0.075 A 
ATOM      2  C4  UNL d   1      -0.507   0.801   0.327  0.00  0.00     0.002 A 
ATOM      3  C5  UNL d   1      -1.443   0.001   0.983  0.00  0.00     0.002 A 
ATOM      4  C6  UNL d   1      -1.642  -1.317   0.579  0.00  0.00    -0.004 A 
ATOM      5  C7  UNL d   1      -0.909  -1.834  -0.486  0.00  0.00     0.002 A 
ATOM      6  C8  UNL d   1       0.032  -1.037  -1.142  0.00  0.00     0.002 A 
ENDROOT
BRANCH   1   7
ATOM      7  C2  UNL d   1       1.285   1.138  -1.431  0.00  0.00     0.056 C 
BRANCH   7   8
ATOM      8  C1  UNL d   1       1.900   0.483  -2.672  0.00  0.00     0.007 C 
ATOM      9  C   UNL d   1       3.206   1.133  -3.109  0.00  0.00     0.009 C 
ENDBRANCH   7   8
ENDBRANCH   1   7
TORSDOF 2
ENDMDL
