MODEL 1
REMARK minimizedAffinity -5.18220949
REMARK minimizedRMSD -1
REMARK  2 active torsions:
REMARK  status: ('A' for Active; 'I' for Inactive)
REMARK    1  A    between atoms: C1_2  and  C2_3 
REMARK    2  A    between atoms: C2_3  and  C3_4 
ROOT
ATOM      1  C3  UNL d   1      -0.378  -0.323   0.288  0.00  0.00    -0.075 A 
ATOM      2  C4  UNL d   1       0.423  -1.198   1.036  0.00  0.00     0.002 A 
ATOM      3  C5  UNL d   1      -0.109  -2.380   1.552  0.00  0.00     0.002 A 
ATOM      4  C6  UNL d   1      -1.449  -2.696   1.336  0.00  0.00    -0.004 A 
ATOM      5  C7  UNL d   1      -2.258  -1.826   0.608  0.00  0.00     0.002 A 
ATOM      6  C8  UNL d   1      -1.726  -0.645   0.088  0.00  0.00     0.002 A 
ENDROOT
BRANCH   1   7
ATOM      7  C2  UNL d   1       0.200   0.944  -0.297  0.00  0.00     0.056 C 
BRANCH   7   8
ATOM      8  C1  UNL d   1      -0.092   1.131  -1.790  0.00  0.00     0.007 C 
ATOM      9  C   UNL d   1       1.150   1.456  -2.609  0.00  0.00     0.009 C 
ENDBRANCH   7   8
ENDBRANCH   1   7
TORSDOF 2
ENDMDL
