MODEL 1
REMARK minimizedAffinity -4.91205168
REMARK minimizedRMSD -1
REMARK  2 active torsions:
REMARK  status: ('A' for Active; 'I' for Inactive)
REMARK    1  A    between atoms: C1_2  and  C2_3 
REMARK    2  A    between atoms: C2_3  and  C3_4 
ROOT
ATOM      1  C3  UNL d   1       0.235  -0.494  -0.072  0.00  0.00    -0.075 A 
ATOM      2  C4  UNL d   1      -0.834  -0.527   0.835  0.00  0.00     0.002 A 
ATOM      3  C5  UNL d   1      -1.048  -1.648   1.637  0.00  0.00     0.002 A 
ATOM      4  C6  UNL d   1      -0.204  -2.752   1.536  0.00  0.00    -0.004 A 
ATOM      5  C7  UNL d   1       0.851  -2.736   0.627  0.00  0.00     0.002 A 
ATOM      6  C8  UNL d   1       1.070  -1.614  -0.174  0.00  0.00     0.002 A 
ENDROOT
BRANCH   1   7
ATOM      7  C2  UNL d   1       0.489   0.728  -0.922  0.00  0.00     0.056 C 
BRANCH   7   8
ATOM      8  C1  UNL d   1      -0.005   0.597  -2.367  0.00  0.00     0.007 C 
ATOM      9  C   UNL d   1       0.483   1.719  -3.273  0.00  0.00     0.009 C 
ENDBRANCH   7   8
ENDBRANCH   1   7
TORSDOF 2
ENDMDL
