MODEL 1
REMARK minimizedAffinity -4.28938341
REMARK minimizedRMSD -1
REMARK  2 active torsions:
REMARK  status: ('A' for Active; 'I' for Inactive)
REMARK    1  A    between atoms: C1_2  and  C2_3 
REMARK    2  A    between atoms: C2_3  and  C3_4 
ROOT
ATOM      1  C3  UNL d   1       0.086  -1.957   1.129  0.00  0.00    -0.075 A 
ATOM      2  C4  UNL d   1       1.316  -1.352   0.834  0.00  0.00     0.002 A 
ATOM      3  C5  UNL d   1       1.370  -0.205   0.042  0.00  0.00     0.002 A 
ATOM      4  C6  UNL d   1       0.198   0.346  -0.472  0.00  0.00    -0.004 A 
ATOM      5  C7  UNL d   1      -1.028  -0.256  -0.199  0.00  0.00     0.002 A 
ATOM      6  C8  UNL d   1      -1.085  -1.402   0.596  0.00  0.00     0.002 A 
ENDROOT
BRANCH   1   7
ATOM      7  C2  UNL d   1       0.018  -3.182   2.009  0.00  0.00     0.056 C 
BRANCH   7   8
ATOM      8  C1  UNL d   1       0.902  -3.102   3.258  0.00  0.00     0.007 C 
ATOM      9  C   UNL d   1       0.113  -2.865   4.538  0.00  0.00     0.009 C 
ENDBRANCH   7   8
ENDBRANCH   1   7
TORSDOF 2
ENDMDL
