MODEL 1
REMARK minimizedAffinity -4.54141331
REMARK minimizedRMSD -1
REMARK  2 active torsions:
REMARK  status: ('A' for Active; 'I' for Inactive)
REMARK    1  A    between atoms: C1_2  and  C2_3 
REMARK    2  A    between atoms: C2_3  and  C3_4 
ROOT
ATOM      1  C3  UNL d   1       0.681   1.167  -1.254  0.00  0.00    -0.075 A 
ATOM      2  C4  UNL d   1       0.015   0.424  -2.241  0.00  0.00     0.002 A 
ATOM      3  C5  UNL d   1       0.230   0.691  -3.593  0.00  0.00     0.002 A 
ATOM      4  C6  UNL d   1       1.102   1.707  -3.976  0.00  0.00    -0.004 A 
ATOM      5  C7  UNL d   1       1.756   2.462  -3.005  0.00  0.00     0.002 A 
ATOM      6  C8  UNL d   1       1.547   2.195  -1.651  0.00  0.00     0.002 A 
ENDROOT
BRANCH   1   7
ATOM      7  C2  UNL d   1       0.476   0.864   0.211  0.00  0.00     0.056 C 
BRANCH   7   8
ATOM      8  C1  UNL d   1       1.420  -0.208   0.764  0.00  0.00     0.007 C 
ATOM      9  C   UNL d   1       0.801  -1.600   0.786  0.00  0.00     0.009 C 
ENDBRANCH   7   8
ENDBRANCH   1   7
TORSDOF 2
ENDMDL
