MODEL 1
REMARK minimizedAffinity -2.83317637
REMARK minimizedRMSD -1
REMARK  2 active torsions:
REMARK  status: ('A' for Active; 'I' for Inactive)
REMARK    1  A    between atoms: C1_2  and  C2_3 
REMARK    2  A    between atoms: C2_3  and  C3_4 
ROOT
ATOM      1  C3  UNL d   1       0.088  -0.347  -0.689  0.00  0.00    -0.075 A 
ATOM      2  C4  UNL d   1       0.726  -1.562  -0.979  0.00  0.00     0.002 A 
ATOM      3  C5  UNL d   1       0.884  -2.533   0.010  0.00  0.00     0.002 A 
ATOM      4  C6  UNL d   1       0.416  -2.299   1.301  0.00  0.00    -0.004 A 
ATOM      5  C7  UNL d   1      -0.205  -1.089   1.605  0.00  0.00     0.002 A 
ATOM      6  C8  UNL d   1      -0.368  -0.118   0.616  0.00  0.00     0.002 A 
ENDROOT
BRANCH   1   7
ATOM      7  C2  UNL d   1      -0.113   0.696  -1.763  0.00  0.00     0.056 C 
BRANCH   7   8
ATOM      8  C1  UNL d   1       0.957   1.793  -1.774  0.00  0.00     0.007 C 
ATOM      9  C   UNL d   1       1.079   2.499  -3.118  0.00  0.00     0.009 C 
ENDBRANCH   7   8
ENDBRANCH   1   7
TORSDOF 2
ENDMDL
