MODEL 1
REMARK minimizedAffinity -3.33347511
REMARK minimizedRMSD -1
REMARK  2 active torsions:
REMARK  status: ('A' for Active; 'I' for Inactive)
REMARK    1  A    between atoms: C1_2  and  C2_3 
REMARK    2  A    between atoms: C2_3  and  C3_4 
ROOT
ATOM      1  C3  UNL d   1       0.349   0.212  -0.101  0.00  0.00    -0.075 A 
ATOM      2  C4  UNL d   1      -0.751   0.212   0.769  0.00  0.00     0.002 A 
ATOM      3  C5  UNL d   1      -1.054  -0.918   1.529  0.00  0.00     0.002 A 
ATOM      4  C6  UNL d   1      -0.269  -2.064   1.422  0.00  0.00    -0.004 A 
ATOM      5  C7  UNL d   1       0.817  -2.081   0.549  0.00  0.00     0.002 A 
ATOM      6  C8  UNL d   1       1.125  -0.950  -0.209  0.00  0.00     0.002 A 
ENDROOT
BRANCH   1   7
ATOM      7  C2  UNL d   1       0.699   1.441  -0.904  0.00  0.00     0.056 C 
BRANCH   7   8
ATOM      8  C1  UNL d   1       0.249   1.379  -2.367  0.00  0.00     0.007 C 
ATOM      9  C   UNL d   1       1.398   1.530  -3.356  0.00  0.00     0.009 C 
ENDBRANCH   7   8
ENDBRANCH   1   7
TORSDOF 2
ENDMDL
