MODEL 1
REMARK minimizedAffinity -2.74145031
REMARK minimizedRMSD -1
REMARK  2 active torsions:
REMARK  status: ('A' for Active; 'I' for Inactive)
REMARK    1  A    between atoms: C1_2  and  C2_3 
REMARK    2  A    between atoms: C2_3  and  C3_4 
ROOT
ATOM      1  C3  UNL d   1       0.884   0.109  -0.493  0.00  0.00    -0.075 A 
ATOM      2  C4  UNL d   1       0.710  -0.159   0.872  0.00  0.00     0.002 A 
ATOM      3  C5  UNL d   1       0.541  -1.470   1.320  0.00  0.00     0.002 A 
ATOM      4  C6  UNL d   1       0.533  -2.525   0.410  0.00  0.00    -0.004 A 
ATOM      5  C7  UNL d   1       0.689  -2.268  -0.950  0.00  0.00     0.002 A 
ATOM      6  C8  UNL d   1       0.863  -0.958  -1.401  0.00  0.00     0.002 A 
ENDROOT
BRANCH   1   7
ATOM      7  C2  UNL d   1       1.098   1.522  -0.982  0.00  0.00     0.056 C 
BRANCH   7   8
ATOM      8  C1  UNL d   1       1.678   1.612  -2.397  0.00  0.00     0.007 C 
ATOM      9  C   UNL d   1       0.727   2.259  -3.396  0.00  0.00     0.009 C 
ENDBRANCH   7   8
ENDBRANCH   1   7
TORSDOF 2
ENDMDL
