MODEL 1
REMARK minimizedAffinity -3.6767714
REMARK minimizedRMSD -1
REMARK  2 active torsions:
REMARK  status: ('A' for Active; 'I' for Inactive)
REMARK    1  A    between atoms: C1_2  and  C2_3 
REMARK    2  A    between atoms: C2_3  and  C3_4 
ROOT
ATOM      1  C3  UNL d   1       0.779   0.220  -0.571  0.00  0.00    -0.075 A 
ATOM      2  C4  UNL d   1       1.257  -0.054   0.719  0.00  0.00     0.002 A 
ATOM      3  C5  UNL d   1       1.059  -1.309   1.296  0.00  0.00     0.002 A 
ATOM      4  C6  UNL d   1       0.373  -2.300   0.598  0.00  0.00    -0.004 A 
ATOM      5  C7  UNL d   1      -0.121  -2.033  -0.678  0.00  0.00     0.002 A 
ATOM      6  C8  UNL d   1       0.080  -0.780  -1.259  0.00  0.00     0.002 A 
ENDROOT
BRANCH   1   7
ATOM      7  C2  UNL d   1       1.016   1.566  -1.213  0.00  0.00     0.056 C 
BRANCH   7   8
ATOM      8  C1  UNL d   1       1.860   1.507  -2.490  0.00  0.00     0.007 C 
ATOM      9  C   UNL d   1       3.337   1.791  -2.247  0.00  0.00     0.009 C 
ENDBRANCH   7   8
ENDBRANCH   1   7
TORSDOF 2
ENDMDL
