MODEL 1
REMARK minimizedAffinity -4.54897451
REMARK minimizedRMSD -1
REMARK  2 active torsions:
REMARK  status: ('A' for Active; 'I' for Inactive)
REMARK    1  A    between atoms: C1_2  and  C2_3 
REMARK    2  A    between atoms: C2_3  and  C3_4 
ROOT
ATOM      1  C3  UNL d   1       0.076  -1.334   0.182  0.00  0.00    -0.075 A 
ATOM      2  C4  UNL d   1       1.407  -1.197  -0.240  0.00  0.00     0.002 A 
ATOM      3  C5  UNL d   1       1.870   0.021  -0.738  0.00  0.00     0.002 A 
ATOM      4  C6  UNL d   1       1.008   1.112  -0.831  0.00  0.00    -0.004 A 
ATOM      5  C7  UNL d   1      -0.320   0.982  -0.430  0.00  0.00     0.002 A 
ATOM      6  C8  UNL d   1      -0.785  -0.234   0.073  0.00  0.00     0.002 A 
ENDROOT
BRANCH   1   7
ATOM      7  C2  UNL d   1      -0.423  -2.641   0.749  0.00  0.00     0.056 C 
BRANCH   7   8
ATOM      8  C1  UNL d   1      -0.701  -2.602   2.256  0.00  0.00     0.007 C 
ATOM      9  C   UNL d   1       0.536  -2.874   3.102  0.00  0.00     0.009 C 
ENDBRANCH   7   8
ENDBRANCH   1   7
TORSDOF 2
ENDMDL
