MODEL 1
REMARK minimizedAffinity -4.27480173
REMARK minimizedRMSD -1
REMARK  2 active torsions:
REMARK  status: ('A' for Active; 'I' for Inactive)
REMARK    1  A    between atoms: C1_2  and  C2_3 
REMARK    2  A    between atoms: C2_3  and  C3_4 
ROOT
ATOM      1  C3  UNL d   1       0.690   0.235  -0.510  0.00  0.00    -0.075 A 
ATOM      2  C4  UNL d   1       1.308   1.493  -0.563  0.00  0.00     0.002 A 
ATOM      3  C5  UNL d   1       1.853   1.964  -1.758  0.00  0.00     0.002 A 
ATOM      4  C6  UNL d   1       1.797   1.182  -2.909  0.00  0.00    -0.004 A 
ATOM      5  C7  UNL d   1       1.201  -0.076  -2.864  0.00  0.00     0.002 A 
ATOM      6  C8  UNL d   1       0.650  -0.548  -1.671  0.00  0.00     0.002 A 
ENDROOT
BRANCH   1   7
ATOM      7  C2  UNL d   1       0.072  -0.269   0.772  0.00  0.00     0.056 C 
BRANCH   7   8
ATOM      8  C1  UNL d   1       0.391  -1.734   1.085  0.00  0.00     0.007 C 
ATOM      9  C   UNL d   1      -0.530  -2.338   2.136  0.00  0.00     0.009 C 
ENDBRANCH   7   8
ENDBRANCH   1   7
TORSDOF 2
ENDMDL
