MODEL 1
REMARK minimizedAffinity -4.06715965
REMARK minimizedRMSD -1
REMARK  2 active torsions:
REMARK  status: ('A' for Active; 'I' for Inactive)
REMARK    1  A    between atoms: C1_2  and  C2_3 
REMARK    2  A    between atoms: C2_3  and  C3_4 
ROOT
ATOM      1  C3  UNL d   1       0.843   0.374  -0.220  0.00  0.00    -0.075 A 
ATOM      2  C4  UNL d   1       1.826  -0.176   0.616  0.00  0.00     0.002 A 
ATOM      3  C5  UNL d   1       1.829  -1.541   0.904  0.00  0.00     0.002 A 
ATOM      4  C6  UNL d   1       0.846  -2.371   0.369  0.00  0.00    -0.004 A 
ATOM      5  C7  UNL d   1      -0.145  -1.833  -0.450  0.00  0.00     0.002 A 
ATOM      6  C8  UNL d   1      -0.148  -0.468  -0.743  0.00  0.00     0.002 A 
ENDROOT
BRANCH   1   7
ATOM      7  C2  UNL d   1       0.852   1.845  -0.559  0.00  0.00     0.056 C 
BRANCH   7   8
ATOM      8  C1  UNL d   1       1.590   2.181  -1.859  0.00  0.00     0.007 C 
ATOM      9  C   UNL d   1       0.653   2.517  -3.012  0.00  0.00     0.009 C 
ENDBRANCH   7   8
ENDBRANCH   1   7
TORSDOF 2
ENDMDL
