MODEL 1
REMARK minimizedAffinity -3.76149964
REMARK minimizedRMSD -1
REMARK  1 active torsions:
REMARK  status: ('A' for Active; 'I' for Inactive)
REMARK    1  A    between atoms: N_2  and  C1_3 
ROOT
ATOM      1  C1  UNL d   1      -0.347   0.143  -0.455  0.00  0.00     0.143 A 
ATOM      2  C2  UNL d   1       0.764   0.847  -0.931  0.00  0.00    -0.057 A 
ATOM      3  C3  UNL d   1       1.935   0.183  -1.315  0.00  0.00     0.033 A 
ATOM      4  C4  UNL d   1       2.026  -1.200  -1.203  0.00  0.00    -0.042 A 
ATOM      5  C5  UNL d   1       0.943  -1.919  -0.709  0.00  0.00     0.033 A 
ATOM      6  C6  UNL d   1      -0.226  -1.250  -0.333  0.00  0.00    -0.057 A 
ENDROOT
BRANCH   1   7
ATOM      7  N   UNL d   1      -1.504   0.754   0.035  0.00  0.00    -0.732 N 
ATOM      8  C   UNL d   1      -1.735   0.858   1.460  0.00  0.00     0.284 C 
ATOM      9  H3  UNL d   1      -1.754   1.589  -0.489  0.00  0.00     0.395 HD
ENDBRANCH   1   7
TORSDOF 1
ENDMDL
