MODEL 1
REMARK minimizedAffinity -4.92074776
REMARK minimizedRMSD -1
REMARK  1 active torsions:
REMARK  status: ('A' for Active; 'I' for Inactive)
REMARK    1  A    between atoms: N_2  and  C1_3 
ROOT
ATOM      1  C1  UNL d   1       0.346   0.075   0.219  0.00  0.00     0.143 A 
ATOM      2  C2  UNL d   1       0.381  -1.081  -0.569  0.00  0.00    -0.057 A 
ATOM      3  C3  UNL d   1       1.537  -1.448  -1.268  0.00  0.00     0.033 A 
ATOM      4  C4  UNL d   1       2.674  -0.649  -1.214  0.00  0.00    -0.042 A 
ATOM      5  C5  UNL d   1       2.654   0.517  -0.457  0.00  0.00     0.033 A 
ATOM      6  C6  UNL d   1       1.499   0.876   0.244  0.00  0.00    -0.057 A 
ENDROOT
BRANCH   1   7
ATOM      7  N   UNL d   1      -0.803   0.546   0.858  0.00  0.00    -0.732 N 
ATOM      8  C   UNL d   1      -0.733   1.080   2.201  0.00  0.00     0.284 C 
ATOM      9  H3  UNL d   1      -1.407   1.074   0.232  0.00  0.00     0.395 HD
ENDBRANCH   1   7
TORSDOF 1
ENDMDL
