MODEL 1
REMARK minimizedAffinity -0.0961064398
REMARK minimizedRMSD -1
REMARK  1 active torsions:
REMARK  status: ('A' for Active; 'I' for Inactive)
REMARK    1  A    between atoms: N_2  and  C1_3 
ROOT
ATOM      1  C1  UNL d   1      -1.124  -0.138   0.889  0.00  0.00     0.143 A 
ATOM      2  C2  UNL d   1      -0.580  -1.416   1.054  0.00  0.00    -0.057 A 
ATOM      3  C3  UNL d   1       0.470  -1.868   0.246  0.00  0.00     0.033 A 
ATOM      4  C4  UNL d   1       0.977  -1.057  -0.764  0.00  0.00    -0.042 A 
ATOM      5  C5  UNL d   1       0.435   0.208  -0.962  0.00  0.00     0.033 A 
ATOM      6  C6  UNL d   1      -0.609   0.656  -0.148  0.00  0.00    -0.057 A 
ENDROOT
BRANCH   1   7
ATOM      7  N   UNL d   1      -2.234   0.332   1.595  0.00  0.00    -0.732 N 
ATOM      8  C   UNL d   1      -2.071   0.987   2.875  0.00  0.00     0.284 C 
ATOM      9  H3  UNL d   1      -2.923   0.772   0.988  0.00  0.00     0.395 HD
ENDBRANCH   1   7
TORSDOF 1
ENDMDL
