MODEL 1
REMARK minimizedAffinity -4.5826478
REMARK minimizedRMSD -1
REMARK  1 active torsions:
REMARK  status: ('A' for Active; 'I' for Inactive)
REMARK    1  A    between atoms: N_2  and  C1_3 
ROOT
ATOM      1  C1  UNL d   1      -0.241  -0.144  -0.160  0.00  0.00     0.143 A 
ATOM      2  C2  UNL d   1       0.505  -1.255   0.245  0.00  0.00    -0.057 A 
ATOM      3  C3  UNL d   1       1.674  -1.630  -0.427  0.00  0.00     0.033 A 
ATOM      4  C4  UNL d   1       2.103  -0.914  -1.540  0.00  0.00    -0.042 A 
ATOM      5  C5  UNL d   1       1.364   0.179  -1.976  0.00  0.00     0.033 A 
ATOM      6  C6  UNL d   1       0.201   0.553  -1.296  0.00  0.00    -0.057 A 
ENDROOT
BRANCH   1   7
ATOM      7  N   UNL d   1      -1.465   0.221   0.407  0.00  0.00    -0.732 N 
ATOM      8  C   UNL d   1      -1.552   0.575   1.807  0.00  0.00     0.284 C 
ATOM      9  H3  UNL d   1      -2.015   0.817  -0.208  0.00  0.00     0.395 HD
ENDBRANCH   1   7
TORSDOF 1
ENDMDL
