MODEL 1
REMARK minimizedAffinity -4.26405573
REMARK minimizedRMSD -1
REMARK  1 active torsions:
REMARK  status: ('A' for Active; 'I' for Inactive)
REMARK    1  A    between atoms: N_2  and  C1_3 
ROOT
ATOM      1  C1  UNL d   1      -0.695   0.249   0.019  0.00  0.00     0.143 A 
ATOM      2  C2  UNL d   1       0.299   1.101  -0.474  0.00  0.00    -0.057 A 
ATOM      3  C3  UNL d   1       1.483   0.594  -1.023  0.00  0.00     0.033 A 
ATOM      4  C4  UNL d   1       1.707  -0.779  -1.062  0.00  0.00    -0.042 A 
ATOM      5  C5  UNL d   1       0.743  -1.643  -0.555  0.00  0.00     0.033 A 
ATOM      6  C6  UNL d   1      -0.440  -1.131  -0.015  0.00  0.00    -0.057 A 
ENDROOT
BRANCH   1   7
ATOM      7  N   UNL d   1      -1.851   0.694   0.665  0.00  0.00    -0.732 N 
ATOM      8  C   UNL d   1      -1.949   0.655   2.109  0.00  0.00     0.284 C 
ATOM      9  H3  UNL d   1      -2.229   1.540   0.246  0.00  0.00     0.395 HD
ENDBRANCH   1   7
TORSDOF 1
ENDMDL
