MODEL 1
REMARK minimizedAffinity -5.53228998
REMARK minimizedRMSD -1
REMARK  1 active torsions:
REMARK  status: ('A' for Active; 'I' for Inactive)
REMARK    1  A    between atoms: N_2  and  C1_3 
ROOT
ATOM      1  C1  UNL d   1       0.100   0.067  -0.269  0.00  0.00     0.143 A 
ATOM      2  C2  UNL d   1       0.594  -1.221  -0.035  0.00  0.00    -0.057 A 
ATOM      3  C3  UNL d   1       1.904  -1.570  -0.386  0.00  0.00     0.033 A 
ATOM      4  C4  UNL d   1       2.736  -0.643  -1.005  0.00  0.00    -0.042 A 
ATOM      5  C5  UNL d   1       2.257   0.636  -1.270  0.00  0.00     0.033 A 
ATOM      6  C6  UNL d   1       0.951   0.981  -0.911  0.00  0.00    -0.057 A 
ENDROOT
BRANCH   1   7
ATOM      7  N   UNL d   1      -1.224   0.447  -0.032  0.00  0.00    -0.732 N 
ATOM      8  C   UNL d   1      -1.737   0.529   1.318  0.00  0.00     0.284 C 
ATOM      9  H3  UNL d   1      -1.524   1.207  -0.638  0.00  0.00     0.395 HD
ENDBRANCH   1   7
TORSDOF 1
ENDMDL
