MODEL 1
REMARK minimizedAffinity -4.09712219
REMARK minimizedRMSD -1
REMARK  1 active torsions:
REMARK  status: ('A' for Active; 'I' for Inactive)
REMARK    1  A    between atoms: N_2  and  C1_3 
ROOT
ATOM      1  C1  UNL d   1       0.473  -0.287   0.003  0.00  0.00     0.143 A 
ATOM      2  C2  UNL d   1       1.498   0.498   0.543  0.00  0.00    -0.057 A 
ATOM      3  C3  UNL d   1       2.783   0.497  -0.013  0.00  0.00     0.033 A 
ATOM      4  C4  UNL d   1       3.074  -0.313  -1.105  0.00  0.00    -0.042 A 
ATOM      5  C5  UNL d   1       2.078  -1.119  -1.643  0.00  0.00     0.033 A 
ATOM      6  C6  UNL d   1       0.795  -1.109  -1.088  0.00  0.00    -0.057 A 
ENDROOT
BRANCH   1   7
ATOM      7  N   UNL d   1      -0.798  -0.404   0.571  0.00  0.00    -0.732 N 
ATOM      8  C   UNL d   1      -1.516   0.769   1.020  0.00  0.00     0.284 C 
ATOM      9  H3  UNL d   1      -1.377  -1.086   0.087  0.00  0.00     0.395 HD
ENDBRANCH   1   7
TORSDOF 1
ENDMDL
