MODEL 1
REMARK minimizedAffinity -4.94732141
REMARK minimizedRMSD -1
REMARK  1 active torsions:
REMARK  status: ('A' for Active; 'I' for Inactive)
REMARK    1  A    between atoms: N_2  and  C1_3 
ROOT
ATOM      1  C1  UNL d   1       0.375   0.229  -0.525  0.00  0.00     0.143 A 
ATOM      2  C2  UNL d   1       0.640  -1.130  -0.726  0.00  0.00    -0.057 A 
ATOM      3  C3  UNL d   1       1.920  -1.577  -1.076  0.00  0.00     0.033 A 
ATOM      4  C4  UNL d   1       2.955  -0.666  -1.259  0.00  0.00    -0.042 A 
ATOM      5  C5  UNL d   1       2.709   0.692  -1.088  0.00  0.00     0.033 A 
ATOM      6  C6  UNL d   1       1.430   1.131  -0.733  0.00  0.00    -0.057 A 
ENDROOT
BRANCH   1   7
ATOM      7  N   UNL d   1      -0.898   0.744  -0.273  0.00  0.00    -0.732 N 
ATOM      8  C   UNL d   1      -1.438   0.753   1.070  0.00  0.00     0.284 C 
ATOM      9  H3  UNL d   1      -1.085   1.593  -0.801  0.00  0.00     0.395 HD
ENDBRANCH   1   7
TORSDOF 1
ENDMDL
