MODEL 1
REMARK minimizedAffinity -3.76557899
REMARK minimizedRMSD -1
REMARK  1 active torsions:
REMARK  status: ('A' for Active; 'I' for Inactive)
REMARK    1  A    between atoms: N_2  and  C1_3 
ROOT
ATOM      1  C1  UNL d   1       0.112   0.021  -0.111  0.00  0.00     0.143 A 
ATOM      2  C2  UNL d   1       1.096   0.941  -0.487  0.00  0.00    -0.057 A 
ATOM      3  C3  UNL d   1       2.342   0.517  -0.965  0.00  0.00     0.033 A 
ATOM      4  C4  UNL d   1       2.637  -0.839  -1.049  0.00  0.00    -0.042 A 
ATOM      5  C5  UNL d   1       1.683  -1.772  -0.657  0.00  0.00     0.033 A 
ATOM      6  C6  UNL d   1       0.438  -1.343  -0.187  0.00  0.00    -0.057 A 
ENDROOT
BRANCH   1   7
ATOM      7  N   UNL d   1      -1.110   0.379   0.464  0.00  0.00    -0.732 N 
ATOM      8  C   UNL d   1      -1.167   0.878   1.821  0.00  0.00     0.284 C 
ATOM      9  H3  UNL d   1      -1.715   0.874  -0.187  0.00  0.00     0.395 HD
ENDBRANCH   1   7
TORSDOF 1
ENDMDL
