MODEL 1
REMARK minimizedAffinity -3.71473789
REMARK minimizedRMSD -1
REMARK  1 active torsions:
REMARK  status: ('A' for Active; 'I' for Inactive)
REMARK    1  A    between atoms: N_2  and  C1_3 
ROOT
ATOM      1  C1  UNL d   1       1.340  -0.785  -0.787  0.00  0.00     0.143 A 
ATOM      2  C2  UNL d   1       0.453  -1.517   0.010  0.00  0.00    -0.057 A 
ATOM      3  C3  UNL d   1      -0.823  -1.026   0.316  0.00  0.00     0.033 A 
ATOM      4  C4  UNL d   1      -1.224   0.222  -0.149  0.00  0.00    -0.042 A 
ATOM      5  C5  UNL d   1      -0.350   0.977  -0.922  0.00  0.00     0.033 A 
ATOM      6  C6  UNL d   1       0.920   0.479  -1.229  0.00  0.00    -0.057 A 
ENDROOT
BRANCH   1   7
ATOM      7  N   UNL d   1       2.656  -1.174  -1.045  0.00  0.00    -0.732 N 
ATOM      8  C   UNL d   1       3.529  -0.340  -1.843  0.00  0.00     0.284 C 
ATOM      9  H3  UNL d   1       3.106  -1.586  -0.230  0.00  0.00     0.395 HD
ENDBRANCH   1   7
TORSDOF 1
ENDMDL
