MODEL 1
REMARK minimizedAffinity -3.85045552
REMARK minimizedRMSD -1
REMARK  1 active torsions:
REMARK  status: ('A' for Active; 'I' for Inactive)
REMARK    1  A    between atoms: N_2  and  C1_3 
ROOT
ATOM      1  C1  UNL d   1      -0.070  -0.304  -0.046  0.00  0.00     0.143 A 
ATOM      2  C2  UNL d   1       0.268  -1.659   0.041  0.00  0.00    -0.057 A 
ATOM      3  C3  UNL d   1       1.435  -2.156  -0.551  0.00  0.00     0.033 A 
ATOM      4  C4  UNL d   1       2.273  -1.308  -1.269  0.00  0.00    -0.042 A 
ATOM      5  C5  UNL d   1       1.944   0.037  -1.390  0.00  0.00     0.033 A 
ATOM      6  C6  UNL d   1       0.780   0.528  -0.790  0.00  0.00    -0.057 A 
ENDROOT
BRANCH   1   7
ATOM      7  N   UNL d   1      -1.266   0.232   0.438  0.00  0.00    -0.732 N 
ATOM      8  C   UNL d   1      -1.440   0.491   1.851  0.00  0.00     0.284 C 
ATOM      9  H3  UNL d   1      -1.638   0.960  -0.167  0.00  0.00     0.395 HD
ENDBRANCH   1   7
TORSDOF 1
ENDMDL
