MODEL 1
REMARK minimizedAffinity -3.80981565
REMARK minimizedRMSD -1
REMARK  1 active torsions:
REMARK  status: ('A' for Active; 'I' for Inactive)
REMARK    1  A    between atoms: N_2  and  C1_3 
ROOT
ATOM      1  C1  UNL d   1      -0.182   0.180   0.292  0.00  0.00     0.143 A 
ATOM      2  C2  UNL d   1       0.280   0.839   1.436  0.00  0.00    -0.057 A 
ATOM      3  C3  UNL d   1      -0.579   1.134   2.502  0.00  0.00     0.033 A 
ATOM      4  C4  UNL d   1      -1.927   0.799   2.429  0.00  0.00    -0.042 A 
ATOM      5  C5  UNL d   1      -2.414   0.166   1.291  0.00  0.00     0.033 A 
ATOM      6  C6  UNL d   1      -1.550  -0.131   0.233  0.00  0.00    -0.057 A 
ENDROOT
BRANCH   1   7
ATOM      7  N   UNL d   1       0.601  -0.052  -0.841  0.00  0.00    -0.732 N 
ATOM      8  C   UNL d   1       1.856   0.644  -1.026  0.00  0.00     0.284 C 
ATOM      9  H3  UNL d   1       0.630  -1.036  -1.098  0.00  0.00     0.395 HD
ENDBRANCH   1   7
TORSDOF 1
ENDMDL
