MODEL 1
REMARK minimizedAffinity -4.81816435
REMARK minimizedRMSD -1
REMARK  1 active torsions:
REMARK  status: ('A' for Active; 'I' for Inactive)
REMARK    1  A    between atoms: N_2  and  C1_3 
ROOT
ATOM      1  C1  UNL d   1      -0.041   0.014  -0.021  0.00  0.00     0.143 A 
ATOM      2  C2  UNL d   1       0.404  -1.312  -0.019  0.00  0.00    -0.057 A 
ATOM      3  C3  UNL d   1       1.580  -1.685  -0.680  0.00  0.00     0.033 A 
ATOM      4  C4  UNL d   1       2.320  -0.740  -1.383  0.00  0.00    -0.042 A 
ATOM      5  C5  UNL d   1       1.884   0.580  -1.420  0.00  0.00     0.033 A 
ATOM      6  C6  UNL d   1       0.712   0.947  -0.751  0.00  0.00    -0.057 A 
ENDROOT
BRANCH   1   7
ATOM      7  N   UNL d   1      -1.253   0.429   0.535  0.00  0.00    -0.732 N 
ATOM      8  C   UNL d   1      -1.334   0.808   1.929  0.00  0.00     0.284 C 
ATOM      9  H3  UNL d   1      -1.781   1.033  -0.091  0.00  0.00     0.395 HD
ENDBRANCH   1   7
TORSDOF 1
ENDMDL
