MODEL 1
REMARK minimizedAffinity 0.250682086
REMARK minimizedRMSD -1
REMARK  1 active torsions:
REMARK  status: ('A' for Active; 'I' for Inactive)
REMARK    1  A    between atoms: C1_2  and  C2_3 
ROOT
ATOM      1  C2  UNL d   1       0.815  -0.188   2.784  0.00  0.00    -0.076 A 
ATOM      2  C3  UNL d   1       0.067  -1.272   3.274  0.00  0.00     0.004 A 
ATOM      3  C4  UNL d   1      -1.306  -1.358   3.046  0.00  0.00    -0.003 A 
ATOM      4  C5  UNL d   1      -1.952  -0.361   2.323  0.00  0.00     0.000 A 
ATOM      5  C6  UNL d   1      -1.222   0.713   1.814  0.00  0.00     0.000 A 
ATOM      6  C7  UNL d   1       0.165   0.806   2.021  0.00  0.00    -0.073 A 
ATOM      7  C8  UNL d   1       0.902   1.988   1.454  0.00  0.00     0.078 C 
ENDROOT
BRANCH   1   8
ATOM      8  C1  UNL d   1       2.296  -0.135   3.086  0.00  0.00     0.053 C 
ATOM      9  C   UNL d   1       3.151  -0.303   1.839  0.00  0.00     0.018 C 
ENDBRANCH   1   8
TORSDOF 1
ENDMDL
