MODEL 1
REMARK minimizedAffinity 6.84243059
REMARK minimizedRMSD -1
REMARK  1 active torsions:
REMARK  status: ('A' for Active; 'I' for Inactive)
REMARK    1  A    between atoms: C1_2  and  C2_3 
ROOT
ATOM      1  C2  UNL d   1      -1.176  -1.062   0.501  0.00  0.00    -0.076 A 
ATOM      2  C3  UNL d   1      -0.486  -2.274   0.673  0.00  0.00     0.004 A 
ATOM      3  C4  UNL d   1      -0.304  -3.154  -0.393  0.00  0.00    -0.003 A 
ATOM      4  C5  UNL d   1      -0.809  -2.835  -1.649  0.00  0.00     0.000 A 
ATOM      5  C6  UNL d   1      -1.481  -1.628  -1.842  0.00  0.00     0.000 A 
ATOM      6  C7  UNL d   1      -1.659  -0.723  -0.782  0.00  0.00    -0.073 A 
ATOM      7  C8  UNL d   1      -2.396   0.561  -1.045  0.00  0.00     0.078 C 
ENDROOT
BRANCH   1   8
ATOM      8  C1  UNL d   1      -1.366  -0.160   1.699  0.00  0.00     0.053 C 
ATOM      9  C   UNL d   1      -0.169  -0.177   2.637  0.00  0.00     0.018 C 
ENDBRANCH   1   8
TORSDOF 1
ENDMDL
