MODEL 1
REMARK minimizedAffinity -4.23987341
REMARK minimizedRMSD -1
REMARK  1 active torsions:
REMARK  status: ('A' for Active; 'I' for Inactive)
REMARK    1  A    between atoms: C1_2  and  C2_3 
ROOT
ATOM      1  C2  UNL d   1      -1.935  -0.557   3.769  0.00  0.00    -0.076 A 
ATOM      2  C3  UNL d   1      -0.676  -0.658   4.387  0.00  0.00     0.004 A 
ATOM      3  C4  UNL d   1       0.498  -0.490   3.654  0.00  0.00    -0.003 A 
ATOM      4  C5  UNL d   1       0.431  -0.218   2.292  0.00  0.00     0.000 A 
ATOM      5  C6  UNL d   1      -0.809  -0.097   1.667  0.00  0.00     0.000 A 
ATOM      6  C7  UNL d   1      -2.002  -0.248   2.394  0.00  0.00    -0.073 A 
ATOM      7  C8  UNL d   1      -3.313  -0.113   1.668  0.00  0.00     0.078 C 
ENDROOT
BRANCH   1   8
ATOM      8  C1  UNL d   1      -3.173  -0.776   4.610  0.00  0.00     0.053 C 
ATOM      9  C   UNL d   1      -2.849  -1.309   5.997  0.00  0.00     0.018 C 
ENDBRANCH   1   8
TORSDOF 1
ENDMDL
