MODEL 1
REMARK minimizedAffinity 5.58181286
REMARK minimizedRMSD -1
REMARK  1 active torsions:
REMARK  status: ('A' for Active; 'I' for Inactive)
REMARK    1  A    between atoms: C1_2  and  C2_3 
ROOT
ATOM      1  C2  UNL d   1      -1.460  -0.597   0.329  0.00  0.00    -0.076 A 
ATOM      2  C3  UNL d   1      -0.750  -0.489   1.538  0.00  0.00     0.004 A 
ATOM      3  C4  UNL d   1      -1.325   0.111   2.657  0.00  0.00    -0.003 A 
ATOM      4  C5  UNL d   1      -2.621   0.611   2.586  0.00  0.00     0.000 A 
ATOM      5  C6  UNL d   1      -3.346   0.497   1.400  0.00  0.00     0.000 A 
ATOM      6  C7  UNL d   1      -2.786  -0.120   0.268  0.00  0.00    -0.073 A 
ATOM      7  C8  UNL d   1      -3.612  -0.211  -0.986  0.00  0.00     0.078 C 
ENDROOT
BRANCH   1   8
ATOM      8  C1  UNL d   1      -0.774  -1.233  -0.859  0.00  0.00     0.053 C 
ATOM      9  C   UNL d   1      -0.820  -2.752  -0.814  0.00  0.00     0.018 C 
ENDBRANCH   1   8
TORSDOF 1
ENDMDL
