MODEL 1
REMARK minimizedAffinity 8.92156982
REMARK minimizedRMSD -1
REMARK  1 active torsions:
REMARK  status: ('A' for Active; 'I' for Inactive)
REMARK    1  A    between atoms: C1_2  and  C2_3 
ROOT
ATOM      1  C2  UNL d   1       3.438   2.556  -3.379  0.00  0.00    -0.076 A 
ATOM      2  C3  UNL d   1       2.106   2.931  -3.133  0.00  0.00     0.004 A 
ATOM      3  C4  UNL d   1       1.632   4.185  -3.515  0.00  0.00    -0.003 A 
ATOM      4  C5  UNL d   1       2.482   5.084  -4.149  0.00  0.00     0.000 A 
ATOM      5  C6  UNL d   1       3.802   4.722  -4.417  0.00  0.00     0.000 A 
ATOM      6  C7  UNL d   1       4.291   3.456  -4.053  0.00  0.00    -0.073 A 
ATOM      7  C8  UNL d   1       5.725   3.120  -4.361  0.00  0.00     0.078 C 
ENDROOT
BRANCH   1   8
ATOM      8  C1  UNL d   1       3.903   1.193  -2.918  0.00  0.00     0.053 C 
ATOM      9  C   UNL d   1       2.976   0.077  -3.372  0.00  0.00     0.018 C 
ENDBRANCH   1   8
TORSDOF 1
ENDMDL
