MODEL 1
REMARK minimizedAffinity 2.92374659
REMARK minimizedRMSD -1
REMARK  1 active torsions:
REMARK  status: ('A' for Active; 'I' for Inactive)
REMARK    1  A    between atoms: C1_2  and  C2_3 
ROOT
ATOM      1  C2  UNL d   1       2.920   3.600  -5.067  0.00  0.00    -0.076 A 
ATOM      2  C3  UNL d   1       2.562   4.957  -5.155  0.00  0.00     0.004 A 
ATOM      3  C4  UNL d   1       1.541   5.482  -4.365  0.00  0.00    -0.003 A 
ATOM      4  C5  UNL d   1       0.861   4.659  -3.474  0.00  0.00     0.000 A 
ATOM      5  C6  UNL d   1       1.215   3.315  -3.360  0.00  0.00     0.000 A 
ATOM      6  C7  UNL d   1       2.254   2.774  -4.138  0.00  0.00    -0.073 A 
ATOM      7  C8  UNL d   1       2.589   1.316  -3.979  0.00  0.00     0.078 C 
ENDROOT
BRANCH   1   8
ATOM      8  C1  UNL d   1       4.017   3.081  -5.969  0.00  0.00     0.053 C 
ATOM      9  C   UNL d   1       5.393   3.586  -5.562  0.00  0.00     0.018 C 
ENDBRANCH   1   8
TORSDOF 1
ENDMDL
