MODEL 1
REMARK minimizedAffinity 13.108058
REMARK minimizedRMSD -1
REMARK  1 active torsions:
REMARK  status: ('A' for Active; 'I' for Inactive)
REMARK    1  A    between atoms: C1_2  and  C2_3 
ROOT
ATOM      1  C2  UNL d   1       3.937   1.794  -1.467  0.00  0.00    -0.081 A 
ATOM      2  C3  UNL d   1       3.254   2.975  -1.150  0.00  0.00     0.006 A 
ATOM      3  C4  UNL d   1       3.920   4.203  -1.164  0.00  0.00     0.002 A 
ATOM      4  C5  UNL d   1       5.276   4.272  -1.502  0.00  0.00    -0.080 A 
ATOM      5  C6  UNL d   1       5.995   5.587  -1.550  0.00  0.00     0.076 C 
ATOM      6  C7  UNL d   1       5.962   3.090  -1.802  0.00  0.00     0.002 A 
ATOM      7  C8  UNL d   1       5.297   1.862  -1.788  0.00  0.00     0.006 A 
ENDROOT
BRANCH   1   8
ATOM      8  C1  UNL d   1       3.206   0.476  -1.516  0.00  0.00     0.054 C 
ATOM      9  C   UNL d   1       2.731   0.055  -0.133  0.00  0.00     0.018 C 
ENDBRANCH   1   8
TORSDOF 1
ENDMDL
