MODEL 1
REMARK minimizedAffinity 11.479579
REMARK minimizedRMSD -1
REMARK  1 active torsions:
REMARK  status: ('A' for Active; 'I' for Inactive)
REMARK    1  A    between atoms: C1_2  and  C2_3 
ROOT
ATOM      1  C2  UNL d   1       2.092   2.126   2.064  0.00  0.00    -0.081 A 
ATOM      2  C3  UNL d   1       1.703   2.471   0.764  0.00  0.00     0.006 A 
ATOM      3  C4  UNL d   1       1.840   1.555  -0.282  0.00  0.00     0.002 A 
ATOM      4  C5  UNL d   1       2.360   0.278  -0.044  0.00  0.00    -0.080 A 
ATOM      5  C6  UNL d   1       2.484  -0.725  -1.152  0.00  0.00     0.076 C 
ATOM      6  C7  UNL d   1       2.765  -0.060   1.252  0.00  0.00     0.002 A 
ATOM      7  C8  UNL d   1       2.629   0.855   2.298  0.00  0.00     0.006 A 
ENDROOT
BRANCH   1   8
ATOM      8  C1  UNL d   1       1.886   3.089   3.206  0.00  0.00     0.054 C 
ATOM      9  C   UNL d   1       1.049   2.463   4.312  0.00  0.00     0.018 C 
ENDBRANCH   1   8
TORSDOF 1
ENDMDL
