MODEL 1
REMARK minimizedAffinity 4.98193645
REMARK minimizedRMSD -1
REMARK  1 active torsions:
REMARK  status: ('A' for Active; 'I' for Inactive)
REMARK    1  A    between atoms: C1_2  and  C2_3 
ROOT
ATOM      1  C2  UNL d   1      -3.816   1.111  -1.380  0.00  0.00    -0.081 A 
ATOM      2  C3  UNL d   1      -3.417   1.181  -0.040  0.00  0.00     0.006 A 
ATOM      3  C4  UNL d   1      -2.062   1.227   0.294  0.00  0.00     0.002 A 
ATOM      4  C5  UNL d   1      -1.083   1.211  -0.705  0.00  0.00    -0.080 A 
ATOM      5  C6  UNL d   1       0.374   1.290  -0.362  0.00  0.00     0.076 C 
ATOM      6  C7  UNL d   1      -1.481   1.123  -2.044  0.00  0.00     0.002 A 
ATOM      7  C8  UNL d   1      -2.836   1.077  -2.378  0.00  0.00     0.006 A 
ENDROOT
BRANCH   1   8
ATOM      8  C1  UNL d   1      -5.278   1.127  -1.747  0.00  0.00     0.054 C 
ATOM      9  C   UNL d   1      -5.983   2.340  -1.157  0.00  0.00     0.018 C 
ENDBRANCH   1   8
TORSDOF 1
ENDMDL
