MODEL 1
REMARK minimizedAffinity 0.554995
REMARK minimizedRMSD -1
REMARK  1 active torsions:
REMARK  status: ('A' for Active; 'I' for Inactive)
REMARK    1  A    between atoms: C1_2  and  C2_3 
ROOT
ATOM      1  C2  UNL d   1      -0.293   0.566  -1.257  0.00  0.00    -0.081 A 
ATOM      2  C3  UNL d   1       0.547  -0.511  -1.565  0.00  0.00     0.006 A 
ATOM      3  C4  UNL d   1       1.784  -0.648  -0.932  0.00  0.00     0.002 A 
ATOM      4  C5  UNL d   1       2.199   0.284   0.025  0.00  0.00    -0.080 A 
ATOM      5  C6  UNL d   1       3.512   0.132   0.734  0.00  0.00     0.076 C 
ATOM      6  C7  UNL d   1       1.368   1.370   0.320  0.00  0.00     0.002 A 
ATOM      7  C8  UNL d   1       0.131   1.508  -0.314  0.00  0.00     0.006 A 
ENDROOT
BRANCH   1   8
ATOM      8  C1  UNL d   1      -1.655   0.682  -1.891  0.00  0.00     0.054 C 
ATOM      9  C   UNL d   1      -2.753   0.266  -0.922  0.00  0.00     0.018 C 
ENDBRANCH   1   8
TORSDOF 1
ENDMDL
