MODEL 1
REMARK minimizedAffinity -5.28391933
REMARK minimizedRMSD -1
REMARK  1 active torsions:
REMARK  status: ('A' for Active; 'I' for Inactive)
REMARK    1  A    between atoms: C3_4  and  O_7 
ROOT
ATOM      1  C   UNL d   1      -0.843   1.989   1.802  0.00  0.00    -0.033 A 
ATOM      2  C1  UNL d   1      -0.711   0.936   0.894  0.00  0.00     0.039 A 
ATOM      3  C2  UNL d   1      -0.650   1.196  -0.476  0.00  0.00    -0.080 A 
ATOM      4  C3  UNL d   1      -0.720   2.512  -0.925  0.00  0.00     0.150 A 
ATOM      5  C4  UNL d   1      -0.847   3.566  -0.027  0.00  0.00    -0.007 A 
ATOM      6  C5  UNL d   1      -0.910   3.304   1.341  0.00  0.00     0.039 A 
ENDROOT
BRANCH   4   7
ATOM      7  O   UNL d   1      -0.669   2.815  -2.253  0.00  0.00    -0.526 OA
ATOM      8  H5  UNL d   1      -0.609   1.986  -2.756  0.00  0.00     0.418 HD
ENDBRANCH   4   7
TORSDOF 1
ENDMDL
