MODEL 1
REMARK minimizedAffinity -4.35987234
REMARK minimizedRMSD -1
REMARK  1 active torsions:
REMARK  status: ('A' for Active; 'I' for Inactive)
REMARK    1  A    between atoms: C3_4  and  O_7 
ROOT
ATOM      1  C   UNL d   1       0.502  -0.318   1.149  0.00  0.00    -0.033 A 
ATOM      2  C1  UNL d   1       0.253   0.069   2.467  0.00  0.00     0.039 A 
ATOM      3  C2  UNL d   1      -0.600   1.142   2.732  0.00  0.00    -0.080 A 
ATOM      4  C3  UNL d   1      -1.198   1.817   1.672  0.00  0.00     0.150 A 
ATOM      5  C4  UNL d   1      -0.958   1.435   0.356  0.00  0.00    -0.007 A 
ATOM      6  C5  UNL d   1      -0.105   0.364   0.094  0.00  0.00     0.039 A 
ENDROOT
BRANCH   4   7
ATOM      7  O   UNL d   1      -2.034   2.874   1.881  0.00  0.00    -0.526 OA
ATOM      8  H5  UNL d   1      -2.084   3.042   2.837  0.00  0.00     0.418 HD
ENDBRANCH   4   7
TORSDOF 1
ENDMDL
