MODEL 1
REMARK minimizedAffinity -0.347225994
REMARK minimizedRMSD -1
REMARK  1 active torsions:
REMARK  status: ('A' for Active; 'I' for Inactive)
REMARK    1  A    between atoms: C3_4  and  O_7 
ROOT
ATOM      1  C   UNL d   1       0.607   0.363   1.142  0.00  0.00    -0.033 A 
ATOM      2  C1  UNL d   1       0.546   0.405  -0.252  0.00  0.00     0.039 A 
ATOM      3  C2  UNL d   1       0.222  -0.746  -0.973  0.00  0.00    -0.080 A 
ATOM      4  C3  UNL d   1      -0.041  -1.930  -0.290  0.00  0.00     0.150 A 
ATOM      5  C4  UNL d   1       0.014  -1.978   1.099  0.00  0.00    -0.007 A 
ATOM      6  C5  UNL d   1       0.339  -0.828   1.818  0.00  0.00     0.039 A 
ENDROOT
BRANCH   4   7
ATOM      7  O   UNL d   1      -0.357  -3.079  -0.951  0.00  0.00    -0.526 OA
ATOM      8  H5  UNL d   1      -0.329  -2.902  -1.906  0.00  0.00     0.418 HD
ENDBRANCH   4   7
TORSDOF 1
ENDMDL
