MODEL 1
REMARK minimizedAffinity -2.59056473
REMARK minimizedRMSD -1
REMARK  1 active torsions:
REMARK  status: ('A' for Active; 'I' for Inactive)
REMARK    1  A    between atoms: C3_4  and  O_7 
ROOT
ATOM      1  C   UNL d   1       0.318   1.836   1.830  0.00  0.00    -0.033 A 
ATOM      2  C1  UNL d   1       0.511   2.024   0.460  0.00  0.00     0.039 A 
ATOM      3  C2  UNL d   1       0.576   0.923  -0.396  0.00  0.00    -0.080 A 
ATOM      4  C3  UNL d   1       0.446  -0.360   0.130  0.00  0.00     0.150 A 
ATOM      5  C4  UNL d   1       0.249  -0.555   1.493  0.00  0.00    -0.007 A 
ATOM      6  C5  UNL d   1       0.185   0.546   2.346  0.00  0.00     0.039 A 
ENDROOT
BRANCH   4   7
ATOM      7  O   UNL d   1       0.507  -1.465  -0.666  0.00  0.00    -0.526 OA
ATOM      8  H5  UNL d   1       0.676  -1.179  -1.579  0.00  0.00     0.418 HD
ENDBRANCH   4   7
TORSDOF 1
ENDMDL
