MODEL 1
REMARK minimizedAffinity 2.05269575
REMARK minimizedRMSD -1
REMARK  1 active torsions:
REMARK  status: ('A' for Active; 'I' for Inactive)
REMARK    1  A    between atoms: C3_4  and  O_7 
ROOT
ATOM      1  C   UNL d   1       0.945   4.871  -5.393  0.00  0.00    -0.033 A 
ATOM      2  C1  UNL d   1       1.683   3.821  -4.842  0.00  0.00     0.039 A 
ATOM      3  C2  UNL d   1       3.078   3.856  -4.870  0.00  0.00    -0.080 A 
ATOM      4  C3  UNL d   1       3.723   4.945  -5.450  0.00  0.00     0.150 A 
ATOM      5  C4  UNL d   1       2.995   5.995  -5.998  0.00  0.00    -0.007 A 
ATOM      6  C5  UNL d   1       1.602   5.958  -5.970  0.00  0.00     0.039 A 
ENDROOT
BRANCH   4   7
ATOM      7  O   UNL d   1       5.083   5.021  -5.505  0.00  0.00    -0.526 OA
ATOM      8  H5  UNL d   1       5.453   4.211  -5.114  0.00  0.00     0.418 HD
ENDBRANCH   4   7
TORSDOF 1
ENDMDL
