MODEL 1
REMARK minimizedAffinity 3.70210075
REMARK minimizedRMSD -1
REMARK  1 active torsions:
REMARK  status: ('A' for Active; 'I' for Inactive)
REMARK    1  A    between atoms: C3_4  and  O_7 
ROOT
ATOM      1  C   UNL d   1       1.639  -1.062   1.594  0.00  0.00    -0.033 A 
ATOM      2  C1  UNL d   1       0.458  -1.541   1.025  0.00  0.00     0.039 A 
ATOM      3  C2  UNL d   1       0.418  -2.822   0.469  0.00  0.00    -0.080 A 
ATOM      4  C3  UNL d   1       1.565  -3.611   0.489  0.00  0.00     0.150 A 
ATOM      5  C4  UNL d   1       2.744  -3.141   1.058  0.00  0.00    -0.007 A 
ATOM      6  C5  UNL d   1       2.782  -1.862   1.612  0.00  0.00     0.039 A 
ENDROOT
BRANCH   4   7
ATOM      7  O   UNL d   1       1.576  -4.865  -0.045  0.00  0.00    -0.526 OA
ATOM      8  H5  UNL d   1       0.701  -5.044  -0.427  0.00  0.00     0.418 HD
ENDBRANCH   4   7
TORSDOF 1
ENDMDL
