MODEL 1
REMARK minimizedAffinity 5.08004475
REMARK minimizedRMSD -1
REMARK  1 active torsions:
REMARK  status: ('A' for Active; 'I' for Inactive)
REMARK    1  A    between atoms: C3_4  and  O_7 
ROOT
ATOM      1  C   UNL d   1       0.013  -0.875   3.042  0.00  0.00    -0.033 A 
ATOM      2  C1  UNL d   1       1.406  -0.854   2.949  0.00  0.00     0.039 A 
ATOM      3  C2  UNL d   1       2.052  -1.579   1.946  0.00  0.00    -0.080 A 
ATOM      4  C3  UNL d   1       1.294  -2.318   1.042  0.00  0.00     0.150 A 
ATOM      5  C4  UNL d   1      -0.094  -2.340   1.126  0.00  0.00    -0.007 A 
ATOM      6  C5  UNL d   1      -0.737  -1.617   2.129  0.00  0.00     0.039 A 
ENDROOT
BRANCH   4   7
ATOM      7  O   UNL d   1       1.879  -3.045   0.048  0.00  0.00    -0.526 OA
ATOM      8  H5  UNL d   1       2.844  -2.959   0.131  0.00  0.00     0.418 HD
ENDBRANCH   4   7
TORSDOF 1
ENDMDL
