MODEL 1
REMARK minimizedAffinity 5.73302937
REMARK minimizedRMSD -1
REMARK  1 active torsions:
REMARK  status: ('A' for Active; 'I' for Inactive)
REMARK    1  A    between atoms: C3_4  and  O_7 
ROOT
ATOM      1  C   UNL d   1       4.600  -5.976   5.996  0.00  0.00    -0.033 A 
ATOM      2  C1  UNL d   1       3.306  -5.453   5.992  0.00  0.00     0.039 A 
ATOM      3  C2  UNL d   1       3.109  -4.071   5.990  0.00  0.00    -0.080 A 
ATOM      4  C3  UNL d   1       4.214  -3.224   5.990  0.00  0.00     0.150 A 
ATOM      5  C4  UNL d   1       5.506  -3.738   5.990  0.00  0.00    -0.007 A 
ATOM      6  C5  UNL d   1       5.701  -5.119   5.993  0.00  0.00     0.039 A 
ENDROOT
BRANCH   4   7
ATOM      7  O   UNL d   1       4.072  -1.868   5.993  0.00  0.00    -0.526 OA
ATOM      8  H5  UNL d   1       3.124  -1.658   6.022  0.00  0.00     0.418 HD
ENDBRANCH   4   7
TORSDOF 1
ENDMDL
