MODEL 1
REMARK minimizedAffinity 1.11826706
REMARK minimizedRMSD -1
REMARK  1 active torsions:
REMARK  status: ('A' for Active; 'I' for Inactive)
REMARK    1  A    between atoms: C3_4  and  O_7 
ROOT
ATOM      1  C   UNL d   1       2.077  -1.177   0.496  0.00  0.00    -0.033 A 
ATOM      2  C1  UNL d   1       2.426  -2.012  -0.566  0.00  0.00     0.039 A 
ATOM      3  C2  UNL d   1       1.990  -3.338  -0.587  0.00  0.00    -0.080 A 
ATOM      4  C3  UNL d   1       1.204  -3.815   0.459  0.00  0.00     0.150 A 
ATOM      5  C4  UNL d   1       0.849  -2.987   1.519  0.00  0.00    -0.007 A 
ATOM      6  C5  UNL d   1       1.287  -1.664   1.538  0.00  0.00     0.039 A 
ENDROOT
BRANCH   4   7
ATOM      7  O   UNL d   1       0.758  -5.103   0.485  0.00  0.00    -0.526 OA
ATOM      8  H5  UNL d   1       1.105  -5.565  -0.297  0.00  0.00     0.418 HD
ENDBRANCH   4   7
TORSDOF 1
ENDMDL
