MODEL 1
REMARK minimizedAffinity 5.34424305
REMARK minimizedRMSD -1
REMARK  1 active torsions:
REMARK  status: ('A' for Active; 'I' for Inactive)
REMARK    1  A    between atoms: C3_4  and  O_7 
ROOT
ATOM      1  C   UNL d   1       1.812  -1.700   0.998  0.00  0.00    -0.033 A 
ATOM      2  C1  UNL d   1       3.040  -2.345   0.842  0.00  0.00     0.039 A 
ATOM      3  C2  UNL d   1       3.091  -3.632   0.304  0.00  0.00    -0.080 A 
ATOM      4  C3  UNL d   1       1.909  -4.261  -0.076  0.00  0.00     0.150 A 
ATOM      5  C4  UNL d   1       0.682  -3.623   0.072  0.00  0.00    -0.007 A 
ATOM      6  C5  UNL d   1       0.633  -2.338   0.612  0.00  0.00     0.039 A 
ENDROOT
BRANCH   4   7
ATOM      7  O   UNL d   1       1.908  -5.519  -0.602  0.00  0.00    -0.526 OA
ATOM      8  H5  UNL d   1       2.823  -5.846  -0.619  0.00  0.00     0.418 HD
ENDBRANCH   4   7
TORSDOF 1
ENDMDL
