MODEL 1
REMARK minimizedAffinity 2.87858701
REMARK minimizedRMSD -1
REMARK  1 active torsions:
REMARK  status: ('A' for Active; 'I' for Inactive)
REMARK    1  A    between atoms: C1_2  and  C2_3 
ROOT
ATOM      1  C2  UNL d   1       0.086   2.854   1.183  0.00  0.00    -0.081 A 
ATOM      2  C3  UNL d   1       0.223   2.238   2.433  0.00  0.00     0.006 A 
ATOM      3  C4  UNL d   1       0.111   0.852   2.556  0.00  0.00     0.002 A 
ATOM      4  C5  UNL d   1      -0.133   0.057   1.431  0.00  0.00    -0.080 A 
ATOM      5  C6  UNL d   1      -0.225  -1.436   1.544  0.00  0.00     0.076 C 
ATOM      6  C7  UNL d   1      -0.287   0.673   0.184  0.00  0.00     0.002 A 
ATOM      7  C8  UNL d   1      -0.175   2.060   0.061  0.00  0.00     0.006 A 
ENDROOT
BRANCH   1   8
ATOM      8  C1  UNL d   1       0.271   4.343   1.037  0.00  0.00     0.054 C 
ATOM      9  C   UNL d   1       0.353   4.749  -0.428  0.00  0.00     0.018 C 
ENDBRANCH   1   8
TORSDOF 1
ENDMDL
