MODEL 1
REMARK minimizedAffinity 10.8277884
REMARK minimizedRMSD -1
REMARK  1 active torsions:
REMARK  status: ('A' for Active; 'I' for Inactive)
REMARK    1  A    between atoms: C1_2  and  C2_3 
ROOT
ATOM      1  C2  UNL d   1       0.586   2.761   1.130  0.00  0.00    -0.081 A 
ATOM      2  C3  UNL d   1       0.021   1.491   0.959  0.00  0.00     0.006 A 
ATOM      3  C4  UNL d   1       0.106   0.536   1.974  0.00  0.00     0.002 A 
ATOM      4  C5  UNL d   1       0.750   0.836   3.179  0.00  0.00    -0.080 A 
ATOM      5  C6  UNL d   1       0.822  -0.171   4.289  0.00  0.00     0.076 C 
ATOM      6  C7  UNL d   1       1.330   2.099   3.343  0.00  0.00     0.002 A 
ATOM      7  C8  UNL d   1       1.245   3.054   2.328  0.00  0.00     0.006 A 
ENDROOT
BRANCH   1   8
ATOM      8  C1  UNL d   1       0.439   3.815   0.062  0.00  0.00     0.054 C 
ATOM      9  C   UNL d   1      -0.042   3.211  -1.250  0.00  0.00     0.018 C 
ENDBRANCH   1   8
TORSDOF 1
ENDMDL
