MODEL 1
REMARK minimizedAffinity 6.18404007
REMARK minimizedRMSD -1
REMARK  1 active torsions:
REMARK  status: ('A' for Active; 'I' for Inactive)
REMARK    1  A    between atoms: C1_2  and  C2_3 
ROOT
ATOM      1  C2  UNL d   1      -0.018   2.053   1.062  0.00  0.00    -0.081 A 
ATOM      2  C3  UNL d   1       1.188   1.413   1.376  0.00  0.00     0.006 A 
ATOM      3  C4  UNL d   1       1.293   0.626   2.525  0.00  0.00     0.002 A 
ATOM      4  C5  UNL d   1       0.194   0.458   3.374  0.00  0.00    -0.080 A 
ATOM      5  C6  UNL d   1       0.286  -0.409   4.594  0.00  0.00     0.076 C 
ATOM      6  C7  UNL d   1      -1.005   1.111   3.070  0.00  0.00     0.002 A 
ATOM      7  C8  UNL d   1      -1.111   1.899   1.922  0.00  0.00     0.006 A 
ENDROOT
BRANCH   1   8
ATOM      8  C1  UNL d   1      -0.154   2.850  -0.210  0.00  0.00     0.054 C 
ATOM      9  C   UNL d   1      -0.099   1.950  -1.436  0.00  0.00     0.018 C 
ENDBRANCH   1   8
TORSDOF 1
ENDMDL
