MODEL 1
REMARK minimizedAffinity 7.04516649
REMARK minimizedRMSD -1
REMARK  1 active torsions:
REMARK  status: ('A' for Active; 'I' for Inactive)
REMARK    1  A    between atoms: C1_2  and  C2_3 
ROOT
ATOM      1  C2  UNL d   1       1.364   0.645   2.497  0.00  0.00    -0.081 A 
ATOM      2  C3  UNL d   1       1.555   2.004   2.772  0.00  0.00     0.006 A 
ATOM      3  C4  UNL d   1       0.617   2.950   2.352  0.00  0.00     0.002 A 
ATOM      4  C5  UNL d   1      -0.531   2.552   1.659  0.00  0.00    -0.080 A 
ATOM      5  C6  UNL d   1      -1.561   3.554   1.230  0.00  0.00     0.076 C 
ATOM      6  C7  UNL d   1      -0.713   1.196   1.369  0.00  0.00     0.002 A 
ATOM      7  C8  UNL d   1       0.225   0.250   1.787  0.00  0.00     0.006 A 
ENDROOT
BRANCH   1   8
ATOM      8  C1  UNL d   1       2.342  -0.385   3.004  0.00  0.00     0.054 C 
ATOM      9  C   UNL d   1       1.622  -1.566   3.638  0.00  0.00     0.018 C 
ENDBRANCH   1   8
TORSDOF 1
ENDMDL
