MODEL 1
REMARK minimizedAffinity 2.43458819
REMARK minimizedRMSD -1
REMARK  1 active torsions:
REMARK  status: ('A' for Active; 'I' for Inactive)
REMARK    1  A    between atoms: C1_2  and  C2_3 
ROOT
ATOM      1  C2  UNL d   1       0.413   1.604   2.228  0.00  0.00    -0.081 A 
ATOM      2  C3  UNL d   1      -0.937   1.659   2.597  0.00  0.00     0.006 A 
ATOM      3  C4  UNL d   1      -1.694   2.805   2.342  0.00  0.00     0.002 A 
ATOM      4  C5  UNL d   1      -1.117   3.911   1.707  0.00  0.00    -0.080 A 
ATOM      5  C6  UNL d   1      -1.926   5.135   1.400  0.00  0.00     0.076 C 
ATOM      6  C7  UNL d   1       0.236   3.862   1.355  0.00  0.00     0.002 A 
ATOM      7  C8  UNL d   1       0.994   2.716   1.610  0.00  0.00     0.006 A 
ENDROOT
BRANCH   1   8
ATOM      8  C1  UNL d   1       1.215   0.345   2.443  0.00  0.00     0.054 C 
ATOM      9  C   UNL d   1       0.587  -0.534   3.515  0.00  0.00     0.018 C 
ENDBRANCH   1   8
TORSDOF 1
ENDMDL
