MODEL 1
REMARK minimizedAffinity 1.32541406
REMARK minimizedRMSD -1
REMARK  1 active torsions:
REMARK  status: ('A' for Active; 'I' for Inactive)
REMARK    1  A    between atoms: C1_2  and  C2_3 
ROOT
ATOM      1  C2  UNL d   1       0.140   3.241   0.563  0.00  0.00    -0.081 A 
ATOM      2  C3  UNL d   1       0.465   2.169  -0.277  0.00  0.00     0.006 A 
ATOM      3  C4  UNL d   1       0.602   0.879   0.242  0.00  0.00     0.002 A 
ATOM      4  C5  UNL d   1       0.407   0.638   1.606  0.00  0.00    -0.080 A 
ATOM      5  C6  UNL d   1       0.520  -0.747   2.170  0.00  0.00     0.076 C 
ATOM      6  C7  UNL d   1       0.099   1.712   2.448  0.00  0.00     0.002 A 
ATOM      7  C8  UNL d   1      -0.037   3.002   1.931  0.00  0.00     0.006 A 
ENDROOT
BRANCH   1   8
ATOM      8  C1  UNL d   1      -0.071   4.622  -0.003  0.00  0.00     0.054 C 
ATOM      9  C   UNL d   1       1.121   5.065  -0.839  0.00  0.00     0.018 C 
ENDBRANCH   1   8
TORSDOF 1
ENDMDL
