MODEL 1
REMARK minimizedAffinity 2.2440865
REMARK minimizedRMSD -1
REMARK  1 active torsions:
REMARK  status: ('A' for Active; 'I' for Inactive)
REMARK    1  A    between atoms: C1_2  and  C2_3 
ROOT
ATOM      1  C2  UNL d   1       0.628   0.410   2.102  0.00  0.00    -0.081 A 
ATOM      2  C3  UNL d   1       0.747   1.685   2.668  0.00  0.00     0.006 A 
ATOM      3  C4  UNL d   1       0.892   2.810   1.853  0.00  0.00     0.002 A 
ATOM      4  C5  UNL d   1       0.913   2.680   0.460  0.00  0.00    -0.080 A 
ATOM      5  C6  UNL d   1       1.037   3.883  -0.427  0.00  0.00     0.076 C 
ATOM      6  C7  UNL d   1       0.811   1.404  -0.105  0.00  0.00     0.002 A 
ATOM      7  C8  UNL d   1       0.667   0.278   0.710  0.00  0.00     0.006 A 
ENDROOT
BRANCH   1   8
ATOM      8  C1  UNL d   1       0.406  -0.798   2.977  0.00  0.00     0.054 C 
ATOM      9  C   UNL d   1      -1.043  -1.259   2.926  0.00  0.00     0.018 C 
ENDBRANCH   1   8
TORSDOF 1
ENDMDL
