MODEL 1
REMARK minimizedAffinity 4.04415512
REMARK minimizedRMSD -1
REMARK  1 active torsions:
REMARK  status: ('A' for Active; 'I' for Inactive)
REMARK    1  A    between atoms: C1_2  and  C2_3 
ROOT
ATOM      1  C2  UNL d   1      -0.838   0.702  -1.721  0.00  0.00    -0.081 A 
ATOM      2  C3  UNL d   1      -0.455  -0.240  -2.683  0.00  0.00     0.006 A 
ATOM      3  C4  UNL d   1      -1.393  -0.756  -3.581  0.00  0.00     0.002 A 
ATOM      4  C5  UNL d   1      -2.725  -0.333  -3.538  0.00  0.00    -0.080 A 
ATOM      5  C6  UNL d   1      -3.735  -0.856  -4.516  0.00  0.00     0.076 C 
ATOM      6  C7  UNL d   1      -3.112   0.596  -2.565  0.00  0.00     0.002 A 
ATOM      7  C8  UNL d   1      -2.175   1.112  -1.666  0.00  0.00     0.006 A 
ENDROOT
BRANCH   1   8
ATOM      8  C1  UNL d   1       0.183   1.309  -0.793  0.00  0.00     0.054 C 
ATOM      9  C   UNL d   1       0.345   0.477   0.472  0.00  0.00     0.018 C 
ENDBRANCH   1   8
TORSDOF 1
ENDMDL
