MODEL 1
REMARK minimizedAffinity 6.57024431
REMARK minimizedRMSD -1
REMARK  1 active torsions:
REMARK  status: ('A' for Active; 'I' for Inactive)
REMARK    1  A    between atoms: C1_2  and  C2_3 
ROOT
ATOM      1  C2  UNL d   1       0.503   2.448   1.959  0.00  0.00    -0.081 A 
ATOM      2  C3  UNL d   1       0.704   1.540   3.005  0.00  0.00     0.006 A 
ATOM      3  C4  UNL d   1       0.570   0.167   2.786  0.00  0.00     0.002 A 
ATOM      4  C5  UNL d   1       0.241  -0.321   1.517  0.00  0.00    -0.080 A 
ATOM      5  C6  UNL d   1       0.124  -1.794   1.261  0.00  0.00     0.076 C 
ATOM      6  C7  UNL d   1       0.023   0.588   0.476  0.00  0.00     0.002 A 
ATOM      7  C8  UNL d   1       0.156   1.961   0.694  0.00  0.00     0.006 A 
ENDROOT
BRANCH   1   8
ATOM      8  C1  UNL d   1       0.710   3.926   2.176  0.00  0.00     0.054 C 
ATOM      9  C   UNL d   1       1.165   4.615   0.897  0.00  0.00     0.018 C 
ENDBRANCH   1   8
TORSDOF 1
ENDMDL
