MODEL 1
REMARK minimizedAffinity -0.957567096
REMARK minimizedRMSD -1
REMARK  1 active torsions:
REMARK  status: ('A' for Active; 'I' for Inactive)
REMARK    1  A    between atoms: C1_2  and  C2_3 
ROOT
ATOM      1  C2  UNL d   1       0.446   2.359   0.406  0.00  0.00    -0.081 A 
ATOM      2  C3  UNL d   1       0.657   2.606   1.768  0.00  0.00     0.006 A 
ATOM      3  C4  UNL d   1       0.957   1.557   2.640  0.00  0.00     0.002 A 
ATOM      4  C5  UNL d   1       1.059   0.245   2.163  0.00  0.00    -0.080 A 
ATOM      5  C6  UNL d   1       1.410  -0.886   3.083  0.00  0.00     0.076 C 
ATOM      6  C7  UNL d   1       0.831  -0.004   0.806  0.00  0.00     0.002 A 
ATOM      7  C8  UNL d   1       0.530   1.045  -0.066  0.00  0.00     0.006 A 
ENDROOT
BRANCH   1   8
ATOM      8  C1  UNL d   1       0.186   3.497  -0.548  0.00  0.00     0.054 C 
ATOM      9  C   UNL d   1       0.876   4.774  -0.087  0.00  0.00     0.018 C 
ENDBRANCH   1   8
TORSDOF 1
ENDMDL
