MODEL 1
REMARK minimizedAffinity 0.609244406
REMARK minimizedRMSD -1
REMARK  1 active torsions:
REMARK  status: ('A' for Active; 'I' for Inactive)
REMARK    1  A    between atoms: C1_2  and  C2_3 
ROOT
ATOM      1  C2  UNL d   1       0.381   3.034   1.118  0.00  0.00    -0.081 A 
ATOM      2  C3  UNL d   1       0.882   2.784   2.402  0.00  0.00     0.006 A 
ATOM      3  C4  UNL d   1       1.266   1.493   2.773  0.00  0.00     0.002 A 
ATOM      4  C5  UNL d   1       1.162   0.433   1.865  0.00  0.00    -0.080 A 
ATOM      5  C6  UNL d   1       1.599  -0.952   2.241  0.00  0.00     0.076 C 
ATOM      6  C7  UNL d   1       0.645   0.680   0.589  0.00  0.00     0.002 A 
ATOM      7  C8  UNL d   1       0.261   1.970   0.218  0.00  0.00     0.006 A 
ENDROOT
BRANCH   1   8
ATOM      8  C1  UNL d   1       0.027   4.436   0.694  0.00  0.00     0.054 C 
ATOM      9  C   UNL d   1       1.188   5.106  -0.026  0.00  0.00     0.018 C 
ENDBRANCH   1   8
TORSDOF 1
ENDMDL
