MODEL 1
REMARK minimizedAffinity -4.61044788
REMARK minimizedRMSD -1
REMARK  0 active torsions:
REMARK  status: ('A' for Active; 'I' for Inactive)
ROOT
ATOM      1  C1  BNZ d   1      -0.102  -1.877   0.544  0.00  0.00     0.000 A 
ATOM      2  C2  BNZ d   1      -0.457  -0.570   0.344  0.00  0.00     0.000 A 
ATOM      3  C3  BNZ d   1       0.489   0.377   0.063  0.00  0.00     0.000 A 
ATOM      4  C4  BNZ d   1       1.789   0.023   0.022  0.00  0.00     0.000 A 
ATOM      5  C5  BNZ d   1       2.164  -1.289   0.231  0.00  0.00     0.000 A 
ATOM      6  C6  BNZ d   1       1.206  -2.246   0.475  0.00  0.00     0.000 A 
ENDROOT
TORSDOF 0
ENDMDL
