MODEL 1
REMARK minimizedAffinity -4.64094114
REMARK minimizedRMSD -1
REMARK  0 active torsions:
REMARK  status: ('A' for Active; 'I' for Inactive)
ROOT
ATOM      1  C1  BNZ d   1      -0.126  -1.326   0.659  0.00  0.00     0.000 A 
ATOM      2  C2  BNZ d   1       1.181  -1.724   0.567  0.00  0.00     0.000 A 
ATOM      3  C3  BNZ d   1       2.148  -0.856   0.144  0.00  0.00     0.000 A 
ATOM      4  C4  BNZ d   1       1.802   0.395  -0.224  0.00  0.00     0.000 A 
ATOM      5  C5  BNZ d   1       0.487   0.808  -0.145  0.00  0.00     0.000 A 
ATOM      6  C6  BNZ d   1      -0.478  -0.057   0.318  0.00  0.00     0.000 A 
ENDROOT
TORSDOF 0
ENDMDL
