MODEL 1
REMARK minimizedAffinity -4.49877214
REMARK minimizedRMSD -1
REMARK  0 active torsions:
REMARK  status: ('A' for Active; 'I' for Inactive)
ROOT
ATOM      1  C1  BNZ d   1      -0.246  -1.164   1.327  0.00  0.00     0.000 A 
ATOM      2  C2  BNZ d   1      -1.015  -0.063   1.597  0.00  0.00     0.000 A 
ATOM      3  C3  BNZ d   1      -0.833   1.103   0.907  0.00  0.00     0.000 A 
ATOM      4  C4  BNZ d   1       0.142   1.179  -0.021  0.00  0.00     0.000 A 
ATOM      5  C5  BNZ d   1       0.932   0.081  -0.298  0.00  0.00     0.000 A 
ATOM      6  C6  BNZ d   1       0.720  -1.103   0.371  0.00  0.00     0.000 A 
ENDROOT
TORSDOF 0
ENDMDL
