MODEL 1
REMARK minimizedAffinity -2.92913032
REMARK minimizedRMSD -1
REMARK  0 active torsions:
REMARK  status: ('A' for Active; 'I' for Inactive)
ROOT
ATOM      1  C1  BNZ d   1      -0.691  -0.061   0.415  0.00  0.00     0.000 A 
ATOM      2  C2  BNZ d   1      -0.358  -1.284   0.936  0.00  0.00     0.000 A 
ATOM      3  C3  BNZ d   1       0.846  -1.863   0.647  0.00  0.00     0.000 A 
ATOM      4  C4  BNZ d   1       1.698  -1.239  -0.192  0.00  0.00     0.000 A 
ATOM      5  C5  BNZ d   1       1.373  -0.011  -0.732  0.00  0.00     0.000 A 
ATOM      6  C6  BNZ d   1       0.177   0.587  -0.409  0.00  0.00     0.000 A 
ENDROOT
TORSDOF 0
ENDMDL
