MODEL 1
REMARK minimizedAffinity -5.19701004
REMARK minimizedRMSD -1
REMARK  0 active torsions:
REMARK  status: ('A' for Active; 'I' for Inactive)
ROOT
ATOM      1  C1  BNZ d   1      -0.852  -1.147   1.820  0.00  0.00     0.000 A 
ATOM      2  C2  BNZ d   1       0.046  -1.897   1.109  0.00  0.00     0.000 A 
ATOM      3  C3  BNZ d   1       0.690  -1.375   0.022  0.00  0.00     0.000 A 
ATOM      4  C4  BNZ d   1       0.405  -0.118  -0.376  0.00  0.00     0.000 A 
ATOM      5  C5  BNZ d   1      -0.505   0.648   0.325  0.00  0.00     0.000 A 
ATOM      6  C6  BNZ d   1      -1.122   0.132   1.442  0.00  0.00     0.000 A 
ENDROOT
TORSDOF 0
ENDMDL
