MODEL 1
REMARK minimizedAffinity -3.81449962
REMARK minimizedRMSD -1
REMARK  0 active torsions:
REMARK  status: ('A' for Active; 'I' for Inactive)
ROOT
ATOM      1  C1  BNZ d   1       1.876   0.290  -0.194  0.00  0.00     0.000 A 
ATOM      2  C2  BNZ d   1       2.071  -0.997   0.231  0.00  0.00     0.000 A 
ATOM      3  C3  BNZ d   1       1.013  -1.779   0.605  0.00  0.00     0.000 A 
ATOM      4  C4  BNZ d   1      -0.232  -1.260   0.592  0.00  0.00     0.000 A 
ATOM      5  C5  BNZ d   1      -0.443   0.039   0.175  0.00  0.00     0.000 A 
ATOM      6  C6  BNZ d   1       0.619   0.810  -0.238  0.00  0.00     0.000 A 
ENDROOT
TORSDOF 0
ENDMDL
