MODEL 1
REMARK minimizedAffinity -4.29048586
REMARK minimizedRMSD -1
REMARK  0 active torsions:
REMARK  status: ('A' for Active; 'I' for Inactive)
ROOT
ATOM      1  C1  BNZ d   1       2.252  -1.018   0.156  0.00  0.00     0.000 A 
ATOM      2  C2  BNZ d   1       1.899   0.177  -0.414  0.00  0.00     0.000 A 
ATOM      3  C3  BNZ d   1       0.626   0.660  -0.295  0.00  0.00     0.000 A 
ATOM      4  C4  BNZ d   1      -0.301  -0.069   0.359  0.00  0.00     0.000 A 
ATOM      5  C5  BNZ d   1       0.036  -1.279   0.931  0.00  0.00     0.000 A 
ATOM      6  C6  BNZ d   1       1.328  -1.744   0.842  0.00  0.00     0.000 A 
ENDROOT
TORSDOF 0
ENDMDL
