MODEL 1
REMARK minimizedAffinity -4.17597151
REMARK minimizedRMSD -1
REMARK  0 active torsions:
REMARK  status: ('A' for Active; 'I' for Inactive)
ROOT
ATOM      1  C1  BNZ d   1       0.021   0.908  -0.315  0.00  0.00     0.000 A 
ATOM      2  C2  BNZ d   1       1.195   0.222  -0.480  0.00  0.00     0.000 A 
ATOM      3  C3  BNZ d   1       1.362  -1.021   0.066  0.00  0.00     0.000 A 
ATOM      4  C4  BNZ d   1       0.371  -1.558   0.807  0.00  0.00     0.000 A 
ATOM      5  C5  BNZ d   1      -0.815  -0.874   0.990  0.00  0.00     0.000 A 
ATOM      6  C6  BNZ d   1      -0.993   0.359   0.407  0.00  0.00     0.000 A 
ENDROOT
TORSDOF 0
ENDMDL
