MODEL 1
REMARK minimizedAffinity -3.41835666
REMARK minimizedRMSD -1
REMARK  0 active torsions:
REMARK  status: ('A' for Active; 'I' for Inactive)
ROOT
ATOM      1  C1  BNZ d   1       1.326  -0.218  -0.456  0.00  0.00     0.000 A 
ATOM      2  C2  BNZ d   1       1.983  -1.353  -0.062  0.00  0.00     0.000 A 
ATOM      3  C3  BNZ d   1       1.346  -2.310   0.677  0.00  0.00     0.000 A 
ATOM      4  C4  BNZ d   1       0.066  -2.113   1.054  0.00  0.00     0.000 A 
ATOM      5  C5  BNZ d   1      -0.607  -0.970   0.673  0.00  0.00     0.000 A 
ATOM      6  C6  BNZ d   1       0.025  -0.026  -0.104  0.00  0.00     0.000 A 
ENDROOT
TORSDOF 0
ENDMDL
