MODEL 1
REMARK minimizedAffinity -4.98817015
REMARK minimizedRMSD -1
REMARK  0 active torsions:
REMARK  status: ('A' for Active; 'I' for Inactive)
ROOT
ATOM      1  C1  BNZ d   1      -0.581  -0.519   0.328  0.00  0.00     0.000 A 
ATOM      2  C2  BNZ d   1      -0.347  -1.715   0.951  0.00  0.00     0.000 A 
ATOM      3  C3  BNZ d   1       0.852  -2.356   0.809  0.00  0.00     0.000 A 
ATOM      4  C4  BNZ d   1       1.800  -1.821   0.012  0.00  0.00     0.000 A 
ATOM      5  C5  BNZ d   1       1.575  -0.619  -0.631  0.00  0.00     0.000 A 
ATOM      6  C6  BNZ d   1       0.382   0.042  -0.454  0.00  0.00     0.000 A 
ENDROOT
TORSDOF 0
ENDMDL
