MODEL 1
REMARK minimizedAffinity -3.56475353
REMARK minimizedRMSD -1
REMARK  0 active torsions:
REMARK  status: ('A' for Active; 'I' for Inactive)
ROOT
ATOM      1  C1  BNZ d   1       0.192  -1.556   0.943  0.00  0.00     0.000 A 
ATOM      2  C2  BNZ d   1      -0.328  -0.694   0.015  0.00  0.00     0.000 A 
ATOM      3  C3  BNZ d   1       0.490   0.111  -0.728  0.00  0.00     0.000 A 
ATOM      4  C4  BNZ d   1       1.821   0.082  -0.514  0.00  0.00     0.000 A 
ATOM      5  C5  BNZ d   1       2.360  -0.775   0.425  0.00  0.00     0.000 A 
ATOM      6  C6  BNZ d   1       1.537  -1.612   1.144  0.00  0.00     0.000 A 
ENDROOT
TORSDOF 0
ENDMDL
