MODEL 1
REMARK minimizedAffinity -3.984797
REMARK minimizedRMSD -1
REMARK  0 active torsions:
REMARK  status: ('A' for Active; 'I' for Inactive)
ROOT
ATOM      1  C1  BNZ d   1       0.910   0.244  -0.601  0.00  0.00     0.000 A 
ATOM      2  C2  BNZ d   1       1.917  -0.683  -0.646  0.00  0.00     0.000 A 
ATOM      3  C3  BNZ d   1       1.836  -1.840   0.079  0.00  0.00     0.000 A 
ATOM      4  C4  BNZ d   1       0.769  -2.049   0.877  0.00  0.00     0.000 A 
ATOM      5  C5  BNZ d   1      -0.250  -1.119   0.939  0.00  0.00     0.000 A 
ATOM      6  C6  BNZ d   1      -0.183   0.026   0.179  0.00  0.00     0.000 A 
ENDROOT
TORSDOF 0
ENDMDL
