MODEL 1
REMARK minimizedAffinity -3.43240929
REMARK minimizedRMSD -1
REMARK  0 active torsions:
REMARK  status: ('A' for Active; 'I' for Inactive)
ROOT
ATOM      1  C1  BNZ d   1       0.725   0.775   0.003  0.00  0.00     0.000 A 
ATOM      2  C2  BNZ d   1       1.858   0.007  -0.005  0.00  0.00     0.000 A 
ATOM      3  C3  BNZ d   1       1.784  -1.351   0.131  0.00  0.00     0.000 A 
ATOM      4  C4  BNZ d   1       0.582  -1.935   0.315  0.00  0.00     0.000 A 
ATOM      5  C5  BNZ d   1      -0.569  -1.172   0.334  0.00  0.00     0.000 A 
ATOM      6  C6  BNZ d   1      -0.494   0.190   0.158  0.00  0.00     0.000 A 
ENDROOT
TORSDOF 0
ENDMDL
