MODEL 1
REMARK minimizedAffinity -3.30636954
REMARK minimizedRMSD -1
REMARK  1 active torsions:
REMARK  status: ('A' for Active; 'I' for Inactive)
REMARK    1  A    between atoms: C3_4  and  O_7 
ROOT
ATOM      1  C   UNL d   1      -3.171   2.545  -3.060  0.00  0.00    -0.033 A 
ATOM      2  C1  UNL d   1      -3.881   3.510  -3.777  0.00  0.00     0.039 A 
ATOM      3  C2  UNL d   1      -3.242   4.255  -4.770  0.00  0.00    -0.080 A 
ATOM      4  C3  UNL d   1      -1.895   4.026  -5.037  0.00  0.00     0.150 A 
ATOM      5  C4  UNL d   1      -1.183   3.064  -4.329  0.00  0.00    -0.007 A 
ATOM      6  C5  UNL d   1      -1.822   2.321  -3.337  0.00  0.00     0.039 A 
ENDROOT
BRANCH   4   7
ATOM      7  O   UNL d   1      -1.228   4.732  -5.993  0.00  0.00    -0.526 OA
ATOM      8  H5  UNL d   1      -1.840   5.381  -6.379  0.00  0.00     0.418 HD
ENDBRANCH   4   7
TORSDOF 1
ENDMDL
