MODEL 1
REMARK minimizedAffinity 10.0413561
REMARK minimizedRMSD -1
REMARK  1 active torsions:
REMARK  status: ('A' for Active; 'I' for Inactive)
REMARK    1  A    between atoms: C3_4  and  O_7 
ROOT
ATOM      1  C   UNL d   1       4.736  -1.802   5.823  0.00  0.00    -0.033 A 
ATOM      2  C1  UNL d   1       3.546  -2.525   5.934  0.00  0.00     0.039 A 
ATOM      3  C2  UNL d   1       3.578  -3.920   5.995  0.00  0.00    -0.080 A 
ATOM      4  C3  UNL d   1       4.804  -4.578   5.947  0.00  0.00     0.150 A 
ATOM      5  C4  UNL d   1       5.993  -3.864   5.840  0.00  0.00    -0.007 A 
ATOM      6  C5  UNL d   1       5.959  -2.472   5.778  0.00  0.00     0.039 A 
ENDROOT
BRANCH   4   7
ATOM      7  O   UNL d   1       4.885  -5.938   5.999  0.00  0.00    -0.526 OA
ATOM      8  H5  UNL d   1       3.984  -6.299   6.042  0.00  0.00     0.418 HD
ENDBRANCH   4   7
TORSDOF 1
ENDMDL
