MODEL 1
REMARK minimizedAffinity 5.35727167
REMARK minimizedRMSD -1
REMARK  1 active torsions:
REMARK  status: ('A' for Active; 'I' for Inactive)
REMARK    1  A    between atoms: C3_4  and  O_7 
ROOT
ATOM      1  C   UNL d   1      -0.837  -2.552   1.798  0.00  0.00    -0.033 A 
ATOM      2  C1  UNL d   1       0.226  -1.671   2.004  0.00  0.00     0.039 A 
ATOM      3  C2  UNL d   1       1.432  -1.859   1.326  0.00  0.00    -0.080 A 
ATOM      4  C3  UNL d   1       1.562  -2.931   0.447  0.00  0.00     0.150 A 
ATOM      5  C4  UNL d   1       0.505  -3.811   0.235  0.00  0.00    -0.007 A 
ATOM      6  C5  UNL d   1      -0.698  -3.621   0.913  0.00  0.00     0.039 A 
ENDROOT
BRANCH   4   7
ATOM      7  O   UNL d   1       2.721  -3.159  -0.233  0.00  0.00    -0.526 OA
ATOM      8  H5  UNL d   1       3.372  -2.489   0.035  0.00  0.00     0.418 HD
ENDBRANCH   4   7
TORSDOF 1
ENDMDL
