MODEL 1
REMARK minimizedAffinity 9.21409798
REMARK minimizedRMSD -1
REMARK  1 active torsions:
REMARK  status: ('A' for Active; 'I' for Inactive)
REMARK    1  A    between atoms: C3_4  and  O_7 
ROOT
ATOM      1  C   UNL d   1       2.566  -2.706   0.661  0.00  0.00    -0.033 A 
ATOM      2  C1  UNL d   1       1.885  -3.099   1.815  0.00  0.00     0.039 A 
ATOM      3  C2  UNL d   1       0.511  -3.343   1.768  0.00  0.00    -0.080 A 
ATOM      4  C3  UNL d   1      -0.169  -3.192   0.563  0.00  0.00     0.150 A 
ATOM      5  C4  UNL d   1       0.504  -2.805  -0.592  0.00  0.00    -0.007 A 
ATOM      6  C5  UNL d   1       1.876  -2.561  -0.542  0.00  0.00     0.039 A 
ENDROOT
BRANCH   4   7
ATOM      7  O   UNL d   1      -1.511  -3.414   0.469  0.00  0.00    -0.526 OA
ATOM      8  H5  UNL d   1      -1.847  -3.647   1.350  0.00  0.00     0.418 HD
ENDBRANCH   4   7
TORSDOF 1
ENDMDL
