MODEL 1
REMARK minimizedAffinity 1.65032971
REMARK minimizedRMSD -1
REMARK  1 active torsions:
REMARK  status: ('A' for Active; 'I' for Inactive)
REMARK    1  A    between atoms: C3_4  and  O_7 
ROOT
ATOM      1  C   UNL d   1      -3.103   3.148  -3.055  0.00  0.00    -0.033 A 
ATOM      2  C1  UNL d   1      -1.915   2.498  -3.397  0.00  0.00     0.039 A 
ATOM      3  C2  UNL d   1      -1.086   3.029  -4.386  0.00  0.00    -0.080 A 
ATOM      4  C3  UNL d   1      -1.454   4.210  -5.024  0.00  0.00     0.150 A 
ATOM      5  C4  UNL d   1      -2.634   4.865  -4.686  0.00  0.00    -0.007 A 
ATOM      6  C5  UNL d   1      -3.461   4.332  -3.699  0.00  0.00     0.039 A 
ENDROOT
BRANCH   4   7
ATOM      7  O   UNL d   1      -0.679   4.765  -6.000  0.00  0.00    -0.526 OA
ATOM      8  H5  UNL d   1       0.089   4.188  -6.147  0.00  0.00     0.418 HD
ENDBRANCH   4   7
TORSDOF 1
ENDMDL
