MODEL 1
REMARK minimizedAffinity -0.302226752
REMARK minimizedRMSD -1
REMARK  1 active torsions:
REMARK  status: ('A' for Active; 'I' for Inactive)
REMARK    1  A    between atoms: C3_4  and  O_7 
ROOT
ATOM      1  C   UNL d   1      -3.632   1.712  -3.104  0.00  0.00    -0.033 A 
ATOM      2  C1  UNL d   1      -2.457   1.030  -3.426  0.00  0.00     0.039 A 
ATOM      3  C2  UNL d   1      -1.420   1.694  -4.084  0.00  0.00    -0.080 A 
ATOM      4  C3  UNL d   1      -1.570   3.038  -4.413  0.00  0.00     0.150 A 
ATOM      5  C4  UNL d   1      -2.736   3.725  -4.092  0.00  0.00    -0.007 A 
ATOM      6  C5  UNL d   1      -3.771   3.060  -3.436  0.00  0.00     0.039 A 
ENDROOT
BRANCH   4   7
ATOM      7  O   UNL d   1      -0.587   3.727  -5.060  0.00  0.00    -0.526 OA
ATOM      8  H5  UNL d   1       0.147   3.117  -5.242  0.00  0.00     0.418 HD
ENDBRANCH   4   7
TORSDOF 1
ENDMDL
