MODEL 1
REMARK minimizedAffinity 9.18826771
REMARK minimizedRMSD -1
REMARK  1 active torsions:
REMARK  status: ('A' for Active; 'I' for Inactive)
REMARK    1  A    between atoms: C1_2  and  C2_3 
ROOT
ATOM      1  C2  UNL d   1       3.899   4.784  -3.676  0.00  0.00    -0.073 A 
ATOM      2  C3  UNL d   1       4.587   5.972  -3.945  0.00  0.00    -0.002 A 
ATOM      3  C4  UNL d   1       5.635   5.987  -4.866  0.00  0.00     0.004 A 
ATOM      4  C5  UNL d   1       6.000   4.817  -5.533  0.00  0.00    -0.004 A 
ATOM      5  C6  UNL d   1       5.316   3.622  -5.287  0.00  0.00    -0.075 A 
ATOM      6  C7  UNL d   1       5.698   2.355  -5.994  0.00  0.00     0.076 C 
ATOM      7  C8  UNL d   1       4.267   3.615  -4.357  0.00  0.00     0.001 A 
ENDROOT
BRANCH   1   8
ATOM      8  C1  UNL d   1       2.763   4.765  -2.686  0.00  0.00     0.053 C 
ATOM      9  C   UNL d   1       3.246   4.502  -1.268  0.00  0.00     0.018 C 
ENDBRANCH   1   8
TORSDOF 1
ENDMDL
