MODEL 1
REMARK minimizedAffinity 3.72055578
REMARK minimizedRMSD -1
REMARK  1 active torsions:
REMARK  status: ('A' for Active; 'I' for Inactive)
REMARK    1  A    between atoms: C1_2  and  C2_3 
ROOT
ATOM      1  C2  UNL d   1      -4.867  -4.026  -2.734  0.00  0.00    -0.073 A 
ATOM      2  C3  UNL d   1      -5.229  -2.749  -3.179  0.00  0.00    -0.002 A 
ATOM      3  C4  UNL d   1      -5.501  -2.524  -4.529  0.00  0.00     0.004 A 
ATOM      4  C5  UNL d   1      -5.423  -3.573  -5.445  0.00  0.00    -0.004 A 
ATOM      5  C6  UNL d   1      -5.075  -4.858  -5.018  0.00  0.00    -0.075 A 
ATOM      6  C7  UNL d   1      -4.984  -5.997  -5.991  0.00  0.00     0.076 C 
ATOM      7  C8  UNL d   1      -4.800  -5.076  -3.661  0.00  0.00     0.001 A 
ENDROOT
BRANCH   1   8
ATOM      8  C1  UNL d   1      -4.578  -4.275  -1.276  0.00  0.00     0.053 C 
ATOM      9  C   UNL d   1      -3.853  -5.593  -1.056  0.00  0.00     0.018 C 
ENDBRANCH   1   8
TORSDOF 1
ENDMDL
