MODEL 1
REMARK minimizedAffinity 4.56465387
REMARK minimizedRMSD -1
REMARK  1 active torsions:
REMARK  status: ('A' for Active; 'I' for Inactive)
REMARK    1  A    between atoms: C1_2  and  C2_3 
ROOT
ATOM      1  C2  UNL d   1      -0.428  -0.411   0.398  0.00  0.00    -0.073 A 
ATOM      2  C3  UNL d   1       0.855   0.132   0.535  0.00  0.00    -0.002 A 
ATOM      3  C4  UNL d   1       1.943  -0.693   0.821  0.00  0.00     0.004 A 
ATOM      4  C5  UNL d   1       1.762  -2.069   0.966  0.00  0.00    -0.004 A 
ATOM      5  C6  UNL d   1       0.490  -2.632   0.822  0.00  0.00    -0.075 A 
ATOM      6  C7  UNL d   1       0.278  -4.109   0.977  0.00  0.00     0.076 C 
ATOM      7  C8  UNL d   1      -0.598  -1.796   0.537  0.00  0.00     0.001 A 
ENDROOT
BRANCH   1   8
ATOM      8  C1  UNL d   1      -1.605   0.475   0.083  0.00  0.00     0.053 C 
ATOM      9  C   UNL d   1      -1.954   0.455  -1.396  0.00  0.00     0.018 C 
ENDBRANCH   1   8
TORSDOF 1
ENDMDL
