MODEL 1
REMARK minimizedAffinity 3.007061
REMARK minimizedRMSD -1
REMARK  1 active torsions:
REMARK  status: ('A' for Active; 'I' for Inactive)
REMARK    1  A    between atoms: C1_2  and  C2_3 
ROOT
ATOM      1  C2  UNL d   1       1.294  -1.729   1.190  0.00  0.00    -0.073 A 
ATOM      2  C3  UNL d   1       2.077  -2.718   0.585  0.00  0.00    -0.002 A 
ATOM      3  C4  UNL d   1       1.553  -3.992   0.359  0.00  0.00     0.004 A 
ATOM      4  C5  UNL d   1       0.241  -4.287   0.730  0.00  0.00    -0.004 A 
ATOM      5  C6  UNL d   1      -0.561  -3.307   1.325  0.00  0.00    -0.075 A 
ATOM      6  C7  UNL d   1      -1.973  -3.609   1.731  0.00  0.00     0.076 C 
ATOM      7  C8  UNL d   1      -0.026  -2.032   1.550  0.00  0.00     0.001 A 
ENDROOT
BRANCH   1   8
ATOM      8  C1  UNL d   1       1.854  -0.350   1.429  0.00  0.00     0.053 C 
ATOM      9  C   UNL d   1       0.758   0.695   1.560  0.00  0.00     0.018 C 
ENDBRANCH   1   8
TORSDOF 1
ENDMDL
