MODEL 1
REMARK minimizedAffinity 1.01081228
REMARK minimizedRMSD -1
REMARK  1 active torsions:
REMARK  status: ('A' for Active; 'I' for Inactive)
REMARK    1  A    between atoms: C1_2  and  C2_3 
ROOT
ATOM      1  C2  UNL d   1       1.620  -1.071   1.877  0.00  0.00    -0.073 A 
ATOM      2  C3  UNL d   1       0.243  -1.110   1.627  0.00  0.00    -0.002 A 
ATOM      3  C4  UNL d   1      -0.390  -0.037   1.000  0.00  0.00     0.004 A 
ATOM      4  C5  UNL d   1       0.346   1.082   0.610  0.00  0.00    -0.004 A 
ATOM      5  C6  UNL d   1       1.725   1.135   0.839  0.00  0.00    -0.075 A 
ATOM      6  C7  UNL d   1       2.530   2.332   0.428  0.00  0.00     0.076 C 
ATOM      7  C8  UNL d   1       2.353   0.054   1.473  0.00  0.00     0.001 A 
ENDROOT
BRANCH   1   8
ATOM      8  C1  UNL d   1       2.309  -2.231   2.548  0.00  0.00     0.053 C 
ATOM      9  C   UNL d   1       1.323  -3.294   3.004  0.00  0.00     0.018 C 
ENDBRANCH   1   8
TORSDOF 1
ENDMDL
