MODEL 1
REMARK minimizedAffinity 2.524055
REMARK minimizedRMSD -1
REMARK  1 active torsions:
REMARK  status: ('A' for Active; 'I' for Inactive)
REMARK    1  A    between atoms: C1_2  and  C2_3 
ROOT
ATOM      1  C2  UNL d   1       2.608  -1.718   2.573  0.00  0.00    -0.073 A 
ATOM      2  C3  UNL d   1       2.263  -0.366   2.466  0.00  0.00    -0.002 A 
ATOM      3  C4  UNL d   1       1.562   0.267   3.494  0.00  0.00     0.004 A 
ATOM      4  C5  UNL d   1       1.207  -0.443   4.641  0.00  0.00    -0.004 A 
ATOM      5  C6  UNL d   1       1.553  -1.791   4.772  0.00  0.00    -0.075 A 
ATOM      6  C7  UNL d   1       1.176  -2.569   5.999  0.00  0.00     0.076 C 
ATOM      7  C8  UNL d   1       2.254  -2.420   3.734  0.00  0.00     0.001 A 
ENDROOT
BRANCH   1   8
ATOM      8  C1  UNL d   1       3.370  -2.403   1.469  0.00  0.00     0.053 C 
ATOM      9  C   UNL d   1       4.874  -2.302   1.666  0.00  0.00     0.018 C 
ENDBRANCH   1   8
TORSDOF 1
ENDMDL
