MODEL 1
REMARK minimizedAffinity 2.32658792
REMARK minimizedRMSD -1
REMARK  1 active torsions:
REMARK  status: ('A' for Active; 'I' for Inactive)
REMARK    1  A    between atoms: C1_2  and  C2_3 
ROOT
ATOM      1  C2  UNL d   1      -5.601  -4.921  -3.273  0.00  0.00    -0.073 A 
ATOM      2  C3  UNL d   1      -5.956  -5.992  -4.100  0.00  0.00    -0.002 A 
ATOM      3  C4  UNL d   1      -5.626  -5.976  -5.456  0.00  0.00     0.004 A 
ATOM      4  C5  UNL d   1      -4.932  -4.893  -5.996  0.00  0.00    -0.004 A 
ATOM      5  C6  UNL d   1      -4.558  -3.818  -5.183  0.00  0.00    -0.075 A 
ATOM      6  C7  UNL d   1      -3.813  -2.645  -5.749  0.00  0.00     0.076 C 
ATOM      7  C8  UNL d   1      -4.896  -3.841  -3.823  0.00  0.00     0.001 A 
ENDROOT
BRANCH   1   8
ATOM      8  C1  UNL d   1      -5.950  -4.937  -1.807  0.00  0.00     0.053 C 
ATOM      9  C   UNL d   1      -5.959  -3.539  -1.208  0.00  0.00     0.018 C 
ENDBRANCH   1   8
TORSDOF 1
ENDMDL
