MODEL 1
REMARK minimizedAffinity -0.146912441
REMARK minimizedRMSD -1
REMARK  1 active torsions:
REMARK  status: ('A' for Active; 'I' for Inactive)
REMARK    1  A    between atoms: C1_2  and  C2_3 
ROOT
ATOM      1  C2  UNL d   1      -5.597  -0.584  -4.766  0.00  0.00    -0.073 A 
ATOM      2  C3  UNL d   1      -5.607   0.128  -5.971  0.00  0.00    -0.002 A 
ATOM      3  C4  UNL d   1      -5.227   1.470  -6.000  0.00  0.00     0.004 A 
ATOM      4  C5  UNL d   1      -4.828   2.112  -4.828  0.00  0.00    -0.004 A 
ATOM      5  C6  UNL d   1      -4.800   1.414  -3.616  0.00  0.00    -0.075 A 
ATOM      6  C7  UNL d   1      -4.375   2.091  -2.346  0.00  0.00     0.076 C 
ATOM      7  C8  UNL d   1      -5.185   0.067  -3.595  0.00  0.00     0.001 A 
ENDROOT
BRANCH   1   8
ATOM      8  C1  UNL d   1      -6.000  -2.036  -4.732  0.00  0.00     0.053 C 
ATOM      9  C   UNL d   1      -5.565  -2.778  -5.985  0.00  0.00     0.018 C 
ENDBRANCH   1   8
TORSDOF 1
ENDMDL
