MODEL 1
REMARK minimizedAffinity -0.444148928
REMARK minimizedRMSD -1
REMARK  0 active torsions:
REMARK  status: ('A' for Active; 'I' for Inactive)
ROOT
ATOM      1  C4' PXY d   1       0.628   2.179   0.465  0.00  0.00     0.077 C 
ATOM      2  C1' PXY d   1      -0.759  -3.432   0.492  0.00  0.00     0.077 C 
ATOM      3  C1  PXY d   1      -0.387  -1.963   0.475  0.00  0.00    -0.082 A 
ATOM      4  C2  PXY d   1      -0.547  -1.235   1.568  0.00  0.00     0.003 A 
ATOM      5  C3  PXY d   1      -0.246   0.103   1.561  0.00  0.00     0.003 A 
ATOM      6  C4  PXY d   1       0.275   0.690   0.439  0.00  0.00    -0.082 A 
ATOM      7  C5  PXY d   1       0.451  -0.049  -0.677  0.00  0.00     0.003 A 
ATOM      8  C6  PXY d   1       0.100  -1.396  -0.662  0.00  0.00     0.003 A 
ENDROOT
TORSDOF 0
ENDMDL
