MODEL 1
REMARK minimizedAffinity -2.99168396
REMARK minimizedRMSD -1
REMARK  0 active torsions:
REMARK  status: ('A' for Active; 'I' for Inactive)
ROOT
ATOM      1  C4' PXY d   1      -0.302   0.897  -0.582  0.00  0.00     0.077 C 
ATOM      2  C1' PXY d   1      -5.023   2.583   2.296  0.00  0.00     0.077 C 
ATOM      3  C1  PXY d   1      -3.786   2.151   1.534  0.00  0.00    -0.082 A 
ATOM      4  C2  PXY d   1      -3.423   0.879   1.543  0.00  0.00     0.003 A 
ATOM      5  C3  PXY d   1      -2.289   0.477   0.885  0.00  0.00     0.003 A 
ATOM      6  C4  PXY d   1      -1.549   1.377   0.166  0.00  0.00    -0.082 A 
ATOM      7  C5  PXY d   1      -1.919   2.675   0.143  0.00  0.00     0.003 A 
ATOM      8  C6  PXY d   1      -3.050   3.070   0.852  0.00  0.00     0.003 A 
ENDROOT
TORSDOF 0
ENDMDL
