MODEL 1
REMARK minimizedAffinity -4.2735486
REMARK minimizedRMSD -1
REMARK  0 active torsions:
REMARK  status: ('A' for Active; 'I' for Inactive)
ROOT
ATOM      1  C4' PXY d   1       0.268  -0.022  -0.404  0.00  0.00     0.077 C 
ATOM      2  C1' PXY d   1      -4.307   1.523   2.774  0.00  0.00     0.077 C 
ATOM      3  C1  PXY d   1      -3.101   1.114   1.951  0.00  0.00    -0.082 A 
ATOM      4  C2  PXY d   1      -2.860   1.717   0.798  0.00  0.00     0.003 A 
ATOM      5  C3  PXY d   1      -1.793   1.337   0.027  0.00  0.00     0.003 A 
ATOM      6  C4  PXY d   1      -0.932   0.366   0.464  0.00  0.00    -0.082 A 
ATOM      7  C5  PXY d   1      -1.165  -0.247   1.644  0.00  0.00     0.003 A 
ATOM      8  C6  PXY d   1      -2.278   0.125   2.393  0.00  0.00     0.003 A 
ENDROOT
TORSDOF 0
ENDMDL
