MODEL 1
REMARK minimizedAffinity -2.79447412
REMARK minimizedRMSD -1
REMARK  0 active torsions:
REMARK  status: ('A' for Active; 'I' for Inactive)
ROOT
ATOM      1  C4' PXY d   1       1.179   1.978   0.455  0.00  0.00     0.077 C 
ATOM      2  C1' PXY d   1      -0.197  -3.590  -0.268  0.00  0.00     0.077 C 
ATOM      3  C1  PXY d   1       0.166  -2.129  -0.092  0.00  0.00    -0.082 A 
ATOM      4  C2  PXY d   1       0.633  -1.707   1.072  0.00  0.00     0.003 A 
ATOM      5  C3  PXY d   1       0.935  -0.382   1.259  0.00  0.00     0.003 A 
ATOM      6  C4  PXY d   1       0.809   0.509   0.228  0.00  0.00    -0.082 A 
ATOM      7  C5  PXY d   1       0.343   0.084  -0.966  0.00  0.00     0.003 A 
ATOM      8  C6  PXY d   1       0.002  -1.256  -1.123  0.00  0.00     0.003 A 
ENDROOT
TORSDOF 0
ENDMDL
