MODEL 1
REMARK minimizedAffinity -2.22075796
REMARK minimizedRMSD -1
REMARK  0 active torsions:
REMARK  status: ('A' for Active; 'I' for Inactive)
ROOT
ATOM      1  C4' PXY d   1      -2.500   1.912   0.478  0.00  0.00     0.077 C 
ATOM      2  C1' PXY d   1       0.309  -3.096   1.147  0.00  0.00     0.077 C 
ATOM      3  C1  PXY d   1      -0.418  -1.777   0.965  0.00  0.00    -0.082 A 
ATOM      4  C2  PXY d   1      -1.389  -1.445   1.800  0.00  0.00     0.003 A 
ATOM      5  C3  PXY d   1      -2.077  -0.272   1.631  0.00  0.00     0.003 A 
ATOM      6  C4  PXY d   1      -1.733   0.595   0.629  0.00  0.00    -0.082 A 
ATOM      7  C5  PXY d   1      -0.736   0.268  -0.221  0.00  0.00     0.003 A 
ATOM      8  C6  PXY d   1      -0.077  -0.946  -0.057  0.00  0.00     0.003 A 
ENDROOT
TORSDOF 0
ENDMDL
