MODEL 1
REMARK minimizedAffinity -3.36891222
REMARK minimizedRMSD -1
REMARK  0 active torsions:
REMARK  status: ('A' for Active; 'I' for Inactive)
ROOT
ATOM      1  C4' PXY d   1       0.041  -3.962   0.347  0.00  0.00     0.077 C 
ATOM      2  C1' PXY d   1       0.444   1.764  -0.341  0.00  0.00     0.077 C 
ATOM      3  C1  PXY d   1       0.340   0.260  -0.173  0.00  0.00    -0.082 A 
ATOM      4  C2  PXY d   1      -0.307  -0.239   0.867  0.00  0.00     0.003 A 
ATOM      5  C3  PXY d   1      -0.383  -1.595   1.051  0.00  0.00     0.003 A 
ATOM      6  C4  PXY d   1       0.163  -2.451   0.132  0.00  0.00    -0.082 A 
ATOM      7  C5  PXY d   1       0.816  -1.949  -0.938  0.00  0.00     0.003 A 
ATOM      8  C6  PXY d   1       0.917  -0.569  -1.085  0.00  0.00     0.003 A 
ENDROOT
TORSDOF 0
ENDMDL
