MODEL 1
REMARK minimizedAffinity -1.26868117
REMARK minimizedRMSD -1
REMARK  0 active torsions:
REMARK  status: ('A' for Active; 'I' for Inactive)
ROOT
ATOM      1  C4' PXY d   1       0.240   5.904   3.255  0.00  0.00     0.077 C 
ATOM      2  C1' PXY d   1       2.070   2.593  -1.115  0.00  0.00     0.077 C 
ATOM      3  C1  PXY d   1       1.580   3.465   0.024  0.00  0.00    -0.082 A 
ATOM      4  C2  PXY d   1       2.437   3.891   0.937  0.00  0.00     0.003 A 
ATOM      5  C3  PXY d   1       2.005   4.654   1.991  0.00  0.00     0.003 A 
ATOM      6  C4  PXY d   1       0.692   5.029   2.082  0.00  0.00    -0.082 A 
ATOM      7  C5  PXY d   1      -0.187   4.608   1.149  0.00  0.00     0.003 A 
ATOM      8  C6  PXY d   1       0.264   3.800   0.109  0.00  0.00     0.003 A 
ENDROOT
TORSDOF 0
ENDMDL
