MODEL 1
REMARK minimizedAffinity -2.27517676
REMARK minimizedRMSD -1
REMARK  0 active torsions:
REMARK  status: ('A' for Active; 'I' for Inactive)
ROOT
ATOM      1  C4' PXY d   1      -2.256  -0.635   2.766  0.00  0.00     0.077 C 
ATOM      2  C1' PXY d   1       0.221  -0.557  -2.456  0.00  0.00     0.077 C 
ATOM      3  C1  PXY d   1      -0.430  -0.591  -1.088  0.00  0.00    -0.082 A 
ATOM      4  C2  PXY d   1      -1.031   0.493  -0.622  0.00  0.00     0.003 A 
ATOM      5  C3  PXY d   1      -1.596   0.490   0.627  0.00  0.00     0.003 A 
ATOM      6  C4  PXY d   1      -1.594  -0.650   1.385  0.00  0.00    -0.082 A 
ATOM      7  C5  PXY d   1      -0.993  -1.763   0.913  0.00  0.00     0.003 A 
ATOM      8  C6  PXY d   1      -0.389  -1.727  -0.340  0.00  0.00     0.003 A 
ENDROOT
TORSDOF 0
ENDMDL
