MODEL 1
REMARK minimizedAffinity -1.18174613
REMARK minimizedRMSD -1
REMARK  0 active torsions:
REMARK  status: ('A' for Active; 'I' for Inactive)
ROOT
ATOM      1  C4' PXY d   1      -1.601  -1.310   2.625  0.00  0.00     0.077 C 
ATOM      2  C1' PXY d   1       0.391  -1.389  -2.801  0.00  0.00     0.077 C 
ATOM      3  C1  PXY d   1      -0.138  -1.379  -1.380  0.00  0.00    -0.082 A 
ATOM      4  C2  PXY d   1      -0.197  -0.239  -0.712  0.00  0.00     0.003 A 
ATOM      5  C3  PXY d   1      -0.643  -0.217   0.584  0.00  0.00     0.003 A 
ATOM      6  C4  PXY d   1      -1.083  -1.365   1.185  0.00  0.00    -0.082 A 
ATOM      7  C5  PXY d   1      -1.036  -2.531   0.506  0.00  0.00     0.003 A 
ATOM      8  C6  PXY d   1      -0.541  -2.539  -0.795  0.00  0.00     0.003 A 
ENDROOT
TORSDOF 0
ENDMDL
