MODEL 1
REMARK minimizedAffinity -0.115498185
REMARK minimizedRMSD -1
REMARK  0 active torsions:
REMARK  status: ('A' for Active; 'I' for Inactive)
ROOT
ATOM      1  C4' PXY d   1       2.471   3.454   0.033  0.00  0.00     0.077 C 
ATOM      2  C1' PXY d   1      -1.035  -1.097   0.676  0.00  0.00     0.077 C 
ATOM      3  C1  PXY d   1      -0.117   0.099   0.520  0.00  0.00    -0.082 A 
ATOM      4  C2  PXY d   1      -0.003   0.687  -0.660  0.00  0.00     0.003 A 
ATOM      5  C3  PXY d   1       0.848   1.750  -0.826  0.00  0.00     0.003 A 
ATOM      6  C4  PXY d   1       1.548   2.249   0.239  0.00  0.00    -0.082 A 
ATOM      7  C5  PXY d   1       1.429   1.662   1.448  0.00  0.00     0.003 A 
ATOM      8  C6  PXY d   1       0.592   0.559   1.587  0.00  0.00     0.003 A 
ENDROOT
TORSDOF 0
ENDMDL
