MODEL 1
REMARK minimizedAffinity 7.12622738
REMARK minimizedRMSD -1
REMARK  0 active torsions:
REMARK  status: ('A' for Active; 'I' for Inactive)
ROOT
ATOM      1  C4' PXY d   1      -4.701  -4.116  -1.189  0.00  0.00     0.077 C 
ATOM      2  C1' PXY d   1       0.901  -3.231  -2.307  0.00  0.00     0.077 C 
ATOM      3  C1  PXY d   1      -0.568  -3.472  -2.023  0.00  0.00    -0.082 A 
ATOM      4  C2  PXY d   1      -1.286  -2.525  -1.442  0.00  0.00     0.003 A 
ATOM      5  C3  PXY d   1      -2.609  -2.738  -1.149  0.00  0.00     0.003 A 
ATOM      6  C4  PXY d   1      -3.216  -3.913  -1.503  0.00  0.00    -0.082 A 
ATOM      7  C5  PXY d   1      -2.493  -4.880  -2.106  0.00  0.00     0.003 A 
ATOM      8  C6  PXY d   1      -1.142  -4.660  -2.358  0.00  0.00     0.003 A 
ENDROOT
TORSDOF 0
ENDMDL
