MODEL 1
REMARK minimizedAffinity 4.95208168
REMARK minimizedRMSD -1
REMARK  0 active torsions:
REMARK  status: ('A' for Active; 'I' for Inactive)
ROOT
ATOM      1  C4' PXY d   1      -1.387   2.830  -0.699  0.00  0.00     0.077 C 
ATOM      2  C1' PXY d   1      -0.028  -0.301   3.967  0.00  0.00     0.077 C 
ATOM      3  C1  PXY d   1      -0.380   0.530   2.749  0.00  0.00    -0.082 A 
ATOM      4  C2  PXY d   1      -1.347   0.130   1.940  0.00  0.00     0.003 A 
ATOM      5  C3  PXY d   1      -1.656   0.853   0.817  0.00  0.00     0.003 A 
ATOM      6  C4  PXY d   1      -1.004   2.027   0.547  0.00  0.00    -0.082 A 
ATOM      7  C5  PXY d   1      -0.023   2.448   1.373  0.00  0.00     0.003 A 
ATOM      8  C6  PXY d   1       0.303   1.678   2.486  0.00  0.00     0.003 A 
ENDROOT
TORSDOF 0
ENDMDL
