MODEL 1
REMARK minimizedAffinity 6.65830135
REMARK minimizedRMSD -1
REMARK  0 active torsions:
REMARK  status: ('A' for Active; 'I' for Inactive)
ROOT
ATOM      1  C4' PXY d   1       0.393   5.128   2.766  0.00  0.00     0.077 C 
ATOM      2  C1' PXY d   1       4.750   3.211  -0.514  0.00  0.00     0.077 C 
ATOM      3  C1  PXY d   1       3.599   3.706   0.339  0.00  0.00    -0.082 A 
ATOM      4  C2  PXY d   1       3.694   4.877   0.950  0.00  0.00     0.003 A 
ATOM      5  C3  PXY d   1       2.675   5.325   1.751  0.00  0.00     0.003 A 
ATOM      6  C4  PXY d   1       1.527   4.592   1.887  0.00  0.00    -0.082 A 
ATOM      7  C5  PXY d   1       1.418   3.402   1.259  0.00  0.00     0.003 A 
ATOM      8  C6  PXY d   1       2.480   2.946   0.483  0.00  0.00     0.003 A 
ENDROOT
TORSDOF 0
ENDMDL
