MODEL 1
REMARK minimizedAffinity -5.5273757
REMARK minimizedRMSD -1
REMARK  0 active torsions:
REMARK  status: ('A' for Active; 'I' for Inactive)
ROOT
ATOM      1  C4' PXY d   1      -1.130   0.855  -0.878  0.00  0.00     0.077 C 
ATOM      2  C1' PXY d   1       2.366  -3.573  -2.139  0.00  0.00     0.077 C 
ATOM      3  C1  PXY d   1       1.440  -2.417  -1.816  0.00  0.00    -0.082 A 
ATOM      4  C2  PXY d   1       1.950  -1.249  -1.462  0.00  0.00     0.003 A 
ATOM      5  C3  PXY d   1       1.127  -0.202  -1.135  0.00  0.00     0.003 A 
ATOM      6  C4  PXY d   1      -0.233  -0.337  -1.222  0.00  0.00    -0.082 A 
ATOM      7  C5  PXY d   1      -0.761  -1.523  -1.593  0.00  0.00     0.003 A 
ATOM      8  C6  PXY d   1       0.091  -2.585  -1.881  0.00  0.00     0.003 A 
ENDROOT
TORSDOF 0
ENDMDL
