MODEL 1
REMARK minimizedAffinity 4.01188183
REMARK minimizedRMSD -1
REMARK  0 active torsions:
REMARK  status: ('A' for Active; 'I' for Inactive)
ROOT
ATOM      1  C4' PXY d   1      -3.443   1.793   1.022  0.00  0.00     0.077 C 
ATOM      2  C1' PXY d   1       2.094   3.062   2.093  0.00  0.00     0.077 C 
ATOM      3  C1  PXY d   1       0.646   2.721   1.802  0.00  0.00    -0.082 A 
ATOM      4  C2  PXY d   1      -0.309   3.563   2.162  0.00  0.00     0.003 A 
ATOM      5  C3  PXY d   1      -1.626   3.256   1.936  0.00  0.00     0.003 A 
ATOM      6  C4  PXY d   1      -1.966   2.100   1.287  0.00  0.00    -0.082 A 
ATOM      7  C5  PXY d   1      -0.997   1.240   0.907  0.00  0.00     0.003 A 
ATOM      8  C6  PXY d   1       0.331   1.551   1.183  0.00  0.00     0.003 A 
ENDROOT
TORSDOF 0
ENDMDL
