MODEL 1
REMARK minimizedAffinity 7.92242908
REMARK minimizedRMSD -1
REMARK  0 active torsions:
REMARK  status: ('A' for Active; 'I' for Inactive)
ROOT
ATOM      1  C4' PXY d   1      -0.126  -4.793  -5.045  0.00  0.00     0.077 C 
ATOM      2  C1' PXY d   1      -4.197  -3.686  -1.093  0.00  0.00     0.077 C 
ATOM      3  C1  PXY d   1      -3.126  -3.964  -2.130  0.00  0.00    -0.082 A 
ATOM      4  C2  PXY d   1      -3.243  -5.013  -2.927  0.00  0.00     0.003 A 
ATOM      5  C3  PXY d   1      -2.268  -5.297  -3.848  0.00  0.00     0.003 A 
ATOM      6  C4  PXY d   1      -1.187  -4.468  -3.991  0.00  0.00    -0.082 A 
ATOM      7  C5  PXY d   1      -1.066  -3.389  -3.188  0.00  0.00     0.003 A 
ATOM      8  C6  PXY d   1      -2.046  -3.142  -2.232  0.00  0.00     0.003 A 
ENDROOT
TORSDOF 0
ENDMDL
