MODEL 1
REMARK minimizedAffinity 5.21615219
REMARK minimizedRMSD -1
REMARK  0 active torsions:
REMARK  status: ('A' for Active; 'I' for Inactive)
ROOT
ATOM      1  C4' PXY d   1       0.760   5.461   3.002  0.00  0.00     0.077 C 
ATOM      2  C1' PXY d   1       3.566   2.835  -1.316  0.00  0.00     0.077 C 
ATOM      3  C1  PXY d   1       2.819   3.520  -0.188  0.00  0.00    -0.082 A 
ATOM      4  C2  PXY d   1       3.399   4.505   0.477  0.00  0.00     0.003 A 
ATOM      5  C3  PXY d   1       2.750   5.114   1.520  0.00  0.00     0.003 A 
ATOM      6  C4  PXY d   1       1.474   4.747   1.851  0.00  0.00    -0.082 A 
ATOM      7  C5  PXY d   1       0.870   3.749   1.170  0.00  0.00     0.003 A 
ATOM      8  C6  PXY d   1       1.562   3.116   0.141  0.00  0.00     0.003 A 
ENDROOT
TORSDOF 0
ENDMDL
