MODEL 1
REMARK minimizedAffinity 3.11741638
REMARK minimizedRMSD -1
REMARK  0 active torsions:
REMARK  status: ('A' for Active; 'I' for Inactive)
ROOT
ATOM      1  C4' PXY d   1       5.995  -5.601   5.999  0.00  0.00     0.077 C 
ATOM      2  C1' PXY d   1       1.847  -1.921   4.365  0.00  0.00     0.077 C 
ATOM      3  C1  PXY d   1       2.943  -2.877   4.790  0.00  0.00    -0.082 A 
ATOM      4  C2  PXY d   1       2.708  -4.179   4.802  0.00  0.00     0.003 A 
ATOM      5  C3  PXY d   1       3.678  -5.056   5.215  0.00  0.00     0.003 A 
ATOM      6  C4  PXY d   1       4.920  -4.599   5.568  0.00  0.00    -0.082 A 
ATOM      7  C5  PXY d   1       5.171  -3.273   5.548  0.00  0.00     0.003 A 
ATOM      8  C6  PXY d   1       4.160  -2.397   5.166  0.00  0.00     0.003 A 
ENDROOT
TORSDOF 0
ENDMDL
