MODEL 1
REMARK minimizedAffinity -2.25590205
REMARK minimizedRMSD -1
REMARK  0 active torsions:
REMARK  status: ('A' for Active; 'I' for Inactive)
ROOT
ATOM      1  C4' PXY d   1      -2.093   1.794   0.027  0.00  0.00     0.077 C 
ATOM      2  C1' PXY d   1       0.924  -3.116   0.480  0.00  0.00     0.077 C 
ATOM      3  C1  PXY d   1       0.144  -1.821   0.360  0.00  0.00    -0.082 A 
ATOM      4  C2  PXY d   1      -1.074  -1.742   0.871  0.00  0.00     0.003 A 
ATOM      5  C3  PXY d   1      -1.806  -0.589   0.744  0.00  0.00     0.003 A 
ATOM      6  C4  PXY d   1      -1.265   0.510   0.133  0.00  0.00    -0.082 A 
ATOM      7  C5  PXY d   1      -0.019   0.441  -0.382  0.00  0.00     0.003 A 
ATOM      8  C6  PXY d   1       0.692  -0.751  -0.278  0.00  0.00     0.003 A 
ENDROOT
TORSDOF 0
ENDMDL
