MODEL 1
REMARK minimizedAffinity -4.49240017
REMARK minimizedRMSD -1
REMARK  0 active torsions:
REMARK  status: ('A' for Active; 'I' for Inactive)
ROOT
ATOM      1  C   UNL d   1       1.866  -1.511   4.314  0.00  0.00     0.078 C 
ATOM      2  C1  UNL d   1       0.844  -0.684   3.593  0.00  0.00    -0.077 A 
ATOM      3  C2  UNL d   1       0.716  -0.748   2.201  0.00  0.00    -0.001 A 
ATOM      4  C3  UNL d   1      -0.233   0.034   1.542  0.00  0.00     0.003 A 
ATOM      5  C4  UNL d   1      -1.061   0.888   2.268  0.00  0.00    -0.005 A 
ATOM      6  C5  UNL d   1      -0.940   0.961   3.654  0.00  0.00     0.003 A 
ATOM      7  C6  UNL d   1       0.009   0.179   4.314  0.00  0.00    -0.001 A 
ENDROOT
TORSDOF 0
ENDMDL
