MODEL 1
REMARK minimizedAffinity -1.67881083
REMARK minimizedRMSD -1
REMARK  0 active torsions:
REMARK  status: ('A' for Active; 'I' for Inactive)
ROOT
ATOM      1  C   UNL d   1      -0.727  -0.733   3.244  0.00  0.00     0.078 C 
ATOM      2  C1  UNL d   1       0.418  -0.765   4.212  0.00  0.00    -0.077 A 
ATOM      3  C2  UNL d   1       0.763   0.368   4.959  0.00  0.00    -0.001 A 
ATOM      4  C3  UNL d   1       1.837   0.327   5.849  0.00  0.00     0.003 A 
ATOM      5  C4  UNL d   1       2.576  -0.845   6.000  0.00  0.00    -0.005 A 
ATOM      6  C5  UNL d   1       2.242  -1.977   5.259  0.00  0.00     0.003 A 
ATOM      7  C6  UNL d   1       1.168  -1.937   4.368  0.00  0.00    -0.001 A 
ENDROOT
TORSDOF 0
ENDMDL
