MODEL 1
REMARK minimizedAffinity 3.33360338
REMARK minimizedRMSD -1
REMARK  0 active torsions:
REMARK  status: ('A' for Active; 'I' for Inactive)
ROOT
ATOM      1  C   UNL d   1       1.131   5.989   0.732  0.00  0.00     0.078 C 
ATOM      2  C1  UNL d   1      -0.320   5.999   0.353  0.00  0.00    -0.077 A 
ATOM      3  C2  UNL d   1      -1.321   5.998   1.332  0.00  0.00    -0.001 A 
ATOM      4  C3  UNL d   1      -2.667   5.997   0.965  0.00  0.00     0.003 A 
ATOM      5  C4  UNL d   1      -3.025   5.996  -0.382  0.00  0.00    -0.005 A 
ATOM      6  C5  UNL d   1      -2.036   5.995  -1.363  0.00  0.00     0.003 A 
ATOM      7  C6  UNL d   1      -0.689   5.996  -0.998  0.00  0.00    -0.001 A 
ENDROOT
TORSDOF 0
ENDMDL
