MODEL 1
REMARK minimizedAffinity -0.607913375
REMARK minimizedRMSD -1
REMARK  0 active torsions:
REMARK  status: ('A' for Active; 'I' for Inactive)
ROOT
ATOM      1  C   UNL d   1      -2.616   0.008   0.662  0.00  0.00     0.078 C 
ATOM      2  C1  UNL d   1      -1.117   0.037   0.701  0.00  0.00    -0.077 A 
ATOM      3  C2  UNL d   1      -0.360  -0.953   0.064  0.00  0.00    -0.001 A 
ATOM      4  C3  UNL d   1       1.035  -0.919   0.116  0.00  0.00     0.003 A 
ATOM      5  C4  UNL d   1       1.684   0.104   0.806  0.00  0.00    -0.005 A 
ATOM      6  C5  UNL d   1       0.938   1.093   1.444  0.00  0.00     0.003 A 
ATOM      7  C6  UNL d   1      -0.456   1.060   1.393  0.00  0.00    -0.001 A 
ENDROOT
TORSDOF 0
ENDMDL
