MODEL 1
REMARK minimizedAffinity 6.69375753
REMARK minimizedRMSD -1
REMARK  0 active torsions:
REMARK  status: ('A' for Active; 'I' for Inactive)
ROOT
ATOM      1  C   UNL d   1      -4.225  -1.840  -1.173  0.00  0.00     0.078 C 
ATOM      2  C1  UNL d   1      -3.216  -0.921  -0.552  0.00  0.00    -0.077 A 
ATOM      3  C2  UNL d   1      -2.071  -0.526  -1.255  0.00  0.00    -0.001 A 
ATOM      4  C3  UNL d   1      -1.136   0.323  -0.662  0.00  0.00     0.003 A 
ATOM      5  C4  UNL d   1      -1.335   0.784   0.638  0.00  0.00    -0.005 A 
ATOM      6  C5  UNL d   1      -2.471   0.395   1.346  0.00  0.00     0.003 A 
ATOM      7  C6  UNL d   1      -3.407  -0.454   0.754  0.00  0.00    -0.001 A 
ENDROOT
TORSDOF 0
ENDMDL
