MODEL 1
REMARK minimizedAffinity -1.20214641
REMARK minimizedRMSD -1
REMARK  0 active torsions:
REMARK  status: ('A' for Active; 'I' for Inactive)
ROOT
ATOM      1  C   UNL d   1      -2.526  -0.219   2.424  0.00  0.00     0.078 C 
ATOM      2  C1  UNL d   1      -1.184   0.445   2.509  0.00  0.00    -0.077 A 
ATOM      3  C2  UNL d   1      -0.005  -0.281   2.297  0.00  0.00    -0.001 A 
ATOM      4  C3  UNL d   1       1.238   0.348   2.389  0.00  0.00     0.003 A 
ATOM      5  C4  UNL d   1       1.314   1.706   2.694  0.00  0.00    -0.005 A 
ATOM      6  C5  UNL d   1       0.147   2.436   2.908  0.00  0.00     0.003 A 
ATOM      7  C6  UNL d   1      -1.097   1.809   2.817  0.00  0.00    -0.001 A 
ENDROOT
TORSDOF 0
ENDMDL
