MODEL 1
REMARK minimizedAffinity 5.95388269
REMARK minimizedRMSD -1
REMARK  0 active torsions:
REMARK  status: ('A' for Active; 'I' for Inactive)
ROOT
ATOM      1  C   UNL d   1      -2.610   5.942  -0.178  0.00  0.00     0.078 C 
ATOM      2  C1  UNL d   1      -1.118   5.956  -0.031  0.00  0.00    -0.077 A 
ATOM      3  C2  UNL d   1      -0.283   5.997  -1.154  0.00  0.00    -0.001 A 
ATOM      4  C3  UNL d   1       1.105   5.999  -1.003  0.00  0.00     0.003 A 
ATOM      5  C4  UNL d   1       1.670   5.959   0.270  0.00  0.00    -0.005 A 
ATOM      6  C5  UNL d   1       0.847   5.916   1.394  0.00  0.00     0.003 A 
ATOM      7  C6  UNL d   1      -0.540   5.914   1.244  0.00  0.00    -0.001 A 
ENDROOT
TORSDOF 0
ENDMDL
