MODEL 1
REMARK minimizedAffinity -3.75096393
REMARK minimizedRMSD -1
REMARK  0 active torsions:
REMARK  status: ('A' for Active; 'I' for Inactive)
ROOT
ATOM      1  C   UNL d   1       1.646   1.119  -2.073  0.00  0.00     0.077 C 
ATOM      2  C1  UNL d   1       0.835   0.712  -0.878  0.00  0.00    -0.074 A 
ATOM      3  C2  UNL d   1       1.153  -0.440  -0.152  0.00  0.00    -0.005 A 
ATOM      4  C3  UNL d   1       0.395  -0.800   0.963  0.00  0.00     0.006 A 
ATOM      5  C4  UNL d   1      -0.686  -0.013   1.361  0.00  0.00    -0.005 A 
ATOM      6  C5  UNL d   1      -1.018   1.143   0.648  0.00  0.00    -0.074 A 
ATOM      7  C6  UNL d   1      -2.171   2.005   1.068  0.00  0.00     0.077 C 
ATOM      8  C7  UNL d   1      -0.248   1.502  -0.467  0.00  0.00    -0.001 A 
ENDROOT
TORSDOF 0
ENDMDL
