MODEL 1
REMARK minimizedAffinity -0.368058264
REMARK minimizedRMSD -1
REMARK  0 active torsions:
REMARK  status: ('A' for Active; 'I' for Inactive)
ROOT
ATOM      1  C   UNL d   1      -1.122   0.354   1.652  0.00  0.00     0.077 C 
ATOM      2  C1  UNL d   1      -0.220   0.022   0.500  0.00  0.00    -0.074 A 
ATOM      3  C2  UNL d   1       0.336   1.031  -0.292  0.00  0.00    -0.005 A 
ATOM      4  C3  UNL d   1       1.181   0.707  -1.354  0.00  0.00     0.006 A 
ATOM      5  C4  UNL d   1       1.477  -0.627  -1.634  0.00  0.00    -0.005 A 
ATOM      6  C5  UNL d   1       0.931  -1.650  -0.852  0.00  0.00    -0.074 A 
ATOM      7  C6  UNL d   1       1.247  -3.089  -1.134  0.00  0.00     0.077 C 
ATOM      8  C7  UNL d   1       0.089  -1.316   0.217  0.00  0.00    -0.001 A 
ENDROOT
TORSDOF 0
ENDMDL
