MODEL 1
REMARK minimizedAffinity -3.4848752
REMARK minimizedRMSD -1
REMARK  0 active torsions:
REMARK  status: ('A' for Active; 'I' for Inactive)
ROOT
ATOM      1  C   UNL d   1      -3.344   1.179  -0.870  0.00  0.00     0.077 C 
ATOM      2  C1  UNL d   1      -1.853   1.041  -0.777  0.00  0.00    -0.074 A 
ATOM      3  C2  UNL d   1      -1.015   1.641  -1.722  0.00  0.00    -0.005 A 
ATOM      4  C3  UNL d   1       0.369   1.512  -1.617  0.00  0.00     0.006 A 
ATOM      5  C4  UNL d   1       0.929   0.783  -0.567  0.00  0.00    -0.005 A 
ATOM      6  C5  UNL d   1       0.107   0.177   0.389  0.00  0.00    -0.074 A 
ATOM      7  C6  UNL d   1       0.693  -0.601   1.529  0.00  0.00     0.077 C 
ATOM      8  C7  UNL d   1      -1.283   0.317   0.280  0.00  0.00    -0.001 A 
ENDROOT
TORSDOF 0
ENDMDL
