MODEL 1
REMARK minimizedAffinity -2.23331308
REMARK minimizedRMSD -1
REMARK  0 active torsions:
REMARK  status: ('A' for Active; 'I' for Inactive)
ROOT
ATOM      1  C   UNL d   1       1.041  -1.367  -0.473  0.00  0.00     0.077 C 
ATOM      2  C1  UNL d   1       0.418  -0.014  -0.303  0.00  0.00    -0.074 A 
ATOM      3  C2  UNL d   1       0.724   1.033  -1.179  0.00  0.00    -0.005 A 
ATOM      4  C3  UNL d   1       0.129   2.284  -1.014  0.00  0.00     0.006 A 
ATOM      5  C4  UNL d   1      -0.776   2.501   0.026  0.00  0.00    -0.005 A 
ATOM      6  C5  UNL d   1      -1.095   1.465   0.910  0.00  0.00    -0.074 A 
ATOM      7  C6  UNL d   1      -2.074   1.678   2.027  0.00  0.00     0.077 C 
ATOM      8  C7  UNL d   1      -0.499   0.209   0.734  0.00  0.00    -0.001 A 
ENDROOT
TORSDOF 0
ENDMDL
