MODEL 1
REMARK minimizedAffinity -3.8789134
REMARK minimizedRMSD -1
REMARK  0 active torsions:
REMARK  status: ('A' for Active; 'I' for Inactive)
ROOT
ATOM      1  C   UNL d   1       1.370  -0.032  -1.241  0.00  0.00     0.077 C 
ATOM      2  C1  UNL d   1       0.398   0.125  -0.110  0.00  0.00    -0.074 A 
ATOM      3  C2  UNL d   1       0.348  -0.809   0.930  0.00  0.00    -0.005 A 
ATOM      4  C3  UNL d   1      -0.554  -0.644   1.980  0.00  0.00     0.006 A 
ATOM      5  C4  UNL d   1      -1.416   0.453   2.002  0.00  0.00    -0.005 A 
ATOM      6  C5  UNL d   1      -1.380   1.398   0.971  0.00  0.00    -0.074 A 
ATOM      7  C6  UNL d   1      -2.292   2.588   0.983  0.00  0.00     0.077 C 
ATOM      8  C7  UNL d   1      -0.466   1.229  -0.078  0.00  0.00    -0.001 A 
ENDROOT
TORSDOF 0
ENDMDL
