MODEL 1
REMARK minimizedAffinity -0.771892428
REMARK minimizedRMSD -1
REMARK  0 active torsions:
REMARK  status: ('A' for Active; 'I' for Inactive)
ROOT
ATOM      1  C   UNL d   1      -1.127   2.258  -0.703  0.00  0.00     0.077 C 
ATOM      2  C1  UNL d   1      -0.462   0.976  -0.299  0.00  0.00    -0.074 A 
ATOM      3  C2  UNL d   1      -0.612   0.466   0.995  0.00  0.00    -0.005 A 
ATOM      4  C3  UNL d   1       0.004  -0.733   1.354  0.00  0.00     0.006 A 
ATOM      5  C4  UNL d   1       0.776  -1.432   0.425  0.00  0.00    -0.005 A 
ATOM      6  C5  UNL d   1       0.936  -0.938  -0.873  0.00  0.00    -0.074 A 
ATOM      7  C6  UNL d   1       1.754  -1.682  -1.887  0.00  0.00     0.077 C 
ATOM      8  C7  UNL d   1       0.308   0.264  -1.229  0.00  0.00    -0.001 A 
ENDROOT
TORSDOF 0
ENDMDL
