MODEL 1
REMARK minimizedAffinity -1.87248516
REMARK minimizedRMSD -1
REMARK  0 active torsions:
REMARK  status: ('A' for Active; 'I' for Inactive)
ROOT
ATOM      1  C   UNL d   1       1.171   1.892  -1.648  0.00  0.00     0.077 C 
ATOM      2  C1  UNL d   1       0.530   0.942  -0.680  0.00  0.00    -0.074 A 
ATOM      3  C2  UNL d   1       0.391  -0.415  -0.991  0.00  0.00    -0.005 A 
ATOM      4  C3  UNL d   1      -0.199  -1.288  -0.077  0.00  0.00     0.006 A 
ATOM      5  C4  UNL d   1      -0.654  -0.815   1.154  0.00  0.00    -0.005 A 
ATOM      6  C5  UNL d   1      -0.522   0.538   1.483  0.00  0.00    -0.074 A 
ATOM      7  C6  UNL d   1      -0.997   1.061   2.806  0.00  0.00     0.077 C 
ATOM      8  C7  UNL d   1       0.078   1.408   0.562  0.00  0.00    -0.001 A 
ENDROOT
TORSDOF 0
ENDMDL
