MODEL 1
REMARK minimizedAffinity -4.43161106
REMARK minimizedRMSD -1
REMARK  0 active torsions:
REMARK  status: ('A' for Active; 'I' for Inactive)
ROOT
ATOM      1  C   UNL d   1       0.894  -1.293  -0.879  0.00  0.00     0.077 C 
ATOM      2  C1  UNL d   1       0.246   0.004  -0.495  0.00  0.00    -0.074 A 
ATOM      3  C2  UNL d   1       0.400   1.147  -1.287  0.00  0.00    -0.005 A 
ATOM      4  C3  UNL d   1      -0.217   2.343  -0.923  0.00  0.00     0.006 A 
ATOM      5  C4  UNL d   1      -0.994   2.410   0.235  0.00  0.00    -0.005 A 
ATOM      6  C5  UNL d   1      -1.160   1.277   1.038  0.00  0.00    -0.074 A 
ATOM      7  C6  UNL d   1      -1.999   1.329   2.281  0.00  0.00     0.077 C 
ATOM      8  C7  UNL d   1      -0.542   0.077   0.662  0.00  0.00    -0.001 A 
ENDROOT
TORSDOF 0
ENDMDL
