MODEL 1
REMARK minimizedAffinity -3.6758492
REMARK minimizedRMSD -1
REMARK  0 active torsions:
REMARK  status: ('A' for Active; 'I' for Inactive)
ROOT
ATOM      1  C   UNL d   1       0.956  -1.751  -0.683  0.00  0.00     0.077 C 
ATOM      2  C1  UNL d   1       0.366  -0.376  -0.586  0.00  0.00    -0.074 A 
ATOM      3  C2  UNL d   1       0.651   0.598  -1.549  0.00  0.00    -0.005 A 
ATOM      4  C3  UNL d   1       0.087   1.871  -1.450  0.00  0.00     0.006 A 
ATOM      5  C4  UNL d   1      -0.765   2.181  -0.389  0.00  0.00    -0.005 A 
ATOM      6  C5  UNL d   1      -1.061   1.220   0.582  0.00  0.00    -0.074 A 
ATOM      7  C6  UNL d   1      -1.983   1.535   1.723  0.00  0.00     0.077 C 
ATOM      8  C7  UNL d   1      -0.497  -0.058   0.472  0.00  0.00    -0.001 A 
ENDROOT
TORSDOF 0
ENDMDL
