MODEL 1
REMARK minimizedAffinity -1.48318565
REMARK minimizedRMSD -1
REMARK  0 active torsions:
REMARK  status: ('A' for Active; 'I' for Inactive)
ROOT
ATOM      1  C   UNL d   1      -2.623   1.858   1.212  0.00  0.00     0.077 C 
ATOM      2  C1  UNL d   1      -1.420   1.025   0.883  0.00  0.00    -0.074 A 
ATOM      3  C2  UNL d   1      -1.013   0.841  -0.443  0.00  0.00    -0.005 A 
ATOM      4  C3  UNL d   1       0.113   0.071  -0.732  0.00  0.00     0.006 A 
ATOM      5  C4  UNL d   1       0.842  -0.523   0.299  0.00  0.00    -0.005 A 
ATOM      6  C5  UNL d   1       0.451  -0.350   1.630  0.00  0.00    -0.074 A 
ATOM      7  C6  UNL d   1       1.230  -0.972   2.750  0.00  0.00     0.077 C 
ATOM      8  C7  UNL d   1      -0.678   0.431   1.914  0.00  0.00    -0.001 A 
ENDROOT
TORSDOF 0
ENDMDL
