MODEL 1
REMARK minimizedAffinity -3.09848309
REMARK minimizedRMSD -1
REMARK  0 active torsions:
REMARK  status: ('A' for Active; 'I' for Inactive)
ROOT
ATOM      1  C   UNL d   1       0.371  -1.219   1.598  0.00  0.00     0.077 C 
ATOM      2  C1  UNL d   1      -0.037  -0.149   0.629  0.00  0.00    -0.074 A 
ATOM      3  C2  UNL d   1       0.843   0.295  -0.364  0.00  0.00    -0.005 A 
ATOM      4  C3  UNL d   1       0.446   1.285  -1.264  0.00  0.00     0.006 A 
ATOM      5  C4  UNL d   1      -0.832   1.839  -1.180  0.00  0.00    -0.005 A 
ATOM      6  C5  UNL d   1      -1.725   1.407  -0.195  0.00  0.00    -0.074 A 
ATOM      7  C6  UNL d   1      -3.106   1.986  -0.097  0.00  0.00     0.077 C 
ATOM      8  C7  UNL d   1      -1.322   0.408   0.701  0.00  0.00    -0.001 A 
ENDROOT
TORSDOF 0
ENDMDL
