MODEL 1
REMARK minimizedAffinity -3.63266921
REMARK minimizedRMSD -1
REMARK  0 active torsions:
REMARK  status: ('A' for Active; 'I' for Inactive)
ROOT
ATOM      1  C   UNL d   1      -2.564   2.354   1.153  0.00  0.00     0.077 C 
ATOM      2  C1  UNL d   1      -1.501   1.296   1.181  0.00  0.00    -0.074 A 
ATOM      3  C2  UNL d   1      -0.962   0.851   2.393  0.00  0.00    -0.005 A 
ATOM      4  C3  UNL d   1       0.019  -0.140   2.404  0.00  0.00     0.006 A 
ATOM      5  C4  UNL d   1       0.471  -0.695   1.206  0.00  0.00    -0.005 A 
ATOM      6  C5  UNL d   1      -0.056  -0.263  -0.015  0.00  0.00    -0.074 A 
ATOM      7  C6  UNL d   1       0.412  -0.855  -1.311  0.00  0.00     0.077 C 
ATOM      8  C7  UNL d   1      -1.047   0.729  -0.018  0.00  0.00    -0.001 A 
ENDROOT
TORSDOF 0
ENDMDL
