MODEL 1
REMARK minimizedAffinity -4.9055171
REMARK minimizedRMSD -1
REMARK  0 active torsions:
REMARK  status: ('A' for Active; 'I' for Inactive)
ROOT
ATOM      1  C   UNL d   1       1.159  -0.367  -1.113  0.00  0.00     0.077 C 
ATOM      2  C1  UNL d   1       0.245  -0.089   0.043  0.00  0.00    -0.074 A 
ATOM      3  C2  UNL d   1       0.198  -0.949   1.145  0.00  0.00    -0.005 A 
ATOM      4  C3  UNL d   1      -0.651  -0.673   2.217  0.00  0.00     0.006 A 
ATOM      5  C4  UNL d   1      -1.459   0.465   2.198  0.00  0.00    -0.005 A 
ATOM      6  C5  UNL d   1      -1.425   1.336   1.105  0.00  0.00    -0.074 A 
ATOM      7  C6  UNL d   1      -2.280   2.568   1.073  0.00  0.00     0.077 C 
ATOM      8  C7  UNL d   1      -0.564   1.055   0.035  0.00  0.00    -0.001 A 
ENDROOT
TORSDOF 0
ENDMDL
