MODEL 1
REMARK minimizedAffinity -4.11924982
REMARK minimizedRMSD -1
REMARK  0 active torsions:
REMARK  status: ('A' for Active; 'I' for Inactive)
ROOT
ATOM      1  C   UNL d   1       0.996   0.386  -1.377  0.00  0.00     0.077 C 
ATOM      2  C1  UNL d   1       0.127   0.305  -0.157  0.00  0.00    -0.074 A 
ATOM      3  C2  UNL d   1       0.104  -0.849   0.634  0.00  0.00    -0.005 A 
ATOM      4  C3  UNL d   1      -0.702  -0.906   1.771  0.00  0.00     0.006 A 
ATOM      5  C4  UNL d   1      -1.492   0.187   2.128  0.00  0.00    -0.005 A 
ATOM      6  C5  UNL d   1      -1.481   1.349   1.350  0.00  0.00    -0.074 A 
ATOM      7  C6  UNL d   1      -2.317   2.537   1.726  0.00  0.00     0.077 C 
ATOM      8  C7  UNL d   1      -0.664   1.402   0.213  0.00  0.00    -0.001 A 
ENDROOT
TORSDOF 0
ENDMDL
