MODEL 1
REMARK minimizedAffinity -4.53728247
REMARK minimizedRMSD -1
REMARK  0 active torsions:
REMARK  status: ('A' for Active; 'I' for Inactive)
ROOT
ATOM      1  C   UNL d   1      -1.864   2.717   0.760  0.00  0.00     0.077 C 
ATOM      2  C1  UNL d   1      -0.965   1.545   0.497  0.00  0.00    -0.074 A 
ATOM      3  C2  UNL d   1      -0.291   1.415  -0.722  0.00  0.00    -0.005 A 
ATOM      4  C3  UNL d   1       0.549   0.325  -0.948  0.00  0.00     0.006 A 
ATOM      5  C4  UNL d   1       0.725  -0.644   0.041  0.00  0.00    -0.005 A 
ATOM      6  C5  UNL d   1       0.061  -0.530   1.266  0.00  0.00    -0.074 A 
ATOM      7  C6  UNL d   1       0.246  -1.557   2.343  0.00  0.00     0.077 C 
ATOM      8  C7  UNL d   1      -0.777   0.572   1.489  0.00  0.00    -0.001 A 
ENDROOT
TORSDOF 0
ENDMDL
