MODEL 1
REMARK minimizedAffinity 0.393270761
REMARK minimizedRMSD -1
REMARK  1 active torsions:
REMARK  status: ('A' for Active; 'I' for Inactive)
REMARK    1  A    between atoms: C3_4  and  O_7 
ROOT
ATOM      1  C   UNL d   1      -1.750  -0.727  -5.774  0.00  0.00    -0.033 A 
ATOM      2  C1  UNL d   1      -3.143  -0.757  -5.689  0.00  0.00     0.039 A 
ATOM      3  C2  UNL d   1      -3.823  -1.974  -5.761  0.00  0.00    -0.080 A 
ATOM      4  C3  UNL d   1      -3.099  -3.153  -5.917  0.00  0.00     0.150 A 
ATOM      5  C4  UNL d   1      -1.711  -3.131  -6.000  0.00  0.00    -0.007 A 
ATOM      6  C5  UNL d   1      -1.034  -1.915  -5.929  0.00  0.00     0.039 A 
ENDROOT
BRANCH   4   7
ATOM      7  O   UNL d   1      -3.719  -4.365  -5.998  0.00  0.00    -0.526 OA
ATOM      8  H5  UNL d   1      -4.679  -4.222  -5.955  0.00  0.00     0.418 HD
ENDBRANCH   4   7
TORSDOF 1
ENDMDL
