MODEL 1
REMARK minimizedAffinity 0.344555795
REMARK minimizedRMSD -1
REMARK  1 active torsions:
REMARK  status: ('A' for Active; 'I' for Inactive)
REMARK    1  A    between atoms: C3_4  and  O_7 
ROOT
ATOM      1  C   UNL d   1      -3.575   1.704   1.203  0.00  0.00    -0.033 A 
ATOM      2  C1  UNL d   1      -3.644   0.369   1.606  0.00  0.00     0.039 A 
ATOM      3  C2  UNL d   1      -4.267   0.033   2.810  0.00  0.00    -0.080 A 
ATOM      4  C3  UNL d   1      -4.818   1.039   3.599  0.00  0.00     0.150 A 
ATOM      5  C4  UNL d   1      -4.755   2.371   3.201  0.00  0.00    -0.007 A 
ATOM      6  C5  UNL d   1      -4.132   2.705   2.000  0.00  0.00     0.039 A 
ENDROOT
BRANCH   4   7
ATOM      7  O   UNL d   1      -5.432   0.760   4.783  0.00  0.00    -0.526 OA
ATOM      8  H5  UNL d   1      -5.374  -0.197   4.942  0.00  0.00     0.418 HD
ENDBRANCH   4   7
TORSDOF 1
ENDMDL
