MODEL 1
REMARK minimizedAffinity -1.18100119
REMARK minimizedRMSD -1
REMARK  1 active torsions:
REMARK  status: ('A' for Active; 'I' for Inactive)
REMARK    1  A    between atoms: C3_4  and  O_7 
ROOT
ATOM      1  C   UNL d   1      -4.752  -1.220  -5.959  0.00  0.00    -0.033 A 
ATOM      2  C1  UNL d   1      -3.551  -0.508  -5.952  0.00  0.00     0.039 A 
ATOM      3  C2  UNL d   1      -2.333  -1.191  -5.967  0.00  0.00    -0.080 A 
ATOM      4  C3  UNL d   1      -2.331  -2.583  -5.989  0.00  0.00     0.150 A 
ATOM      5  C4  UNL d   1      -3.524  -3.298  -6.000  0.00  0.00    -0.007 A 
ATOM      6  C5  UNL d   1      -4.739  -2.615  -5.984  0.00  0.00     0.039 A 
ENDROOT
BRANCH   4   7
ATOM      7  O   UNL d   1      -1.167  -3.294  -6.000  0.00  0.00    -0.526 OA
ATOM      8  H5  UNL d   1      -0.424  -2.668  -5.961  0.00  0.00     0.418 HD
ENDBRANCH   4   7
TORSDOF 1
ENDMDL
