MODEL 1
REMARK minimizedAffinity 2.07069087
REMARK minimizedRMSD -1
REMARK  1 active torsions:
REMARK  status: ('A' for Active; 'I' for Inactive)
REMARK    1  A    between atoms: C3_4  and  O_7 
ROOT
ATOM      1  C   UNL d   1      -1.474  -1.257  -5.996  0.00  0.00    -0.033 A 
ATOM      2  C1  UNL d   1      -1.691  -2.636  -5.999  0.00  0.00     0.039 A 
ATOM      3  C2  UNL d   1      -2.993  -3.140  -6.000  0.00  0.00    -0.080 A 
ATOM      4  C3  UNL d   1      -4.068  -2.255  -5.999  0.00  0.00     0.150 A 
ATOM      5  C4  UNL d   1      -3.859  -0.880  -6.000  0.00  0.00    -0.007 A 
ATOM      6  C5  UNL d   1      -2.558  -0.379  -5.997  0.00  0.00     0.039 A 
ENDROOT
BRANCH   4   7
ATOM      7  O   UNL d   1      -5.356  -2.700  -5.995  0.00  0.00    -0.526 OA
ATOM      8  H5  UNL d   1      -5.347  -3.671  -5.966  0.00  0.00     0.418 HD
ENDBRANCH   4   7
TORSDOF 1
ENDMDL
