MODEL 1
REMARK minimizedAffinity 4.10909891
REMARK minimizedRMSD -1
REMARK  1 active torsions:
REMARK  status: ('A' for Active; 'I' for Inactive)
REMARK    1  A    between atoms: C3_4  and  O_7 
ROOT
ATOM      1  C   UNL d   1      -1.235  -0.609  -5.776  0.00  0.00    -0.033 A 
ATOM      2  C1  UNL d   1      -0.554  -1.819  -5.921  0.00  0.00     0.039 A 
ATOM      3  C2  UNL d   1      -1.266  -3.017  -5.999  0.00  0.00    -0.080 A 
ATOM      4  C3  UNL d   1      -2.657  -2.992  -5.933  0.00  0.00     0.150 A 
ATOM      5  C4  UNL d   1      -3.341  -1.789  -5.792  0.00  0.00    -0.007 A 
ATOM      6  C5  UNL d   1      -2.628  -0.593  -5.713  0.00  0.00     0.039 A 
ENDROOT
BRANCH   4   7
ATOM      7  O   UNL d   1      -3.395  -4.136  -6.000  0.00  0.00    -0.526 OA
ATOM      8  H5  UNL d   1      -2.786  -4.891  -6.067  0.00  0.00     0.418 HD
ENDBRANCH   4   7
TORSDOF 1
ENDMDL
