MODEL 1
REMARK minimizedAffinity -2.51567006
REMARK minimizedRMSD -1
REMARK  1 active torsions:
REMARK  status: ('A' for Active; 'I' for Inactive)
REMARK    1  A    between atoms: C3_4  and  O_7 
ROOT
ATOM      1  C   UNL d   1      -5.978  -2.210  -5.988  0.00  0.00    -0.033 A 
ATOM      2  C1  UNL d   1      -5.536  -3.534  -5.996  0.00  0.00     0.039 A 
ATOM      3  C2  UNL d   1      -4.168  -3.815  -5.999  0.00  0.00    -0.080 A 
ATOM      4  C3  UNL d   1      -3.255  -2.764  -5.993  0.00  0.00     0.150 A 
ATOM      5  C4  UNL d   1      -3.689  -1.442  -5.980  0.00  0.00    -0.007 A 
ATOM      6  C5  UNL d   1      -5.055  -1.164  -5.978  0.00  0.00     0.039 A 
ENDROOT
BRANCH   4   7
ATOM      7  O   UNL d   1      -1.910  -2.989  -6.000  0.00  0.00    -0.526 OA
ATOM      8  H5  UNL d   1      -1.758  -3.948  -6.038  0.00  0.00     0.418 HD
ENDBRANCH   4   7
TORSDOF 1
ENDMDL
