MODEL 1
REMARK minimizedAffinity -0.0362041667
REMARK minimizedRMSD -1
REMARK  1 active torsions:
REMARK  status: ('A' for Active; 'I' for Inactive)
REMARK    1  A    between atoms: C3_4  and  O_7 
ROOT
ATOM      1  C   UNL d   1      -4.659  -3.194  -6.000  0.00  0.00    -0.033 A 
ATOM      2  C1  UNL d   1      -5.146  -1.886  -5.994  0.00  0.00     0.039 A 
ATOM      3  C2  UNL d   1      -4.257  -0.809  -5.984  0.00  0.00    -0.080 A 
ATOM      4  C3  UNL d   1      -2.887  -1.054  -5.981  0.00  0.00     0.150 A 
ATOM      5  C4  UNL d   1      -2.395  -2.355  -5.991  0.00  0.00    -0.007 A 
ATOM      6  C5  UNL d   1      -3.284  -3.429  -6.000  0.00  0.00     0.039 A 
ENDROOT
BRANCH   4   7
ATOM      7  O   UNL d   1      -1.980  -0.035  -5.966  0.00  0.00    -0.526 OA
ATOM      8  H5  UNL d   1      -2.464   0.807  -5.931  0.00  0.00     0.418 HD
ENDBRANCH   4   7
TORSDOF 1
ENDMDL
