MODEL 1
REMARK minimizedAffinity 8.10209656
REMARK minimizedRMSD -1
REMARK  1 active torsions:
REMARK  status: ('A' for Active; 'I' for Inactive)
REMARK    1  A    between atoms: C3_4  and  O_7 
ROOT
ATOM      1  C   UNL d   1      -0.763  -0.730  -5.997  0.00  0.00    -0.033 A 
ATOM      2  C1  UNL d   1      -2.059  -0.212  -5.989  0.00  0.00     0.039 A 
ATOM      3  C2  UNL d   1      -3.158  -1.074  -5.989  0.00  0.00    -0.080 A 
ATOM      4  C3  UNL d   1      -2.946  -2.450  -5.995  0.00  0.00     0.150 A 
ATOM      5  C4  UNL d   1      -1.657  -2.973  -5.999  0.00  0.00    -0.007 A 
ATOM      6  C5  UNL d   1      -0.562  -2.110  -6.000  0.00  0.00     0.039 A 
ENDROOT
BRANCH   4   7
ATOM      7  O   UNL d   1      -3.987  -3.331  -6.000  0.00  0.00    -0.526 OA
ATOM      8  H5  UNL d   1      -4.817  -2.826  -6.026  0.00  0.00     0.418 HD
ENDBRANCH   4   7
TORSDOF 1
ENDMDL
