MODEL 1
REMARK minimizedAffinity 1.36737323
REMARK minimizedRMSD -1
REMARK  1 active torsions:
REMARK  status: ('A' for Active; 'I' for Inactive)
REMARK    1  A    between atoms: C3_4  and  O_7 
ROOT
ATOM      1  C   UNL d   1      -5.358   1.621   5.307  0.00  0.00    -0.033 A 
ATOM      2  C1  UNL d   1      -4.528   0.618   4.802  0.00  0.00     0.039 A 
ATOM      3  C2  UNL d   1      -3.892   0.791   3.570  0.00  0.00    -0.080 A 
ATOM      4  C3  UNL d   1      -4.095   1.968   2.856  0.00  0.00     0.150 A 
ATOM      5  C4  UNL d   1      -4.917   2.972   3.355  0.00  0.00    -0.007 A 
ATOM      6  C5  UNL d   1      -5.552   2.798   4.585  0.00  0.00     0.039 A 
ENDROOT
BRANCH   4   7
ATOM      7  O   UNL d   1      -3.500   2.180   1.648  0.00  0.00    -0.526 OA
ATOM      8  H5  UNL d   1      -2.984   1.389   1.416  0.00  0.00     0.418 HD
ENDBRANCH   4   7
TORSDOF 1
ENDMDL
