MODEL 1
REMARK minimizedAffinity 3.16882062
REMARK minimizedRMSD -1
REMARK  1 active torsions:
REMARK  status: ('A' for Active; 'I' for Inactive)
REMARK    1  A    between atoms: C3_4  and  O_7 
ROOT
ATOM      1  C   UNL d   1      -1.884  -0.949  -5.586  0.00  0.00    -0.033 A 
ATOM      2  C1  UNL d   1      -3.240  -0.801  -5.291  0.00  0.00     0.039 A 
ATOM      3  C2  UNL d   1      -4.094  -1.904  -5.352  0.00  0.00    -0.080 A 
ATOM      4  C3  UNL d   1      -3.579  -3.147  -5.709  0.00  0.00     0.150 A 
ATOM      5  C4  UNL d   1      -2.228  -3.303  -6.000  0.00  0.00    -0.007 A 
ATOM      6  C5  UNL d   1      -1.377  -2.200  -5.939  0.00  0.00     0.039 A 
ENDROOT
BRANCH   4   7
ATOM      7  O   UNL d   1      -4.375  -4.252  -5.787  0.00  0.00    -0.526 OA
ATOM      8  H5  UNL d   1      -5.288  -3.988  -5.587  0.00  0.00     0.418 HD
ENDBRANCH   4   7
TORSDOF 1
ENDMDL
