MODEL 1
REMARK minimizedAffinity 2.56094098
REMARK minimizedRMSD -1
REMARK  1 active torsions:
REMARK  status: ('A' for Active; 'I' for Inactive)
REMARK    1  A    between atoms: C3_4  and  O_7 
ROOT
ATOM      1  C   UNL d   1      -5.272   2.054   3.738  0.00  0.00    -0.033 A 
ATOM      2  C1  UNL d   1      -5.728   1.983   5.056  0.00  0.00     0.039 A 
ATOM      3  C2  UNL d   1      -5.507   0.830   5.812  0.00  0.00    -0.080 A 
ATOM      4  C3  UNL d   1      -4.829  -0.243   5.239  0.00  0.00     0.150 A 
ATOM      5  C4  UNL d   1      -4.369  -0.178   3.928  0.00  0.00    -0.007 A 
ATOM      6  C5  UNL d   1      -4.591   0.974   3.175  0.00  0.00     0.039 A 
ENDROOT
BRANCH   4   7
ATOM      7  O   UNL d   1      -4.594  -1.391   5.936  0.00  0.00    -0.526 OA
ATOM      8  H5  UNL d   1      -4.994  -1.304   6.817  0.00  0.00     0.418 HD
ENDBRANCH   4   7
TORSDOF 1
ENDMDL
