MODEL 1
REMARK minimizedAffinity -0.585658252
REMARK minimizedRMSD -1
REMARK  1 active torsions:
REMARK  status: ('A' for Active; 'I' for Inactive)
REMARK    1  A    between atoms: C3_4  and  O_7 
ROOT
ATOM      1  C   UNL d   1      -5.515  -2.601  -5.971  0.00  0.00    -0.033 A 
ATOM      2  C1  UNL d   1      -5.254  -1.229  -5.950  0.00  0.00     0.039 A 
ATOM      3  C2  UNL d   1      -3.937  -0.767  -5.951  0.00  0.00    -0.080 A 
ATOM      4  C3  UNL d   1      -2.891  -1.686  -5.975  0.00  0.00     0.150 A 
ATOM      5  C4  UNL d   1      -3.144  -3.054  -6.000  0.00  0.00    -0.007 A 
ATOM      6  C5  UNL d   1      -4.460  -3.513  -5.998  0.00  0.00     0.039 A 
ENDROOT
BRANCH   4   7
ATOM      7  O   UNL d   1      -1.588  -1.283  -5.972  0.00  0.00    -0.526 OA
ATOM      8  H5  UNL d   1      -1.566  -0.313  -5.924  0.00  0.00     0.418 HD
ENDBRANCH   4   7
TORSDOF 1
ENDMDL
