MODEL 1
REMARK minimizedAffinity 2.33756638
REMARK minimizedRMSD -1
REMARK  1 active torsions:
REMARK  status: ('A' for Active; 'I' for Inactive)
REMARK    1  A    between atoms: C3_4  and  O_7 
ROOT
ATOM      1  C   UNL d   1      -5.992   5.860   4.758  0.00  0.00    -0.033 A 
ATOM      2  C1  UNL d   1      -5.996   5.180   5.977  0.00  0.00     0.039 A 
ATOM      3  C2  UNL d   1      -5.997   3.783   6.000  0.00  0.00    -0.080 A 
ATOM      4  C3  UNL d   1      -5.993   3.081   4.798  0.00  0.00     0.150 A 
ATOM      5  C4  UNL d   1      -5.985   3.752   3.580  0.00  0.00    -0.007 A 
ATOM      6  C5  UNL d   1      -5.984   5.146   3.559  0.00  0.00     0.039 A 
ENDROOT
BRANCH   4   7
ATOM      7  O   UNL d   1      -5.999   1.718   4.770  0.00  0.00    -0.526 OA
ATOM      8  H5  UNL d   1      -6.034   1.391   5.684  0.00  0.00     0.418 HD
ENDBRANCH   4   7
TORSDOF 1
ENDMDL
