MODEL 1
REMARK minimizedAffinity -0.264425993
REMARK minimizedRMSD -1
REMARK  1 active torsions:
REMARK  status: ('A' for Active; 'I' for Inactive)
REMARK    1  A    between atoms: C3_4  and  O_7 
ROOT
ATOM      1  C   UNL d   1      -1.541  -1.442  -5.437  0.00  0.00    -0.033 A 
ATOM      2  C1  UNL d   1      -2.425  -0.521  -4.872  0.00  0.00     0.039 A 
ATOM      3  C2  UNL d   1      -3.797  -0.778  -4.871  0.00  0.00    -0.080 A 
ATOM      4  C3  UNL d   1      -4.272  -1.958  -5.437  0.00  0.00     0.150 A 
ATOM      5  C4  UNL d   1      -3.396  -2.882  -5.998  0.00  0.00    -0.007 A 
ATOM      6  C5  UNL d   1      -2.026  -2.623  -5.999  0.00  0.00     0.039 A 
ENDROOT
BRANCH   4   7
ATOM      7  O   UNL d   1      -5.603  -2.250  -5.463  0.00  0.00    -0.526 OA
ATOM      8  H5  UNL d   1      -6.089  -1.508  -5.066  0.00  0.00     0.418 HD
ENDBRANCH   4   7
TORSDOF 1
ENDMDL
