MODEL 1
REMARK minimizedAffinity 0.948157907
REMARK minimizedRMSD -1
REMARK  1 active torsions:
REMARK  status: ('A' for Active; 'I' for Inactive)
REMARK    1  A    between atoms: C3_4  and  O_7 
ROOT
ATOM      1  C   UNL d   1      -4.512   5.862   5.861  0.00  0.00    -0.033 A 
ATOM      2  C1  UNL d   1      -3.863   5.999   4.632  0.00  0.00     0.039 A 
ATOM      3  C2  UNL d   1      -4.262   5.227   3.540  0.00  0.00    -0.080 A 
ATOM      4  C3  UNL d   1      -5.309   4.322   3.689  0.00  0.00     0.150 A 
ATOM      5  C4  UNL d   1      -5.963   4.183   4.909  0.00  0.00    -0.007 A 
ATOM      6  C5  UNL d   1      -5.562   4.955   5.999  0.00  0.00     0.039 A 
ENDROOT
BRANCH   4   7
ATOM      7  O   UNL d   1      -5.731   3.543   2.653  0.00  0.00    -0.526 OA
ATOM      8  H5  UNL d   1      -5.169   3.726   1.881  0.00  0.00     0.418 HD
ENDBRANCH   4   7
TORSDOF 1
ENDMDL
