MODEL 1
REMARK minimizedAffinity -1.61473954
REMARK minimizedRMSD -1
REMARK  1 active torsions:
REMARK  status: ('A' for Active; 'I' for Inactive)
REMARK    1  A    between atoms: C3_4  and  O_7 
ROOT
ATOM      1  C   UNL d   1      -4.045  -1.131  -5.989  0.00  0.00    -0.033 A 
ATOM      2  C1  UNL d   1      -2.676  -0.855  -5.994  0.00  0.00     0.039 A 
ATOM      3  C2  UNL d   1      -1.751  -1.901  -5.999  0.00  0.00    -0.080 A 
ATOM      4  C3  UNL d   1      -2.207  -3.216  -5.998  0.00  0.00     0.150 A 
ATOM      5  C4  UNL d   1      -3.570  -3.498  -5.997  0.00  0.00    -0.007 A 
ATOM      6  C5  UNL d   1      -4.491  -2.452  -5.991  0.00  0.00     0.039 A 
ENDROOT
BRANCH   4   7
ATOM      7  O   UNL d   1      -1.343  -4.270  -5.998  0.00  0.00    -0.526 OA
ATOM      8  H5  UNL d   1      -0.435  -3.924  -5.970  0.00  0.00     0.418 HD
ENDBRANCH   4   7
TORSDOF 1
ENDMDL
