MODEL 1
REMARK minimizedAffinity -1.3934027
REMARK minimizedRMSD -1
REMARK  1 active torsions:
REMARK  status: ('A' for Active; 'I' for Inactive)
REMARK    1  A    between atoms: C3_4  and  O_7 
ROOT
ATOM      1  C   UNL d   1      -1.792  -1.703  -5.999  0.00  0.00    -0.033 A 
ATOM      2  C1  UNL d   1      -2.418  -0.455  -6.000  0.00  0.00     0.039 A 
ATOM      3  C2  UNL d   1      -3.811  -0.370  -5.996  0.00  0.00    -0.080 A 
ATOM      4  C3  UNL d   1      -4.567  -1.539  -5.992  0.00  0.00     0.150 A 
ATOM      5  C4  UNL d   1      -3.950  -2.786  -5.988  0.00  0.00    -0.007 A 
ATOM      6  C5  UNL d   1      -2.558  -2.869  -5.992  0.00  0.00     0.039 A 
ENDROOT
BRANCH   4   7
ATOM      7  O   UNL d   1      -5.930  -1.507  -5.994  0.00  0.00    -0.526 OA
ATOM      8  H5  UNL d   1      -6.216  -0.579  -6.026  0.00  0.00     0.418 HD
ENDBRANCH   4   7
TORSDOF 1
ENDMDL
