MODEL 1
REMARK minimizedAffinity 6.83192635
REMARK minimizedRMSD -1
REMARK  0 active torsions:
REMARK  status: ('A' for Active; 'I' for Inactive)
ROOT
ATOM      1  C   UNL d   1       1.285  -0.480  -1.398  0.00  0.00     0.124 A 
ATOM      2  C1  UNL d   1       0.435   0.617  -1.362  0.00  0.00     0.062 A 
ATOM      3  C2  UNL d   1      -0.580   0.684  -0.412  0.00  0.00     0.162 A 
ATOM      4  C3  UNL d   1      -0.750  -0.347   0.511  0.00  0.00    -0.034 A 
ATOM      5  C4  UNL d   1       0.108  -1.447   0.468  0.00  0.00     0.162 A 
ATOM      6  C5  UNL d   1       1.121  -1.510  -0.483  0.00  0.00     0.062 A 
ATOM      7  F   UNL d   1       1.942  -2.571  -0.517  0.00  0.00    -0.097 F 
ATOM      8  F1  UNL d   1      -0.027  -2.457   1.340  0.00  0.00    -0.096 F 
ATOM      9  I   UNL d   1      -2.267  -0.250   1.933  0.00  0.00    -0.060 I 
ATOM     10  F2  UNL d   1      -1.387   1.756  -0.400  0.00  0.00    -0.096 F 
ATOM     11  F3  UNL d   1       0.591   1.613  -2.245  0.00  0.00    -0.097 F 
ATOM     12  F4  UNL d   1       2.260  -0.543  -2.314  0.00  0.00    -0.092 F 
ENDROOT
TORSDOF 0
ENDMDL
