MODEL 1
REMARK minimizedAffinity -3.14590955
REMARK minimizedRMSD -1
REMARK  0 active torsions:
REMARK  status: ('A' for Active; 'I' for Inactive)
ROOT
ATOM      1  C   UNL d   1       2.324  -0.605  -1.296  0.00  0.00     0.124 A 
ATOM      2  C1  UNL d   1       1.530  -1.648  -0.838  0.00  0.00     0.062 A 
ATOM      3  C2  UNL d   1       0.285  -1.383  -0.272  0.00  0.00     0.162 A 
ATOM      4  C3  UNL d   1      -0.174  -0.070  -0.163  0.00  0.00    -0.034 A 
ATOM      5  C4  UNL d   1       0.631   0.972  -0.626  0.00  0.00     0.162 A 
ATOM      6  C5  UNL d   1       1.874   0.703  -1.190  0.00  0.00     0.062 A 
ATOM      7  F   UNL d   1       2.640   1.711  -1.632  0.00  0.00    -0.097 F 
ATOM      8  F1  UNL d   1       0.221   2.246  -0.536  0.00  0.00    -0.096 F 
ATOM      9  I   UNL d   1      -2.033   0.329   0.681  0.00  0.00    -0.060 I 
ATOM     10  F2  UNL d   1      -0.461  -2.410   0.162  0.00  0.00    -0.096 F 
ATOM     11  F3  UNL d   1       1.962  -2.913  -0.938  0.00  0.00    -0.097 F 
ATOM     12  F4  UNL d   1       3.521  -0.863  -1.838  0.00  0.00    -0.092 F 
ENDROOT
TORSDOF 0
ENDMDL
