MODEL 1
REMARK minimizedAffinity -3.36476207
REMARK minimizedRMSD -1
REMARK  0 active torsions:
REMARK  status: ('A' for Active; 'I' for Inactive)
ROOT
ATOM      1  C   UNL d   1       1.438  -0.058  -1.758  0.00  0.00     0.124 A 
ATOM      2  C1  UNL d   1       1.548  -0.894  -0.655  0.00  0.00     0.062 A 
ATOM      3  C2  UNL d   1       0.607  -0.829   0.368  0.00  0.00     0.162 A 
ATOM      4  C3  UNL d   1      -0.453   0.074   0.294  0.00  0.00    -0.034 A 
ATOM      5  C4  UNL d   1      -0.556   0.913  -0.817  0.00  0.00     0.162 A 
ATOM      6  C5  UNL d   1       0.387   0.844  -1.838  0.00  0.00     0.062 A 
ATOM      7  F   UNL d   1       0.279   1.653  -2.902  0.00  0.00    -0.097 F 
ATOM      8  F1  UNL d   1      -1.563   1.793  -0.921  0.00  0.00    -0.096 F 
ATOM      9  I   UNL d   1      -1.862   0.174   1.823  0.00  0.00    -0.060 I 
ATOM     10  F2  UNL d   1       0.738  -1.649   1.422  0.00  0.00    -0.096 F 
ATOM     11  F3  UNL d   1       2.563  -1.766  -0.575  0.00  0.00    -0.097 F 
ATOM     12  F4  UNL d   1       2.345  -0.122  -2.741  0.00  0.00    -0.092 F 
ENDROOT
TORSDOF 0
ENDMDL
