MODEL 1
REMARK minimizedAffinity -4.1669364
REMARK minimizedRMSD -1
REMARK  0 active torsions:
REMARK  status: ('A' for Active; 'I' for Inactive)
ROOT
ATOM      1  C   UNL d   1       2.392  -0.280  -1.259  0.00  0.00     0.124 A 
ATOM      2  C1  UNL d   1       1.703   0.924  -1.269  0.00  0.00     0.062 A 
ATOM      3  C2  UNL d   1       0.457   1.023  -0.656  0.00  0.00     0.162 A 
ATOM      4  C3  UNL d   1      -0.107  -0.086  -0.026  0.00  0.00    -0.034 A 
ATOM      5  C4  UNL d   1       0.592  -1.295  -0.021  0.00  0.00     0.162 A 
ATOM      6  C5  UNL d   1       1.836  -1.388  -0.635  0.00  0.00     0.062 A 
ATOM      7  F   UNL d   1       2.501  -2.553  -0.625  0.00  0.00    -0.097 F 
ATOM      8  F1  UNL d   1       0.079  -2.381   0.575  0.00  0.00    -0.096 F 
ATOM      9  I   UNL d   1      -1.969   0.057   0.892  0.00  0.00    -0.060 I 
ATOM     10  F2  UNL d   1      -0.187   2.200  -0.681  0.00  0.00    -0.096 F 
ATOM     11  F3  UNL d   1       2.237   1.996  -1.872  0.00  0.00    -0.097 F 
ATOM     12  F4  UNL d   1       3.590  -0.373  -1.851  0.00  0.00    -0.092 F 
ENDROOT
TORSDOF 0
ENDMDL
