MODEL 1
REMARK minimizedAffinity -3.43641043
REMARK minimizedRMSD -1
REMARK  0 active torsions:
REMARK  status: ('A' for Active; 'I' for Inactive)
ROOT
ATOM      1  C   UNL d   1      -2.060   0.954   1.665  0.00  0.00     0.124 A 
ATOM      2  C1  UNL d   1      -2.320  -0.200   0.939  0.00  0.00     0.062 A 
ATOM      3  C2  UNL d   1      -1.365  -0.704   0.061  0.00  0.00     0.162 A 
ATOM      4  C3  UNL d   1      -0.140  -0.056  -0.095  0.00  0.00    -0.034 A 
ATOM      5  C4  UNL d   1       0.114   1.104   0.639  0.00  0.00     0.162 A 
ATOM      6  C5  UNL d   1      -0.844   1.605   1.515  0.00  0.00     0.062 A 
ATOM      7  F   UNL d   1      -0.591   2.719   2.216  0.00  0.00    -0.097 F 
ATOM      8  F1  UNL d   1       1.281   1.753   0.513  0.00  0.00    -0.096 F 
ATOM      9  I   UNL d   1       1.291  -0.807  -1.406  0.00  0.00    -0.060 I 
ATOM     10  F2  UNL d   1      -1.643  -1.821  -0.629  0.00  0.00    -0.096 F 
ATOM     11  F3  UNL d   1      -3.495  -0.830   1.082  0.00  0.00    -0.097 F 
ATOM     12  F4  UNL d   1      -2.982   1.437   2.508  0.00  0.00    -0.092 F 
ENDROOT
TORSDOF 0
ENDMDL
