MODEL 1
REMARK minimizedAffinity -0.537894905
REMARK minimizedRMSD -1
REMARK  0 active torsions:
REMARK  status: ('A' for Active; 'I' for Inactive)
ROOT
ATOM      1  C   UNL d   1       1.258   1.373  -1.706  0.00  0.00     0.124 A 
ATOM      2  C1  UNL d   1       1.941   0.165  -1.722  0.00  0.00     0.062 A 
ATOM      3  C2  UNL d   1       1.403  -0.952  -1.089  0.00  0.00     0.162 A 
ATOM      4  C3  UNL d   1       0.173  -0.866  -0.437  0.00  0.00    -0.034 A 
ATOM      5  C4  UNL d   1      -0.508   0.353  -0.424  0.00  0.00     0.162 A 
ATOM      6  C5  UNL d   1       0.035   1.466  -1.058  0.00  0.00     0.062 A 
ATOM      7  F   UNL d   1      -0.627   2.632  -1.042  0.00  0.00    -0.097 F 
ATOM      8  F1  UNL d   1      -1.692   0.470   0.194  0.00  0.00    -0.096 F 
ATOM      9  I   UNL d   1      -0.635  -2.534   0.510  0.00  0.00    -0.060 I 
ATOM     10  F2  UNL d   1       2.085  -2.106  -1.120  0.00  0.00    -0.096 F 
ATOM     11  F3  UNL d   1       3.124   0.073  -2.347  0.00  0.00    -0.097 F 
ATOM     12  F4  UNL d   1       1.779   2.447  -2.315  0.00  0.00    -0.092 F 
ENDROOT
TORSDOF 0
ENDMDL
