MODEL 1
REMARK minimizedAffinity -3.09887242
REMARK minimizedRMSD -1
REMARK  0 active torsions:
REMARK  status: ('A' for Active; 'I' for Inactive)
ROOT
ATOM      1  C   UNL d   1       2.332  -0.778  -1.553  0.00  0.00     0.124 A 
ATOM      2  C1  UNL d   1       1.428  -1.785  -1.244  0.00  0.00     0.062 A 
ATOM      3  C2  UNL d   1       0.315  -1.508  -0.455  0.00  0.00     0.162 A 
ATOM      4  C3  UNL d   1       0.099  -0.218   0.030  0.00  0.00    -0.034 A 
ATOM      5  C4  UNL d   1       1.014   0.789  -0.284  0.00  0.00     0.162 A 
ATOM      6  C5  UNL d   1       2.124   0.507  -1.072  0.00  0.00     0.062 A 
ATOM      7  F   UNL d   1       2.997   1.481  -1.370  0.00  0.00    -0.097 F 
ATOM      8  F1  UNL d   1       0.837   2.040   0.167  0.00  0.00    -0.096 F 
ATOM      9  I   UNL d   1      -1.563   0.199   1.210  0.00  0.00    -0.060 I 
ATOM     10  F2  UNL d   1      -0.542  -2.500  -0.172  0.00  0.00    -0.096 F 
ATOM     11  F3  UNL d   1       1.627  -3.028  -1.706  0.00  0.00    -0.097 F 
ATOM     12  F4  UNL d   1       3.403  -1.047  -2.311  0.00  0.00    -0.092 F 
ENDROOT
TORSDOF 0
ENDMDL
