MODEL 1
REMARK minimizedAffinity -3.08820295
REMARK minimizedRMSD -1
REMARK  0 active torsions:
REMARK  status: ('A' for Active; 'I' for Inactive)
ROOT
ATOM      1  C   UNL d   1      -1.169  -0.134  -0.083  0.00  0.00     0.124 A 
ATOM      2  C1  UNL d   1      -0.489  -1.345  -0.098  0.00  0.00     0.062 A 
ATOM      3  C2  UNL d   1       0.815  -1.409  -0.579  0.00  0.00     0.162 A 
ATOM      4  C3  UNL d   1       1.450  -0.259  -1.049  0.00  0.00    -0.034 A 
ATOM      5  C4  UNL d   1       0.760   0.954  -1.032  0.00  0.00     0.162 A 
ATOM      6  C5  UNL d   1      -0.544   1.014  -0.550  0.00  0.00     0.062 A 
ATOM      7  F   UNL d   1      -1.198   2.184  -0.536  0.00  0.00    -0.097 F 
ATOM      8  F1  UNL d   1       1.340   2.079  -1.475  0.00  0.00    -0.096 F 
ATOM      9  I   UNL d   1       3.400  -0.352  -1.769  0.00  0.00    -0.060 I 
ATOM     10  F2  UNL d   1       1.447  -2.592  -0.582  0.00  0.00    -0.096 F 
ATOM     11  F3  UNL d   1      -1.092  -2.455   0.351  0.00  0.00    -0.097 F 
ATOM     12  F4  UNL d   1      -2.424  -0.075   0.379  0.00  0.00    -0.092 F 
ENDROOT
TORSDOF 0
ENDMDL
