MODEL 1
REMARK minimizedAffinity -1.6993041
REMARK minimizedRMSD -1
REMARK  0 active torsions:
REMARK  status: ('A' for Active; 'I' for Inactive)
ROOT
ATOM      1  C   UNL d   1       2.228  -0.314  -1.075  0.00  0.00     0.124 A 
ATOM      2  C1  UNL d   1       1.594  -1.462  -0.620  0.00  0.00     0.062 A 
ATOM      3  C2  UNL d   1       0.398  -1.368   0.085  0.00  0.00     0.162 A 
ATOM      4  C3  UNL d   1      -0.174  -0.121   0.338  0.00  0.00    -0.034 A 
ATOM      5  C4  UNL d   1       0.470   1.029  -0.122  0.00  0.00     0.162 A 
ATOM      6  C5  UNL d   1       1.666   0.930  -0.826  0.00  0.00     0.062 A 
ATOM      7  F   UNL d   1       2.277   2.040  -1.266  0.00  0.00    -0.097 F 
ATOM      8  F1  UNL d   1      -0.052   2.244   0.103  0.00  0.00    -0.096 F 
ATOM      9  I   UNL d   1      -1.963   0.024   1.392  0.00  0.00    -0.060 I 
ATOM     10  F2  UNL d   1      -0.193  -2.493   0.513  0.00  0.00    -0.096 F 
ATOM     11  F3  UNL d   1       2.136  -2.665  -0.858  0.00  0.00    -0.097 F 
ATOM     12  F4  UNL d   1       3.380  -0.408  -1.752  0.00  0.00    -0.092 F 
ENDROOT
TORSDOF 0
ENDMDL
