MODEL 1
REMARK minimizedAffinity -1.47828925
REMARK minimizedRMSD -1
REMARK  0 active torsions:
REMARK  status: ('A' for Active; 'I' for Inactive)
ROOT
ATOM      1  C   UNL d   1       0.412   1.050  -1.419  0.00  0.00     0.124 A 
ATOM      2  C1  UNL d   1       1.694   0.526  -1.318  0.00  0.00     0.062 A 
ATOM      3  C2  UNL d   1       1.905  -0.686  -0.668  0.00  0.00     0.162 A 
ATOM      4  C3  UNL d   1       0.832  -1.384  -0.113  0.00  0.00    -0.034 A 
ATOM      5  C4  UNL d   1      -0.454  -0.850  -0.218  0.00  0.00     0.162 A 
ATOM      6  C5  UNL d   1      -0.660   0.362  -0.869  0.00  0.00     0.062 A 
ATOM      7  F   UNL d   1      -1.898   0.867  -0.965  0.00  0.00    -0.097 F 
ATOM      8  F1  UNL d   1      -1.508  -1.494   0.304  0.00  0.00    -0.096 F 
ATOM      9  I   UNL d   1       1.144  -3.197   0.860  0.00  0.00    -0.060 I 
ATOM     10  F2  UNL d   1       3.154  -1.169  -0.586  0.00  0.00    -0.096 F 
ATOM     11  F3  UNL d   1       2.731   1.189  -1.848  0.00  0.00    -0.097 F 
ATOM     12  F4  UNL d   1       0.212   2.217  -2.045  0.00  0.00    -0.092 F 
ENDROOT
TORSDOF 0
ENDMDL
