MODEL 1
REMARK minimizedAffinity -1.02893448
REMARK minimizedRMSD -1
REMARK  0 active torsions:
REMARK  status: ('A' for Active; 'I' for Inactive)
ROOT
ATOM      1  C   UNL d   1       0.453  -1.740  -0.051  0.00  0.00     0.124 A 
ATOM      2  C1  UNL d   1       1.620  -1.445  -0.742  0.00  0.00     0.062 A 
ATOM      3  C2  UNL d   1       1.761  -0.220  -1.387  0.00  0.00     0.162 A 
ATOM      4  C3  UNL d   1       0.732   0.721  -1.343  0.00  0.00    -0.034 A 
ATOM      5  C4  UNL d   1      -0.439   0.417  -0.647  0.00  0.00     0.162 A 
ATOM      6  C5  UNL d   1      -0.575  -0.809  -0.005  0.00  0.00     0.062 A 
ATOM      7  F   UNL d   1      -1.704  -1.092   0.662  0.00  0.00    -0.097 F 
ATOM      8  F1  UNL d   1      -1.448   1.299  -0.585  0.00  0.00    -0.096 F 
ATOM      9  I   UNL d   1       0.939   2.555  -2.306  0.00  0.00    -0.060 I 
ATOM     10  F2  UNL d   1       2.900   0.039  -2.047  0.00  0.00    -0.096 F 
ATOM     11  F3  UNL d   1       2.614  -2.343  -0.790  0.00  0.00    -0.097 F 
ATOM     12  F4  UNL d   1       0.319  -2.920   0.567  0.00  0.00    -0.092 F 
ENDROOT
TORSDOF 0
ENDMDL
