MODEL 1
REMARK minimizedAffinity -2.1010406
REMARK minimizedRMSD -1
REMARK  0 active torsions:
REMARK  status: ('A' for Active; 'I' for Inactive)
ROOT
ATOM      1  C   UNL d   1       1.415   1.513  -1.388  0.00  0.00     0.124 A 
ATOM      2  C1  UNL d   1       2.213   0.422  -1.072  0.00  0.00     0.062 A 
ATOM      3  C2  UNL d   1       1.631  -0.799  -0.744  0.00  0.00     0.162 A 
ATOM      4  C3  UNL d   1       0.243  -0.936  -0.730  0.00  0.00    -0.034 A 
ATOM      5  C4  UNL d   1      -0.553   0.166  -1.047  0.00  0.00     0.162 A 
ATOM      6  C5  UNL d   1       0.034   1.384  -1.375  0.00  0.00     0.062 A 
ATOM      7  F   UNL d   1      -0.739   2.437  -1.679  0.00  0.00    -0.097 F 
ATOM      8  F1  UNL d   1      -1.891   0.069  -1.043  0.00  0.00    -0.096 F 
ATOM      9  I   UNL d   1      -0.631  -2.760  -0.239  0.00  0.00    -0.060 I 
ATOM     10  F2  UNL d   1       2.426  -1.837  -0.444  0.00  0.00    -0.096 F 
ATOM     11  F3  UNL d   1       3.548   0.544  -1.083  0.00  0.00    -0.097 F 
ATOM     12  F4  UNL d   1       1.978   2.687  -1.702  0.00  0.00    -0.092 F 
ENDROOT
TORSDOF 0
ENDMDL
