MODEL 1
REMARK minimizedAffinity -0.923005998
REMARK minimizedRMSD -1
REMARK  0 active torsions:
REMARK  status: ('A' for Active; 'I' for Inactive)
ROOT
ATOM      1  C   UNL d   1       1.187  -0.213  -1.355  0.00  0.00     0.124 A 
ATOM      2  C1  UNL d   1       0.222   0.784  -1.328  0.00  0.00     0.062 A 
ATOM      3  C2  UNL d   1      -0.711   0.828  -0.296  0.00  0.00     0.162 A 
ATOM      4  C3  UNL d   1      -0.683  -0.128   0.719  0.00  0.00    -0.034 A 
ATOM      5  C4  UNL d   1       0.290  -1.129   0.685  0.00  0.00     0.162 A 
ATOM      6  C5  UNL d   1       1.220  -1.169  -0.349  0.00  0.00     0.062 A 
ATOM      7  F   UNL d   1       2.151  -2.133  -0.373  0.00  0.00    -0.097 F 
ATOM      8  F1  UNL d   1       0.345  -2.064   1.645  0.00  0.00    -0.096 F 
ATOM      9  I   UNL d   1      -2.076  -0.065   2.264  0.00  0.00    -0.060 I 
ATOM     10  F2  UNL d   1      -1.631   1.804  -0.296  0.00  0.00    -0.096 F 
ATOM     11  F3  UNL d   1       0.188   1.708  -2.300  0.00  0.00    -0.097 F 
ATOM     12  F4  UNL d   1       2.083  -0.254  -2.350  0.00  0.00    -0.092 F 
ENDROOT
TORSDOF 0
ENDMDL
