MODEL 1
REMARK minimizedAffinity -3.45647979
REMARK minimizedRMSD -1
REMARK  0 active torsions:
REMARK  status: ('A' for Active; 'I' for Inactive)
ROOT
ATOM      1  C   UNL d   1       1.411   0.477  -0.911  0.00  0.00     0.124 A 
ATOM      2  C1  UNL d   1       1.516  -0.295   0.238  0.00  0.00     0.062 A 
ATOM      3  C2  UNL d   1       0.459  -0.354   1.141  0.00  0.00     0.162 A 
ATOM      4  C3  UNL d   1      -0.714   0.361   0.899  0.00  0.00    -0.034 A 
ATOM      5  C4  UNL d   1      -0.813   1.136  -0.258  0.00  0.00     0.162 A 
ATOM      6  C5  UNL d   1       0.247   1.191  -1.158  0.00  0.00     0.062 A 
ATOM      7  F   UNL d   1       0.143   1.937  -2.267  0.00  0.00    -0.097 F 
ATOM      8  F1  UNL d   1      -1.926   1.835  -0.521  0.00  0.00    -0.096 F 
ATOM      9  I   UNL d   1      -2.297   0.276   2.248  0.00  0.00    -0.060 I 
ATOM     10  F2  UNL d   1       0.589  -1.107   2.243  0.00  0.00    -0.096 F 
ATOM     11  F3  UNL d   1       2.640  -0.985   0.479  0.00  0.00    -0.097 F 
ATOM     12  F4  UNL d   1       2.430   0.532  -1.779  0.00  0.00    -0.092 F 
ENDROOT
TORSDOF 0
ENDMDL
