MODEL 1
REMARK minimizedAffinity 8.24028206
REMARK minimizedRMSD -1
REMARK  0 active torsions:
REMARK  status: ('A' for Active; 'I' for Inactive)
ROOT
ATOM      1  C   UNL d   1       0.140  -1.304   1.861  0.00  0.00     0.124 A 
ATOM      2  C1  UNL d   1       0.554  -1.350   0.537  0.00  0.00     0.062 A 
ATOM      3  C2  UNL d   1      -0.114  -0.607  -0.431  0.00  0.00     0.162 A 
ATOM      4  C3  UNL d   1      -1.204   0.190  -0.079  0.00  0.00    -0.034 A 
ATOM      5  C4  UNL d   1      -1.615   0.230   1.254  0.00  0.00     0.162 A 
ATOM      6  C5  UNL d   1      -0.943  -0.515   2.219  0.00  0.00     0.062 A 
ATOM      7  F   UNL d   1      -1.345  -0.469   3.497  0.00  0.00    -0.097 F 
ATOM      8  F1  UNL d   1      -2.658   0.986   1.628  0.00  0.00    -0.096 F 
ATOM      9  I   UNL d   1      -2.206   1.303  -1.524  0.00  0.00    -0.060 I 
ATOM     10  F2  UNL d   1       0.307  -0.670  -1.703  0.00  0.00    -0.096 F 
ATOM     11  F3  UNL d   1       1.600  -2.113   0.189  0.00  0.00    -0.097 F 
ATOM     12  F4  UNL d   1       0.785  -2.021   2.791  0.00  0.00    -0.092 F 
ENDROOT
TORSDOF 0
ENDMDL
