MODEL 1
REMARK minimizedAffinity 5.15560293
REMARK minimizedRMSD -1
REMARK  0 active torsions:
REMARK  status: ('A' for Active; 'I' for Inactive)
ROOT
ATOM      1  C   UNL d   1      -0.614   0.067   1.647  0.00  0.00     0.124 A 
ATOM      2  C1  UNL d   1      -1.272  -0.276   0.474  0.00  0.00     0.062 A 
ATOM      3  C2  UNL d   1      -0.570  -0.348  -0.727  0.00  0.00     0.162 A 
ATOM      4  C3  UNL d   1       0.798  -0.077  -0.760  0.00  0.00    -0.034 A 
ATOM      5  C4  UNL d   1       1.452   0.269   0.424  0.00  0.00     0.162 A 
ATOM      6  C5  UNL d   1       0.746   0.339   1.621  0.00  0.00     0.062 A 
ATOM      7  F   UNL d   1       1.383   0.671   2.754  0.00  0.00    -0.097 F 
ATOM      8  F1  UNL d   1       2.766   0.536   0.428  0.00  0.00    -0.096 F 
ATOM      9  I   UNL d   1       1.850  -0.183  -2.552  0.00  0.00    -0.060 I 
ATOM     10  F2  UNL d   1      -1.231  -0.682  -1.845  0.00  0.00    -0.096 F 
ATOM     11  F3  UNL d   1      -2.586  -0.538   0.495  0.00  0.00    -0.097 F 
ATOM     12  F4  UNL d   1      -1.292   0.137   2.800  0.00  0.00    -0.092 F 
ENDROOT
TORSDOF 0
ENDMDL
