MODEL 1
REMARK minimizedAffinity 8.29951859
REMARK minimizedRMSD -1
REMARK  0 active torsions:
REMARK  status: ('A' for Active; 'I' for Inactive)
ROOT
ATOM      1  C   UNL d   1       0.653  -3.219   2.652  0.00  0.00     0.124 A 
ATOM      2  C1  UNL d   1       1.188  -2.575   1.544  0.00  0.00     0.062 A 
ATOM      3  C2  UNL d   1       0.498  -1.527   0.943  0.00  0.00     0.162 A 
ATOM      4  C3  UNL d   1      -0.735  -1.114   1.448  0.00  0.00    -0.034 A 
ATOM      5  C4  UNL d   1      -1.267  -1.767   2.561  0.00  0.00     0.162 A 
ATOM      6  C5  UNL d   1      -0.574  -2.814   3.159  0.00  0.00     0.062 A 
ATOM      7  F   UNL d   1      -1.092  -3.435   4.228  0.00  0.00    -0.097 F 
ATOM      8  F1  UNL d   1      -2.450  -1.396   3.072  0.00  0.00    -0.096 F 
ATOM      9  I   UNL d   1      -1.770   0.453   0.551  0.00  0.00    -0.060 I 
ATOM     10  F2  UNL d   1       1.039  -0.923  -0.126  0.00  0.00    -0.096 F 
ATOM     11  F3  UNL d   1       2.373  -2.965   1.052  0.00  0.00    -0.097 F 
ATOM     12  F4  UNL d   1       1.319  -4.228   3.228  0.00  0.00    -0.092 F 
ENDROOT
TORSDOF 0
ENDMDL
