MODEL 1
REMARK minimizedAffinity 5.57760143
REMARK minimizedRMSD -1
REMARK  0 active torsions:
REMARK  status: ('A' for Active; 'I' for Inactive)
ROOT
ATOM      1  C   UNL d   1      -0.132  -4.512   3.003  0.00  0.00     0.124 A 
ATOM      2  C1  UNL d   1      -1.102  -3.531   3.154  0.00  0.00     0.062 A 
ATOM      3  C2  UNL d   1      -0.913  -2.269   2.598  0.00  0.00     0.162 A 
ATOM      4  C3  UNL d   1       0.250  -1.980   1.885  0.00  0.00    -0.034 A 
ATOM      5  C4  UNL d   1       1.222  -2.972   1.739  0.00  0.00     0.162 A 
ATOM      6  C5  UNL d   1       1.029  -4.232   2.296  0.00  0.00     0.062 A 
ATOM      7  F   UNL d   1       1.967  -5.178   2.149  0.00  0.00    -0.097 F 
ATOM      8  F1  UNL d   1       2.353  -2.728   1.059  0.00  0.00    -0.096 F 
ATOM      9  I   UNL d   1       0.536  -0.094   1.053  0.00  0.00    -0.060 I 
ATOM     10  F2  UNL d   1      -1.868  -1.340   2.760  0.00  0.00    -0.096 F 
ATOM     11  F3  UNL d   1      -2.224  -3.799   3.837  0.00  0.00    -0.097 F 
ATOM     12  F4  UNL d   1      -0.315  -5.725   3.539  0.00  0.00    -0.092 F 
ENDROOT
TORSDOF 0
ENDMDL
