MODEL 1
REMARK minimizedAffinity 1.80182564
REMARK minimizedRMSD -1
REMARK  0 active torsions:
REMARK  status: ('A' for Active; 'I' for Inactive)
ROOT
ATOM      1  C   UNL d   1       0.131  -3.678   2.429  0.00  0.00     0.124 A 
ATOM      2  C1  UNL d   1       0.830  -2.939   1.485  0.00  0.00     0.062 A 
ATOM      3  C2  UNL d   1       0.416  -1.650   1.159  0.00  0.00     0.162 A 
ATOM      4  C3  UNL d   1      -0.702  -1.092   1.779  0.00  0.00    -0.034 A 
ATOM      5  C4  UNL d   1      -1.400  -1.843   2.727  0.00  0.00     0.162 A 
ATOM      6  C5  UNL d   1      -0.982  -3.130   3.049  0.00  0.00     0.062 A 
ATOM      7  F   UNL d   1      -1.658  -3.843   3.962  0.00  0.00    -0.097 F 
ATOM      8  F1  UNL d   1      -2.479  -1.337   3.342  0.00  0.00    -0.096 F 
ATOM      9  I   UNL d   1      -1.325   0.834   1.294  0.00  0.00    -0.060 I 
ATOM     10  F2  UNL d   1       1.109  -0.959   0.243  0.00  0.00    -0.096 F 
ATOM     11  F3  UNL d   1       1.906  -3.467   0.884  0.00  0.00    -0.097 F 
ATOM     12  F4  UNL d   1       0.531  -4.918   2.740  0.00  0.00    -0.092 F 
ENDROOT
TORSDOF 0
ENDMDL
