MODEL 1
REMARK minimizedAffinity -0.0315428041
REMARK minimizedRMSD -1
REMARK  0 active torsions:
REMARK  status: ('A' for Active; 'I' for Inactive)
ROOT
ATOM      1  C   UNL d   1      -0.057  -4.592   3.292  0.00  0.00     0.124 A 
ATOM      2  C1  UNL d   1       1.175  -4.363   2.694  0.00  0.00     0.062 A 
ATOM      3  C2  UNL d   1       1.326  -3.329   1.775  0.00  0.00     0.162 A 
ATOM      4  C3  UNL d   1       0.242  -2.514   1.448  0.00  0.00    -0.034 A 
ATOM      5  C4  UNL d   1      -0.994  -2.751   2.052  0.00  0.00     0.162 A 
ATOM      6  C5  UNL d   1      -1.140  -3.786   2.970  0.00  0.00     0.062 A 
ATOM      7  F   UNL d   1      -2.331  -4.005   3.546  0.00  0.00    -0.097 F 
ATOM      8  F1  UNL d   1      -2.057  -1.986   1.761  0.00  0.00    -0.096 F 
ATOM      9  I   UNL d   1       0.464  -0.966   0.075  0.00  0.00    -0.060 I 
ATOM     10  F2  UNL d   1       2.528  -3.131   1.214  0.00  0.00    -0.096 F 
ATOM     11  F3  UNL d   1       2.222  -5.141   3.003  0.00  0.00    -0.097 F 
ATOM     12  F4  UNL d   1      -0.200  -5.588   4.175  0.00  0.00    -0.092 F 
ENDROOT
TORSDOF 0
ENDMDL
