MODEL 1
REMARK minimizedAffinity 9.31901646
REMARK minimizedRMSD -1
REMARK  0 active torsions:
REMARK  status: ('A' for Active; 'I' for Inactive)
ROOT
ATOM      1  C   UNL d   1      -0.605  -3.169   2.335  0.00  0.00     0.124 A 
ATOM      2  C1  UNL d   1      -0.227  -4.316   3.019  0.00  0.00     0.062 A 
ATOM      3  C2  UNL d   1       1.018  -4.892   2.786  0.00  0.00     0.162 A 
ATOM      4  C3  UNL d   1       1.896  -4.321   1.864  0.00  0.00    -0.034 A 
ATOM      5  C4  UNL d   1       1.508  -3.168   1.179  0.00  0.00     0.162 A 
ATOM      6  C5  UNL d   1       0.262  -2.596   1.416  0.00  0.00     0.062 A 
ATOM      7  F   UNL d   1      -0.101  -1.488   0.754  0.00  0.00    -0.097 F 
ATOM      8  F1  UNL d   1       2.327  -2.593   0.286  0.00  0.00    -0.096 F 
ATOM      9  I   UNL d   1       3.759  -5.178   1.512  0.00  0.00    -0.060 I 
ATOM     10  F2  UNL d   1       1.358  -6.000   3.461  0.00  0.00    -0.096 F 
ATOM     11  F3  UNL d   1      -1.064  -4.872   3.907  0.00  0.00    -0.097 F 
ATOM     12  F4  UNL d   1      -1.805  -2.618   2.561  0.00  0.00    -0.092 F 
ENDROOT
TORSDOF 0
ENDMDL
