MODEL 1
REMARK minimizedAffinity 11.2400923
REMARK minimizedRMSD -1
REMARK  0 active torsions:
REMARK  status: ('A' for Active; 'I' for Inactive)
ROOT
ATOM      1  C   UNL d   1      -2.058  -1.718   1.430  0.00  0.00     0.124 A 
ATOM      2  C1  UNL d   1      -1.180  -1.740   2.506  0.00  0.00     0.062 A 
ATOM      3  C2  UNL d   1       0.001  -1.006   2.460  0.00  0.00     0.162 A 
ATOM      4  C3  UNL d   1       0.312  -0.241   1.335  0.00  0.00    -0.034 A 
ATOM      5  C4  UNL d   1      -0.575  -0.225   0.257  0.00  0.00     0.162 A 
ATOM      6  C5  UNL d   1      -1.754  -0.961   0.308  0.00  0.00     0.062 A 
ATOM      7  F   UNL d   1      -2.601  -0.938  -0.732  0.00  0.00    -0.097 F 
ATOM      8  F1  UNL d   1      -0.307   0.499  -0.839  0.00  0.00    -0.096 F 
ATOM      9  I   UNL d   1       2.078   0.858   1.264  0.00  0.00    -0.060 I 
ATOM     10  F2  UNL d   1       0.830  -1.046   3.514  0.00  0.00    -0.096 F 
ATOM     11  F3  UNL d   1      -1.471  -2.472   3.591  0.00  0.00    -0.097 F 
ATOM     12  F4  UNL d   1      -3.193  -2.426   1.476  0.00  0.00    -0.092 F 
ENDROOT
TORSDOF 0
ENDMDL
