MODEL 1
REMARK minimizedAffinity 1.27162135
REMARK minimizedRMSD -1
REMARK  0 active torsions:
REMARK  status: ('A' for Active; 'I' for Inactive)
ROOT
ATOM      1  C   UNL d   1       0.802  -4.046   2.549  0.00  0.00     0.124 A 
ATOM      2  C1  UNL d   1       1.490  -3.451   1.501  0.00  0.00     0.062 A 
ATOM      3  C2  UNL d   1       1.082  -2.215   1.009  0.00  0.00     0.162 A 
ATOM      4  C3  UNL d   1      -0.018  -1.563   1.566  0.00  0.00    -0.034 A 
ATOM      5  C4  UNL d   1      -0.705  -2.168   2.620  0.00  0.00     0.162 A 
ATOM      6  C5  UNL d   1      -0.294  -3.405   3.108  0.00  0.00     0.062 A 
ATOM      7  F   UNL d   1      -0.960  -3.978   4.121  0.00  0.00    -0.097 F 
ATOM      8  F1  UNL d   1      -1.767  -1.570   3.179  0.00  0.00    -0.096 F 
ATOM      9  I   UNL d   1      -0.630   0.286   0.834  0.00  0.00    -0.060 I 
ATOM     10  F2  UNL d   1       1.765  -1.663  -0.005  0.00  0.00    -0.096 F 
ATOM     11  F3  UNL d   1       2.548  -4.070   0.958  0.00  0.00    -0.097 F 
ATOM     12  F4  UNL d   1       1.195  -5.237   3.020  0.00  0.00    -0.092 F 
ENDROOT
TORSDOF 0
ENDMDL
