MODEL 1
REMARK minimizedAffinity 11.8333807
REMARK minimizedRMSD -1
REMARK  0 active torsions:
REMARK  status: ('A' for Active; 'I' for Inactive)
ROOT
ATOM      1  C   UNL d   1      -1.224  -0.349   1.517  0.00  0.00     0.124 A 
ATOM      2  C1  UNL d   1      -0.533  -0.502   0.323  0.00  0.00     0.062 A 
ATOM      3  C2  UNL d   1       0.460  -1.471   0.208  0.00  0.00     0.162 A 
ATOM      4  C3  UNL d   1       0.767  -2.296   1.290  0.00  0.00    -0.034 A 
ATOM      5  C4  UNL d   1       0.068  -2.135   2.488  0.00  0.00     0.162 A 
ATOM      6  C5  UNL d   1      -0.923  -1.165   2.598  0.00  0.00     0.062 A 
ATOM      7  F   UNL d   1      -1.590  -1.019   3.752  0.00  0.00    -0.097 F 
ATOM      8  F1  UNL d   1       0.338  -2.911   3.548  0.00  0.00    -0.096 F 
ATOM      9  I   UNL d   1       2.250  -3.746   1.122  0.00  0.00    -0.060 I 
ATOM     10  F2  UNL d   1       1.111  -1.597  -0.958  0.00  0.00    -0.096 F 
ATOM     11  F3  UNL d   1      -0.821   0.286  -0.723  0.00  0.00    -0.097 F 
ATOM     12  F4  UNL d   1      -2.178   0.585   1.625  0.00  0.00    -0.092 F 
ENDROOT
TORSDOF 0
ENDMDL
