MODEL 1
REMARK minimizedAffinity 8.88818932
REMARK minimizedRMSD -1
REMARK  0 active torsions:
REMARK  status: ('A' for Active; 'I' for Inactive)
ROOT
ATOM      1  C   UNL d   1       0.753  -1.719   0.998  0.00  0.00     0.124 A 
ATOM      2  C1  UNL d   1      -0.026  -2.338   1.965  0.00  0.00     0.062 A 
ATOM      3  C2  UNL d   1      -1.246  -1.783   2.342  0.00  0.00     0.162 A 
ATOM      4  C3  UNL d   1      -1.694  -0.602   1.751  0.00  0.00    -0.034 A 
ATOM      5  C4  UNL d   1      -0.904   0.016   0.780  0.00  0.00     0.162 A 
ATOM      6  C5  UNL d   1       0.314  -0.543   0.406  0.00  0.00     0.062 A 
ATOM      7  F   UNL d   1       1.066   0.057  -0.528  0.00  0.00    -0.097 F 
ATOM      8  F1  UNL d   1      -1.305   1.153   0.192  0.00  0.00    -0.096 F 
ATOM      9  I   UNL d   1      -3.517   0.231   2.313  0.00  0.00    -0.060 I 
ATOM     10  F2  UNL d   1      -1.978  -2.403   3.279  0.00  0.00    -0.096 F 
ATOM     11  F3  UNL d   1       0.396  -3.474   2.538  0.00  0.00    -0.097 F 
ATOM     12  F4  UNL d   1       1.926  -2.255   0.637  0.00  0.00    -0.092 F 
ENDROOT
TORSDOF 0
ENDMDL
