MODEL 1
REMARK minimizedAffinity -0.225115433
REMARK minimizedRMSD -1
REMARK  0 active torsions:
REMARK  status: ('A' for Active; 'I' for Inactive)
ROOT
ATOM      1  C   UNL d   1      -1.026   1.525  -2.079  0.00  0.00     0.124 A 
ATOM      2  C1  UNL d   1       0.131   1.707  -1.335  0.00  0.00     0.062 A 
ATOM      3  C2  UNL d   1       0.373   0.920  -0.213  0.00  0.00     0.162 A 
ATOM      4  C3  UNL d   1      -0.544  -0.059   0.171  0.00  0.00    -0.034 A 
ATOM      5  C4  UNL d   1      -1.706  -0.236  -0.583  0.00  0.00     0.162 A 
ATOM      6  C5  UNL d   1      -1.943   0.554  -1.703  0.00  0.00     0.062 A 
ATOM      7  F   UNL d   1      -3.062   0.377  -2.421  0.00  0.00    -0.097 F 
ATOM      8  F1  UNL d   1      -2.609  -1.167  -0.242  0.00  0.00    -0.096 F 
ATOM      9  I   UNL d   1      -0.186  -1.239   1.847  0.00  0.00    -0.060 I 
ATOM     10  F2  UNL d   1       1.499   1.118   0.488  0.00  0.00    -0.096 F 
ATOM     11  F3  UNL d   1       1.018   2.646  -1.696  0.00  0.00    -0.097 F 
ATOM     12  F4  UNL d   1      -1.257   2.285  -3.158  0.00  0.00    -0.092 F 
ENDROOT
TORSDOF 0
ENDMDL
