MODEL 1
REMARK minimizedAffinity 3.44184422
REMARK minimizedRMSD -1
REMARK  0 active torsions:
REMARK  status: ('A' for Active; 'I' for Inactive)
ROOT
ATOM      1  C   UNL d   1       0.324   2.918  -2.669  0.00  0.00     0.124 A 
ATOM      2  C1  UNL d   1      -0.904   2.391  -2.295  0.00  0.00     0.062 A 
ATOM      3  C2  UNL d   1      -0.965   1.206  -1.568  0.00  0.00     0.162 A 
ATOM      4  C3  UNL d   1       0.207   0.540  -1.207  0.00  0.00    -0.034 A 
ATOM      5  C4  UNL d   1       1.439   1.076  -1.587  0.00  0.00     0.162 A 
ATOM      6  C5  UNL d   1       1.494   2.261  -2.315  0.00  0.00     0.062 A 
ATOM      7  F   UNL d   1       2.682   2.769  -2.674  0.00  0.00    -0.097 F 
ATOM      8  F1  UNL d   1       2.585   0.462  -1.258  0.00  0.00    -0.096 F 
ATOM      9  I   UNL d   1       0.121  -1.232  -0.120  0.00  0.00    -0.060 I 
ATOM     10  F2  UNL d   1      -2.165   0.719  -1.220  0.00  0.00    -0.096 F 
ATOM     11  F3  UNL d   1      -2.035   3.023  -2.637  0.00  0.00    -0.097 F 
ATOM     12  F4  UNL d   1       0.380   4.058  -3.369  0.00  0.00    -0.092 F 
ENDROOT
TORSDOF 0
ENDMDL
