MODEL 1
REMARK minimizedAffinity -4.57245255
REMARK minimizedRMSD -1
REMARK  0 active torsions:
REMARK  status: ('A' for Active; 'I' for Inactive)
ROOT
ATOM      1  C   UNL d   1       1.449  -2.727   2.018  0.00  0.00     0.020 A 
ATOM      2  C1  UNL d   1       0.104  -2.434   2.238  0.00  0.00     0.020 A 
ATOM      3  C2  UNL d   1      -0.543  -1.485   1.443  0.00  0.00     0.034 A 
ATOM      4  C3  UNL d   1       0.156  -0.826   0.425  0.00  0.00     0.017 A 
ATOM      5  C4  UNL d   1       1.507  -1.121   0.205  0.00  0.00     0.017 A 
ATOM      6  C5  UNL d   1       2.149  -2.072   1.004  0.00  0.00     0.034 A 
ATOM      7 Cl   UNL d   1       2.435  -0.349  -1.032  0.00  0.00    -0.070 Cl
ATOM      8 Cl1  UNL d   1      -0.706   0.336  -0.520  0.00  0.00    -0.070 Cl
ENDROOT
TORSDOF 0
ENDMDL
