MODEL 1
REMARK minimizedAffinity -3.67831182
REMARK minimizedRMSD -1
REMARK  0 active torsions:
REMARK  status: ('A' for Active; 'I' for Inactive)
ROOT
ATOM      1  C   UNL d   1      -1.879   0.969  -3.017  0.00  0.00     0.020 A 
ATOM      2  C1  UNL d   1      -3.027   1.287  -2.292  0.00  0.00     0.020 A 
ATOM      3  C2  UNL d   1      -2.981   1.338  -0.897  0.00  0.00     0.034 A 
ATOM      4  C3  UNL d   1      -1.784   1.071  -0.223  0.00  0.00     0.017 A 
ATOM      5  C4  UNL d   1      -0.632   0.753  -0.951  0.00  0.00     0.017 A 
ATOM      6  C5  UNL d   1      -0.684   0.703  -2.347  0.00  0.00     0.034 A 
ATOM      7 Cl   UNL d   1       0.881   0.411  -0.188  0.00  0.00    -0.070 Cl
ATOM      8 Cl1  UNL d   1      -1.800   1.153   1.503  0.00  0.00    -0.070 Cl
ENDROOT
TORSDOF 0
ENDMDL
