MODEL 1
REMARK minimizedAffinity -1.80543089
REMARK minimizedRMSD -1
REMARK  0 active torsions:
REMARK  status: ('A' for Active; 'I' for Inactive)
ROOT
ATOM      1  C   UNL d   1       1.723   0.251  -0.575  0.00  0.00     0.020 A 
ATOM      2  C1  UNL d   1       0.358   0.535  -0.559  0.00  0.00     0.020 A 
ATOM      3  C2  UNL d   1      -0.523  -0.310   0.120  0.00  0.00     0.034 A 
ATOM      4  C3  UNL d   1      -0.040  -1.443   0.786  0.00  0.00     0.017 A 
ATOM      5  C4  UNL d   1       1.330  -1.727   0.769  0.00  0.00     0.017 A 
ATOM      6  C5  UNL d   1       2.208  -0.878   0.088  0.00  0.00     0.034 A 
ATOM      7 Cl   UNL d   1       2.000  -3.106   1.567  0.00  0.00    -0.070 Cl
ATOM      8 Cl1  UNL d   1      -1.187  -2.443   1.605  0.00  0.00    -0.070 Cl
ENDROOT
TORSDOF 0
ENDMDL
