MODEL 1
REMARK minimizedAffinity -4.18682575
REMARK minimizedRMSD -1
REMARK  0 active torsions:
REMARK  status: ('A' for Active; 'I' for Inactive)
ROOT
ATOM      1  C   UNL d   1       0.321  -2.430   1.107  0.00  0.00     0.020 A 
ATOM      2  C1  UNL d   1       1.703  -2.470   1.285  0.00  0.00     0.020 A 
ATOM      3  C2  UNL d   1       2.508  -1.475   0.726  0.00  0.00     0.034 A 
ATOM      4  C3  UNL d   1       1.931  -0.436  -0.014  0.00  0.00     0.017 A 
ATOM      5  C4  UNL d   1       0.543  -0.398  -0.192  0.00  0.00     0.017 A 
ATOM      6  C5  UNL d   1      -0.258  -1.397   0.370  0.00  0.00     0.034 A 
ATOM      7 Cl   UNL d   1      -0.242   0.852  -1.092  0.00  0.00    -0.070 Cl
ATOM      8 Cl1  UNL d   1       2.986   0.761  -0.677  0.00  0.00    -0.070 Cl
ENDROOT
TORSDOF 0
ENDMDL
