MODEL 1
REMARK minimizedAffinity -2.75531673
REMARK minimizedRMSD -1
REMARK  0 active torsions:
REMARK  status: ('A' for Active; 'I' for Inactive)
ROOT
ATOM      1  C   UNL d   1       0.955   0.895  -0.751  0.00  0.00     0.020 A 
ATOM      2  C1  UNL d   1      -0.358   1.178  -0.378  0.00  0.00     0.020 A 
ATOM      3  C2  UNL d   1      -1.109   0.222   0.309  0.00  0.00     0.034 A 
ATOM      4  C3  UNL d   1      -0.548  -1.021   0.625  0.00  0.00     0.017 A 
ATOM      5  C4  UNL d   1       0.770  -1.303   0.250  0.00  0.00     0.017 A 
ATOM      6  C5  UNL d   1       1.518  -0.342  -0.438  0.00  0.00     0.034 A 
ATOM      7 Cl   UNL d   1       1.531  -2.814   0.605  0.00  0.00    -0.070 Cl
ATOM      8 Cl1  UNL d   1      -1.535  -2.155   1.477  0.00  0.00    -0.070 Cl
ENDROOT
TORSDOF 0
ENDMDL
