MODEL 1
REMARK minimizedAffinity -2.57989717
REMARK minimizedRMSD -1
REMARK  0 active torsions:
REMARK  status: ('A' for Active; 'I' for Inactive)
ROOT
ATOM      1  C   UNL d   1      -0.980  -0.146   0.266  0.00  0.00     0.020 A 
ATOM      2  C1  UNL d   1      -0.146   0.821  -0.294  0.00  0.00     0.020 A 
ATOM      3  C2  UNL d   1       1.222   0.573  -0.422  0.00  0.00     0.034 A 
ATOM      4  C3  UNL d   1       1.761  -0.644   0.012  0.00  0.00     0.017 A 
ATOM      5  C4  UNL d   1       0.923  -1.614   0.574  0.00  0.00     0.017 A 
ATOM      6  C5  UNL d   1      -0.447  -1.360   0.699  0.00  0.00     0.034 A 
ATOM      7 Cl   UNL d   1       1.514  -3.139   1.131  0.00  0.00    -0.070 Cl
ATOM      8 Cl1  UNL d   1       3.461  -0.882  -0.177  0.00  0.00    -0.070 Cl
ENDROOT
TORSDOF 0
ENDMDL
