MODEL 1
REMARK minimizedAffinity -3.62230849
REMARK minimizedRMSD -1
REMARK  0 active torsions:
REMARK  status: ('A' for Active; 'I' for Inactive)
ROOT
ATOM      1  C   UNL d   1       2.179  -1.519   0.561  0.00  0.00     0.020 A 
ATOM      2  C1  UNL d   1       2.374  -0.536  -0.409  0.00  0.00     0.020 A 
ATOM      3  C2  UNL d   1       1.354   0.374  -0.697  0.00  0.00     0.034 A 
ATOM      4  C3  UNL d   1       0.134   0.302  -0.014  0.00  0.00     0.017 A 
ATOM      5  C4  UNL d   1      -0.060  -0.685   0.959  0.00  0.00     0.017 A 
ATOM      6  C5  UNL d   1       0.964  -1.593   1.243  0.00  0.00     0.034 A 
ATOM      7 Cl   UNL d   1      -1.538  -0.836   1.843  0.00  0.00    -0.070 Cl
ATOM      8 Cl1  UNL d   1      -1.083   1.459  -0.421  0.00  0.00    -0.070 Cl
ENDROOT
TORSDOF 0
ENDMDL
