MODEL 1
REMARK minimizedAffinity -0.174304053
REMARK minimizedRMSD -1
REMARK  0 active torsions:
REMARK  status: ('A' for Active; 'I' for Inactive)
ROOT
ATOM      1  C   UNL d   1       1.411   1.129  -0.353  0.00  0.00     0.020 A 
ATOM      2  C1  UNL d   1       0.390   0.188  -0.480  0.00  0.00     0.020 A 
ATOM      3  C2  UNL d   1       0.523  -1.070   0.112  0.00  0.00     0.034 A 
ATOM      4  C3  UNL d   1       1.678  -1.390   0.834  0.00  0.00     0.017 A 
ATOM      5  C4  UNL d   1       2.702  -0.444   0.961  0.00  0.00     0.017 A 
ATOM      6  C5  UNL d   1       2.565   0.814   0.366  0.00  0.00     0.034 A 
ATOM      7 Cl   UNL d   1       4.158  -0.766   1.836  0.00  0.00    -0.070 Cl
ATOM      8 Cl1  UNL d   1       1.775  -2.964   1.541  0.00  0.00    -0.070 Cl
ENDROOT
TORSDOF 0
ENDMDL
