MODEL 1
REMARK minimizedAffinity -1.70750201
REMARK minimizedRMSD -1
REMARK  0 active torsions:
REMARK  status: ('A' for Active; 'I' for Inactive)
ROOT
ATOM      1  C   UNL d   1      -1.122   1.028  -0.107  0.00  0.00     0.020 A 
ATOM      2  C1  UNL d   1       0.057   0.646  -0.745  0.00  0.00     0.020 A 
ATOM      3  C2  UNL d   1       0.683  -0.552  -0.395  0.00  0.00     0.034 A 
ATOM      4  C3  UNL d   1       0.131  -1.372   0.596  0.00  0.00     0.017 A 
ATOM      5  C4  UNL d   1      -1.053  -0.987   1.236  0.00  0.00     0.017 A 
ATOM      6  C5  UNL d   1      -1.676   0.213   0.881  0.00  0.00     0.034 A 
ATOM      7 Cl   UNL d   1      -1.794  -1.946   2.468  0.00  0.00    -0.070 Cl
ATOM      8 Cl1  UNL d   1       0.959  -2.840   0.978  0.00  0.00    -0.070 Cl
ENDROOT
TORSDOF 0
ENDMDL
