MODEL 1
REMARK minimizedAffinity -4.07143736
REMARK minimizedRMSD -1
REMARK  0 active torsions:
REMARK  status: ('A' for Active; 'I' for Inactive)
ROOT
ATOM      1  C   UNL d   1       1.889  -2.506   0.773  0.00  0.00     0.020 A 
ATOM      2  C1  UNL d   1       0.499  -2.556   0.673  0.00  0.00     0.020 A 
ATOM      3  C2  UNL d   1      -0.212  -1.431   0.251  0.00  0.00     0.034 A 
ATOM      4  C3  UNL d   1       0.466  -0.250  -0.072  0.00  0.00     0.017 A 
ATOM      5  C4  UNL d   1       1.862  -0.200   0.029  0.00  0.00     0.017 A 
ATOM      6  C5  UNL d   1       2.568  -1.330   0.452  0.00  0.00     0.034 A 
ATOM      7 Cl   UNL d   1       2.768   1.221  -0.353  0.00  0.00    -0.070 Cl
ATOM      8 Cl1  UNL d   1      -0.476   1.103  -0.587  0.00  0.00    -0.070 Cl
ENDROOT
TORSDOF 0
ENDMDL
