MODEL 1
REMARK minimizedAffinity -4.36297083
REMARK minimizedRMSD -1
REMARK  0 active torsions:
REMARK  status: ('A' for Active; 'I' for Inactive)
ROOT
ATOM      1  C   UNL d   1       0.048  -2.597   1.129  0.00  0.00     0.020 A 
ATOM      2  C1  UNL d   1       1.404  -2.398   1.389  0.00  0.00     0.020 A 
ATOM      3  C2  UNL d   1       2.026  -1.216   0.981  0.00  0.00     0.034 A 
ATOM      4  C3  UNL d   1       1.294  -0.230   0.310  0.00  0.00     0.017 A 
ATOM      5  C4  UNL d   1      -0.066  -0.431   0.050  0.00  0.00     0.017 A 
ATOM      6  C5  UNL d   1      -0.685  -1.616   0.461  0.00  0.00     0.034 A 
ATOM      7 Cl   UNL d   1      -1.036   0.740  -0.773  0.00  0.00    -0.070 Cl
ATOM      8 Cl1  UNL d   1       2.128   1.206  -0.166  0.00  0.00    -0.070 Cl
ENDROOT
TORSDOF 0
ENDMDL
