MODEL 1
REMARK minimizedAffinity -3.71351337
REMARK minimizedRMSD -1
REMARK  0 active torsions:
REMARK  status: ('A' for Active; 'I' for Inactive)
ROOT
ATOM      1  C   UNL d   1       1.466   0.775  -0.636  0.00  0.00     0.020 A 
ATOM      2  C1  UNL d   1       0.187   1.274  -0.393  0.00  0.00     0.020 A 
ATOM      3  C2  UNL d   1      -0.771   0.468   0.225  0.00  0.00     0.034 A 
ATOM      4  C3  UNL d   1      -0.452  -0.841   0.603  0.00  0.00     0.017 A 
ATOM      5  C4  UNL d   1       0.832  -1.342   0.358  0.00  0.00     0.017 A 
ATOM      6  C5  UNL d   1       1.788  -0.531  -0.261  0.00  0.00     0.034 A 
ATOM      7 Cl   UNL d   1       1.300  -2.947   0.796  0.00  0.00    -0.070 Cl
ATOM      8 Cl1  UNL d   1      -1.686  -1.781   1.364  0.00  0.00    -0.070 Cl
ENDROOT
TORSDOF 0
ENDMDL
