MODEL 1
REMARK minimizedAffinity -2.88239098
REMARK minimizedRMSD -1
REMARK  0 active torsions:
REMARK  status: ('A' for Active; 'I' for Inactive)
ROOT
ATOM      1  C   UNL d   1       1.890  -2.465   1.035  0.00  0.00     0.020 A 
ATOM      2  C1  UNL d   1       0.566  -2.659   0.641  0.00  0.00     0.020 A 
ATOM      3  C2  UNL d   1      -0.173  -1.592   0.126  0.00  0.00     0.034 A 
ATOM      4  C3  UNL d   1       0.411  -0.326   0.005  0.00  0.00     0.017 A 
ATOM      5  C4  UNL d   1       1.739  -0.132   0.401  0.00  0.00     0.017 A 
ATOM      6  C5  UNL d   1       2.475  -1.204   0.915  0.00  0.00     0.034 A 
ATOM      7 Cl   UNL d   1       2.528   1.402   0.281  0.00  0.00    -0.070 Cl
ATOM      8 Cl1  UNL d   1      -0.562   0.949  -0.639  0.00  0.00    -0.070 Cl
ENDROOT
TORSDOF 0
ENDMDL
