MODEL 1
REMARK minimizedAffinity -2.41112661
REMARK minimizedRMSD -1
REMARK  0 active torsions:
REMARK  status: ('A' for Active; 'I' for Inactive)
ROOT
ATOM      1  C   UNL d   1      -0.967   0.298  -0.268  0.00  0.00     0.020 A 
ATOM      2  C1  UNL d   1      -1.053  -0.896   0.448  0.00  0.00     0.020 A 
ATOM      3  C2  UNL d   1       0.111  -1.569   0.824  0.00  0.00     0.034 A 
ATOM      4  C3  UNL d   1       1.366  -1.049   0.485  0.00  0.00     0.017 A 
ATOM      5  C4  UNL d   1       1.451   0.149  -0.233  0.00  0.00     0.017 A 
ATOM      6  C5  UNL d   1       0.282   0.819  -0.607  0.00  0.00     0.034 A 
ATOM      7 Cl   UNL d   1       2.963   0.852  -0.688  0.00  0.00    -0.070 Cl
ATOM      8 Cl1  UNL d   1       2.764  -1.934   0.983  0.00  0.00    -0.070 Cl
ENDROOT
TORSDOF 0
ENDMDL
