MODEL 1
REMARK minimizedAffinity -4.00140333
REMARK minimizedRMSD -1
REMARK  0 active torsions:
REMARK  status: ('A' for Active; 'I' for Inactive)
ROOT
ATOM      1  C   UNL d   1       1.942  -0.803  -0.292  0.00  0.00     0.020 A 
ATOM      2  C1  UNL d   1       1.837  -1.966   0.471  0.00  0.00     0.020 A 
ATOM      3  C2  UNL d   1       0.690  -2.201   1.231  0.00  0.00     0.034 A 
ATOM      4  C3  UNL d   1      -0.358  -1.273   1.231  0.00  0.00     0.017 A 
ATOM      5  C4  UNL d   1      -0.252  -0.106   0.465  0.00  0.00     0.017 A 
ATOM      6  C5  UNL d   1       0.899   0.124  -0.295  0.00  0.00     0.034 A 
ATOM      7 Cl   UNL d   1      -1.503   1.086   0.413  0.00  0.00    -0.070 Cl
ATOM      8 Cl1  UNL d   1      -1.747  -1.628   2.194  0.00  0.00    -0.070 Cl
ENDROOT
TORSDOF 0
ENDMDL
