MODEL 1
REMARK minimizedAffinity -2.77991891
REMARK minimizedRMSD -1
REMARK  0 active torsions:
REMARK  status: ('A' for Active; 'I' for Inactive)
ROOT
ATOM      1  C   UNL d   1      -0.375   3.273  -3.466  0.00  0.00     0.020 A 
ATOM      2  C1  UNL d   1      -1.379   2.882  -4.351  0.00  0.00     0.020 A 
ATOM      3  C2  UNL d   1      -2.330   1.940  -3.954  0.00  0.00     0.034 A 
ATOM      4  C3  UNL d   1      -2.279   1.385  -2.670  0.00  0.00     0.017 A 
ATOM      5  C4  UNL d   1      -1.271   1.778  -1.783  0.00  0.00     0.017 A 
ATOM      6  C5  UNL d   1      -0.321   2.722  -2.185  0.00  0.00     0.034 A 
ATOM      7 Cl   UNL d   1      -1.143   1.138  -0.183  0.00  0.00    -0.070 Cl
ATOM      8 Cl1  UNL d   1      -3.488   0.225  -2.248  0.00  0.00    -0.070 Cl
ENDROOT
TORSDOF 0
ENDMDL
