MODEL 1
REMARK minimizedAffinity -4.61423016
REMARK minimizedRMSD -1
REMARK  0 active torsions:
REMARK  status: ('A' for Active; 'I' for Inactive)
ROOT
ATOM      1  C2' OXE d   1       1.395  -1.033   2.812  0.00  0.00     0.078 C 
ATOM      2  C1' OXE d   1      -1.234  -0.209   2.274  0.00  0.00     0.078 C 
ATOM      3  C1  OXE d   1      -0.311  -0.427   1.101  0.00  0.00    -0.078 A 
ATOM      4  C2  OXE d   1       0.987  -0.785   1.376  0.00  0.00    -0.078 A 
ATOM      5  C3  OXE d   1       1.865  -1.051   0.329  0.00  0.00     0.003 A 
ATOM      6  C4  OXE d   1       1.482  -0.810  -0.996  0.00  0.00    -0.002 A 
ATOM      7  C5  OXE d   1       0.177  -0.407  -1.296  0.00  0.00    -0.002 A 
ATOM      8  C6  OXE d   1      -0.743  -0.252  -0.264  0.00  0.00     0.003 A 
ENDROOT
TORSDOF 0
ENDMDL
