MODEL 1
REMARK minimizedAffinity -3.8116827
REMARK minimizedRMSD -1
REMARK  0 active torsions:
REMARK  status: ('A' for Active; 'I' for Inactive)
ROOT
ATOM      1  C2' OXE d   1       2.396  -1.112   0.146  0.00  0.00     0.078 C 
ATOM      2  C1' OXE d   1       1.393  -0.897   2.759  0.00  0.00     0.078 C 
ATOM      3  C1  OXE d   1       0.517  -0.418   1.628  0.00  0.00    -0.078 A 
ATOM      4  C2  OXE d   1       1.035  -0.485   0.356  0.00  0.00    -0.078 A 
ATOM      5  C3  OXE d   1       0.248  -0.108  -0.729  0.00  0.00     0.003 A 
ATOM      6  C4  OXE d   1      -1.006   0.481  -0.524  0.00  0.00    -0.002 A 
ATOM      7  C5  OXE d   1      -1.535   0.595   0.765  0.00  0.00    -0.002 A 
ATOM      8  C6  OXE d   1      -0.806   0.112   1.846  0.00  0.00     0.003 A 
ENDROOT
TORSDOF 0
ENDMDL
