MODEL 1
REMARK minimizedAffinity -3.96460772
REMARK minimizedRMSD -1
REMARK  0 active torsions:
REMARK  status: ('A' for Active; 'I' for Inactive)
ROOT
ATOM      1  C2' OXE d   1      -2.227   0.895  -1.851  0.00  0.00     0.078 C 
ATOM      2  C1' OXE d   1       0.565   0.847  -2.145  0.00  0.00     0.078 C 
ATOM      3  C1  OXE d   1      -0.007   0.481  -0.798  0.00  0.00    -0.078 A 
ATOM      4  C2  OXE d   1      -1.372   0.552  -0.650  0.00  0.00    -0.078 A 
ATOM      5  C3  OXE d   1      -1.955   0.173   0.555  0.00  0.00     0.003 A 
ATOM      6  C4  OXE d   1      -1.157  -0.133   1.664  0.00  0.00    -0.002 A 
ATOM      7  C5  OXE d   1       0.236  -0.172   1.546  0.00  0.00    -0.002 A 
ATOM      8  C6  OXE d   1       0.824   0.090   0.314  0.00  0.00     0.003 A 
ENDROOT
TORSDOF 0
ENDMDL
