MODEL 1
REMARK minimizedAffinity -2.65142894
REMARK minimizedRMSD -1
REMARK  0 active torsions:
REMARK  status: ('A' for Active; 'I' for Inactive)
ROOT
ATOM      1  C2' OXE d   1      -1.326   0.716   1.566  0.00  0.00     0.078 C 
ATOM      2  C1' OXE d   1       0.539  -1.183   2.457  0.00  0.00     0.078 C 
ATOM      3  C1  OXE d   1       0.550  -0.820   0.993  0.00  0.00    -0.078 A 
ATOM      4  C2  OXE d   1      -0.397   0.076   0.557  0.00  0.00    -0.078 A 
ATOM      5  C3  OXE d   1      -0.396   0.487  -0.773  0.00  0.00     0.003 A 
ATOM      6  C4  OXE d   1       0.460  -0.118  -1.701  0.00  0.00    -0.002 A 
ATOM      7  C5  OXE d   1       1.405  -1.061  -1.286  0.00  0.00    -0.002 A 
ATOM      8  C6  OXE d   1       1.492  -1.391   0.062  0.00  0.00     0.003 A 
ENDROOT
TORSDOF 0
ENDMDL
