MODEL 1
REMARK minimizedAffinity 0.290821463
REMARK minimizedRMSD -1
REMARK  0 active torsions:
REMARK  status: ('A' for Active; 'I' for Inactive)
ROOT
ATOM      1  C2' OXE d   1      -1.072   3.179  -2.165  0.00  0.00     0.078 C 
ATOM      2  C1' OXE d   1       1.681   2.635  -2.112  0.00  0.00     0.078 C 
ATOM      3  C1  OXE d   1       0.769   1.721  -1.333  0.00  0.00    -0.078 A 
ATOM      4  C2  OXE d   1      -0.572   2.022  -1.326  0.00  0.00    -0.078 A 
ATOM      5  C3  OXE d   1      -1.465   1.181  -0.668  0.00  0.00     0.003 A 
ATOM      6  C4  OXE d   1      -0.993   0.120   0.114  0.00  0.00    -0.002 A 
ATOM      7  C5  OXE d   1       0.373  -0.181   0.153  0.00  0.00    -0.002 A 
ATOM      8  C6  OXE d   1       1.260   0.583  -0.597  0.00  0.00     0.003 A 
ENDROOT
TORSDOF 0
ENDMDL
