MODEL 1
REMARK minimizedAffinity -4.95308685
REMARK minimizedRMSD -1
REMARK  0 active torsions:
REMARK  status: ('A' for Active; 'I' for Inactive)
ROOT
ATOM      1  C2' OXE d   1       1.922  -1.463  -0.020  0.00  0.00     0.078 C 
ATOM      2  C1' OXE d   1       1.152  -1.376   2.678  0.00  0.00     0.078 C 
ATOM      3  C1  OXE d   1       0.188  -0.831   1.654  0.00  0.00    -0.078 A 
ATOM      4  C2  OXE d   1       0.592  -0.835   0.340  0.00  0.00    -0.078 A 
ATOM      5  C3  OXE d   1      -0.280  -0.394  -0.651  0.00  0.00     0.003 A 
ATOM      6  C4  OXE d   1      -1.503   0.194  -0.308  0.00  0.00    -0.002 A 
ATOM      7  C5  OXE d   1      -1.918   0.244   1.027  0.00  0.00    -0.002 A 
ATOM      8  C6  OXE d   1      -1.104  -0.302   2.014  0.00  0.00     0.003 A 
ENDROOT
TORSDOF 0
ENDMDL
