MODEL 1
REMARK minimizedAffinity -5.05383825
REMARK minimizedRMSD -1
REMARK  0 active torsions:
REMARK  status: ('A' for Active; 'I' for Inactive)
ROOT
ATOM      1  C2' OXE d   1      -0.381   0.513  -0.979  0.00  0.00     0.078 C 
ATOM      2  C1' OXE d   1      -1.888   0.322   1.382  0.00  0.00     0.078 C 
ATOM      3  C1  OXE d   1      -0.492  -0.247   1.391  0.00  0.00    -0.078 A 
ATOM      4  C2  OXE d   1       0.222  -0.191   0.217  0.00  0.00    -0.078 A 
ATOM      5  C3  OXE d   1       1.534  -0.653   0.186  0.00  0.00     0.003 A 
ATOM      6  C4  OXE d   1       2.081  -1.312   1.294  0.00  0.00    -0.002 A 
ATOM      7  C5  OXE d   1       1.357  -1.415   2.487  0.00  0.00    -0.002 A 
ATOM      8  C6  OXE d   1       0.088  -0.852   2.565  0.00  0.00     0.003 A 
ENDROOT
TORSDOF 0
ENDMDL
