MODEL 1
REMARK minimizedAffinity -3.27096415
REMARK minimizedRMSD -1
REMARK  0 active torsions:
REMARK  status: ('A' for Active; 'I' for Inactive)
ROOT
ATOM      1  C2' OXE d   1      -0.172   1.499  -0.802  0.00  0.00     0.078 C 
ATOM      2  C1' OXE d   1       0.992  -1.016  -1.250  0.00  0.00     0.078 C 
ATOM      3  C1  OXE d   1       0.862  -0.544   0.177  0.00  0.00    -0.078 A 
ATOM      4  C2  OXE d   1       0.335   0.708   0.384  0.00  0.00    -0.078 A 
ATOM      5  C3  OXE d   1       0.143   1.169   1.683  0.00  0.00     0.003 A 
ATOM      6  C4  OXE d   1       0.623   0.435   2.774  0.00  0.00    -0.002 A 
ATOM      7  C5  OXE d   1       1.200  -0.825   2.583  0.00  0.00    -0.002 A 
ATOM      8  C6  OXE d   1       1.288  -1.347   1.297  0.00  0.00     0.003 A 
ENDROOT
TORSDOF 0
ENDMDL
