MODEL 1
REMARK minimizedAffinity -0.919721544
REMARK minimizedRMSD -1
REMARK  0 active torsions:
REMARK  status: ('A' for Active; 'I' for Inactive)
ROOT
ATOM      1  C2' OXE d   1      -0.136  -0.354  -1.277  0.00  0.00     0.078 C 
ATOM      2  C1' OXE d   1      -0.164   2.330  -0.456  0.00  0.00     0.078 C 
ATOM      3  C1  OXE d   1      -0.143   1.268   0.614  0.00  0.00    -0.078 A 
ATOM      4  C2  OXE d   1      -0.177  -0.044   0.204  0.00  0.00    -0.078 A 
ATOM      5  C3  OXE d   1      -0.104  -1.063   1.148  0.00  0.00     0.003 A 
ATOM      6  C4  OXE d   1      -0.153  -0.768   2.516  0.00  0.00    -0.002 A 
ATOM      7  C5  OXE d   1      -0.159   0.561   2.955  0.00  0.00    -0.002 A 
ATOM      8  C6  OXE d   1      -0.111   1.588   2.020  0.00  0.00     0.003 A 
ENDROOT
TORSDOF 0
ENDMDL
