MODEL 1
REMARK minimizedAffinity -2.25700212
REMARK minimizedRMSD -1
REMARK  0 active torsions:
REMARK  status: ('A' for Active; 'I' for Inactive)
ROOT
ATOM      1  C2' OXE d   1       1.063   0.369   4.010  0.00  0.00     0.078 C 
ATOM      2  C1' OXE d   1       1.502  -1.511   1.973  0.00  0.00     0.078 C 
ATOM      3  C1  OXE d   1       0.147  -0.853   2.043  0.00  0.00    -0.078 A 
ATOM      4  C2  OXE d   1      -0.074   0.031   3.071  0.00  0.00    -0.078 A 
ATOM      5  C3  OXE d   1      -1.289   0.707   3.150  0.00  0.00     0.003 A 
ATOM      6  C4  OXE d   1      -2.339   0.381   2.283  0.00  0.00    -0.002 A 
ATOM      7  C5  OXE d   1      -2.148  -0.546   1.253  0.00  0.00    -0.002 A 
ATOM      8  C6  OXE d   1      -0.901  -1.139   1.093  0.00  0.00     0.003 A 
ENDROOT
TORSDOF 0
ENDMDL
