MODEL 1
REMARK minimizedAffinity -3.23710203
REMARK minimizedRMSD -1
REMARK  1 active torsions:
REMARK  status: ('A' for Active; 'I' for Inactive)
REMARK    1  A    between atoms: C1_2  and  C2_3 
ROOT
ATOM      1  C2  UNL d   1       1.098   1.404  -0.590  0.00  0.00    -0.081 A 
ATOM      2  C3  UNL d   1       1.377   2.174  -1.726  0.00  0.00     0.006 A 
ATOM      3  C4  UNL d   1       1.567   3.553  -1.617  0.00  0.00     0.002 A 
ATOM      4  C5  UNL d   1       1.490   4.184  -0.371  0.00  0.00    -0.080 A 
ATOM      5  C6  UNL d   1       1.722   5.660  -0.236  0.00  0.00     0.076 C 
ATOM      6  C7  UNL d   1       1.194   3.418   0.762  0.00  0.00     0.002 A 
ATOM      7  C8  UNL d   1       1.003   2.038   0.653  0.00  0.00     0.006 A 
ENDROOT
BRANCH   1   8
ATOM      8  C1  UNL d   1       0.957  -0.094  -0.695  0.00  0.00     0.054 C 
ATOM      9  C   UNL d   1       1.411  -0.598  -2.057  0.00  0.00     0.018 C 
ENDBRANCH   1   8
TORSDOF 1
ENDMDL
