MODEL 1
REMARK minimizedAffinity -1.60416472
REMARK minimizedRMSD -1
REMARK  1 active torsions:
REMARK  status: ('A' for Active; 'I' for Inactive)
REMARK    1  A    between atoms: C1_2  and  C2_3 
ROOT
ATOM      1  C2  UNL d   1       1.327   3.785  -0.688  0.00  0.00    -0.081 A 
ATOM      2  C3  UNL d   1       1.191   3.419  -2.033  0.00  0.00     0.006 A 
ATOM      3  C4  UNL d   1       0.916   2.095  -2.382  0.00  0.00     0.002 A 
ATOM      4  C5  UNL d   1       0.766   1.117  -1.393  0.00  0.00    -0.080 A 
ATOM      5  C6  UNL d   1       0.441  -0.303  -1.753  0.00  0.00     0.076 C 
ATOM      6  C7  UNL d   1       0.919   1.479  -0.050  0.00  0.00     0.002 A 
ATOM      7  C8  UNL d   1       1.194   2.803   0.299  0.00  0.00     0.006 A 
ENDROOT
BRANCH   1   8
ATOM      8  C1  UNL d   1       1.558   5.225  -0.305  0.00  0.00     0.054 C 
ATOM      9  C   UNL d   1       2.221   5.998  -1.436  0.00  0.00     0.018 C 
ENDBRANCH   1   8
TORSDOF 1
ENDMDL
