MODEL 1
REMARK minimizedAffinity 0.512355983
REMARK minimizedRMSD -1
REMARK  1 active torsions:
REMARK  status: ('A' for Active; 'I' for Inactive)
REMARK    1  A    between atoms: C1_2  and  C2_3 
ROOT
ATOM      1  C2  UNL d   1       1.240   4.050  -0.596  0.00  0.00    -0.081 A 
ATOM      2  C3  UNL d   1       1.127   3.194   0.506  0.00  0.00     0.006 A 
ATOM      3  C4  UNL d   1       1.038   1.812   0.322  0.00  0.00     0.002 A 
ATOM      4  C5  UNL d   1       1.067   1.263  -0.964  0.00  0.00    -0.080 A 
ATOM      5  C6  UNL d   1       1.002  -0.220  -1.173  0.00  0.00     0.076 C 
ATOM      6  C7  UNL d   1       1.162   2.120  -2.066  0.00  0.00     0.002 A 
ATOM      7  C8  UNL d   1       1.251   3.502  -1.884  0.00  0.00     0.006 A 
ENDROOT
BRANCH   1   8
ATOM      8  C1  UNL d   1       1.402   5.536  -0.399  0.00  0.00     0.054 C 
ATOM      9  C   UNL d   1       2.793   6.000  -0.807  0.00  0.00     0.018 C 
ENDBRANCH   1   8
TORSDOF 1
ENDMDL
