MODEL 1
REMARK minimizedAffinity -3.61244059
REMARK minimizedRMSD -1
REMARK  1 active torsions:
REMARK  status: ('A' for Active; 'I' for Inactive)
REMARK    1  A    between atoms: C1_2  and  C2_3 
ROOT
ATOM      1  C2  UNL d   1       1.687   3.721  -0.684  0.00  0.00    -0.081 A 
ATOM      2  C3  UNL d   1       1.324   3.520  -2.022  0.00  0.00     0.006 A 
ATOM      3  C4  UNL d   1       1.148   2.228  -2.522  0.00  0.00     0.002 A 
ATOM      4  C5  UNL d   1       1.325   1.115  -1.692  0.00  0.00    -0.080 A 
ATOM      5  C6  UNL d   1       1.111  -0.276  -2.208  0.00  0.00     0.076 C 
ATOM      6  C7  UNL d   1       1.705   1.315  -0.360  0.00  0.00     0.002 A 
ATOM      7  C8  UNL d   1       1.881   2.607   0.140  0.00  0.00     0.006 A 
ENDROOT
BRANCH   1   8
ATOM      8  C1  UNL d   1       1.814   5.115  -0.125  0.00  0.00     0.054 C 
ATOM      9  C   UNL d   1       2.657   6.000  -1.032  0.00  0.00     0.018 C 
ENDBRANCH   1   8
TORSDOF 1
ENDMDL
