MODEL 1
REMARK minimizedAffinity -3.23879862
REMARK minimizedRMSD -1
REMARK  1 active torsions:
REMARK  status: ('A' for Active; 'I' for Inactive)
REMARK    1  A    between atoms: C1_2  and  C2_3 
ROOT
ATOM      1  C2  UNL d   1       1.034   3.800  -0.162  0.00  0.00    -0.081 A 
ATOM      2  C3  UNL d   1       1.356   3.201  -1.386  0.00  0.00     0.006 A 
ATOM      3  C4  UNL d   1       1.203   1.823  -1.562  0.00  0.00     0.002 A 
ATOM      4  C5  UNL d   1       0.718   1.024  -0.521  0.00  0.00    -0.080 A 
ATOM      5  C6  UNL d   1       0.521  -0.451  -0.706  0.00  0.00     0.076 C 
ATOM      6  C7  UNL d   1       0.413   1.620   0.708  0.00  0.00     0.002 A 
ATOM      7  C8  UNL d   1       0.567   2.997   0.885  0.00  0.00     0.006 A 
ENDROOT
BRANCH   1   8
ATOM      8  C1  UNL d   1       1.136   5.294   0.011  0.00  0.00     0.054 C 
ATOM      9  C   UNL d   1       2.204   5.884  -0.900  0.00  0.00     0.018 C 
ENDBRANCH   1   8
TORSDOF 1
ENDMDL
