MODEL 1
REMARK minimizedAffinity 6.68608999
REMARK minimizedRMSD -1
REMARK  1 active torsions:
REMARK  status: ('A' for Active; 'I' for Inactive)
REMARK    1  A    between atoms: C1_2  and  C2_3 
ROOT
ATOM      1  C2  UNL d   1       1.304   3.750  -0.895  0.00  0.00    -0.081 A 
ATOM      2  C3  UNL d   1       1.858   2.740  -0.099  0.00  0.00     0.006 A 
ATOM      3  C4  UNL d   1       1.859   1.413  -0.538  0.00  0.00     0.002 A 
ATOM      4  C5  UNL d   1       1.315   1.077  -1.782  0.00  0.00    -0.080 A 
ATOM      5  C6  UNL d   1       1.337  -0.339  -2.278  0.00  0.00     0.076 C 
ATOM      6  C7  UNL d   1       0.745   2.083  -2.569  0.00  0.00     0.002 A 
ATOM      7  C8  UNL d   1       0.743   3.409  -2.130  0.00  0.00     0.006 A 
ENDROOT
BRANCH   1   8
ATOM      8  C1  UNL d   1       1.359   5.190  -0.453  0.00  0.00     0.054 C 
ATOM      9  C   UNL d   1       2.310   6.000  -1.323  0.00  0.00     0.018 C 
ENDBRANCH   1   8
TORSDOF 1
ENDMDL
