MODEL 1
REMARK minimizedAffinity 6.02818203
REMARK minimizedRMSD -1
REMARK  1 active torsions:
REMARK  status: ('A' for Active; 'I' for Inactive)
REMARK    1  A    between atoms: C1_2  and  C2_3 
ROOT
ATOM      1  C2  UNL d   1       1.827   4.194  -0.899  0.00  0.00    -0.081 A 
ATOM      2  C3  UNL d   1       1.650   3.279   0.146  0.00  0.00     0.006 A 
ATOM      3  C4  UNL d   1       1.245   1.969  -0.121  0.00  0.00     0.002 A 
ATOM      4  C5  UNL d   1       1.018   1.550  -1.436  0.00  0.00    -0.080 A 
ATOM      5  C6  UNL d   1       0.612   0.138  -1.739  0.00  0.00     0.076 C 
ATOM      6  C7  UNL d   1       1.178   2.469  -2.479  0.00  0.00     0.002 A 
ATOM      7  C8  UNL d   1       1.582   3.779  -2.213  0.00  0.00     0.006 A 
ENDROOT
BRANCH   1   8
ATOM      8  C1  UNL d   1       2.326   5.588  -0.620  0.00  0.00     0.054 C 
ATOM      9  C   UNL d   1       3.410   5.996  -1.607  0.00  0.00     0.018 C 
ENDBRANCH   1   8
TORSDOF 1
ENDMDL
