MODEL 1
REMARK minimizedAffinity -2.95485497
REMARK minimizedRMSD -1
REMARK  1 active torsions:
REMARK  status: ('A' for Active; 'I' for Inactive)
REMARK    1  A    between atoms: C1_2  and  C2_3 
ROOT
ATOM      1  C2  UNL d   1       1.146   3.844  -0.226  0.00  0.00    -0.081 A 
ATOM      2  C3  UNL d   1       0.832   3.033   0.872  0.00  0.00     0.006 A 
ATOM      3  C4  UNL d   1       0.779   1.644   0.733  0.00  0.00     0.002 A 
ATOM      4  C5  UNL d   1       1.047   1.043  -0.501  0.00  0.00    -0.080 A 
ATOM      5  C6  UNL d   1       1.023  -0.449  -0.656  0.00  0.00     0.076 C 
ATOM      6  C7  UNL d   1       1.343   1.854  -1.602  0.00  0.00     0.002 A 
ATOM      7  C8  UNL d   1       1.395   3.243  -1.464  0.00  0.00     0.006 A 
ENDROOT
BRANCH   1   8
ATOM      8  C1  UNL d   1       1.267   5.338  -0.064  0.00  0.00     0.054 C 
ATOM      9  C   UNL d   1       2.152   5.941  -1.146  0.00  0.00     0.018 C 
ENDBRANCH   1   8
TORSDOF 1
ENDMDL
