MODEL 1
REMARK minimizedAffinity 0.505872011
REMARK minimizedRMSD -1
REMARK  1 active torsions:
REMARK  status: ('A' for Active; 'I' for Inactive)
REMARK    1  A    between atoms: C1_2  and  C2_3 
ROOT
ATOM      1  C2  UNL d   1       1.292   4.024  -0.932  0.00  0.00    -0.081 A 
ATOM      2  C3  UNL d   1       1.145   3.442  -2.197  0.00  0.00     0.006 A 
ATOM      3  C4  UNL d   1       0.888   2.075  -2.321  0.00  0.00     0.002 A 
ATOM      4  C5  UNL d   1       0.766   1.269  -1.184  0.00  0.00    -0.080 A 
ATOM      5  C6  UNL d   1       0.460  -0.195  -1.303  0.00  0.00     0.076 C 
ATOM      6  C7  UNL d   1       0.930   1.847   0.079  0.00  0.00     0.002 A 
ATOM      7  C8  UNL d   1       1.188   3.214   0.204  0.00  0.00     0.006 A 
ENDROOT
BRANCH   1   8
ATOM      8  C1  UNL d   1       1.505   5.510  -0.792  0.00  0.00     0.054 C 
ATOM      9  C   UNL d   1       2.610   6.000  -1.717  0.00  0.00     0.018 C 
ENDBRANCH   1   8
TORSDOF 1
ENDMDL
