MODEL 1
REMARK minimizedAffinity -1.98966026
REMARK minimizedRMSD -1
REMARK  1 active torsions:
REMARK  status: ('A' for Active; 'I' for Inactive)
REMARK    1  A    between atoms: C1_2  and  C2_3 
ROOT
ATOM      1  C2  UNL d   1       1.161   3.592  -0.613  0.00  0.00    -0.081 A 
ATOM      2  C3  UNL d   1       1.712   2.565   0.162  0.00  0.00     0.006 A 
ATOM      3  C4  UNL d   1       1.658   1.239  -0.275  0.00  0.00     0.002 A 
ATOM      4  C5  UNL d   1       1.058   0.920  -1.498  0.00  0.00    -0.080 A 
ATOM      5  C6  UNL d   1       1.020  -0.495  -1.994  0.00  0.00     0.076 C 
ATOM      6  C7  UNL d   1       0.492   1.944  -2.265  0.00  0.00     0.002 A 
ATOM      7  C8  UNL d   1       0.545   3.269  -1.828  0.00  0.00     0.006 A 
ENDROOT
BRANCH   1   8
ATOM      8  C1  UNL d   1       1.275   5.029  -0.174  0.00  0.00     0.054 C 
ATOM      9  C   UNL d   1       2.209   5.813  -1.085  0.00  0.00     0.018 C 
ENDBRANCH   1   8
TORSDOF 1
ENDMDL
