MODEL 1
REMARK minimizedAffinity 3.0899117
REMARK minimizedRMSD -1
REMARK  1 active torsions:
REMARK  status: ('A' for Active; 'I' for Inactive)
REMARK    1  A    between atoms: C1_2  and  C2_3 
ROOT
ATOM      1  C2  UNL d   1       1.767   1.597   0.236  0.00  0.00    -0.081 A 
ATOM      2  C3  UNL d   1       1.141   2.212  -0.856  0.00  0.00     0.006 A 
ATOM      3  C4  UNL d   1       0.944   1.510  -2.047  0.00  0.00     0.002 A 
ATOM      4  C5  UNL d   1       1.363   0.180  -2.164  0.00  0.00    -0.080 A 
ATOM      5  C6  UNL d   1       1.130  -0.595  -3.427  0.00  0.00     0.076 C 
ATOM      6  C7  UNL d   1       2.004  -0.429  -1.080  0.00  0.00     0.002 A 
ATOM      7  C8  UNL d   1       2.201   0.273   0.111  0.00  0.00     0.006 A 
ENDROOT
BRANCH   1   8
ATOM      8  C1  UNL d   1       1.922   2.331   1.543  0.00  0.00     0.054 C 
ATOM      9  C   UNL d   1       3.120   1.815   2.328  0.00  0.00     0.018 C 
ENDBRANCH   1   8
TORSDOF 1
ENDMDL
