MODEL 1
REMARK minimizedAffinity 2.40384579
REMARK minimizedRMSD -1
REMARK  1 active torsions:
REMARK  status: ('A' for Active; 'I' for Inactive)
REMARK    1  A    between atoms: C1_2  and  C2_3 
ROOT
ATOM      1  C2  UNL d   1       1.614   3.617  -0.852  0.00  0.00    -0.081 A 
ATOM      2  C3  UNL d   1       1.598   3.050   0.428  0.00  0.00     0.006 A 
ATOM      3  C4  UNL d   1       2.083   1.756   0.635  0.00  0.00     0.002 A 
ATOM      4  C5  UNL d   1       2.598   1.012  -0.431  0.00  0.00    -0.080 A 
ATOM      5  C6  UNL d   1       3.150  -0.366  -0.217  0.00  0.00     0.076 C 
ATOM      6  C7  UNL d   1       2.598   1.572  -1.713  0.00  0.00     0.002 A 
ATOM      7  C8  UNL d   1       2.113   2.865  -1.921  0.00  0.00     0.006 A 
ENDROOT
BRANCH   1   8
ATOM      8  C1  UNL d   1       1.151   5.035  -1.068  0.00  0.00     0.054 C 
ATOM      9  C   UNL d   1       2.328   5.999  -1.118  0.00  0.00     0.018 C 
ENDBRANCH   1   8
TORSDOF 1
ENDMDL
