MODEL 1
REMARK minimizedAffinity 5.07241297
REMARK minimizedRMSD -1
REMARK  1 active torsions:
REMARK  status: ('A' for Active; 'I' for Inactive)
REMARK    1  A    between atoms: C1_2  and  C2_3 
ROOT
ATOM      1  C2  UNL d   1       1.423   3.805  -0.261  0.00  0.00    -0.081 A 
ATOM      2  C3  UNL d   1       1.426   2.911   0.817  0.00  0.00     0.006 A 
ATOM      3  C4  UNL d   1       1.432   1.532   0.594  0.00  0.00     0.002 A 
ATOM      4  C5  UNL d   1       1.443   1.025  -0.710  0.00  0.00    -0.080 A 
ATOM      5  C6  UNL d   1       1.481  -0.453  -0.963  0.00  0.00     0.076 C 
ATOM      6  C7  UNL d   1       1.423   1.917  -1.787  0.00  0.00     0.002 A 
ATOM      7  C8  UNL d   1       1.416   3.296  -1.564  0.00  0.00     0.006 A 
ENDROOT
BRANCH   1   8
ATOM      8  C1  UNL d   1       1.482   5.292  -0.023  0.00  0.00     0.054 C 
ATOM      9  C   UNL d   1       2.247   6.000  -1.132  0.00  0.00     0.018 C 
ENDBRANCH   1   8
TORSDOF 1
ENDMDL
