MODEL 1
REMARK minimizedAffinity 3.86182761
REMARK minimizedRMSD -1
REMARK  1 active torsions:
REMARK  status: ('A' for Active; 'I' for Inactive)
REMARK    1  A    between atoms: C1_2  and  C2_3 
ROOT
ATOM      1  C2  UNL d   1       1.821   3.583  -1.607  0.00  0.00    -0.081 A 
ATOM      2  C3  UNL d   1       2.233   2.729  -0.577  0.00  0.00     0.006 A 
ATOM      3  C4  UNL d   1       1.900   1.373  -0.605  0.00  0.00     0.002 A 
ATOM      4  C5  UNL d   1       1.157   0.846  -1.667  0.00  0.00    -0.080 A 
ATOM      5  C6  UNL d   1       0.819  -0.614  -1.725  0.00  0.00     0.076 C 
ATOM      6  C7  UNL d   1       0.730   1.702  -2.688  0.00  0.00     0.002 A 
ATOM      7  C8  UNL d   1       1.062   3.058  -2.660  0.00  0.00     0.006 A 
ENDROOT
BRANCH   1   8
ATOM      8  C1  UNL d   1       2.233   5.033  -1.613  0.00  0.00     0.054 C 
ATOM      9  C   UNL d   1       1.861   5.718  -0.306  0.00  0.00     0.018 C 
ENDBRANCH   1   8
TORSDOF 1
ENDMDL
