MODEL 1
REMARK minimizedAffinity -2.96676826
REMARK minimizedRMSD -1
REMARK  0 active torsions:
REMARK  status: ('A' for Active; 'I' for Inactive)
ROOT
ATOM      1  C1  BNZ d   1       2.090   1.404   0.258  0.00  0.00     0.000 A 
ATOM      2  C2  BNZ d   1       2.954   2.189  -0.458  0.00  0.00     0.000 A 
ATOM      3  C3  BNZ d   1       3.955   2.878   0.166  0.00  0.00     0.000 A 
ATOM      4  C4  BNZ d   1       4.066   2.815   1.509  0.00  0.00     0.000 A 
ATOM      5  C5  BNZ d   1       3.197   2.036   2.246  0.00  0.00     0.000 A 
ATOM      6  C6  BNZ d   1       2.214   1.312   1.610  0.00  0.00     0.000 A 
ENDROOT
TORSDOF 0
ENDMDL
