MODEL 1
REMARK minimizedAffinity -1.73527157
REMARK minimizedRMSD -1
REMARK  0 active torsions:
REMARK  status: ('A' for Active; 'I' for Inactive)
ROOT
ATOM      1  C1  BNZ d   1      -0.593   0.316  -1.190  0.00  0.00     0.000 A 
ATOM      2  C2  BNZ d   1       0.588   0.841  -0.737  0.00  0.00     0.000 A 
ATOM      3  C3  BNZ d   1       1.242   0.280   0.324  0.00  0.00     0.000 A 
ATOM      4  C4  BNZ d   1       0.696  -0.779   0.955  0.00  0.00     0.000 A 
ATOM      5  C5  BNZ d   1      -0.498  -1.315   0.516  0.00  0.00     0.000 A 
ATOM      6  C6  BNZ d   1      -1.135  -0.771  -0.576  0.00  0.00     0.000 A 
ENDROOT
TORSDOF 0
ENDMDL
