MODEL 1
REMARK minimizedAffinity -3.4928751
REMARK minimizedRMSD -1
REMARK  0 active torsions:
REMARK  status: ('A' for Active; 'I' for Inactive)
ROOT
ATOM      1  C1  BNZ d   1       1.880   0.916   0.908  0.00  0.00     0.000 A 
ATOM      2  C2  BNZ d   1       2.061   2.039   1.671  0.00  0.00     0.000 A 
ATOM      3  C3  BNZ d   1       2.750   3.113   1.181  0.00  0.00     0.000 A 
ATOM      4  C4  BNZ d   1       3.289   3.048  -0.054  0.00  0.00     0.000 A 
ATOM      5  C5  BNZ d   1       3.123   1.919  -0.831  0.00  0.00     0.000 A 
ATOM      6  C6  BNZ d   1       2.396   0.855  -0.349  0.00  0.00     0.000 A 
ENDROOT
TORSDOF 0
ENDMDL
