MODEL 1
REMARK minimizedAffinity 0.487874776
REMARK minimizedRMSD -1
REMARK  0 active torsions:
REMARK  status: ('A' for Active; 'I' for Inactive)
ROOT
ATOM      1  C1  BNZ d   1       0.338   0.505  -1.764  0.00  0.00     0.000 A 
ATOM      2  C2  BNZ d   1      -0.734   0.568  -2.614  0.00  0.00     0.000 A 
ATOM      3  C3  BNZ d   1      -1.947   0.052  -2.250  0.00  0.00     0.000 A 
ATOM      4  C4  BNZ d   1      -2.075  -0.560  -1.055  0.00  0.00     0.000 A 
ATOM      5  C5  BNZ d   1      -1.001  -0.640  -0.191  0.00  0.00     0.000 A 
ATOM      6  C6  BNZ d   1       0.207  -0.085  -0.545  0.00  0.00     0.000 A 
ENDROOT
TORSDOF 0
ENDMDL
