MODEL 1
REMARK minimizedAffinity -2.02114749
REMARK minimizedRMSD -1
REMARK  0 active torsions:
REMARK  status: ('A' for Active; 'I' for Inactive)
ROOT
ATOM      1  C1  BNZ d   1       2.547   1.989   0.402  0.00  0.00     0.000 A 
ATOM      2  C2  BNZ d   1       3.730   2.514  -0.045  0.00  0.00     0.000 A 
ATOM      3  C3  BNZ d   1       4.052   3.820   0.199  0.00  0.00     0.000 A 
ATOM      4  C4  BNZ d   1       3.175   4.609   0.853  0.00  0.00     0.000 A 
ATOM      5  C5  BNZ d   1       1.974   4.096   1.301  0.00  0.00     0.000 A 
ATOM      6  C6  BNZ d   1       1.670   2.771   1.088  0.00  0.00     0.000 A 
ENDROOT
TORSDOF 0
ENDMDL
