MODEL 1
REMARK minimizedAffinity -0.0823019892
REMARK minimizedRMSD -1
REMARK  0 active torsions:
REMARK  status: ('A' for Active; 'I' for Inactive)
ROOT
ATOM      1  C1  BNZ d   1      -2.441   0.701  -1.821  0.00  0.00     0.000 A 
ATOM      2  C2  BNZ d   1      -2.999  -0.099  -0.860  0.00  0.00     0.000 A 
ATOM      3  C3  BNZ d   1      -2.698  -1.430  -0.796  0.00  0.00     0.000 A 
ATOM      4  C4  BNZ d   1      -1.872  -1.968  -1.715  0.00  0.00     0.000 A 
ATOM      5  C5  BNZ d   1      -1.308  -1.177  -2.696  0.00  0.00     0.000 A 
ATOM      6  C6  BNZ d   1      -1.582   0.171  -2.734  0.00  0.00     0.000 A 
ENDROOT
TORSDOF 0
ENDMDL
