MODEL 1
REMARK minimizedAffinity -0.997402787
REMARK minimizedRMSD -1
REMARK  0 active torsions:
REMARK  status: ('A' for Active; 'I' for Inactive)
ROOT
ATOM      1  C1  BNZ d   1       2.838   3.768   0.129  0.00  0.00     0.000 A 
ATOM      2  C2  BNZ d   1       2.814   2.650  -0.661  0.00  0.00     0.000 A 
ATOM      3  C3  BNZ d   1       2.581   1.416  -0.121  0.00  0.00     0.000 A 
ATOM      4  C4  BNZ d   1       2.412   1.297   1.212  0.00  0.00     0.000 A 
ATOM      5  C5  BNZ d   1       2.443   2.414   2.023  0.00  0.00     0.000 A 
ATOM      6  C6  BNZ d   1       2.639   3.659   1.471  0.00  0.00     0.000 A 
ENDROOT
TORSDOF 0
ENDMDL
