MODEL 1
REMARK minimizedAffinity -1.92171741
REMARK minimizedRMSD -1
REMARK  0 active torsions:
REMARK  status: ('A' for Active; 'I' for Inactive)
ROOT
ATOM      1  C1  BNZ d   1       1.191   1.006   1.130  0.00  0.00     0.000 A 
ATOM      2  C2  BNZ d   1       1.583   2.054   1.919  0.00  0.00     0.000 A 
ATOM      3  C3  BNZ d   1       2.499   2.964   1.470  0.00  0.00     0.000 A 
ATOM      4  C4  BNZ d   1       3.050   2.803   0.250  0.00  0.00     0.000 A 
ATOM      5  C5  BNZ d   1       2.672   1.746  -0.554  0.00  0.00     0.000 A 
ATOM      6  C6  BNZ d   1       1.721   0.854  -0.114  0.00  0.00     0.000 A 
ENDROOT
TORSDOF 0
ENDMDL
