MODEL 1
REMARK minimizedAffinity -3.180655
REMARK minimizedRMSD -1
REMARK  0 active torsions:
REMARK  status: ('A' for Active; 'I' for Inactive)
ROOT
ATOM      1  C1  BNZ d   1      -3.078  -1.884  -0.545  0.00  0.00     0.000 A 
ATOM      2  C2  BNZ d   1      -2.709  -0.634  -0.964  0.00  0.00     0.000 A 
ATOM      3  C3  BNZ d   1      -1.495  -0.109  -0.617  0.00  0.00     0.000 A 
ATOM      4  C4  BNZ d   1      -0.670  -0.818   0.180  0.00  0.00     0.000 A 
ATOM      5  C5  BNZ d   1      -1.032  -2.076   0.619  0.00  0.00     0.000 A 
ATOM      6  C6  BNZ d   1      -2.238  -2.617   0.235  0.00  0.00     0.000 A 
ENDROOT
TORSDOF 0
ENDMDL
