MODEL 1
REMARK minimizedAffinity -3.6924243
REMARK minimizedRMSD -1
REMARK  0 active torsions:
REMARK  status: ('A' for Active; 'I' for Inactive)
ROOT
ATOM      1  C1  BNZ d   1       3.089   3.398   0.785  0.00  0.00     0.000 A 
ATOM      2  C2  BNZ d   1       2.582   3.255   2.049  0.00  0.00     0.000 A 
ATOM      3  C3  BNZ d   1       2.154   2.036   2.497  0.00  0.00     0.000 A 
ATOM      4  C4  BNZ d   1       2.195   0.973   1.668  0.00  0.00     0.000 A 
ATOM      5  C5  BNZ d   1       2.695   1.104   0.388  0.00  0.00     0.000 A 
ATOM      6  C6  BNZ d   1       3.161   2.324  -0.046  0.00  0.00     0.000 A 
ENDROOT
TORSDOF 0
ENDMDL
