MODEL 1
REMARK minimizedAffinity -3.15711665
REMARK minimizedRMSD -1
REMARK  0 active torsions:
REMARK  status: ('A' for Active; 'I' for Inactive)
ROOT
ATOM      1  C1  BNZ d   1       0.094   0.707  -0.725  0.00  0.00     0.000 A 
ATOM      2  C2  BNZ d   1      -0.946   0.766  -1.614  0.00  0.00     0.000 A 
ATOM      3  C3  BNZ d   1      -2.044  -0.033  -1.460  0.00  0.00     0.000 A 
ATOM      4  C4  BNZ d   1      -2.084  -0.917  -0.442  0.00  0.00     0.000 A 
ATOM      5  C5  BNZ d   1      -1.039  -0.994   0.457  0.00  0.00     0.000 A 
ATOM      6  C6  BNZ d   1       0.048  -0.161   0.321  0.00  0.00     0.000 A 
ENDROOT
TORSDOF 0
ENDMDL
