MODEL 1
REMARK minimizedAffinity -2.82370877
REMARK minimizedRMSD -1
REMARK  0 active torsions:
REMARK  status: ('A' for Active; 'I' for Inactive)
ROOT
ATOM      1  C1  BNZ d   1       2.551   1.563   1.348  0.00  0.00     0.000 A 
ATOM      2  C2  BNZ d   1       2.745   2.789   1.925  0.00  0.00     0.000 A 
ATOM      3  C3  BNZ d   1       3.077   3.876   1.165  0.00  0.00     0.000 A 
ATOM      4  C4  BNZ d   1       3.254   3.727  -0.163  0.00  0.00     0.000 A 
ATOM      5  C5  BNZ d   1       3.072   2.495  -0.759  0.00  0.00     0.000 A 
ATOM      6  C6  BNZ d   1       2.700   1.411   0.004  0.00  0.00     0.000 A 
ENDROOT
TORSDOF 0
ENDMDL
