MODEL 1
REMARK minimizedAffinity -0.649198115
REMARK minimizedRMSD -1
REMARK  0 active torsions:
REMARK  status: ('A' for Active; 'I' for Inactive)
ROOT
ATOM      1  C1  BNZ d   1      -0.824  -0.473   0.041  0.00  0.00     0.000 A 
ATOM      2  C2  BNZ d   1      -1.920  -0.696  -0.749  0.00  0.00     0.000 A 
ATOM      3  C3  BNZ d   1      -2.682  -1.819  -0.589  0.00  0.00     0.000 A 
ATOM      4  C4  BNZ d   1      -2.325  -2.736   0.333  0.00  0.00     0.000 A 
ATOM      5  C5  BNZ d   1      -1.218  -2.531   1.131  0.00  0.00     0.000 A 
ATOM      6  C6  BNZ d   1      -0.475  -1.381   0.993  0.00  0.00     0.000 A 
ENDROOT
TORSDOF 0
ENDMDL
