MODEL 1
REMARK minimizedAffinity -2.94786024
REMARK minimizedRMSD -1
REMARK  1 active torsions:
REMARK  status: ('A' for Active; 'I' for Inactive)
REMARK    1  A    between atoms: C1_2  and  C2_3 
ROOT
ATOM      1  C2  UNL d   1      -0.561  -2.801  -2.144  0.00  0.00    -0.076 A 
ATOM      2  C3  UNL d   1      -0.333  -3.249  -3.457  0.00  0.00     0.004 A 
ATOM      3  C4  UNL d   1       0.104  -2.372  -4.449  0.00  0.00    -0.003 A 
ATOM      4  C5  UNL d   1       0.320  -1.033  -4.144  0.00  0.00     0.000 A 
ATOM      5  C6  UNL d   1       0.115  -0.574  -2.843  0.00  0.00     0.000 A 
ATOM      6  C7  UNL d   1      -0.309  -1.449  -1.827  0.00  0.00    -0.073 A 
ATOM      7  C8  UNL d   1      -0.519  -0.899  -0.443  0.00  0.00     0.078 C 
ENDROOT
BRANCH   1   8
ATOM      8  C1  UNL d   1      -1.060  -3.791  -1.117  0.00  0.00     0.053 C 
ATOM      9  C   UNL d   1      -2.431  -4.350  -1.464  0.00  0.00     0.018 C 
ENDBRANCH   1   8
TORSDOF 1
ENDMDL
