MODEL 1
REMARK minimizedAffinity -3.32149935
REMARK minimizedRMSD -1
REMARK  1 active torsions:
REMARK  status: ('A' for Active; 'I' for Inactive)
REMARK    1  A    between atoms: C1_2  and  C2_3 
ROOT
ATOM      1  C2  UNL d   1      -0.155  -0.262  -0.191  0.00  0.00    -0.076 A 
ATOM      2  C3  UNL d   1       0.785   0.468  -0.939  0.00  0.00     0.004 A 
ATOM      3  C4  UNL d   1       0.923   1.845  -0.772  0.00  0.00    -0.003 A 
ATOM      4  C5  UNL d   1       0.123   2.515   0.147  0.00  0.00     0.000 A 
ATOM      5  C6  UNL d   1      -0.803   1.804   0.911  0.00  0.00     0.000 A 
ATOM      6  C7  UNL d   1      -0.943   0.413   0.766  0.00  0.00    -0.073 A 
ATOM      7  C8  UNL d   1      -1.962  -0.301   1.611  0.00  0.00     0.078 C 
ENDROOT
BRANCH   1   8
ATOM      8  C1  UNL d   1      -0.279  -1.749  -0.435  0.00  0.00     0.053 C 
ATOM      9  C   UNL d   1      -0.467  -2.084  -1.907  0.00  0.00     0.018 C 
ENDBRANCH   1   8
TORSDOF 1
ENDMDL
