MODEL 1
REMARK minimizedAffinity -2.60734987
REMARK minimizedRMSD -1
REMARK  1 active torsions:
REMARK  status: ('A' for Active; 'I' for Inactive)
REMARK    1  A    between atoms: C1_2  and  C2_3 
ROOT
ATOM      1  C2  UNL d   1       0.752   0.790  -0.080  0.00  0.00    -0.076 A 
ATOM      2  C3  UNL d   1       0.430  -0.576  -0.006  0.00  0.00     0.004 A 
ATOM      3  C4  UNL d   1      -0.830  -0.995   0.417  0.00  0.00    -0.003 A 
ATOM      4  C5  UNL d   1      -1.790  -0.053   0.771  0.00  0.00     0.000 A 
ATOM      5  C6  UNL d   1      -1.495   1.307   0.687  0.00  0.00     0.000 A 
ATOM      6  C7  UNL d   1      -0.234   1.746   0.248  0.00  0.00    -0.073 A 
ATOM      7  C8  UNL d   1       0.033   3.225   0.182  0.00  0.00     0.078 C 
ENDROOT
BRANCH   1   8
ATOM      8  C1  UNL d   1       2.144   1.184  -0.519  0.00  0.00     0.053 C 
ATOM      9  C   UNL d   1       3.228   0.522   0.318  0.00  0.00     0.018 C 
ENDBRANCH   1   8
TORSDOF 1
ENDMDL
