MODEL 1
REMARK minimizedAffinity -1.41954255
REMARK minimizedRMSD -1
REMARK  1 active torsions:
REMARK  status: ('A' for Active; 'I' for Inactive)
REMARK    1  A    between atoms: C1_2  and  C2_3 
ROOT
ATOM      1  C2  UNL d   1      -0.402  -0.604  -0.251  0.00  0.00    -0.076 A 
ATOM      2  C3  UNL d   1      -1.574   0.108  -0.559  0.00  0.00     0.004 A 
ATOM      3  C4  UNL d   1      -1.804   1.376  -0.029  0.00  0.00    -0.003 A 
ATOM      4  C5  UNL d   1      -0.864   1.955   0.817  0.00  0.00     0.000 A 
ATOM      5  C6  UNL d   1       0.313   1.271   1.119  0.00  0.00     0.000 A 
ATOM      6  C7  UNL d   1       0.567  -0.002   0.580  0.00  0.00    -0.073 A 
ATOM      7  C8  UNL d   1       1.851  -0.697   0.944  0.00  0.00     0.078 C 
ENDROOT
BRANCH   1   8
ATOM      8  C1  UNL d   1      -0.220  -1.987  -0.834  0.00  0.00     0.053 C 
ATOM      9  C   UNL d   1      -1.088  -2.221  -2.060  0.00  0.00     0.018 C 
ENDBRANCH   1   8
TORSDOF 1
ENDMDL
