MODEL 1
REMARK minimizedAffinity -4.64372873
REMARK minimizedRMSD -1
REMARK  1 active torsions:
REMARK  status: ('A' for Active; 'I' for Inactive)
REMARK    1  A    between atoms: C1_2  and  C2_3 
ROOT
ATOM      1  C2  UNL d   1      -0.036   0.460   0.351  0.00  0.00    -0.076 A 
ATOM      2  C3  UNL d   1       1.193   1.060   0.029  0.00  0.00     0.004 A 
ATOM      3  C4  UNL d   1       1.329   2.447   0.002  0.00  0.00    -0.003 A 
ATOM      4  C5  UNL d   1       0.238   3.256   0.299  0.00  0.00     0.000 A 
ATOM      5  C6  UNL d   1      -0.985   2.678   0.638  0.00  0.00     0.000 A 
ATOM      6  C7  UNL d   1      -1.134   1.281   0.685  0.00  0.00    -0.073 A 
ATOM      7  C8  UNL d   1      -2.477   0.711   1.051  0.00  0.00     0.078 C 
ENDROOT
BRANCH   1   8
ATOM      8  C1  UNL d   1      -0.131  -1.049   0.337  0.00  0.00     0.053 C 
ATOM      9  C   UNL d   1      -0.185  -1.617  -1.073  0.00  0.00     0.018 C 
ENDBRANCH   1   8
TORSDOF 1
ENDMDL
