MODEL 1
REMARK minimizedAffinity -4.78871679
REMARK minimizedRMSD -1
REMARK  1 active torsions:
REMARK  status: ('A' for Active; 'I' for Inactive)
REMARK    1  A    between atoms: C1_2  and  C2_3 
ROOT
ATOM      1  C2  UNL d   1      -0.211   0.245   0.236  0.00  0.00    -0.076 A 
ATOM      2  C3  UNL d   1       0.643   1.022  -0.566  0.00  0.00     0.004 A 
ATOM      3  C4  UNL d   1       0.466   2.400  -0.677  0.00  0.00    -0.003 A 
ATOM      4  C5  UNL d   1      -0.567   3.024   0.014  0.00  0.00     0.000 A 
ATOM      5  C6  UNL d   1      -1.413   2.271   0.828  0.00  0.00     0.000 A 
ATOM      6  C7  UNL d   1      -1.239   0.883   0.963  0.00  0.00    -0.073 A 
ATOM      7  C8  UNL d   1      -2.184   0.119   1.850  0.00  0.00     0.078 C 
ENDROOT
BRANCH   1   8
ATOM      8  C1  UNL d   1       0.012  -1.250   0.295  0.00  0.00     0.053 C 
ATOM      9  C   UNL d   1      -0.438  -1.957  -0.974  0.00  0.00     0.018 C 
ENDBRANCH   1   8
TORSDOF 1
ENDMDL
