MODEL 1
REMARK minimizedAffinity 4.36263514
REMARK minimizedRMSD -1
REMARK  1 active torsions:
REMARK  status: ('A' for Active; 'I' for Inactive)
REMARK    1  A    between atoms: C1_2  and  C2_3 
ROOT
ATOM      1  C2  UNL d   1       0.150   1.114  -0.081  0.00  0.00    -0.076 A 
ATOM      2  C3  UNL d   1      -0.718   0.021   0.083  0.00  0.00     0.004 A 
ATOM      3  C4  UNL d   1      -1.946   0.170   0.725  0.00  0.00    -0.003 A 
ATOM      4  C5  UNL d   1      -2.327   1.416   1.211  0.00  0.00     0.000 A 
ATOM      5  C6  UNL d   1      -1.487   2.515   1.041  0.00  0.00     0.000 A 
ATOM      6  C7  UNL d   1      -0.252   2.385   0.382  0.00  0.00    -0.073 A 
ATOM      7  C8  UNL d   1       0.618   3.603   0.232  0.00  0.00     0.078 C 
ENDROOT
BRANCH   1   8
ATOM      8  C1  UNL d   1       1.482   0.886  -0.761  0.00  0.00     0.053 C 
ATOM      9  C   UNL d   1       2.651   0.966   0.208  0.00  0.00     0.018 C 
ENDBRANCH   1   8
TORSDOF 1
ENDMDL
