MODEL 1
REMARK minimizedAffinity -3.43873286
REMARK minimizedRMSD -1
REMARK  1 active torsions:
REMARK  status: ('A' for Active; 'I' for Inactive)
REMARK    1  A    between atoms: C1_2  and  C2_3 
ROOT
ATOM      1  C2  UNL d   1       1.222   2.784   0.505  0.00  0.00    -0.076 A 
ATOM      2  C3  UNL d   1       0.471   3.743   1.205  0.00  0.00     0.004 A 
ATOM      3  C4  UNL d   1       0.791   4.086   2.518  0.00  0.00    -0.003 A 
ATOM      4  C5  UNL d   1       1.868   3.475   3.151  0.00  0.00     0.000 A 
ATOM      5  C6  UNL d   1       2.634   2.534   2.465  0.00  0.00     0.000 A 
ATOM      6  C7  UNL d   1       2.335   2.189   1.136  0.00  0.00    -0.073 A 
ATOM      7  C8  UNL d   1       3.192   1.163   0.446  0.00  0.00     0.078 C 
ENDROOT
BRANCH   1   8
ATOM      8  C1  UNL d   1       0.811   2.433  -0.908  0.00  0.00     0.053 C 
ATOM      9  C   UNL d   1       0.327   0.996  -1.034  0.00  0.00     0.018 C 
ENDBRANCH   1   8
TORSDOF 1
ENDMDL
