MODEL 1
REMARK minimizedAffinity -3.07551003
REMARK minimizedRMSD -1
REMARK  1 active torsions:
REMARK  status: ('A' for Active; 'I' for Inactive)
REMARK    1  A    between atoms: C1_2  and  C2_3 
ROOT
ATOM      1  C2  UNL d   1       0.170  -0.451   0.242  0.00  0.00    -0.076 A 
ATOM      2  C3  UNL d   1      -1.120   0.104   0.173  0.00  0.00     0.004 A 
ATOM      3  C4  UNL d   1      -1.318   1.477   0.315  0.00  0.00    -0.003 A 
ATOM      4  C5  UNL d   1      -0.230   2.316   0.527  0.00  0.00     0.000 A 
ATOM      5  C6  UNL d   1       1.058   1.784   0.581  0.00  0.00     0.000 A 
ATOM      6  C7  UNL d   1       1.277   0.405   0.424  0.00  0.00    -0.073 A 
ATOM      7  C8  UNL d   1       2.686  -0.115   0.497  0.00  0.00     0.078 C 
ENDROOT
BRANCH   1   8
ATOM      8  C1  UNL d   1       0.321  -1.950   0.109  0.00  0.00     0.053 C 
ATOM      9  C   UNL d   1      -0.075  -2.454  -1.271  0.00  0.00     0.018 C 
ENDBRANCH   1   8
TORSDOF 1
ENDMDL
