MODEL 1
REMARK minimizedAffinity 8.57895565
REMARK minimizedRMSD -1
REMARK  0 active torsions:
REMARK  status: ('A' for Active; 'I' for Inactive)
ROOT
ATOM      1  C   UNL d   1      -2.287  -1.054   1.572  0.00  0.00     0.023 A 
ATOM      2  C1  UNL d   1      -3.561  -1.561   1.827  0.00  0.00     0.003 A 
ATOM      3  C2  UNL d   1      -4.221  -1.232   3.013  0.00  0.00     0.048 A 
ATOM      4  C3  UNL d   1      -3.600  -0.396   3.940  0.00  0.00     0.023 A 
ATOM      5  C4  UNL d   1      -2.325   0.114   3.689  0.00  0.00     0.048 A 
ATOM      6  C5  UNL d   1      -1.669  -0.218   2.503  0.00  0.00     0.003 A 
ATOM      7  I   UNL d   1      -4.579   0.095   5.706  0.00  0.00    -0.146 I 
ENDROOT
TORSDOF 0
ENDMDL
