MODEL 1
REMARK minimizedAffinity -1.70471787
REMARK minimizedRMSD -1
REMARK  0 active torsions:
REMARK  status: ('A' for Active; 'I' for Inactive)
ROOT
ATOM      1  C   UNL d   1      -1.025   5.760  -2.566  0.00  0.00     0.023 A 
ATOM      2  C1  UNL d   1      -2.360   5.935  -2.203  0.00  0.00     0.003 A 
ATOM      3  C2  UNL d   1      -3.350   5.999  -3.186  0.00  0.00     0.048 A 
ATOM      4  C3  UNL d   1      -2.997   5.885  -4.530  0.00  0.00     0.023 A 
ATOM      5  C4  UNL d   1      -1.662   5.709  -4.898  0.00  0.00     0.048 A 
ATOM      6  C5  UNL d   1      -0.676   5.647  -3.912  0.00  0.00     0.003 A 
ATOM      7  I   UNL d   1      -4.468   5.979  -5.995  0.00  0.00    -0.146 I 
ENDROOT
TORSDOF 0
ENDMDL
