MODEL 1
REMARK minimizedAffinity 6.77573156
REMARK minimizedRMSD -1
REMARK  0 active torsions:
REMARK  status: ('A' for Active; 'I' for Inactive)
ROOT
ATOM      1  C   UNL d   1      -2.714  -0.512   2.708  0.00  0.00     0.023 A 
ATOM      2  C1  UNL d   1      -1.439  -0.049   3.036  0.00  0.00     0.003 A 
ATOM      3  C2  UNL d   1      -0.309  -0.729   2.578  0.00  0.00     0.048 A 
ATOM      4  C3  UNL d   1      -0.460  -1.870   1.791  0.00  0.00     0.023 A 
ATOM      5  C4  UNL d   1      -1.733  -2.336   1.459  0.00  0.00     0.048 A 
ATOM      6  C5  UNL d   1      -2.860  -1.653   1.920  0.00  0.00     0.003 A 
ATOM      7  I   UNL d   1       1.221  -2.883   1.108  0.00  0.00    -0.146 I 
ENDROOT
TORSDOF 0
ENDMDL
