MODEL 1
REMARK minimizedAffinity 8.68188381
REMARK minimizedRMSD -1
REMARK  0 active torsions:
REMARK  status: ('A' for Active; 'I' for Inactive)
ROOT
ATOM      1  C   UNL d   1       6.000   3.928   1.128  0.00  0.00     0.023 A 
ATOM      2  C1  UNL d   1       5.836   3.086   0.028  0.00  0.00     0.003 A 
ATOM      3  C2  UNL d   1       4.855   2.093   0.047  0.00  0.00     0.048 A 
ATOM      4  C3  UNL d   1       4.041   1.947   1.169  0.00  0.00     0.023 A 
ATOM      5  C4  UNL d   1       4.200   2.788   2.272  0.00  0.00     0.048 A 
ATOM      6  C5  UNL d   1       5.182   3.779   2.248  0.00  0.00     0.003 A 
ATOM      7  I   UNL d   1       2.580   0.469   1.200  0.00  0.00    -0.146 I 
ENDROOT
TORSDOF 0
ENDMDL
