MODEL 1
REMARK minimizedAffinity 9.97538471
REMARK minimizedRMSD -1
REMARK  0 active torsions:
REMARK  status: ('A' for Active; 'I' for Inactive)
ROOT
ATOM      1  C   UNL d   1      -1.049  -1.021   2.359  0.00  0.00     0.023 A 
ATOM      2  C1  UNL d   1      -1.715  -1.750   1.374  0.00  0.00     0.003 A 
ATOM      3  C2  UNL d   1      -2.809  -1.191   0.709  0.00  0.00     0.048 A 
ATOM      4  C3  UNL d   1      -3.230   0.098   1.034  0.00  0.00     0.023 A 
ATOM      5  C4  UNL d   1      -2.566   0.831   2.018  0.00  0.00     0.048 A 
ATOM      6  C5  UNL d   1      -1.474   0.268   2.681  0.00  0.00     0.003 A 
ATOM      7  I   UNL d   1      -4.858   0.932   0.046  0.00  0.00    -0.146 I 
ENDROOT
TORSDOF 0
ENDMDL
