MODEL 1
REMARK minimizedAffinity 7.1066823
REMARK minimizedRMSD -1
REMARK  0 active torsions:
REMARK  status: ('A' for Active; 'I' for Inactive)
ROOT
ATOM      1  C   UNL d   1      -0.947  -0.525   1.855  0.00  0.00     0.023 A 
ATOM      2  C1  UNL d   1      -1.423   0.764   2.095  0.00  0.00     0.003 A 
ATOM      3  C2  UNL d   1      -2.630   1.181   1.530  0.00  0.00     0.048 A 
ATOM      4  C3  UNL d   1      -3.357   0.302   0.727  0.00  0.00     0.023 A 
ATOM      5  C4  UNL d   1      -2.885  -0.989   0.485  0.00  0.00     0.048 A 
ATOM      6  C5  UNL d   1      -1.677  -1.400   1.051  0.00  0.00     0.003 A 
ATOM      7  I   UNL d   1      -5.154   0.920  -0.115  0.00  0.00    -0.146 I 
ENDROOT
TORSDOF 0
ENDMDL
