MODEL 1
REMARK minimizedAffinity 11.9875259
REMARK minimizedRMSD -1
REMARK  0 active torsions:
REMARK  status: ('A' for Active; 'I' for Inactive)
ROOT
ATOM      1  C   UNL d   1      -0.031  -3.755  -3.810  0.00  0.00     0.023 A 
ATOM      2  C1  UNL d   1      -1.340  -3.355  -3.543  0.00  0.00     0.003 A 
ATOM      3  C2  UNL d   1      -2.410  -3.997  -4.171  0.00  0.00     0.048 A 
ATOM      4  C3  UNL d   1      -2.163  -5.039  -5.063  0.00  0.00     0.023 A 
ATOM      5  C4  UNL d   1      -0.855  -5.444  -5.333  0.00  0.00     0.048 A 
ATOM      6  C5  UNL d   1       0.212  -4.799  -4.704  0.00  0.00     0.003 A 
ATOM      7  I   UNL d   1      -3.753  -5.996  -5.999  0.00  0.00    -0.146 I 
ENDROOT
TORSDOF 0
ENDMDL
