MODEL 1
REMARK minimizedAffinity 3.20469284
REMARK minimizedRMSD -1
REMARK  0 active torsions:
REMARK  status: ('A' for Active; 'I' for Inactive)
ROOT
ATOM      1  C   UNL d   1      -3.278   0.525   1.385  0.00  0.00     0.023 A 
ATOM      2  C1  UNL d   1      -2.404  -0.160   0.541  0.00  0.00     0.003 A 
ATOM      3  C2  UNL d   1      -1.389  -0.953   1.079  0.00  0.00     0.048 A 
ATOM      4  C3  UNL d   1      -1.254  -1.059   2.463  0.00  0.00     0.023 A 
ATOM      5  C4  UNL d   1      -2.127  -0.377   3.312  0.00  0.00     0.048 A 
ATOM      6  C5  UNL d   1      -3.140   0.416   2.769  0.00  0.00     0.003 A 
ATOM      7  I   UNL d   1       0.255  -2.240   3.266  0.00  0.00    -0.146 I 
ENDROOT
TORSDOF 0
ENDMDL
