MODEL 1
REMARK minimizedAffinity 11.1710567
REMARK minimizedRMSD -1
REMARK  0 active torsions:
REMARK  status: ('A' for Active; 'I' for Inactive)
ROOT
ATOM      1  C   UNL d   1       3.857   3.354  -4.806  0.00  0.00     0.023 A 
ATOM      2  C1  UNL d   1       5.200   3.731  -4.843  0.00  0.00     0.003 A 
ATOM      3  C2  UNL d   1       5.741   4.490  -3.803  0.00  0.00     0.048 A 
ATOM      4  C3  UNL d   1       4.935   4.867  -2.730  0.00  0.00     0.023 A 
ATOM      5  C4  UNL d   1       3.592   4.492  -2.689  0.00  0.00     0.048 A 
ATOM      6  C5  UNL d   1       3.054   3.734  -3.731  0.00  0.00     0.003 A 
ATOM      7  I   UNL d   1       5.739   5.997  -1.182  0.00  0.00    -0.146 I 
ENDROOT
TORSDOF 0
ENDMDL
