MODEL 1
REMARK minimizedAffinity 11.1316204
REMARK minimizedRMSD -1
REMARK  0 active torsions:
REMARK  status: ('A' for Active; 'I' for Inactive)
ROOT
ATOM      1  C   UNL d   1      -1.686  -0.276   2.597  0.00  0.00     0.023 A 
ATOM      2  C1  UNL d   1      -2.278   0.924   2.993  0.00  0.00     0.003 A 
ATOM      3  C2  UNL d   1      -3.354   1.445   2.272  0.00  0.00     0.048 A 
ATOM      4  C3  UNL d   1      -3.834   0.761   1.155  0.00  0.00     0.023 A 
ATOM      5  C4  UNL d   1      -3.246  -0.440   0.756  0.00  0.00     0.048 A 
ATOM      6  C5  UNL d   1      -2.169  -0.957   1.479  0.00  0.00     0.003 A 
ATOM      7  I   UNL d   1      -5.435   1.534   0.080  0.00  0.00    -0.146 I 
ENDROOT
TORSDOF 0
ENDMDL
