MODEL 1
REMARK minimizedAffinity 7.06325865
REMARK minimizedRMSD -1
REMARK  0 active torsions:
REMARK  status: ('A' for Active; 'I' for Inactive)
ROOT
ATOM      1  C   UNL d   1      -1.229  -0.631   2.231  0.00  0.00     0.023 A 
ATOM      2  C1  UNL d   1      -1.993   0.431   2.715  0.00  0.00     0.003 A 
ATOM      3  C2  UNL d   1      -3.153   0.821   2.043  0.00  0.00     0.048 A 
ATOM      4  C3  UNL d   1      -3.543   0.146   0.887  0.00  0.00     0.023 A 
ATOM      5  C4  UNL d   1      -2.782  -0.917   0.399  0.00  0.00     0.048 A 
ATOM      6  C5  UNL d   1      -1.623  -1.304   1.074  0.00  0.00     0.003 A 
ATOM      7  I   UNL d   1      -5.269   0.726  -0.114  0.00  0.00    -0.146 I 
ENDROOT
TORSDOF 0
ENDMDL
