MODEL 1
REMARK minimizedAffinity 11.5439711
REMARK minimizedRMSD -1
REMARK  0 active torsions:
REMARK  status: ('A' for Active; 'I' for Inactive)
ROOT
ATOM      1  C   UNL d   1       5.020   4.239  -3.254  0.00  0.00     0.023 A 
ATOM      2  C1  UNL d   1       3.866   3.501  -3.513  0.00  0.00     0.003 A 
ATOM      3  C2  UNL d   1       2.616   4.004  -3.146  0.00  0.00     0.048 A 
ATOM      4  C3  UNL d   1       2.529   5.248  -2.520  0.00  0.00     0.023 A 
ATOM      5  C4  UNL d   1       3.681   5.990  -2.260  0.00  0.00     0.048 A 
ATOM      6  C5  UNL d   1       4.928   5.482  -2.628  0.00  0.00     0.003 A 
ATOM      7  I   UNL d   1       0.670   6.000  -1.973  0.00  0.00    -0.146 I 
ENDROOT
TORSDOF 0
ENDMDL
