MODEL 1
REMARK minimizedAffinity 6.51943111
REMARK minimizedRMSD -1
REMARK  0 active torsions:
REMARK  status: ('A' for Active; 'I' for Inactive)
ROOT
ATOM      1  C   UNL d   1      -2.112   5.787  -5.900  0.00  0.00     0.023 A 
ATOM      2  C1  UNL d   1      -3.488   5.999  -5.999  0.00  0.00     0.003 A 
ATOM      3  C2  UNL d   1      -4.283   5.979  -4.852  0.00  0.00     0.048 A 
ATOM      4  C3  UNL d   1      -3.697   5.747  -3.608  0.00  0.00     0.023 A 
ATOM      5  C4  UNL d   1      -2.322   5.536  -3.503  0.00  0.00     0.048 A 
ATOM      6  C5  UNL d   1      -1.530   5.556  -4.653  0.00  0.00     0.003 A 
ATOM      7  I   UNL d   1      -4.879   5.717  -1.899  0.00  0.00    -0.146 I 
ENDROOT
TORSDOF 0
ENDMDL
