MODEL 1
REMARK minimizedAffinity 11.304203
REMARK minimizedRMSD -1
REMARK  0 active torsions:
REMARK  status: ('A' for Active; 'I' for Inactive)
ROOT
ATOM      1  C   UNL d   1       2.619   2.948  -3.192  0.00  0.00     0.023 A 
ATOM      2  C1  UNL d   1       2.977   2.866  -4.538  0.00  0.00     0.003 A 
ATOM      3  C2  UNL d   1       3.947   3.726  -5.057  0.00  0.00     0.048 A 
ATOM      4  C3  UNL d   1       4.556   4.665  -4.225  0.00  0.00     0.023 A 
ATOM      5  C4  UNL d   1       4.201   4.750  -2.878  0.00  0.00     0.048 A 
ATOM      6  C5  UNL d   1       3.230   3.889  -2.363  0.00  0.00     0.003 A 
ATOM      7  I   UNL d   1       6.000   5.945  -4.996  0.00  0.00    -0.146 I 
ENDROOT
TORSDOF 0
ENDMDL
