MODEL 1
REMARK minimizedAffinity 6.36932087
REMARK minimizedRMSD -1
REMARK  0 active torsions:
REMARK  status: ('A' for Active; 'I' for Inactive)
ROOT
ATOM      1  C   UNL d   1       5.709   3.722   1.590  0.00  0.00     0.023 A 
ATOM      2  C1  UNL d   1       4.499   3.188   2.033  0.00  0.00     0.003 A 
ATOM      3  C2  UNL d   1       3.577   2.685   1.113  0.00  0.00     0.048 A 
ATOM      4  C3  UNL d   1       3.872   2.718  -0.250  0.00  0.00     0.023 A 
ATOM      5  C4  UNL d   1       5.082   3.251  -0.698  0.00  0.00     0.048 A 
ATOM      6  C5  UNL d   1       6.000   3.754   0.226  0.00  0.00     0.003 A 
ATOM      7  I   UNL d   1       2.502   1.970  -1.621  0.00  0.00    -0.146 I 
ENDROOT
TORSDOF 0
ENDMDL
