MODEL 1
REMARK minimizedAffinity 6.47450876
REMARK minimizedRMSD -1
REMARK  0 active torsions:
REMARK  status: ('A' for Active; 'I' for Inactive)
ROOT
ATOM      1  C   UNL d   1       3.090   1.070  -0.406  0.00  0.00     0.023 A 
ATOM      2  C1  UNL d   1       3.498   1.472  -1.678  0.00  0.00     0.003 A 
ATOM      3  C2  UNL d   1       2.872   2.552  -2.305  0.00  0.00     0.048 A 
ATOM      4  C3  UNL d   1       1.841   3.226  -1.653  0.00  0.00     0.023 A 
ATOM      5  C4  UNL d   1       1.430   2.829  -0.380  0.00  0.00     0.048 A 
ATOM      6  C5  UNL d   1       2.057   1.748   0.242  0.00  0.00     0.003 A 
ATOM      7  I   UNL d   1       0.909   4.834  -2.584  0.00  0.00    -0.146 I 
ENDROOT
TORSDOF 0
ENDMDL
