MODEL 1
REMARK minimizedAffinity 0.79492259
REMARK minimizedRMSD -1
REMARK  0 active torsions:
REMARK  status: ('A' for Active; 'I' for Inactive)
ROOT
ATOM      1  C   UNL d   1      -2.086   0.840   1.468  0.00  0.00     0.172 C 
ATOM      2  N   UNL d   1      -1.153   1.844   1.923  0.00  0.00    -0.070 N 
ATOM      3  C1  UNL d   1      -0.062   2.293   1.228  0.00  0.00    -0.004 A 
ATOM      4  C2  UNL d   1       0.568   3.245   2.001  0.00  0.00    -0.047 A 
ATOM      5  C3  UNL d   1      -0.169   3.371   3.202  0.00  0.00    -0.047 A 
ATOM      6  C4  UNL d   1      -1.229   2.492   3.128  0.00  0.00    -0.004 A 
ENDROOT
TORSDOF 0
ENDMDL
