MODEL 1
REMARK minimizedAffinity 8.16283035
REMARK minimizedRMSD -1
REMARK  0 active torsions:
REMARK  status: ('A' for Active; 'I' for Inactive)
ROOT
ATOM      1  C   UNL d   1      -2.211   3.339   5.767  0.00  0.00     0.172 C 
ATOM      2  N   UNL d   1      -1.284   3.222   4.666  0.00  0.00    -0.070 N 
ATOM      3  C1  UNL d   1      -1.496   2.509   3.517  0.00  0.00    -0.004 A 
ATOM      4  C2  UNL d   1      -0.380   2.650   2.721  0.00  0.00    -0.047 A 
ATOM      5  C3  UNL d   1       0.535   3.476   3.416  0.00  0.00    -0.047 A 
ATOM      6  C4  UNL d   1      -0.051   3.816   4.618  0.00  0.00    -0.004 A 
ENDROOT
TORSDOF 0
ENDMDL
