MODEL 1
REMARK minimizedAffinity -0.228835151
REMARK minimizedRMSD -1
REMARK  0 active torsions:
REMARK  status: ('A' for Active; 'I' for Inactive)
ROOT
ATOM      1  C   UNL d   1       3.758  -3.174  -3.997  0.00  0.00     0.172 C 
ATOM      2  N   UNL d   1       4.430  -4.163  -4.807  0.00  0.00    -0.070 N 
ATOM      3  C1  UNL d   1       5.729  -4.095  -5.234  0.00  0.00    -0.004 A 
ATOM      4  C2  UNL d   1       5.988  -5.226  -5.978  0.00  0.00    -0.047 A 
ATOM      5  C3  UNL d   1       4.803  -5.999  -6.000  0.00  0.00    -0.047 A 
ATOM      6  C4  UNL d   1       3.854  -5.318  -5.267  0.00  0.00    -0.004 A 
ENDROOT
TORSDOF 0
ENDMDL
