MODEL 1
REMARK minimizedAffinity 1.50856435
REMARK minimizedRMSD -1
REMARK  0 active torsions:
REMARK  status: ('A' for Active; 'I' for Inactive)
ROOT
ATOM      1  C   UNL d   1      -0.762   0.917   1.652  0.00  0.00     0.172 C 
ATOM      2  N   UNL d   1      -0.260   2.116   2.281  0.00  0.00    -0.070 N 
ATOM      3  C1  UNL d   1      -0.574   2.546   3.543  0.00  0.00    -0.004 A 
ATOM      4  C2  UNL d   1       0.107   3.723   3.768  0.00  0.00    -0.047 A 
ATOM      5  C3  UNL d   1       0.855   4.010   2.602  0.00  0.00    -0.047 A 
ATOM      6  C4  UNL d   1       0.609   2.999   1.697  0.00  0.00    -0.004 A 
ENDROOT
TORSDOF 0
ENDMDL
