MODEL 1
REMARK minimizedAffinity -1.66046822
REMARK minimizedRMSD -1
REMARK  0 active torsions:
REMARK  status: ('A' for Active; 'I' for Inactive)
ROOT
ATOM      1  C   UNL d   1       5.852  -5.186  -3.720  0.00  0.00     0.172 C 
ATOM      2  N   UNL d   1       4.469  -5.360  -4.096  0.00  0.00    -0.070 N 
ATOM      3  C1  UNL d   1       4.021  -6.000  -5.221  0.00  0.00    -0.004 A 
ATOM      4  C2  UNL d   1       2.644  -5.951  -5.215  0.00  0.00    -0.047 A 
ATOM      5  C3  UNL d   1       2.250  -5.256  -4.046  0.00  0.00    -0.047 A 
ATOM      6  C4  UNL d   1       3.400  -4.901  -3.373  0.00  0.00    -0.004 A 
ENDROOT
TORSDOF 0
ENDMDL
