MODEL 1
REMARK minimizedAffinity -2.5166285
REMARK minimizedRMSD -1
REMARK  0 active torsions:
REMARK  status: ('A' for Active; 'I' for Inactive)
ROOT
ATOM      1  C   UNL d   1       3.678   2.946  -5.987  0.00  0.00     0.172 C 
ATOM      2  N   UNL d   1       4.565   3.337  -4.916  0.00  0.00    -0.070 N 
ATOM      3  C1  UNL d   1       4.831   2.602  -3.792  0.00  0.00    -0.004 A 
ATOM      4  C2  UNL d   1       5.722   3.317  -3.021  0.00  0.00    -0.047 A 
ATOM      5  C3  UNL d   1       6.000   4.525  -3.706  0.00  0.00    -0.047 A 
ATOM      6  C4  UNL d   1       5.270   4.510  -4.876  0.00  0.00    -0.004 A 
ENDROOT
TORSDOF 0
ENDMDL
