MODEL 1
REMARK minimizedAffinity 5.02860355
REMARK minimizedRMSD -1
REMARK  0 active torsions:
REMARK  status: ('A' for Active; 'I' for Inactive)
ROOT
ATOM      1  C   UNL d   1       5.287   2.257  -6.000  0.00  0.00     0.172 C 
ATOM      2  N   UNL d   1       4.015   2.245  -5.315  0.00  0.00    -0.070 N 
ATOM      3  C1  UNL d   1       3.813   1.875  -4.013  0.00  0.00    -0.004 A 
ATOM      4  C2  UNL d   1       2.468   2.004  -3.741  0.00  0.00    -0.047 A 
ATOM      5  C3  UNL d   1       1.840   2.466  -4.922  0.00  0.00    -0.047 A 
ATOM      6  C4  UNL d   1       2.821   2.607  -5.881  0.00  0.00    -0.004 A 
ENDROOT
TORSDOF 0
ENDMDL
