MODEL 1
REMARK minimizedAffinity -2.86116219
REMARK minimizedRMSD -1
REMARK  0 active torsions:
REMARK  status: ('A' for Active; 'I' for Inactive)
ROOT
ATOM      1  C   UNL d   1      -2.757   0.431   1.339  0.00  0.00     0.172 C 
ATOM      2  N   UNL d   1      -3.759   0.039   2.302  0.00  0.00    -0.070 N 
ATOM      3  C1  UNL d   1      -3.592  -0.889   3.295  0.00  0.00    -0.004 A 
ATOM      4  C2  UNL d   1      -4.775  -0.975   3.996  0.00  0.00    -0.047 A 
ATOM      5  C3  UNL d   1      -5.685  -0.067   3.403  0.00  0.00    -0.047 A 
ATOM      6  C4  UNL d   1      -5.030   0.547   2.357  0.00  0.00    -0.004 A 
ENDROOT
TORSDOF 0
ENDMDL
