MODEL 1
REMARK minimizedAffinity 1.50588536
REMARK minimizedRMSD -1
REMARK  0 active torsions:
REMARK  status: ('A' for Active; 'I' for Inactive)
ROOT
ATOM      1  C   UNL d   1       0.469   1.542   0.983  0.00  0.00     0.172 C 
ATOM      2  N   UNL d   1       0.009   2.548   1.910  0.00  0.00    -0.070 N 
ATOM      3  C1  UNL d   1       0.278   3.889   1.833  0.00  0.00    -0.004 A 
ATOM      4  C2  UNL d   1      -0.340   4.506   2.899  0.00  0.00    -0.047 A 
ATOM      5  C3  UNL d   1      -1.003   3.502   3.643  0.00  0.00    -0.047 A 
ATOM      6  C4  UNL d   1      -0.770   2.299   3.009  0.00  0.00    -0.004 A 
ENDROOT
TORSDOF 0
ENDMDL
