MODEL 1
REMARK minimizedAffinity -2.17166162
REMARK minimizedRMSD -1
REMARK  0 active torsions:
REMARK  status: ('A' for Active; 'I' for Inactive)
ROOT
ATOM      1  C   UNL d   1       1.872   3.376  -6.000  0.00  0.00     0.172 C 
ATOM      2  N   UNL d   1       3.126   3.078  -5.348  0.00  0.00    -0.070 N 
ATOM      3  C1  UNL d   1       3.322   2.997  -3.995  0.00  0.00    -0.004 A 
ATOM      4  C2  UNL d   1       4.650   2.695  -3.779  0.00  0.00    -0.047 A 
ATOM      5  C3  UNL d   1       5.272   2.592  -5.046  0.00  0.00    -0.047 A 
ATOM      6  C4  UNL d   1       4.306   2.834  -5.999  0.00  0.00    -0.004 A 
ENDROOT
TORSDOF 0
ENDMDL
