MODEL 1
REMARK minimizedAffinity 0.469690293
REMARK minimizedRMSD -1
REMARK  0 active torsions:
REMARK  status: ('A' for Active; 'I' for Inactive)
ROOT
ATOM      1  C   UNL d   1      -1.764  -1.876   2.590  0.00  0.00     0.172 C 
ATOM      2  N   UNL d   1      -3.001  -1.566   3.266  0.00  0.00    -0.070 N 
ATOM      3  C1  UNL d   1      -3.179  -0.569   4.189  0.00  0.00    -0.004 A 
ATOM      4  C2  UNL d   1      -4.496  -0.600   4.595  0.00  0.00    -0.047 A 
ATOM      5  C3  UNL d   1      -5.131  -1.652   3.893  0.00  0.00    -0.047 A 
ATOM      6  C4  UNL d   1      -4.183  -2.233   3.077  0.00  0.00    -0.004 A 
ENDROOT
TORSDOF 0
ENDMDL
