MODEL 1
REMARK minimizedAffinity 1.74436998
REMARK minimizedRMSD -1
REMARK  0 active torsions:
REMARK  status: ('A' for Active; 'I' for Inactive)
ROOT
ATOM      1  C   UNL d   1       2.110   3.901   2.992  0.00  0.00     0.172 C 
ATOM      2  N   UNL d   1       0.667   3.878   3.028  0.00  0.00    -0.070 N 
ATOM      3  C1  UNL d   1      -0.155   3.671   1.953  0.00  0.00    -0.004 A 
ATOM      4  C2  UNL d   1      -1.458   3.724   2.401  0.00  0.00    -0.047 A 
ATOM      5  C3  UNL d   1      -1.417   3.973   3.794  0.00  0.00    -0.047 A 
ATOM      6  C4  UNL d   1      -0.089   4.064   4.156  0.00  0.00    -0.004 A 
ENDROOT
TORSDOF 0
ENDMDL
