MODEL 1
REMARK minimizedAffinity -3.02389288
REMARK minimizedRMSD -1
REMARK  0 active torsions:
REMARK  status: ('A' for Active; 'I' for Inactive)
ROOT
ATOM      1  C   UNL d   1       5.999   4.633  -5.996  0.00  0.00     0.172 C 
ATOM      2  N   UNL d   1       5.027   4.016  -5.125  0.00  0.00    -0.070 N 
ATOM      3  C1  UNL d   1       3.686   3.905  -5.377  0.00  0.00    -0.004 A 
ATOM      4  C2  UNL d   1       3.108   3.257  -4.307  0.00  0.00    -0.047 A 
ATOM      5  C3  UNL d   1       4.137   2.970  -3.379  0.00  0.00    -0.047 A 
ATOM      6  C4  UNL d   1       5.315   3.451  -3.910  0.00  0.00    -0.004 A 
ENDROOT
TORSDOF 0
ENDMDL
