MODEL 1
REMARK minimizedAffinity 1.5094595
REMARK minimizedRMSD -1
REMARK  0 active torsions:
REMARK  status: ('A' for Active; 'I' for Inactive)
ROOT
ATOM      1  C   UNL d   1       2.992   2.359  -2.131  0.00  0.00     0.172 C 
ATOM      2  N   UNL d   1       3.946   1.999  -3.154  0.00  0.00    -0.070 N 
ATOM      3  C1  UNL d   1       5.245   1.622  -2.938  0.00  0.00    -0.004 A 
ATOM      4  C2  UNL d   1       5.818   1.362  -4.164  0.00  0.00    -0.047 A 
ATOM      5  C3  UNL d   1       4.830   1.591  -5.151  0.00  0.00    -0.047 A 
ATOM      6  C4  UNL d   1       3.681   1.984  -4.498  0.00  0.00    -0.004 A 
ENDROOT
TORSDOF 0
ENDMDL
