MODEL 1
REMARK minimizedAffinity 0.10564623
REMARK minimizedRMSD -1
REMARK  0 active torsions:
REMARK  status: ('A' for Active; 'I' for Inactive)
ROOT
ATOM      1  C   UNL d   1      -1.900   0.364   1.507  0.00  0.00     0.172 C 
ATOM      2  N   UNL d   1      -2.232  -0.399   2.687  0.00  0.00    -0.070 N 
ATOM      3  C1  UNL d   1      -1.621  -1.557   3.087  0.00  0.00    -0.004 A 
ATOM      4  C2  UNL d   1      -2.223  -1.971   4.255  0.00  0.00    -0.047 A 
ATOM      5  C3  UNL d   1      -3.232  -1.028   4.568  0.00  0.00    -0.047 A 
ATOM      6  C4  UNL d   1      -3.215  -0.066   3.581  0.00  0.00    -0.004 A 
ENDROOT
TORSDOF 0
ENDMDL
