MODEL 1
REMARK minimizedAffinity 4.00915813
REMARK minimizedRMSD -1
REMARK  0 active torsions:
REMARK  status: ('A' for Active; 'I' for Inactive)
ROOT
ATOM      1  C   UNL d   1       5.230   2.164  -5.997  0.00  0.00     0.172 C 
ATOM      2  N   UNL d   1       4.482   2.178  -4.762  0.00  0.00    -0.070 N 
ATOM      3  C1  UNL d   1       5.014   2.056  -3.505  0.00  0.00    -0.004 A 
ATOM      4  C2  UNL d   1       3.976   2.119  -2.601  0.00  0.00    -0.047 A 
ATOM      5  C3  UNL d   1       2.780   2.283  -3.339  0.00  0.00    -0.047 A 
ATOM      6  C4  UNL d   1       3.122   2.317  -4.674  0.00  0.00    -0.004 A 
ENDROOT
TORSDOF 0
ENDMDL
