MODEL 1
REMARK minimizedAffinity -2.70321298
REMARK minimizedRMSD -1
REMARK  0 active torsions:
REMARK  status: ('A' for Active; 'I' for Inactive)
ROOT
ATOM      1  C   UNL d   1       5.985   2.947  -5.979  0.00  0.00     0.172 C 
ATOM      2  N   UNL d   1       5.095   2.986  -4.843  0.00  0.00    -0.070 N 
ATOM      3  C1  UNL d   1       5.468   2.858  -3.531  0.00  0.00    -0.004 A 
ATOM      4  C2  UNL d   1       4.331   2.951  -2.758  0.00  0.00    -0.047 A 
ATOM      5  C3  UNL d   1       3.236   3.139  -3.635  0.00  0.00    -0.047 A 
ATOM      6  C4  UNL d   1       3.738   3.157  -4.919  0.00  0.00    -0.004 A 
ENDROOT
TORSDOF 0
ENDMDL
