MODEL 1
REMARK minimizedAffinity 3.71388602
REMARK minimizedRMSD -1
REMARK  0 active torsions:
REMARK  status: ('A' for Active; 'I' for Inactive)
ROOT
ATOM      1  C   UNL d   1      -3.222  -4.394  -1.657  0.00  0.00     0.172 C 
ATOM      2  N   UNL d   1      -1.841  -4.119  -1.980  0.00  0.00    -0.070 N 
ATOM      3  C1  UNL d   1      -0.994  -3.325  -1.254  0.00  0.00    -0.004 A 
ATOM      4  C2  UNL d   1       0.228  -3.320  -1.890  0.00  0.00    -0.047 A 
ATOM      5  C3  UNL d   1       0.112  -4.138  -3.039  0.00  0.00    -0.047 A 
ATOM      6  C4  UNL d   1      -1.180  -4.620  -3.070  0.00  0.00    -0.004 A 
ENDROOT
TORSDOF 0
ENDMDL
