MODEL 1
REMARK minimizedAffinity -3.72940493
REMARK minimizedRMSD -1
REMARK  0 active torsions:
REMARK  status: ('A' for Active; 'I' for Inactive)
ROOT
ATOM      1  C2' OXE d   1       1.179  -2.458  -0.875  0.00  0.00     0.078 C 
ATOM      2  C1' OXE d   1       2.293  -0.128  -1.976  0.00  0.00     0.078 C 
ATOM      3  C1  OXE d   1       1.222   0.032  -0.926  0.00  0.00    -0.078 A 
ATOM      4  C2  OXE d   1       0.650  -1.113  -0.427  0.00  0.00    -0.078 A 
ATOM      5  C3  OXE d   1      -0.304  -1.023   0.584  0.00  0.00     0.003 A 
ATOM      6  C4  OXE d   1      -0.795   0.225   0.985  0.00  0.00    -0.002 A 
ATOM      7  C5  OXE d   1      -0.254   1.404   0.460  0.00  0.00    -0.002 A 
ATOM      8  C6  OXE d   1       0.782   1.325  -0.463  0.00  0.00     0.003 A 
ENDROOT
TORSDOF 0
ENDMDL
