MODEL 1
REMARK minimizedAffinity -3.6116364
REMARK minimizedRMSD -1
REMARK  0 active torsions:
REMARK  status: ('A' for Active; 'I' for Inactive)
ROOT
ATOM      1  C2' OXE d   1       0.141  -1.280   1.211  0.00  0.00     0.078 C 
ATOM      2  C1' OXE d   1       1.533  -2.695  -0.774  0.00  0.00     0.078 C 
ATOM      3  C1  OXE d   1       1.630  -1.189  -0.784  0.00  0.00    -0.078 A 
ATOM      4  C2  OXE d   1       0.908  -0.503   0.162  0.00  0.00    -0.078 A 
ATOM      5  C3  OXE d   1       1.005   0.884   0.232  0.00  0.00     0.003 A 
ATOM      6  C4  OXE d   1       1.708   1.595  -0.748  0.00  0.00    -0.002 A 
ATOM      7  C5  OXE d   1       2.418   0.917  -1.745  0.00  0.00    -0.002 A 
ATOM      8  C6  OXE d   1       2.424  -0.473  -1.752  0.00  0.00     0.003 A 
ENDROOT
TORSDOF 0
ENDMDL
