MODEL 1
REMARK minimizedAffinity -2.79088664
REMARK minimizedRMSD -1
REMARK  0 active torsions:
REMARK  status: ('A' for Active; 'I' for Inactive)
ROOT
ATOM      1  C2' OXE d   1      -3.654   1.196   0.381  0.00  0.00     0.078 C 
ATOM      2  C1' OXE d   1      -2.345   0.107   2.613  0.00  0.00     0.078 C 
ATOM      3  C1  OXE d   1      -1.498   0.543   1.444  0.00  0.00    -0.078 A 
ATOM      4  C2  OXE d   1      -2.150   1.031   0.337  0.00  0.00    -0.078 A 
ATOM      5  C3  OXE d   1      -1.413   1.497  -0.747  0.00  0.00     0.003 A 
ATOM      6  C4  OXE d   1      -0.023   1.332  -0.784  0.00  0.00    -0.002 A 
ATOM      7  C5  OXE d   1       0.658   0.800   0.317  0.00  0.00    -0.002 A 
ATOM      8  C6  OXE d   1      -0.059   0.441   1.453  0.00  0.00     0.003 A 
ENDROOT
TORSDOF 0
ENDMDL
