MODEL 1
REMARK minimizedAffinity 2.16972351
REMARK minimizedRMSD -1
REMARK  0 active torsions:
REMARK  status: ('A' for Active; 'I' for Inactive)
ROOT
ATOM      1  C2' OXE d   1       2.832  -0.192  -2.445  0.00  0.00     0.078 C 
ATOM      2  C1' OXE d   1       4.506   1.252  -0.715  0.00  0.00     0.078 C 
ATOM      3  C1  OXE d   1       3.019   1.318  -0.472  0.00  0.00    -0.078 A 
ATOM      4  C2  OXE d   1       2.205   0.646  -1.352  0.00  0.00    -0.078 A 
ATOM      5  C3  OXE d   1       0.829   0.630  -1.142  0.00  0.00     0.003 A 
ATOM      6  C4  OXE d   1       0.256   1.416  -0.136  0.00  0.00    -0.002 A 
ATOM      7  C5  OXE d   1       1.064   2.140   0.747  0.00  0.00    -0.002 A 
ATOM      8  C6  OXE d   1       2.447   2.068   0.619  0.00  0.00     0.003 A 
ENDROOT
TORSDOF 0
ENDMDL
