MODEL 1
REMARK minimizedAffinity -2.24014854
REMARK minimizedRMSD -1
REMARK  0 active torsions:
REMARK  status: ('A' for Active; 'I' for Inactive)
ROOT
ATOM      1  C2' OXE d   1      -1.174  -0.589   0.938  0.00  0.00     0.078 C 
ATOM      2  C1' OXE d   1       0.303  -2.539  -0.439  0.00  0.00     0.078 C 
ATOM      3  C1  OXE d   1       0.702  -1.096  -0.621  0.00  0.00    -0.078 A 
ATOM      4  C2  OXE d   1      -0.056  -0.145   0.020  0.00  0.00    -0.078 A 
ATOM      5  C3  OXE d   1       0.303   1.197  -0.070  0.00  0.00     0.003 A 
ATOM      6  C4  OXE d   1       1.332   1.600  -0.929  0.00  0.00    -0.002 A 
ATOM      7  C5  OXE d   1       2.091   0.651  -1.622  0.00  0.00    -0.002 A 
ATOM      8  C6  OXE d   1       1.817  -0.701  -1.446  0.00  0.00     0.003 A 
ENDROOT
TORSDOF 0
ENDMDL
