MODEL 1
REMARK minimizedAffinity -1.43139207
REMARK minimizedRMSD -1
REMARK  0 active torsions:
REMARK  status: ('A' for Active; 'I' for Inactive)
ROOT
ATOM      1  C2' OXE d   1      -0.567  -1.749   1.802  0.00  0.00     0.078 C 
ATOM      2  C1' OXE d   1      -2.377   0.389   1.972  0.00  0.00     0.078 C 
ATOM      3  C1  OXE d   1      -1.188   0.546   1.058  0.00  0.00    -0.078 A 
ATOM      4  C2  OXE d   1      -0.283  -0.487   1.016  0.00  0.00    -0.078 A 
ATOM      5  C3  OXE d   1       0.803  -0.418   0.148  0.00  0.00     0.003 A 
ATOM      6  C4  OXE d   1       1.064   0.757  -0.567  0.00  0.00    -0.002 A 
ATOM      7  C5  OXE d   1       0.176   1.837  -0.509  0.00  0.00    -0.002 A 
ATOM      8  C6  OXE d   1      -0.975   1.731   0.265  0.00  0.00     0.003 A 
ENDROOT
TORSDOF 0
ENDMDL
