MODEL 1
REMARK minimizedAffinity -6.09488773
REMARK minimizedRMSD -1
REMARK  0 active torsions:
REMARK  status: ('A' for Active; 'I' for Inactive)
ROOT
ATOM      1  C2' OXE d   1       0.263   0.194   0.983  0.00  0.00     0.078 C 
ATOM      2  C1' OXE d   1       0.524  -2.437   0.041  0.00  0.00     0.078 C 
ATOM      3  C1  OXE d   1       1.001  -1.319  -0.853  0.00  0.00    -0.078 A 
ATOM      4  C2  OXE d   1       0.827  -0.032  -0.403  0.00  0.00    -0.078 A 
ATOM      5  C3  OXE d   1       1.299   1.033  -1.164  0.00  0.00     0.003 A 
ATOM      6  C4  OXE d   1       1.810   0.815  -2.449  0.00  0.00    -0.002 A 
ATOM      7  C5  OXE d   1       1.960  -0.485  -2.943  0.00  0.00    -0.002 A 
ATOM      8  C6  OXE d   1       1.601  -1.563  -2.142  0.00  0.00     0.003 A 
ENDROOT
TORSDOF 0
ENDMDL
