MODEL 1
REMARK minimizedAffinity -2.0782516
REMARK minimizedRMSD -1
REMARK  0 active torsions:
REMARK  status: ('A' for Active; 'I' for Inactive)
ROOT
ATOM      1  C2' OXE d   1      -1.452   1.084   1.815  0.00  0.00     0.078 C 
ATOM      2  C1' OXE d   1      -0.369  -1.450   1.279  0.00  0.00     0.078 C 
ATOM      3  C1  OXE d   1       0.118  -0.287   0.450  0.00  0.00    -0.078 A 
ATOM      4  C2  OXE d   1      -0.452   0.941   0.688  0.00  0.00    -0.078 A 
ATOM      5  C3  OXE d   1      -0.000   2.057  -0.010  0.00  0.00     0.003 A 
ATOM      6  C4  OXE d   1       0.918   1.914  -1.057  0.00  0.00    -0.002 A 
ATOM      7  C5  OXE d   1       1.481   0.666  -1.343  0.00  0.00    -0.002 A 
ATOM      8  C6  OXE d   1       1.124  -0.435  -0.572  0.00  0.00     0.003 A 
ENDROOT
TORSDOF 0
ENDMDL
