MODEL 1
REMARK minimizedAffinity -2.28113055
REMARK minimizedRMSD -1
REMARK  0 active torsions:
REMARK  status: ('A' for Active; 'I' for Inactive)
ROOT
ATOM      1  C2' OXE d   1      -0.588  -0.019   0.891  0.00  0.00     0.078 C 
ATOM      2  C1' OXE d   1       0.708   2.083  -0.444  0.00  0.00     0.078 C 
ATOM      3  C1  OXE d   1       1.184   0.678  -0.716  0.00  0.00    -0.078 A 
ATOM      4  C2  OXE d   1       0.575  -0.340  -0.023  0.00  0.00    -0.078 A 
ATOM      5  C3  OXE d   1       0.939  -1.660  -0.276  0.00  0.00     0.003 A 
ATOM      6  C4  OXE d   1       2.022  -1.948  -1.115  0.00  0.00    -0.002 A 
ATOM      7  C5  OXE d   1       2.682  -0.922  -1.800  0.00  0.00    -0.002 A 
ATOM      8  C6  OXE d   1       2.248   0.390  -1.645  0.00  0.00     0.003 A 
ENDROOT
TORSDOF 0
ENDMDL
