MODEL 1
REMARK minimizedAffinity -1.16827273
REMARK minimizedRMSD -1
REMARK  0 active torsions:
REMARK  status: ('A' for Active; 'I' for Inactive)
ROOT
ATOM      1  C2' OXE d   1      -0.848   0.159   1.514  0.00  0.00     0.078 C 
ATOM      2  C1' OXE d   1       0.181  -2.251   0.507  0.00  0.00     0.078 C 
ATOM      3  C1  OXE d   1       0.533  -0.977  -0.220  0.00  0.00    -0.078 A 
ATOM      4  C2  OXE d   1      -0.013   0.192   0.252  0.00  0.00    -0.078 A 
ATOM      5  C3  OXE d   1       0.323   1.402  -0.348  0.00  0.00     0.003 A 
ATOM      6  C4  OXE d   1       1.088   1.423  -1.521  0.00  0.00    -0.002 A 
ATOM      7  C5  OXE d   1       1.621   0.239  -2.042  0.00  0.00    -0.002 A 
ATOM      8  C6  OXE d   1       1.389  -0.962  -1.380  0.00  0.00     0.003 A 
ENDROOT
TORSDOF 0
ENDMDL
