MODEL 1
REMARK minimizedAffinity -0.658004999
REMARK minimizedRMSD -1
REMARK  0 active torsions:
REMARK  status: ('A' for Active; 'I' for Inactive)
ROOT
ATOM      1  C2' OXE d   1       0.748   1.364   0.752  0.00  0.00     0.078 C 
ATOM      2  C1' OXE d   1       2.370   0.658  -1.428  0.00  0.00     0.078 C 
ATOM      3  C1  OXE d   1       1.525  -0.423  -0.801  0.00  0.00    -0.078 A 
ATOM      4  C2  OXE d   1       0.770  -0.079   0.295  0.00  0.00    -0.078 A 
ATOM      5  C3  OXE d   1      -0.070  -1.024   0.877  0.00  0.00     0.003 A 
ATOM      6  C4  OXE d   1      -0.036  -2.358   0.455  0.00  0.00    -0.002 A 
ATOM      7  C5  OXE d   1       0.756  -2.738  -0.634  0.00  0.00    -0.002 A 
ATOM      8  C6  OXE d   1       1.508  -1.776  -1.298  0.00  0.00     0.003 A 
ENDROOT
TORSDOF 0
ENDMDL
