MODEL 1
REMARK minimizedAffinity -4.48234797
REMARK minimizedRMSD -1
REMARK  0 active torsions:
REMARK  status: ('A' for Active; 'I' for Inactive)
ROOT
ATOM      1  C2' OXE d   1      -1.084  -0.437   0.938  0.00  0.00     0.078 C 
ATOM      2  C1' OXE d   1      -0.878  -1.191  -1.758  0.00  0.00     0.078 C 
ATOM      3  C1  OXE d   1       0.124  -0.197  -1.227  0.00  0.00    -0.078 A 
ATOM      4  C2  OXE d   1      -0.013   0.202   0.081  0.00  0.00    -0.078 A 
ATOM      5  C3  OXE d   1       0.917   1.076   0.636  0.00  0.00     0.003 A 
ATOM      6  C4  OXE d   1       1.899   1.670  -0.166  0.00  0.00    -0.002 A 
ATOM      7  C5  OXE d   1       2.032   1.308  -1.511  0.00  0.00    -0.002 A 
ATOM      8  C6  OXE d   1       1.181   0.346  -2.045  0.00  0.00     0.003 A 
ENDROOT
TORSDOF 0
ENDMDL
