MODEL 1
REMARK minimizedAffinity 1.82431424
REMARK minimizedRMSD -1
REMARK  0 active torsions:
REMARK  status: ('A' for Active; 'I' for Inactive)
ROOT
ATOM      1  C2' OXE d   1       1.966   0.818  -1.006  0.00  0.00     0.078 C 
ATOM      2  C1' OXE d   1       0.795   2.953   0.392  0.00  0.00     0.078 C 
ATOM      3  C1  OXE d   1       0.174   1.587   0.545  0.00  0.00    -0.078 A 
ATOM      4  C2  OXE d   1       0.725   0.557  -0.179  0.00  0.00    -0.078 A 
ATOM      5  C3  OXE d   1       0.225  -0.734  -0.032  0.00  0.00     0.003 A 
ATOM      6  C4  OXE d   1      -0.928  -0.965   0.727  0.00  0.00    -0.002 A 
ATOM      7  C5  OXE d   1      -1.529   0.078   1.441  0.00  0.00    -0.002 A 
ATOM      8  C6  OXE d   1      -0.966   1.348   1.395  0.00  0.00     0.003 A 
ENDROOT
TORSDOF 0
ENDMDL
