MODEL 1
REMARK minimizedAffinity -2.50868678
REMARK minimizedRMSD -1
REMARK  0 active torsions:
REMARK  status: ('A' for Active; 'I' for Inactive)
ROOT
ATOM      1  C2' OXE d   1      -0.123  -2.260   1.238  0.00  0.00     0.078 C 
ATOM      2  C1' OXE d   1      -1.428   0.137   1.896  0.00  0.00     0.078 C 
ATOM      3  C1  OXE d   1      -0.407   0.173   0.787  0.00  0.00    -0.078 A 
ATOM      4  C2  OXE d   1       0.260  -0.994   0.503  0.00  0.00    -0.078 A 
ATOM      5  C3  OXE d   1       1.173  -1.028  -0.548  0.00  0.00     0.003 A 
ATOM      6  C4  OXE d   1       1.529   0.150  -1.216  0.00  0.00    -0.002 A 
ATOM      7  C5  OXE d   1       0.890   1.357  -0.915  0.00  0.00    -0.002 A 
ATOM      8  C6  OXE d   1      -0.109   1.378   0.052  0.00  0.00     0.003 A 
ENDROOT
TORSDOF 0
ENDMDL
