MODEL 1
REMARK minimizedAffinity -2.04492855
REMARK minimizedRMSD -1
REMARK  0 active torsions:
REMARK  status: ('A' for Active; 'I' for Inactive)
ROOT
ATOM      1  C2' OXE d   1       1.483  -0.014  -2.010  0.00  0.00     0.078 C 
ATOM      2  C1' OXE d   1       0.585  -2.526  -1.138  0.00  0.00     0.078 C 
ATOM      3  C1  OXE d   1       0.172  -1.315  -0.339  0.00  0.00    -0.078 A 
ATOM      4  C2  OXE d   1       0.655  -0.095  -0.746  0.00  0.00    -0.078 A 
ATOM      5  C3  OXE d   1       0.261   1.061  -0.077  0.00  0.00     0.003 A 
ATOM      6  C4  OXE d   1      -0.498   0.976   1.097  0.00  0.00    -0.002 A 
ATOM      7  C5  OXE d   1      -0.967  -0.261   1.551  0.00  0.00    -0.002 A 
ATOM      8  C6  OXE d   1      -0.677  -1.409   0.823  0.00  0.00     0.003 A 
ENDROOT
TORSDOF 0
ENDMDL
