MODEL 1
REMARK minimizedAffinity -3.1885016
REMARK minimizedRMSD -1
REMARK  0 active torsions:
REMARK  status: ('A' for Active; 'I' for Inactive)
ROOT
ATOM      1  C2' OXE d   1       2.621  -0.113  -1.343  0.00  0.00     0.078 C 
ATOM      2  C1' OXE d   1       1.250  -2.375  -0.402  0.00  0.00     0.078 C 
ATOM      3  C1  OXE d   1       0.727  -1.018  -0.001  0.00  0.00    -0.078 A 
ATOM      4  C2  OXE d   1       1.431   0.082  -0.428  0.00  0.00    -0.078 A 
ATOM      5  C3  OXE d   1       0.961   1.358  -0.132  0.00  0.00     0.003 A 
ATOM      6  C4  OXE d   1      -0.134   1.530   0.723  0.00  0.00    -0.002 A 
ATOM      7  C5  OXE d   1      -0.842   0.422   1.201  0.00  0.00    -0.002 A 
ATOM      8  C6  OXE d   1      -0.451  -0.855   0.815  0.00  0.00     0.003 A 
ENDROOT
TORSDOF 0
ENDMDL
