MODEL 1
REMARK minimizedAffinity -2.70463896
REMARK minimizedRMSD -1
REMARK  0 active torsions:
REMARK  status: ('A' for Active; 'I' for Inactive)
ROOT
ATOM      1  C2' OXE d   1       1.041  -2.358  -0.584  0.00  0.00     0.078 C 
ATOM      2  C1' OXE d   1       2.630  -0.681  -2.178  0.00  0.00     0.078 C 
ATOM      3  C1  OXE d   1       1.849  -0.049  -1.053  0.00  0.00    -0.078 A 
ATOM      4  C2  OXE d   1       1.038  -0.870  -0.307  0.00  0.00    -0.078 A 
ATOM      5  C3  OXE d   1       0.339  -0.349   0.777  0.00  0.00     0.003 A 
ATOM      6  C4  OXE d   1       0.334   1.030   1.020  0.00  0.00    -0.002 A 
ATOM      7  C5  OXE d   1       1.122   1.890   0.248  0.00  0.00    -0.002 A 
ATOM      8  C6  OXE d   1       1.917   1.362  -0.763  0.00  0.00     0.003 A 
ENDROOT
TORSDOF 0
ENDMDL
