MODEL 1
REMARK minimizedAffinity -1.44565368
REMARK minimizedRMSD -1
REMARK  0 active torsions:
REMARK  status: ('A' for Active; 'I' for Inactive)
ROOT
ATOM      1  C   UNL d   1      -0.116  -0.008   0.129  0.00  0.00     0.172 C 
ATOM      2  N   UNL d   1      -0.394  -1.317  -0.413  0.00  0.00    -0.070 N 
ATOM      3  C1  UNL d   1      -0.831  -2.400   0.301  0.00  0.00    -0.004 A 
ATOM      4  C2  UNL d   1      -0.978  -3.453  -0.577  0.00  0.00    -0.047 A 
ATOM      5  C3  UNL d   1      -0.616  -2.986  -1.862  0.00  0.00    -0.047 A 
ATOM      6  C4  UNL d   1      -0.259  -1.660  -1.733  0.00  0.00    -0.004 A 
ENDROOT
TORSDOF 0
ENDMDL
