MODEL 1
REMARK minimizedAffinity -2.82929754
REMARK minimizedRMSD -1
REMARK  0 active torsions:
REMARK  status: ('A' for Active; 'I' for Inactive)
ROOT
ATOM      1  C   UNL d   1      -1.104  -2.398   0.704  0.00  0.00     0.172 C 
ATOM      2  N   UNL d   1      -0.814  -1.008   0.442  0.00  0.00    -0.070 N 
ATOM      3  C1  UNL d   1      -0.666  -0.031   1.390  0.00  0.00    -0.004 A 
ATOM      4  C2  UNL d   1      -0.396   1.153   0.738  0.00  0.00    -0.047 A 
ATOM      5  C3  UNL d   1      -0.384   0.878  -0.650  0.00  0.00    -0.047 A 
ATOM      6  C4  UNL d   1      -0.645  -0.467  -0.805  0.00  0.00    -0.004 A 
ENDROOT
TORSDOF 0
ENDMDL
