MODEL 1
REMARK minimizedAffinity -3.2840178
REMARK minimizedRMSD -1
REMARK  0 active torsions:
REMARK  status: ('A' for Active; 'I' for Inactive)
ROOT
ATOM      1  C   UNL d   1       0.312  -1.477  -2.310  0.00  0.00     0.172 C 
ATOM      2  N   UNL d   1       0.094  -0.644  -1.150  0.00  0.00    -0.070 N 
ATOM      3  C1  UNL d   1      -0.503  -1.041   0.016  0.00  0.00    -0.004 A 
ATOM      4  C2  UNL d   1      -0.520   0.040   0.871  0.00  0.00    -0.047 A 
ATOM      5  C3  UNL d   1       0.088   1.125   0.194  0.00  0.00    -0.047 A 
ATOM      6  C4  UNL d   1       0.459   0.673  -1.055  0.00  0.00    -0.004 A 
ENDROOT
TORSDOF 0
ENDMDL
