MODEL 1
REMARK minimizedAffinity -1.28425539
REMARK minimizedRMSD -1
REMARK  0 active torsions:
REMARK  status: ('A' for Active; 'I' for Inactive)
ROOT
ATOM      1  C   UNL d   1      -0.627  -2.778   1.115  0.00  0.00     0.172 C 
ATOM      2  N   UNL d   1      -0.562  -1.354   0.884  0.00  0.00    -0.070 N 
ATOM      3  C1  UNL d   1      -0.693  -0.383   1.840  0.00  0.00    -0.004 A 
ATOM      4  C2  UNL d   1      -0.570   0.841   1.218  0.00  0.00    -0.047 A 
ATOM      5  C3  UNL d   1      -0.360   0.597  -0.160  0.00  0.00    -0.047 A 
ATOM      6  C4  UNL d   1      -0.359  -0.770  -0.339  0.00  0.00    -0.004 A 
ENDROOT
TORSDOF 0
ENDMDL
