MODEL 1
REMARK minimizedAffinity -1.70769584
REMARK minimizedRMSD -1
REMARK  0 active torsions:
REMARK  status: ('A' for Active; 'I' for Inactive)
ROOT
ATOM      1  C   UNL d   1       0.082   1.759   0.017  0.00  0.00     0.172 C 
ATOM      2  N   UNL d   1      -0.298   0.441   0.472  0.00  0.00    -0.070 N 
ATOM      3  C1  UNL d   1      -0.150  -0.721  -0.237  0.00  0.00    -0.004 A 
ATOM      4  C2  UNL d   1      -0.630  -1.753   0.540  0.00  0.00    -0.047 A 
ATOM      5  C3  UNL d   1      -1.083  -1.191   1.758  0.00  0.00    -0.047 A 
ATOM      6  C4  UNL d   1      -0.865   0.169   1.688  0.00  0.00    -0.004 A 
ENDROOT
TORSDOF 0
ENDMDL
