MODEL 1
REMARK minimizedAffinity -3.08935833
REMARK minimizedRMSD -1
REMARK  0 active torsions:
REMARK  status: ('A' for Active; 'I' for Inactive)
ROOT
ATOM      1  C   UNL d   1       0.706  -0.369   0.045  0.00  0.00     0.172 C 
ATOM      2  N   UNL d   1       0.347  -1.634  -0.551  0.00  0.00    -0.070 N 
ATOM      3  C1  UNL d   1      -0.168  -2.714   0.115  0.00  0.00    -0.004 A 
ATOM      4  C2  UNL d   1      -0.374  -3.719  -0.805  0.00  0.00    -0.047 A 
ATOM      5  C3  UNL d   1       0.031  -3.226  -2.068  0.00  0.00    -0.047 A 
ATOM      6  C4  UNL d   1       0.474  -1.934  -1.882  0.00  0.00    -0.004 A 
ENDROOT
TORSDOF 0
ENDMDL
