MODEL 1
REMARK minimizedAffinity -3.37291765
REMARK minimizedRMSD -1
REMARK  0 active torsions:
REMARK  status: ('A' for Active; 'I' for Inactive)
ROOT
ATOM      1  C   UNL d   1      -0.080   1.600   0.068  0.00  0.00     0.172 C 
ATOM      2  N   UNL d   1      -0.510   0.266   0.415  0.00  0.00    -0.070 N 
ATOM      3  C1  UNL d   1      -1.556  -0.046   1.241  0.00  0.00    -0.004 A 
ATOM      4  C2  UNL d   1      -1.641  -1.420   1.315  0.00  0.00    -0.047 A 
ATOM      5  C3  UNL d   1      -0.609  -1.952   0.506  0.00  0.00    -0.047 A 
ATOM      6  C4  UNL d   1       0.075  -0.886  -0.040  0.00  0.00    -0.004 A 
ENDROOT
TORSDOF 0
ENDMDL
