MODEL 1
REMARK minimizedAffinity -0.579743385
REMARK minimizedRMSD -1
REMARK  0 active torsions:
REMARK  status: ('A' for Active; 'I' for Inactive)
ROOT
ATOM      1  C   UNL d   1      -0.124   1.906  -0.284  0.00  0.00     0.172 C 
ATOM      2  N   UNL d   1      -0.545   0.658   0.308  0.00  0.00    -0.070 N 
ATOM      3  C1  UNL d   1      -1.443   0.523   1.333  0.00  0.00    -0.004 A 
ATOM      4  C2  UNL d   1      -1.574  -0.821   1.606  0.00  0.00    -0.047 A 
ATOM      5  C3  UNL d   1      -0.724  -1.519   0.715  0.00  0.00    -0.047 A 
ATOM      6  C4  UNL d   1      -0.099  -0.579  -0.077  0.00  0.00    -0.004 A 
ENDROOT
TORSDOF 0
ENDMDL
