MODEL 1
REMARK minimizedAffinity -2.39158988
REMARK minimizedRMSD -1
REMARK  0 active torsions:
REMARK  status: ('A' for Active; 'I' for Inactive)
ROOT
ATOM      1  C   UNL d   1      -0.038   1.766  -1.202  0.00  0.00     0.172 C 
ATOM      2  N   UNL d   1       0.803   2.599  -0.376  0.00  0.00    -0.070 N 
ATOM      3  C1  UNL d   1       2.172   2.626  -0.402  0.00  0.00    -0.004 A 
ATOM      4  C2  UNL d   1       2.594   3.548   0.532  0.00  0.00    -0.047 A 
ATOM      5  C3  UNL d   1       1.438   4.093   1.141  0.00  0.00    -0.047 A 
ATOM      6  C4  UNL d   1       0.344   3.488   0.560  0.00  0.00    -0.004 A 
ENDROOT
TORSDOF 0
ENDMDL
