MODEL 1
REMARK minimizedAffinity -2.20612192
REMARK minimizedRMSD -1
REMARK  0 active torsions:
REMARK  status: ('A' for Active; 'I' for Inactive)
ROOT
ATOM      1  C   UNL d   1      -0.853  -2.595   0.726  0.00  0.00     0.172 C 
ATOM      2  N   UNL d   1      -0.591  -1.216   0.384  0.00  0.00    -0.070 N 
ATOM      3  C1  UNL d   1      -0.033  -0.776  -0.786  0.00  0.00    -0.004 A 
ATOM      4  C2  UNL d   1       0.048   0.598  -0.724  0.00  0.00    -0.047 A 
ATOM      5  C3  UNL d   1      -0.478   0.998   0.528  0.00  0.00    -0.047 A 
ATOM      6  C4  UNL d   1      -0.866  -0.146   1.194  0.00  0.00    -0.004 A 
ENDROOT
TORSDOF 0
ENDMDL
