MODEL 1
REMARK minimizedAffinity -1.40219963
REMARK minimizedRMSD -1
REMARK  0 active torsions:
REMARK  status: ('A' for Active; 'I' for Inactive)
ROOT
ATOM      1  C   UNL d   1       2.128   3.241   1.595  0.00  0.00     0.172 C 
ATOM      2  N   UNL d   1       1.223   2.486   0.760  0.00  0.00    -0.070 N 
ATOM      3  C1  UNL d   1       0.573   2.962  -0.347  0.00  0.00    -0.004 A 
ATOM      4  C2  UNL d   1      -0.192   1.937  -0.861  0.00  0.00    -0.047 A 
ATOM      5  C3  UNL d   1       0.005   0.806  -0.033  0.00  0.00    -0.047 A 
ATOM      6  C4  UNL d   1       0.885   1.174   0.962  0.00  0.00    -0.004 A 
ENDROOT
TORSDOF 0
ENDMDL
