MODEL 1
REMARK minimizedAffinity -2.24758601
REMARK minimizedRMSD -1
REMARK  0 active torsions:
REMARK  status: ('A' for Active; 'I' for Inactive)
ROOT
ATOM      1  C   UNL d   1      -1.025  -2.609   0.682  0.00  0.00     0.172 C 
ATOM      2  N   UNL d   1      -0.687  -1.242   0.362  0.00  0.00    -0.070 N 
ATOM      3  C1  UNL d   1      -0.845  -0.165   1.192  0.00  0.00    -0.004 A 
ATOM      4  C2  UNL d   1      -0.406   0.955   0.519  0.00  0.00    -0.047 A 
ATOM      5  C3  UNL d   1       0.031   0.536  -0.760  0.00  0.00    -0.047 A 
ATOM      6  C4  UNL d   1      -0.154  -0.829  -0.831  0.00  0.00    -0.004 A 
ENDROOT
TORSDOF 0
ENDMDL
