MODEL 1
REMARK minimizedAffinity -1.98154497
REMARK minimizedRMSD -1
REMARK  0 active torsions:
REMARK  status: ('A' for Active; 'I' for Inactive)
ROOT
ATOM      1  C   UNL d   1      -1.262  -2.445   0.528  0.00  0.00     0.172 C 
ATOM      2  N   UNL d   1      -0.855  -1.059   0.534  0.00  0.00    -0.070 N 
ATOM      3  C1  UNL d   1      -1.066  -0.170   1.554  0.00  0.00    -0.004 A 
ATOM      4  C2  UNL d   1      -0.530   1.042   1.174  0.00  0.00    -0.047 A 
ATOM      5  C3  UNL d   1       0.020   0.875  -0.119  0.00  0.00    -0.047 A 
ATOM      6  C4  UNL d   1      -0.195  -0.435  -0.491  0.00  0.00    -0.004 A 
ENDROOT
TORSDOF 0
ENDMDL
