MODEL 1
REMARK minimizedAffinity -1.97318375
REMARK minimizedRMSD -1
REMARK  0 active torsions:
REMARK  status: ('A' for Active; 'I' for Inactive)
ROOT
ATOM      1  C   UNL d   1       1.797   2.193   0.300  0.00  0.00     0.172 C 
ATOM      2  N   UNL d   1       0.792   1.162   0.413  0.00  0.00    -0.070 N 
ATOM      3  C1  UNL d   1      -0.336   1.058  -0.356  0.00  0.00    -0.004 A 
ATOM      4  C2  UNL d   1      -1.031  -0.056   0.062  0.00  0.00    -0.047 A 
ATOM      5  C3  UNL d   1      -0.297  -0.641   1.121  0.00  0.00    -0.047 A 
ATOM      6  C4  UNL d   1       0.827   0.133   1.317  0.00  0.00    -0.004 A 
ENDROOT
TORSDOF 0
ENDMDL
