MODEL 1
REMARK minimizedAffinity -0.702800453
REMARK minimizedRMSD -1
REMARK  0 active torsions:
REMARK  status: ('A' for Active; 'I' for Inactive)
ROOT
ATOM      1  C   UNL d   1      -0.976  -1.838   1.105  0.00  0.00     0.172 C 
ATOM      2  N   UNL d   1      -0.684  -0.632   0.366  0.00  0.00    -0.070 N 
ATOM      3  C1  UNL d   1      -1.064   0.634   0.722  0.00  0.00    -0.004 A 
ATOM      4  C2  UNL d   1      -0.593   1.502  -0.239  0.00  0.00    -0.047 A 
ATOM      5  C3  UNL d   1       0.093   0.731  -1.207  0.00  0.00    -0.047 A 
ATOM      6  C4  UNL d   1       0.021  -0.587  -0.808  0.00  0.00    -0.004 A 
ENDROOT
TORSDOF 0
ENDMDL
