MODEL 1
REMARK minimizedAffinity 0.175049931
REMARK minimizedRMSD -1
REMARK  0 active torsions:
REMARK  status: ('A' for Active; 'I' for Inactive)
ROOT
ATOM      1  C   UNL d   1      -0.154   1.023  -0.492  0.00  0.00     0.172 C 
ATOM      2  N   UNL d   1      -0.568  -0.092   0.327  0.00  0.00    -0.070 N 
ATOM      3  C1  UNL d   1      -0.749  -0.062   1.684  0.00  0.00    -0.004 A 
ATOM      4  C2  UNL d   1      -1.144  -1.320   2.086  0.00  0.00    -0.047 A 
ATOM      5  C3  UNL d   1      -1.201  -2.135   0.930  0.00  0.00    -0.047 A 
ATOM      6  C4  UNL d   1      -0.839  -1.349  -0.144  0.00  0.00    -0.004 A 
ENDROOT
TORSDOF 0
ENDMDL
