MODEL 1
REMARK minimizedAffinity -3.07628179
REMARK minimizedRMSD -1
REMARK  0 active torsions:
REMARK  status: ('A' for Active; 'I' for Inactive)
ROOT
ATOM      1  C   UNL d   1       0.042   0.482  -0.015  0.00  0.00     0.172 C 
ATOM      2  N   UNL d   1      -0.214  -0.860  -0.483  0.00  0.00    -0.070 N 
ATOM      3  C1  UNL d   1      -0.761  -1.873   0.258  0.00  0.00    -0.004 A 
ATOM      4  C2  UNL d   1      -0.840  -2.989  -0.546  0.00  0.00    -0.047 A 
ATOM      5  C3  UNL d   1      -0.323  -2.635  -1.815  0.00  0.00    -0.047 A 
ATOM      6  C4  UNL d   1       0.057  -1.311  -1.748  0.00  0.00    -0.004 A 
ENDROOT
TORSDOF 0
ENDMDL
