MODEL 1
REMARK minimizedAffinity 7.52372932
REMARK minimizedRMSD -1
REMARK  3 active torsions:
REMARK  status: ('A' for Active; 'I' for Inactive)
REMARK    1  A    between atoms: C3'_2  and  C2'_3 
REMARK    2  A    between atoms: C2'_3  and  C1'_4 
REMARK    3  A    between atoms: C1'_4  and  C1_5 
ROOT
ATOM      1  C1  N4B d   1       0.850   0.000   2.984  0.00  0.00    -0.075 A 
ATOM      2  C2  N4B d   1       1.309   0.269   4.293  0.00  0.00     0.002 A 
ATOM      3  C3  N4B d   1       1.795  -0.750   5.073  0.00  0.00     0.002 A 
ATOM      4  C4  N4B d   1       1.815  -2.045   4.576  0.00  0.00    -0.004 A 
ATOM      5  C5  N4B d   1       1.395  -2.292   3.302  0.00  0.00     0.002 A 
ATOM      6  C6  N4B d   1       0.907  -1.276   2.505  0.00  0.00     0.002 A 
ENDROOT
BRANCH   1   7
ATOM      7  C1' N4B d   1       0.230   1.068   2.125  0.00  0.00     0.057 C 
BRANCH   7   8
ATOM      8  C2' N4B d   1      -0.572   2.019   3.008  0.00  0.00     0.009 C 
BRANCH   8   9
ATOM      9  C3' N4B d   1      -1.532   2.873   2.198  0.00  0.00     0.004 C 
ATOM     10  C4' N4B d   1      -0.905   4.145   1.708  0.00  0.00     0.003 C 
ENDBRANCH   8   9
ENDBRANCH   7   8
ENDBRANCH   1   7
TORSDOF 3
ENDMDL
