MODEL 1
REMARK minimizedAffinity 12.2643862
REMARK minimizedRMSD -1
REMARK  3 active torsions:
REMARK  status: ('A' for Active; 'I' for Inactive)
REMARK    1  A    between atoms: C3'_2  and  C2'_3 
REMARK    2  A    between atoms: C2'_3  and  C1'_4 
REMARK    3  A    between atoms: C1'_4  and  C1_5 
ROOT
ATOM      1  C1  N4B d   1      -0.786  -2.568  -4.925  0.00  0.00    -0.075 A 
ATOM      2  C2  N4B d   1      -1.161  -2.774  -3.579  0.00  0.00     0.002 A 
ATOM      3  C3  N4B d   1      -0.786  -1.869  -2.616  0.00  0.00     0.002 A 
ATOM      4  C4  N4B d   1      -0.023  -0.767  -2.971  0.00  0.00    -0.004 A 
ATOM      5  C5  N4B d   1       0.314  -0.562  -4.277  0.00  0.00     0.002 A 
ATOM      6  C6  N4B d   1      -0.059  -1.461  -5.256  0.00  0.00     0.002 A 
ENDROOT
BRANCH   1   7
ATOM      7  C1' N4B d   1      -1.099  -3.574  -5.999  0.00  0.00     0.057 C 
BRANCH   7   8
ATOM      8  C2' N4B d   1      -2.552  -4.018  -5.861  0.00  0.00     0.009 C 
BRANCH   8   9
ATOM      9  C3' N4B d   1      -2.670  -5.516  -5.643  0.00  0.00     0.004 C 
ATOM     10  C4' N4B d   1      -1.856  -6.000  -4.480  0.00  0.00     0.003 C 
ENDBRANCH   8   9
ENDBRANCH   7   8
ENDBRANCH   1   7
TORSDOF 3
ENDMDL
