MODEL 1
REMARK minimizedAffinity 10.6274481
REMARK minimizedRMSD -1
REMARK  3 active torsions:
REMARK  status: ('A' for Active; 'I' for Inactive)
REMARK    1  A    between atoms: C3'_2  and  C2'_3 
REMARK    2  A    between atoms: C2'_3  and  C1'_4 
REMARK    3  A    between atoms: C1'_4  and  C1_5 
ROOT
ATOM      1  C1  N4B d   1       1.392   0.153  -4.333  0.00  0.00    -0.075 A 
ATOM      2  C2  N4B d   1       0.260   0.093  -5.175  0.00  0.00     0.002 A 
ATOM      3  C3  N4B d   1      -0.673  -0.899  -5.001  0.00  0.00     0.002 A 
ATOM      4  C4  N4B d   1      -0.486  -1.851  -4.009  0.00  0.00    -0.004 A 
ATOM      5  C5  N4B d   1       0.597  -1.771  -3.184  0.00  0.00     0.002 A 
ATOM      6  C6  N4B d   1       1.541  -0.777  -3.345  0.00  0.00     0.002 A 
ENDROOT
BRANCH   1   7
ATOM      7  C1' N4B d   1       2.483   1.168  -4.540  0.00  0.00     0.057 C 
BRANCH   7   8
ATOM      8  C2' N4B d   1       3.804   0.443  -4.775  0.00  0.00     0.009 C 
BRANCH   8   9
ATOM      9  C3' N4B d   1       4.635   1.113  -5.855  0.00  0.00     0.004 C 
ATOM     10  C4' N4B d   1       5.882   1.751  -5.318  0.00  0.00     0.003 C 
ENDBRANCH   8   9
ENDBRANCH   7   8
ENDBRANCH   1   7
TORSDOF 3
ENDMDL
