MODEL 1
REMARK minimizedAffinity 13.1577663
REMARK minimizedRMSD -1
REMARK  3 active torsions:
REMARK  status: ('A' for Active; 'I' for Inactive)
REMARK    1  A    between atoms: C3'_2  and  C2'_3 
REMARK    2  A    between atoms: C2'_3  and  C1'_4 
REMARK    3  A    between atoms: C1'_4  and  C1_5 
ROOT
ATOM      1  C1  N4B d   1       2.675  -0.705  -4.613  0.00  0.00    -0.075 A 
ATOM      2  C2  N4B d   1       1.588   0.169  -4.840  0.00  0.00     0.002 A 
ATOM      3  C3  N4B d   1       0.336  -0.341  -5.079  0.00  0.00     0.002 A 
ATOM      4  C4  N4B d   1       0.150  -1.715  -5.115  0.00  0.00    -0.004 A 
ATOM      5  C5  N4B d   1       1.200  -2.552  -4.870  0.00  0.00     0.002 A 
ATOM      6  C6  N4B d   1       2.463  -2.053  -4.624  0.00  0.00     0.002 A 
ENDROOT
BRANCH   1   7
ATOM      7  C1' N4B d   1       4.078  -0.195  -4.432  0.00  0.00     0.057 C 
BRANCH   7   8
ATOM      8  C2' N4B d   1       4.142   1.265  -4.870  0.00  0.00     0.009 C 
BRANCH   8   9
ATOM      9  C3' N4B d   1       5.497   1.887  -4.579  0.00  0.00     0.004 C 
ATOM     10  C4' N4B d   1       5.965   2.799  -5.674  0.00  0.00     0.003 C 
ENDBRANCH   8   9
ENDBRANCH   7   8
ENDBRANCH   1   7
TORSDOF 3
ENDMDL
