MODEL 1
REMARK minimizedAffinity 10.560957
REMARK minimizedRMSD -1
REMARK  3 active torsions:
REMARK  status: ('A' for Active; 'I' for Inactive)
REMARK    1  A    between atoms: C3'_2  and  C2'_3 
REMARK    2  A    between atoms: C2'_3  and  C1'_4 
REMARK    3  A    between atoms: C1'_4  and  C1_5 
ROOT
ATOM      1  C1  N4B d   1       0.940   0.299   2.995  0.00  0.00    -0.075 A 
ATOM      2  C2  N4B d   1       0.803  -0.983   2.419  0.00  0.00     0.002 A 
ATOM      3  C3  N4B d   1      -0.343  -1.310   1.736  0.00  0.00     0.002 A 
ATOM      4  C4  N4B d   1      -1.369  -0.382   1.633  0.00  0.00    -0.004 A 
ATOM      5  C5  N4B d   1      -1.218   0.863   2.170  0.00  0.00     0.002 A 
ATOM      6  C6  N4B d   1      -0.070   1.207   2.856  0.00  0.00     0.002 A 
ENDROOT
BRANCH   1   7
ATOM      7  C1' N4B d   1       2.138   0.673   3.824  0.00  0.00     0.057 C 
BRANCH   7   8
ATOM      8  C2' N4B d   1       3.291   1.045   2.898  0.00  0.00     0.009 C 
BRANCH   8   9
ATOM      9  C3' N4B d   1       4.623   1.067   3.629  0.00  0.00     0.004 C 
ATOM     10  C4' N4B d   1       4.484   0.793   5.097  0.00  0.00     0.003 C 
ENDBRANCH   8   9
ENDBRANCH   7   8
ENDBRANCH   1   7
TORSDOF 3
ENDMDL
