MODEL 1
REMARK minimizedAffinity 12.4034834
REMARK minimizedRMSD -1
REMARK  3 active torsions:
REMARK  status: ('A' for Active; 'I' for Inactive)
REMARK    1  A    between atoms: C3'_2  and  C2'_3 
REMARK    2  A    between atoms: C2'_3  and  C1'_4 
REMARK    3  A    between atoms: C1'_4  and  C1_5 
ROOT
ATOM      1  C1  N4B d   1      -1.523  -3.391  -3.899  0.00  0.00    -0.075 A 
ATOM      2  C2  N4B d   1      -2.015  -4.550  -3.258  0.00  0.00     0.002 A 
ATOM      3  C3  N4B d   1      -2.410  -5.632  -4.005  0.00  0.00     0.002 A 
ATOM      4  C4  N4B d   1      -2.340  -5.573  -5.389  0.00  0.00    -0.004 A 
ATOM      5  C5  N4B d   1      -1.840  -4.460  -5.999  0.00  0.00     0.002 A 
ATOM      6  C6  N4B d   1      -1.435  -3.366  -5.261  0.00  0.00     0.002 A 
ENDROOT
BRANCH   1   7
ATOM      7  C1' N4B d   1      -1.159  -2.151  -3.129  0.00  0.00     0.057 C 
BRANCH   7   8
ATOM      8  C2' N4B d   1       0.237  -1.696  -3.542  0.00  0.00     0.009 C 
BRANCH   8   9
ATOM      9  C3' N4B d   1       0.207  -0.366  -4.276  0.00  0.00     0.004 C 
ATOM     10  C4' N4B d   1       1.436   0.458  -4.033  0.00  0.00     0.003 C 
ENDBRANCH   8   9
ENDBRANCH   7   8
ENDBRANCH   1   7
TORSDOF 3
ENDMDL
