MODEL 1
REMARK minimizedAffinity 10.867445
REMARK minimizedRMSD -1
REMARK  3 active torsions:
REMARK  status: ('A' for Active; 'I' for Inactive)
REMARK    1  A    between atoms: C3'_2  and  C2'_3 
REMARK    2  A    between atoms: C2'_3  and  C1'_4 
REMARK    3  A    between atoms: C1'_4  and  C1_5 
ROOT
ATOM      1  C1  N4B d   1       3.759  -3.053   5.082  0.00  0.00    -0.075 A 
ATOM      2  C2  N4B d   1       3.496  -2.295   3.920  0.00  0.00     0.002 A 
ATOM      3  C3  N4B d   1       2.208  -2.169   3.460  0.00  0.00     0.002 A 
ATOM      4  C4  N4B d   1       1.174  -2.804   4.132  0.00  0.00    -0.004 A 
ATOM      5  C5  N4B d   1       1.434  -3.513   5.268  0.00  0.00     0.002 A 
ATOM      6  C6  N4B d   1       2.723  -3.645   5.744  0.00  0.00     0.002 A 
ENDROOT
BRANCH   1   7
ATOM      7  C1' N4B d   1       5.161  -3.291   5.574  0.00  0.00     0.057 C 
BRANCH   7   8
ATOM      8  C2' N4B d   1       5.973  -3.960   4.468  0.00  0.00     0.009 C 
BRANCH   8   9
ATOM      9  C3' N4B d   1       5.946  -5.474   4.580  0.00  0.00     0.004 C 
ATOM     10  C4' N4B d   1       5.867  -5.951   6.000  0.00  0.00     0.003 C 
ENDBRANCH   8   9
ENDBRANCH   7   8
ENDBRANCH   1   7
TORSDOF 3
ENDMDL
