MODEL 1
REMARK minimizedAffinity 3.91386437
REMARK minimizedRMSD -1
REMARK  3 active torsions:
REMARK  status: ('A' for Active; 'I' for Inactive)
REMARK    1  A    between atoms: C3'_2  and  C2'_3 
REMARK    2  A    between atoms: C2'_3  and  C1'_4 
REMARK    3  A    between atoms: C1'_4  and  C1_5 
ROOT
ATOM      1  C1  N4B d   1      -1.843  -3.261  -3.692  0.00  0.00    -0.075 A 
ATOM      2  C2  N4B d   1      -1.804  -3.963  -2.467  0.00  0.00     0.002 A 
ATOM      3  C3  N4B d   1      -1.983  -5.324  -2.450  0.00  0.00     0.002 A 
ATOM      4  C4  N4B d   1      -2.221  -6.000  -3.637  0.00  0.00    -0.004 A 
ATOM      5  C5  N4B d   1      -2.232  -5.318  -4.819  0.00  0.00     0.002 A 
ATOM      6  C6  N4B d   1      -2.049  -3.950  -4.852  0.00  0.00     0.002 A 
ENDROOT
BRANCH   1   7
ATOM      7  C1' N4B d   1      -1.738  -1.761  -3.752  0.00  0.00     0.057 C 
BRANCH   7   8
ATOM      8  C2' N4B d   1      -0.728  -1.373  -4.826  0.00  0.00     0.009 C 
BRANCH   8   9
ATOM      9  C3' N4B d   1       0.425  -0.564  -4.256  0.00  0.00     0.004 C 
ATOM     10  C4' N4B d   1       1.766  -1.143  -4.598  0.00  0.00     0.003 C 
ENDBRANCH   8   9
ENDBRANCH   7   8
ENDBRANCH   1   7
TORSDOF 3
ENDMDL
