MODEL 1
REMARK minimizedAffinity -0.813354313
REMARK minimizedRMSD -1
REMARK  3 active torsions:
REMARK  status: ('A' for Active; 'I' for Inactive)
REMARK    1  A    between atoms: C3'_2  and  C2'_3 
REMARK    2  A    between atoms: C2'_3  and  C1'_4 
REMARK    3  A    between atoms: C1'_4  and  C1_5 
ROOT
ATOM      1  C1  N4B d   1       3.022  -2.590   5.003  0.00  0.00    -0.075 A 
ATOM      2  C2  N4B d   1       1.868  -3.040   4.324  0.00  0.00     0.002 A 
ATOM      3  C3  N4B d   1       1.192  -2.192   3.482  0.00  0.00     0.002 A 
ATOM      4  C4  N4B d   1       1.638  -0.889   3.318  0.00  0.00    -0.004 A 
ATOM      5  C5  N4B d   1       2.767  -0.469   3.958  0.00  0.00     0.002 A 
ATOM      6  C6  N4B d   1       3.459  -1.312   4.804  0.00  0.00     0.002 A 
ENDROOT
BRANCH   1   7
ATOM      7  C1' N4B d   1       3.745  -3.454   6.000  0.00  0.00     0.057 C 
BRANCH   7   8
ATOM      8  C2' N4B d   1       5.214  -3.554   5.602  0.00  0.00     0.009 C 
BRANCH   8   9
ATOM      9  C3' N4B d   1       5.531  -4.878   4.928  0.00  0.00     0.004 C 
ATOM     10  C4' N4B d   1       5.715  -5.999   5.906  0.00  0.00     0.003 C 
ENDBRANCH   8   9
ENDBRANCH   7   8
ENDBRANCH   1   7
TORSDOF 3
ENDMDL
