MODEL 1
REMARK minimizedAffinity 15.0261765
REMARK minimizedRMSD -1
REMARK  1 active torsions:
REMARK  status: ('A' for Active; 'I' for Inactive)
REMARK    1  A    between atoms: C1_2  and  C2_3 
ROOT
ATOM      1  C2  UNL d   1       0.922  -2.583  -2.376  0.00  0.00    -0.073 A 
ATOM      2  C3  UNL d   1       1.305  -3.409  -1.313  0.00  0.00    -0.002 A 
ATOM      3  C4  UNL d   1       2.144  -2.922  -0.309  0.00  0.00     0.004 A 
ATOM      4  C5  UNL d   1       2.603  -1.606  -0.355  0.00  0.00    -0.004 A 
ATOM      5  C6  UNL d   1       2.222  -0.762  -1.403  0.00  0.00    -0.075 A 
ATOM      6  C7  UNL d   1       2.708   0.656  -1.467  0.00  0.00     0.076 C 
ATOM      7  C8  UNL d   1       1.381  -1.258  -2.408  0.00  0.00     0.001 A 
ENDROOT
BRANCH   1   8
ATOM      8  C1  UNL d   1       0.011  -3.102  -3.458  0.00  0.00     0.053 C 
ATOM      9  C   UNL d   1      -1.310  -2.351  -3.499  0.00  0.00     0.018 C 
ENDBRANCH   1   8
TORSDOF 1
ENDMDL
