MODEL 1
REMARK minimizedAffinity 18.2553082
REMARK minimizedRMSD -1
REMARK  1 active torsions:
REMARK  status: ('A' for Active; 'I' for Inactive)
REMARK    1  A    between atoms: C1_2  and  C2_3 
ROOT
ATOM      1  C2  UNL d   1      -3.616   0.255   4.260  0.00  0.00    -0.073 A 
ATOM      2  C3  UNL d   1      -3.256   0.682   5.544  0.00  0.00    -0.002 A 
ATOM      3  C4  UNL d   1      -3.633   1.947   5.997  0.00  0.00     0.004 A 
ATOM      4  C5  UNL d   1      -4.378   2.794   5.176  0.00  0.00    -0.004 A 
ATOM      5  C6  UNL d   1      -4.757   2.380   3.895  0.00  0.00    -0.075 A 
ATOM      6  C7  UNL d   1      -5.556   3.280   2.999  0.00  0.00     0.076 C 
ATOM      7  C8  UNL d   1      -4.372   1.110   3.446  0.00  0.00     0.001 A 
ENDROOT
BRANCH   1   8
ATOM      8  C1  UNL d   1      -3.216  -1.113   3.769  0.00  0.00     0.053 C 
ATOM      9  C   UNL d   1      -3.692  -2.215   4.702  0.00  0.00     0.018 C 
ENDBRANCH   1   8
TORSDOF 1
ENDMDL
