MODEL 1
REMARK minimizedAffinity 6.77204895
REMARK minimizedRMSD -1
REMARK  1 active torsions:
REMARK  status: ('A' for Active; 'I' for Inactive)
REMARK    1  A    between atoms: C1_2  and  C2_3 
ROOT
ATOM      1  C2  UNL d   1      -2.130   1.781   2.992  0.00  0.00    -0.073 A 
ATOM      2  C3  UNL d   1      -2.587   0.459   3.047  0.00  0.00    -0.002 A 
ATOM      3  C4  UNL d   1      -3.859   0.174   3.546  0.00  0.00     0.004 A 
ATOM      4  C5  UNL d   1      -4.688   1.205   3.987  0.00  0.00    -0.004 A 
ATOM      5  C6  UNL d   1      -4.253   2.533   3.928  0.00  0.00    -0.075 A 
ATOM      6  C7  UNL d   1      -5.132   3.654   4.401  0.00  0.00     0.076 C 
ATOM      7  C8  UNL d   1      -2.974   2.811   3.429  0.00  0.00     0.001 A 
ENDROOT
BRANCH   1   8
ATOM      8  C1  UNL d   1      -0.760   2.094   2.449  0.00  0.00     0.053 C 
ATOM      9  C   UNL d   1       0.302   1.157   3.003  0.00  0.00     0.018 C 
ENDBRANCH   1   8
TORSDOF 1
ENDMDL
