MODEL 1
REMARK minimizedAffinity 12.7842789
REMARK minimizedRMSD -1
REMARK  1 active torsions:
REMARK  status: ('A' for Active; 'I' for Inactive)
REMARK    1  A    between atoms: C1_2  and  C2_3 
ROOT
ATOM      1  C2  UNL d   1       1.061  -2.963  -2.327  0.00  0.00    -0.073 A 
ATOM      2  C3  UNL d   1       1.080  -1.564  -2.317  0.00  0.00    -0.002 A 
ATOM      3  C4  UNL d   1       1.866  -0.877  -1.391  0.00  0.00     0.004 A 
ATOM      4  C5  UNL d   1       2.645  -1.580  -0.472  0.00  0.00    -0.004 A 
ATOM      5  C6  UNL d   1       2.649  -2.978  -0.474  0.00  0.00    -0.075 A 
ATOM      6  C7  UNL d   1       3.479  -3.750   0.509  0.00  0.00     0.076 C 
ATOM      7  C8  UNL d   1       1.854  -3.661  -1.405  0.00  0.00     0.001 A 
ENDROOT
BRANCH   1   8
ATOM      8  C1  UNL d   1       0.218  -3.710  -3.328  0.00  0.00     0.053 C 
ATOM      9  C   UNL d   1      -1.153  -4.060  -2.772  0.00  0.00     0.018 C 
ENDBRANCH   1   8
TORSDOF 1
ENDMDL
