MODEL 1
REMARK minimizedAffinity 13.8647718
REMARK minimizedRMSD -1
REMARK  1 active torsions:
REMARK  status: ('A' for Active; 'I' for Inactive)
REMARK    1  A    between atoms: C1_2  and  C2_3 
ROOT
ATOM      1  C2  UNL d   1      -2.508   3.732  -4.777  0.00  0.00    -0.073 A 
ATOM      2  C3  UNL d   1      -1.722   4.845  -5.096  0.00  0.00    -0.002 A 
ATOM      3  C4  UNL d   1      -2.297   5.963  -5.702  0.00  0.00     0.004 A 
ATOM      4  C5  UNL d   1      -3.662   5.982  -5.990  0.00  0.00    -0.004 A 
ATOM      5  C6  UNL d   1      -4.465   4.883  -5.668  0.00  0.00    -0.075 A 
ATOM      6  C7  UNL d   1      -5.935   4.887  -5.972  0.00  0.00     0.076 C 
ATOM      7  C8  UNL d   1      -3.880   3.764  -5.061  0.00  0.00     0.001 A 
ENDROOT
BRANCH   1   8
ATOM      8  C1  UNL d   1      -1.893   2.525  -4.116  0.00  0.00     0.053 C 
ATOM      9  C   UNL d   1      -1.858   1.322  -5.044  0.00  0.00     0.018 C 
ENDBRANCH   1   8
TORSDOF 1
ENDMDL
