MODEL 1
REMARK minimizedAffinity 11.1605234
REMARK minimizedRMSD -1
REMARK  1 active torsions:
REMARK  status: ('A' for Active; 'I' for Inactive)
REMARK    1  A    between atoms: C1_2  and  C2_3 
ROOT
ATOM      1  C2  UNL d   1      -3.192   5.165  -5.129  0.00  0.00    -0.073 A 
ATOM      2  C3  UNL d   1      -2.604   5.998  -4.170  0.00  0.00    -0.002 A 
ATOM      3  C4  UNL d   1      -1.563   5.527  -3.370  0.00  0.00     0.004 A 
ATOM      4  C5  UNL d   1      -1.093   4.223  -3.525  0.00  0.00    -0.004 A 
ATOM      5  C6  UNL d   1      -1.659   3.379  -4.485  0.00  0.00    -0.075 A 
ATOM      6  C7  UNL d   1      -1.167   1.972  -4.663  0.00  0.00     0.076 C 
ATOM      7  C8  UNL d   1      -2.707   3.858  -5.283  0.00  0.00     0.001 A 
ENDROOT
BRANCH   1   8
ATOM      8  C1  UNL d   1      -4.313   5.671  -6.000  0.00  0.00     0.053 C 
ATOM      9  C   UNL d   1      -5.507   4.730  -5.994  0.00  0.00     0.018 C 
ENDBRANCH   1   8
TORSDOF 1
ENDMDL
