MODEL 1
REMARK minimizedAffinity 9.9780941
REMARK minimizedRMSD -1
REMARK  1 active torsions:
REMARK  status: ('A' for Active; 'I' for Inactive)
REMARK    1  A    between atoms: C1_2  and  C2_3 
ROOT
ATOM      1  C2  UNL d   1       2.861  -0.314  -0.756  0.00  0.00    -0.073 A 
ATOM      2  C3  UNL d   1       3.531  -1.159   0.135  0.00  0.00    -0.002 A 
ATOM      3  C4  UNL d   1       3.196  -2.512   0.210  0.00  0.00     0.004 A 
ATOM      4  C5  UNL d   1       2.195  -3.034  -0.609  0.00  0.00    -0.004 A 
ATOM      5  C6  UNL d   1       1.522  -2.207  -1.515  0.00  0.00    -0.075 A 
ATOM      6  C7  UNL d   1       0.442  -2.753  -2.402  0.00  0.00     0.076 C 
ATOM      7  C8  UNL d   1       1.862  -0.849  -1.582  0.00  0.00     0.001 A 
ENDROOT
BRANCH   1   8
ATOM      8  C1  UNL d   1       3.223   1.146  -0.845  0.00  0.00     0.053 C 
ATOM      9  C   UNL d   1       4.439   1.485   0.003  0.00  0.00     0.018 C 
ENDBRANCH   1   8
TORSDOF 1
ENDMDL
