MODEL 1
REMARK minimizedAffinity 18.7427788
REMARK minimizedRMSD -1
REMARK  1 active torsions:
REMARK  status: ('A' for Active; 'I' for Inactive)
REMARK    1  A    between atoms: C1_2  and  C2_3 
ROOT
ATOM      1  C2  UNL d   1      -3.987  -0.236   2.984  0.00  0.00    -0.073 A 
ATOM      2  C3  UNL d   1      -5.026  -0.473   2.076  0.00  0.00    -0.002 A 
ATOM      3  C4  UNL d   1      -5.761  -1.658   2.139  0.00  0.00     0.004 A 
ATOM      4  C5  UNL d   1      -5.470  -2.613   3.113  0.00  0.00    -0.004 A 
ATOM      5  C6  UNL d   1      -4.444  -2.389   4.037  0.00  0.00    -0.075 A 
ATOM      6  C7  UNL d   1      -4.118  -3.408   5.089  0.00  0.00     0.076 C 
ATOM      7  C8  UNL d   1      -3.709  -1.198   3.965  0.00  0.00     0.001 A 
ENDROOT
BRANCH   1   8
ATOM      8  C1  UNL d   1      -3.195   1.044   2.924  0.00  0.00     0.053 C 
ATOM      9  C   UNL d   1      -1.960   0.910   2.047  0.00  0.00     0.018 C 
ENDBRANCH   1   8
TORSDOF 1
ENDMDL
