MODEL 1
REMARK minimizedAffinity 15.0054789
REMARK minimizedRMSD -1
REMARK  1 active torsions:
REMARK  status: ('A' for Active; 'I' for Inactive)
REMARK    1  A    between atoms: C1_2  and  C2_3 
ROOT
ATOM      1  C2  UNL d   1      -4.091  -0.271   3.069  0.00  0.00    -0.073 A 
ATOM      2  C3  UNL d   1      -5.171  -0.453   2.197  0.00  0.00    -0.002 A 
ATOM      3  C4  UNL d   1      -5.999  -1.569   2.325  0.00  0.00     0.004 A 
ATOM      4  C5  UNL d   1      -5.762  -2.508   3.328  0.00  0.00    -0.004 A 
ATOM      5  C6  UNL d   1      -4.696  -2.337   4.217  0.00  0.00    -0.075 A 
ATOM      6  C7  UNL d   1      -4.426  -3.340   5.300  0.00  0.00     0.076 C 
ATOM      7  C8  UNL d   1      -3.867  -1.216   4.080  0.00  0.00     0.001 A 
ENDROOT
BRANCH   1   8
ATOM      8  C1  UNL d   1      -3.198   0.935   2.939  0.00  0.00     0.053 C 
ATOM      9  C   UNL d   1      -3.766   2.146   3.663  0.00  0.00     0.018 C 
ENDBRANCH   1   8
TORSDOF 1
ENDMDL
