MODEL 1
REMARK minimizedAffinity 16.4160175
REMARK minimizedRMSD -1
REMARK  1 active torsions:
REMARK  status: ('A' for Active; 'I' for Inactive)
REMARK    1  A    between atoms: C1_2  and  C2_3 
ROOT
ATOM      1  C2  UNL d   1      -0.692   1.123   2.105  0.00  0.00    -0.073 A 
ATOM      2  C3  UNL d   1       0.134   1.883   2.941  0.00  0.00    -0.002 A 
ATOM      3  C4  UNL d   1       1.515   1.902   2.739  0.00  0.00     0.004 A 
ATOM      4  C5  UNL d   1       2.082   1.168   1.697  0.00  0.00    -0.004 A 
ATOM      5  C6  UNL d   1       1.272   0.412   0.844  0.00  0.00    -0.075 A 
ATOM      6  C7  UNL d   1       1.867  -0.384  -0.280  0.00  0.00     0.076 C 
ATOM      7  C8  UNL d   1      -0.113   0.396   1.055  0.00  0.00     0.001 A 
ENDROOT
BRANCH   1   8
ATOM      8  C1  UNL d   1      -2.184   1.104   2.316  0.00  0.00     0.053 C 
ATOM      9  C   UNL d   1      -2.619  -0.044   3.213  0.00  0.00     0.018 C 
ENDBRANCH   1   8
TORSDOF 1
ENDMDL
