MODEL 1
REMARK minimizedAffinity -3.04162979
REMARK minimizedRMSD -1
REMARK  0 active torsions:
REMARK  status: ('A' for Active; 'I' for Inactive)
ROOT
ATOM      1  C   UNL d   1       2.021  -2.909   1.700  0.00  0.00     0.124 A 
ATOM      2  C1  UNL d   1       2.590  -1.847   1.010  0.00  0.00     0.062 A 
ATOM      3  C2  UNL d   1       1.782  -0.848   0.474  0.00  0.00     0.162 A 
ATOM      4  C3  UNL d   1       0.397  -0.905   0.627  0.00  0.00    -0.034 A 
ATOM      5  C4  UNL d   1      -0.167  -1.977   1.321  0.00  0.00     0.162 A 
ATOM      6  C5  UNL d   1       0.644  -2.973   1.854  0.00  0.00     0.062 A 
ATOM      7  F   UNL d   1       0.093  -3.999   2.520  0.00  0.00    -0.097 F 
ATOM      8  F1  UNL d   1      -1.496  -2.064   1.486  0.00  0.00    -0.096 F 
ATOM      9  I   UNL d   1      -0.814   0.587  -0.173  0.00  0.00    -0.060 I 
ATOM     10  F2  UNL d   1       2.359   0.167  -0.187  0.00  0.00    -0.096 F 
ATOM     11  F3  UNL d   1       3.921  -1.783   0.859  0.00  0.00    -0.097 F 
ATOM     12  F4  UNL d   1       2.801  -3.870   2.213  0.00  0.00    -0.092 F 
ENDROOT
TORSDOF 0
ENDMDL
