MODEL 1
REMARK minimizedAffinity -5.78207445
REMARK minimizedRMSD -1
REMARK  0 active torsions:
REMARK  status: ('A' for Active; 'I' for Inactive)
ROOT
ATOM      1  C   UNL d   1       0.594  -2.650   2.248  0.00  0.00     0.124 A 
ATOM      2  C1  UNL d   1      -0.328  -1.694   2.651  0.00  0.00     0.062 A 
ATOM      3  C2  UNL d   1      -0.579  -0.583   1.850  0.00  0.00     0.162 A 
ATOM      4  C3  UNL d   1       0.092  -0.423   0.638  0.00  0.00    -0.034 A 
ATOM      5  C4  UNL d   1       1.019  -1.388   0.240  0.00  0.00     0.162 A 
ATOM      6  C5  UNL d   1       1.266  -2.497   1.044  0.00  0.00     0.062 A 
ATOM      7  F   UNL d   1       2.157  -3.420   0.653  0.00  0.00    -0.097 F 
ATOM      8  F1  UNL d   1       1.682  -1.266  -0.919  0.00  0.00    -0.096 F 
ATOM      9  I   UNL d   1      -0.281   1.236  -0.562  0.00  0.00    -0.060 I 
ATOM     10  F2  UNL d   1      -1.475   0.325   2.264  0.00  0.00    -0.096 F 
ATOM     11  F3  UNL d   1      -0.978  -1.839   3.814  0.00  0.00    -0.097 F 
ATOM     12  F4  UNL d   1       0.835  -3.717   3.021  0.00  0.00    -0.092 F 
ENDROOT
TORSDOF 0
ENDMDL
