MODEL 1
REMARK minimizedAffinity -2.90430737
REMARK minimizedRMSD -1
REMARK  0 active torsions:
REMARK  status: ('A' for Active; 'I' for Inactive)
ROOT
ATOM      1  C   UNL d   1       0.378  -2.488   1.916  0.00  0.00     0.124 A 
ATOM      2  C1  UNL d   1      -0.621  -1.605   2.300  0.00  0.00     0.062 A 
ATOM      3  C2  UNL d   1      -0.876  -0.464   1.544  0.00  0.00     0.162 A 
ATOM      4  C3  UNL d   1      -0.131  -0.201   0.395  0.00  0.00    -0.034 A 
ATOM      5  C4  UNL d   1       0.873  -1.094   0.015  0.00  0.00     0.162 A 
ATOM      6  C5  UNL d   1       1.124  -2.232   0.774  0.00  0.00     0.062 A 
ATOM      7  F   UNL d   1       2.089  -3.085   0.401  0.00  0.00    -0.097 F 
ATOM      8  F1  UNL d   1       1.608  -0.871  -1.085  0.00  0.00    -0.096 F 
ATOM      9  I   UNL d   1      -0.509   1.503  -0.738  0.00  0.00    -0.060 I 
ATOM     10  F2  UNL d   1      -1.848   0.372   1.939  0.00  0.00    -0.096 F 
ATOM     11  F3  UNL d   1      -1.343  -1.850   3.404  0.00  0.00    -0.097 F 
ATOM     12  F4  UNL d   1       0.622  -3.585   2.645  0.00  0.00    -0.092 F 
ENDROOT
TORSDOF 0
ENDMDL
