MODEL 1
REMARK minimizedAffinity 2.13411069
REMARK minimizedRMSD -1
REMARK  0 active torsions:
REMARK  status: ('A' for Active; 'I' for Inactive)
ROOT
ATOM      1  C   UNL d   1      -2.577   1.803  -2.552  0.00  0.00     0.124 A 
ATOM      2  C1  UNL d   1      -1.564   2.203  -1.691  0.00  0.00     0.062 A 
ATOM      3  C2  UNL d   1      -0.666   3.192  -2.079  0.00  0.00     0.162 A 
ATOM      4  C3  UNL d   1      -0.776   3.790  -3.335  0.00  0.00    -0.034 A 
ATOM      5  C4  UNL d   1      -1.796   3.382  -4.196  0.00  0.00     0.162 A 
ATOM      6  C5  UNL d   1      -2.692   2.393  -3.803  0.00  0.00     0.062 A 
ATOM      7  F   UNL d   1      -3.669   2.008  -4.637  0.00  0.00    -0.097 F 
ATOM      8  F1  UNL d   1      -1.931   3.935  -5.410  0.00  0.00    -0.096 F 
ATOM      9  I   UNL d   1       0.566   5.269  -3.919  0.00  0.00    -0.060 I 
ATOM     10  F2  UNL d   1       0.303   3.559  -1.227  0.00  0.00    -0.096 F 
ATOM     11  F3  UNL d   1      -1.451   1.634  -0.482  0.00  0.00    -0.097 F 
ATOM     12  F4  UNL d   1      -3.440   0.850  -2.177  0.00  0.00    -0.092 F 
ENDROOT
TORSDOF 0
ENDMDL
