MODEL 1
REMARK minimizedAffinity 1.00671911
REMARK minimizedRMSD -1
REMARK  0 active torsions:
REMARK  status: ('A' for Active; 'I' for Inactive)
ROOT
ATOM      1  C   UNL d   1       0.894  -1.610   1.705  0.00  0.00     0.124 A 
ATOM      2  C1  UNL d   1      -0.423  -1.183   1.800  0.00  0.00     0.062 A 
ATOM      3  C2  UNL d   1      -1.030  -0.541   0.725  0.00  0.00     0.162 A 
ATOM      4  C3  UNL d   1      -0.321  -0.323  -0.457  0.00  0.00    -0.034 A 
ATOM      5  C4  UNL d   1       1.004  -0.756  -0.545  0.00  0.00     0.162 A 
ATOM      6  C5  UNL d   1       1.606  -1.397   0.533  0.00  0.00     0.062 A 
ATOM      7  F   UNL d   1       2.879  -1.809   0.439  0.00  0.00    -0.097 F 
ATOM      8  F1  UNL d   1       1.714  -0.563  -1.666  0.00  0.00    -0.096 F 
ATOM      9  I   UNL d   1      -1.225   0.636  -2.067  0.00  0.00    -0.060 I 
ATOM     10  F2  UNL d   1      -2.304  -0.138   0.845  0.00  0.00    -0.096 F 
ATOM     11  F3  UNL d   1      -1.112  -1.387   2.932  0.00  0.00    -0.097 F 
ATOM     12  F4  UNL d   1       1.476  -2.227   2.741  0.00  0.00    -0.092 F 
ENDROOT
TORSDOF 0
ENDMDL
