MODEL 1
REMARK minimizedAffinity 0.296802551
REMARK minimizedRMSD -1
REMARK  0 active torsions:
REMARK  status: ('A' for Active; 'I' for Inactive)
ROOT
ATOM      1  C   UNL d   1       1.691  -0.773  -0.191  0.00  0.00     0.124 A 
ATOM      2  C1  UNL d   1       0.717  -1.703  -0.525  0.00  0.00     0.062 A 
ATOM      3  C2  UNL d   1      -0.542  -1.280  -0.943  0.00  0.00     0.162 A 
ATOM      4  C3  UNL d   1      -0.833   0.081  -1.031  0.00  0.00    -0.034 A 
ATOM      5  C4  UNL d   1       0.152   1.011  -0.693  0.00  0.00     0.162 A 
ATOM      6  C5  UNL d   1       1.407   0.583  -0.275  0.00  0.00     0.062 A 
ATOM      7  F   UNL d   1       2.347   1.484   0.048  0.00  0.00    -0.097 F 
ATOM      8  F1  UNL d   1      -0.095   2.328  -0.766  0.00  0.00    -0.096 F 
ATOM      9  I   UNL d   1      -2.713   0.718  -1.656  0.00  0.00    -0.060 I 
ATOM     10  F2  UNL d   1      -1.464  -2.202  -1.260  0.00  0.00    -0.096 F 
ATOM     11  F3  UNL d   1       0.988  -3.014  -0.443  0.00  0.00    -0.097 F 
ATOM     12  F4  UNL d   1       2.900  -1.183   0.213  0.00  0.00    -0.092 F 
ENDROOT
TORSDOF 0
ENDMDL
