MODEL 1
REMARK minimizedAffinity -3.09361172
REMARK minimizedRMSD -1
REMARK  0 active torsions:
REMARK  status: ('A' for Active; 'I' for Inactive)
ROOT
ATOM      1  C   UNL d   1       0.439  -2.677   1.823  0.00  0.00     0.124 A 
ATOM      2  C1  UNL d   1       1.016  -2.465   0.579  0.00  0.00     0.062 A 
ATOM      3  C2  UNL d   1       0.677  -1.341  -0.169  0.00  0.00     0.162 A 
ATOM      4  C3  UNL d   1      -0.246  -0.419   0.327  0.00  0.00    -0.034 A 
ATOM      5  C4  UNL d   1      -0.823  -0.639   1.578  0.00  0.00     0.162 A 
ATOM      6  C5  UNL d   1      -0.480  -1.764   2.321  0.00  0.00     0.062 A 
ATOM      7  F   UNL d   1      -1.040  -1.968   3.523  0.00  0.00    -0.097 F 
ATOM      8  F1  UNL d   1      -1.713   0.227   2.085  0.00  0.00    -0.096 F 
ATOM      9  I   UNL d   1      -0.756   1.263  -0.787  0.00  0.00    -0.060 I 
ATOM     10  F2  UNL d   1       1.251  -1.161  -1.368  0.00  0.00    -0.096 F 
ATOM     11  F3  UNL d   1       1.904  -3.345   0.094  0.00  0.00    -0.097 F 
ATOM     12  F4  UNL d   1       0.767  -3.760   2.539  0.00  0.00    -0.092 F 
ENDROOT
TORSDOF 0
ENDMDL
