MODEL 1
REMARK minimizedAffinity 0.930773735
REMARK minimizedRMSD -1
REMARK  0 active torsions:
REMARK  status: ('A' for Active; 'I' for Inactive)
ROOT
ATOM      1  C   UNL d   1       1.014  -2.470   2.188  0.00  0.00     0.124 A 
ATOM      2  C1  UNL d   1       1.792  -2.071   1.110  0.00  0.00     0.062 A 
ATOM      3  C2  UNL d   1       1.320  -1.104   0.227  0.00  0.00     0.162 A 
ATOM      4  C3  UNL d   1       0.065  -0.527   0.420  0.00  0.00    -0.034 A 
ATOM      5  C4  UNL d   1      -0.711  -0.934   1.506  0.00  0.00     0.162 A 
ATOM      6  C5  UNL d   1      -0.236  -1.901   2.386  0.00  0.00     0.062 A 
ATOM      7  F   UNL d   1      -0.988  -2.285   3.427  0.00  0.00    -0.097 F 
ATOM      8  F1  UNL d   1      -1.923  -0.400   1.721  0.00  0.00    -0.096 F 
ATOM      9  I   UNL d   1      -0.643   0.920  -0.898  0.00  0.00    -0.060 I 
ATOM     10  F2  UNL d   1       2.093  -0.738  -0.807  0.00  0.00    -0.096 F 
ATOM     11  F3  UNL d   1       3.000  -2.620   0.917  0.00  0.00    -0.097 F 
ATOM     12  F4  UNL d   1       1.470  -3.402   3.036  0.00  0.00    -0.092 F 
ENDROOT
TORSDOF 0
ENDMDL
