MODEL 1
REMARK minimizedAffinity -1.17932451
REMARK minimizedRMSD -1
REMARK  0 active torsions:
REMARK  status: ('A' for Active; 'I' for Inactive)
ROOT
ATOM      1  C   UNL d   1      -2.256   1.687  -2.842  0.00  0.00     0.124 A 
ATOM      2  C1  UNL d   1      -2.308   0.300  -2.848  0.00  0.00     0.062 A 
ATOM      3  C2  UNL d   1      -1.556  -0.433  -1.935  0.00  0.00     0.162 A 
ATOM      4  C3  UNL d   1      -0.745   0.220  -1.006  0.00  0.00    -0.034 A 
ATOM      5  C4  UNL d   1      -0.697   1.615  -1.007  0.00  0.00     0.162 A 
ATOM      6  C5  UNL d   1      -1.451   2.343  -1.922  0.00  0.00     0.062 A 
ATOM      7  F   UNL d   1      -1.399   3.683  -1.914  0.00  0.00    -0.097 F 
ATOM      8  F1  UNL d   1       0.072   2.274  -0.128  0.00  0.00    -0.096 F 
ATOM      9  I   UNL d   1       0.381  -0.873   0.361  0.00  0.00    -0.060 I 
ATOM     10  F2  UNL d   1      -1.626  -1.772  -1.964  0.00  0.00    -0.096 F 
ATOM     11  F3  UNL d   1      -3.085  -0.337  -3.737  0.00  0.00    -0.097 F 
ATOM     12  F4  UNL d   1      -2.980   2.389  -3.722  0.00  0.00    -0.092 F 
ENDROOT
TORSDOF 0
ENDMDL
