MODEL 1
REMARK minimizedAffinity -2.54416871
REMARK minimizedRMSD -1
REMARK  0 active torsions:
REMARK  status: ('A' for Active; 'I' for Inactive)
ROOT
ATOM      1  C   UNL d   1       1.016  -1.383   1.504  0.00  0.00     0.124 A 
ATOM      2  C1  UNL d   1       1.637  -1.160   0.283  0.00  0.00     0.062 A 
ATOM      3  C2  UNL d   1       1.148  -0.186  -0.583  0.00  0.00     0.162 A 
ATOM      4  C3  UNL d   1       0.032   0.573  -0.231  0.00  0.00    -0.034 A 
ATOM      5  C4  UNL d   1      -0.588   0.342   0.998  0.00  0.00     0.162 A 
ATOM      6  C5  UNL d   1      -0.096  -0.632   1.860  0.00  0.00     0.062 A 
ATOM      7  F   UNL d   1      -0.697  -0.847   3.039  0.00  0.00    -0.097 F 
ATOM      8  F1  UNL d   1      -1.663   1.054   1.368  0.00  0.00    -0.096 F 
ATOM      9  I   UNL d   1      -0.702   2.030  -1.523  0.00  0.00    -0.060 I 
ATOM     10  F2  UNL d   1       1.768   0.009  -1.757  0.00  0.00    -0.096 F 
ATOM     11  F3  UNL d   1       2.710  -1.884  -0.065  0.00  0.00    -0.097 F 
ATOM     12  F4  UNL d   1       1.487  -2.322   2.334  0.00  0.00    -0.092 F 
ENDROOT
TORSDOF 0
ENDMDL
