MODEL 1
REMARK minimizedAffinity -1.89881325
REMARK minimizedRMSD -1
REMARK  0 active torsions:
REMARK  status: ('A' for Active; 'I' for Inactive)
ROOT
ATOM      1  C   UNL d   1       1.618   0.303  -0.736  0.00  0.00     0.124 A 
ATOM      2  C1  UNL d   1       2.004  -0.838  -0.045  0.00  0.00     0.062 A 
ATOM      3  C2  UNL d   1       1.214  -1.330   0.990  0.00  0.00     0.162 A 
ATOM      4  C3  UNL d   1       0.029  -0.682   1.340  0.00  0.00    -0.034 A 
ATOM      5  C4  UNL d   1      -0.352   0.465   0.642  0.00  0.00     0.162 A 
ATOM      6  C5  UNL d   1       0.441   0.953  -0.392  0.00  0.00     0.062 A 
ATOM      7  F   UNL d   1       0.066   2.055  -1.058  0.00  0.00    -0.097 F 
ATOM      8  F1  UNL d   1      -1.485   1.112   0.953  0.00  0.00    -0.096 F 
ATOM      9  I   UNL d   1      -1.154  -1.415   2.887  0.00  0.00    -0.060 I 
ATOM     10  F2  UNL d   1       1.611  -2.434   1.640  0.00  0.00    -0.096 F 
ATOM     11  F3  UNL d   1       3.141  -1.467  -0.375  0.00  0.00    -0.097 F 
ATOM     12  F4  UNL d   1       2.380   0.775  -1.731  0.00  0.00    -0.092 F 
ENDROOT
TORSDOF 0
ENDMDL
