MODEL 1
REMARK minimizedAffinity -3.16827297
REMARK minimizedRMSD -1
REMARK  0 active torsions:
REMARK  status: ('A' for Active; 'I' for Inactive)
ROOT
ATOM      1  C   UNL d   1       1.057  -1.323   1.884  0.00  0.00     0.124 A 
ATOM      2  C1  UNL d   1       1.639  -1.067   0.651  0.00  0.00     0.062 A 
ATOM      3  C2  UNL d   1       1.032  -0.186  -0.241  0.00  0.00     0.162 A 
ATOM      4  C3  UNL d   1      -0.164   0.446   0.099  0.00  0.00    -0.034 A 
ATOM      5  C4  UNL d   1      -0.744   0.183   1.341  0.00  0.00     0.162 A 
ATOM      6  C5  UNL d   1      -0.134  -0.698   2.228  0.00  0.00     0.062 A 
ATOM      7  F   UNL d   1      -0.698  -0.944   3.420  0.00  0.00    -0.097 F 
ATOM      8  F1  UNL d   1      -1.894   0.773   1.699  0.00  0.00    -0.096 F 
ATOM      9  I   UNL d   1      -1.074   1.763  -1.231  0.00  0.00    -0.060 I 
ATOM     10  F2  UNL d   1       1.617   0.042  -1.426  0.00  0.00    -0.096 F 
ATOM     11  F3  UNL d   1       2.789  -1.669   0.315  0.00  0.00    -0.097 F 
ATOM     12  F4  UNL d   1       1.642  -2.171   2.739  0.00  0.00    -0.092 F 
ENDROOT
TORSDOF 0
ENDMDL
