MODEL 1
REMARK minimizedAffinity 0.109172121
REMARK minimizedRMSD -1
REMARK  0 active torsions:
REMARK  status: ('A' for Active; 'I' for Inactive)
ROOT
ATOM      1  C   UNL d   1       0.522  -1.916   1.973  0.00  0.00     0.124 A 
ATOM      2  C1  UNL d   1       1.135  -1.766   0.737  0.00  0.00     0.062 A 
ATOM      3  C2  UNL d   1       0.721  -0.762  -0.133  0.00  0.00     0.162 A 
ATOM      4  C3  UNL d   1      -0.313   0.101   0.230  0.00  0.00    -0.034 A 
ATOM      5  C4  UNL d   1      -0.926  -0.056   1.474  0.00  0.00     0.162 A 
ATOM      6  C5  UNL d   1      -0.508  -1.061   2.341  0.00  0.00     0.062 A 
ATOM      7  F   UNL d   1      -1.102  -1.205   3.534  0.00  0.00    -0.097 F 
ATOM      8  F1  UNL d   1      -1.923   0.756   1.855  0.00  0.00    -0.096 F 
ATOM      9  I   UNL d   1      -0.936   1.604  -1.068  0.00  0.00    -0.060 I 
ATOM     10  F2  UNL d   1       1.331  -0.640  -1.321  0.00  0.00    -0.096 F 
ATOM     11  F3  UNL d   1       2.130  -2.591   0.380  0.00  0.00    -0.097 F 
ATOM     12  F4  UNL d   1       0.922  -2.883   2.808  0.00  0.00    -0.092 F 
ENDROOT
TORSDOF 0
ENDMDL
