MODEL 1
REMARK minimizedAffinity 4.85235167
REMARK minimizedRMSD -1
REMARK  3 active torsions:
REMARK  status: ('A' for Active; 'I' for Inactive)
REMARK    1  A    between atoms: C3'_2  and  C2'_3 
REMARK    2  A    between atoms: C2'_3  and  C1'_4 
REMARK    3  A    between atoms: C1'_4  and  C1_5 
ROOT
ATOM      1  C1  N4B d   1       1.197   0.257  -2.494  0.00  0.00    -0.075 A 
ATOM      2  C2  N4B d   1       0.158  -0.683  -2.671  0.00  0.00     0.002 A 
ATOM      3  C3  N4B d   1      -0.532  -0.728  -3.857  0.00  0.00     0.002 A 
ATOM      4  C4  N4B d   1      -0.215   0.166  -4.870  0.00  0.00    -0.004 A 
ATOM      5  C5  N4B d   1       0.807   1.053  -4.700  0.00  0.00     0.002 A 
ATOM      6  C6  N4B d   1       1.512   1.107  -3.514  0.00  0.00     0.002 A 
ENDROOT
BRANCH   1   7
ATOM      7  C1' N4B d   1       1.922   0.402  -1.184  0.00  0.00     0.057 C 
BRANCH   7   8
ATOM      8  C2' N4B d   1       1.558  -0.770  -0.278  0.00  0.00     0.009 C 
BRANCH   8   9
ATOM      9  C3' N4B d   1       1.950  -0.515   1.167  0.00  0.00     0.004 C 
ATOM     10  C4' N4B d   1       1.612   0.873   1.624  0.00  0.00     0.003 C 
ENDBRANCH   8   9
ENDBRANCH   7   8
ENDBRANCH   1   7
TORSDOF 3
ENDMDL
