MODEL 1
REMARK minimizedAffinity 5.61751699
REMARK minimizedRMSD -1
REMARK  3 active torsions:
REMARK  status: ('A' for Active; 'I' for Inactive)
REMARK    1  A    between atoms: C3'_2  and  C2'_3 
REMARK    2  A    between atoms: C2'_3  and  C1'_4 
REMARK    3  A    between atoms: C1'_4  and  C1_5 
ROOT
ATOM      1  C1  N4B d   1       1.406  -0.710  -2.310  0.00  0.00    -0.075 A 
ATOM      2  C2  N4B d   1       0.560  -0.818  -3.435  0.00  0.00     0.002 A 
ATOM      3  C3  N4B d   1       0.721   0.036  -4.499  0.00  0.00     0.002 A 
ATOM      4  C4  N4B d   1       1.705   1.012  -4.452  0.00  0.00    -0.004 A 
ATOM      5  C5  N4B d   1       2.535   1.093  -3.372  0.00  0.00     0.002 A 
ATOM      6  C6  N4B d   1       2.387   0.239  -2.298  0.00  0.00     0.002 A 
ENDROOT
BRANCH   1   7
ATOM      7  C1' N4B d   1       1.213  -1.565  -1.087  0.00  0.00     0.057 C 
BRANCH   7   8
ATOM      8  C2' N4B d   1       2.188  -1.114  -0.002  0.00  0.00     0.009 C 
BRANCH   8   9
ATOM      9  C3' N4B d   1       1.475  -0.440   1.158  0.00  0.00     0.004 C 
ATOM     10  C4' N4B d   1       2.412   0.304   2.062  0.00  0.00     0.003 C 
ENDBRANCH   8   9
ENDBRANCH   7   8
ENDBRANCH   1   7
TORSDOF 3
ENDMDL
