MODEL 1
REMARK minimizedAffinity 3.82703304
REMARK minimizedRMSD -1
REMARK  0 active torsions:
REMARK  status: ('A' for Active; 'I' for Inactive)
ROOT
ATOM      1  C1  BNZ d   1       0.795   0.371   3.575  0.00  0.00     0.000 A 
ATOM      2  C2  BNZ d   1      -0.560   0.304   3.394  0.00  0.00     0.000 A 
ATOM      3  C3  BNZ d   1      -1.137  -0.794   2.818  0.00  0.00     0.000 A 
ATOM      4  C4  BNZ d   1      -0.354  -1.804   2.388  0.00  0.00     0.000 A 
ATOM      5  C5  BNZ d   1       1.015  -1.748   2.555  0.00  0.00     0.000 A 
ATOM      6  C6  BNZ d   1       1.588  -0.658   3.170  0.00  0.00     0.000 A 
ENDROOT
TORSDOF 0
ENDMDL
