MODEL 1
REMARK minimizedAffinity 0.76225853
REMARK minimizedRMSD -1
REMARK  0 active torsions:
REMARK  status: ('A' for Active; 'I' for Inactive)
ROOT
ATOM      1  C1  BNZ d   1       1.506  -0.664  -1.637  0.00  0.00     0.000 A 
ATOM      2  C2  BNZ d   1       1.450   0.645  -2.037  0.00  0.00     0.000 A 
ATOM      3  C3  BNZ d   1       2.199   1.601  -1.411  0.00  0.00     0.000 A 
ATOM      4  C4  BNZ d   1       2.972   1.255  -0.361  0.00  0.00     0.000 A 
ATOM      5  C5  BNZ d   1       3.032  -0.058   0.061  0.00  0.00     0.000 A 
ATOM      6  C6  BNZ d   1       2.306  -1.024  -0.597  0.00  0.00     0.000 A 
ENDROOT
TORSDOF 0
ENDMDL
