MODEL 1
REMARK minimizedAffinity -2.18073487
REMARK minimizedRMSD -1
REMARK  0 active torsions:
REMARK  status: ('A' for Active; 'I' for Inactive)
ROOT
ATOM      1  C1  BNZ d   1      -4.233   2.935  -6.000  0.00  0.00     0.000 A 
ATOM      2  C2  BNZ d   1      -4.986   4.078  -6.000  0.00  0.00     0.000 A 
ATOM      3  C3  BNZ d   1      -4.500   5.236  -5.460  0.00  0.00     0.000 A 
ATOM      4  C4  BNZ d   1      -3.280   5.239  -4.885  0.00  0.00     0.000 A 
ATOM      5  C5  BNZ d   1      -2.512   4.091  -4.869  0.00  0.00     0.000 A 
ATOM      6  C6  BNZ d   1      -2.989   2.938  -5.448  0.00  0.00     0.000 A 
ENDROOT
TORSDOF 0
ENDMDL
