MODEL 1
REMARK minimizedAffinity 2.02939773
REMARK minimizedRMSD -1
REMARK  0 active torsions:
REMARK  status: ('A' for Active; 'I' for Inactive)
ROOT
ATOM      1  C1  BNZ d   1      -0.989   0.672   2.774  0.00  0.00     0.000 A 
ATOM      2  C2  BNZ d   1       0.339   0.337   2.808  0.00  0.00     0.000 A 
ATOM      3  C3  BNZ d   1       0.761  -0.891   2.381  0.00  0.00     0.000 A 
ATOM      4  C4  BNZ d   1      -0.146  -1.795   1.959  0.00  0.00     0.000 A 
ATOM      5  C5  BNZ d   1      -1.489  -1.475   1.927  0.00  0.00     0.000 A 
ATOM      6  C6  BNZ d   1      -1.907  -0.225   2.321  0.00  0.00     0.000 A 
ENDROOT
TORSDOF 0
ENDMDL
