MODEL 1
REMARK minimizedAffinity -3.02347159
REMARK minimizedRMSD -1
REMARK  0 active torsions:
REMARK  status: ('A' for Active; 'I' for Inactive)
ROOT
ATOM      1  C1  BNZ d   1      -0.663   0.533   3.893  0.00  0.00     0.000 A 
ATOM      2  C2  BNZ d   1       0.068  -0.505   3.379  0.00  0.00     0.000 A 
ATOM      3  C3  BNZ d   1      -0.367  -1.190   2.279  0.00  0.00     0.000 A 
ATOM      4  C4  BNZ d   1      -1.550  -0.863   1.719  0.00  0.00     0.000 A 
ATOM      5  C5  BNZ d   1      -2.303   0.175   2.232  0.00  0.00     0.000 A 
ATOM      6  C6  BNZ d   1      -1.843   0.887   3.315  0.00  0.00     0.000 A 
ENDROOT
TORSDOF 0
ENDMDL
