MODEL 1
REMARK minimizedAffinity 0.997541189
REMARK minimizedRMSD -1
REMARK  0 active torsions:
REMARK  status: ('A' for Active; 'I' for Inactive)
ROOT
ATOM      1  C1  BNZ d   1      -0.519  -1.506   0.243  0.00  0.00     0.000 A 
ATOM      2  C2  BNZ d   1      -0.157  -1.156  -1.030  0.00  0.00     0.000 A 
ATOM      3  C3  BNZ d   1       1.144  -0.862  -1.331  0.00  0.00     0.000 A 
ATOM      4  C4  BNZ d   1       2.072  -0.879  -0.353  0.00  0.00     0.000 A 
ATOM      5  C5  BNZ d   1       1.720  -1.222   0.938  0.00  0.00     0.000 A 
ATOM      6  C6  BNZ d   1       0.417  -1.555   1.230  0.00  0.00     0.000 A 
ENDROOT
TORSDOF 0
ENDMDL
