MODEL 1
REMARK minimizedAffinity 4.49279308
REMARK minimizedRMSD -1
REMARK  0 active torsions:
REMARK  status: ('A' for Active; 'I' for Inactive)
ROOT
ATOM      1  C1  BNZ d   1       1.394  -1.461   2.267  0.00  0.00     0.000 A 
ATOM      2  C2  BNZ d   1       1.117  -2.791   2.095  0.00  0.00     0.000 A 
ATOM      3  C3  BNZ d   1      -0.130  -3.286   2.359  0.00  0.00     0.000 A 
ATOM      4  C4  BNZ d   1      -1.085  -2.460   2.832  0.00  0.00     0.000 A 
ATOM      5  C5  BNZ d   1      -0.818  -1.118   3.019  0.00  0.00     0.000 A 
ATOM      6  C6  BNZ d   1       0.427  -0.616   2.715  0.00  0.00     0.000 A 
ENDROOT
TORSDOF 0
ENDMDL
