MODEL 1
REMARK minimizedAffinity 0.659018695
REMARK minimizedRMSD -1
REMARK  0 active torsions:
REMARK  status: ('A' for Active; 'I' for Inactive)
ROOT
ATOM      1  C1  BNZ d   1       2.562   1.216  -0.219  0.00  0.00     0.000 A 
ATOM      2  C2  BNZ d   1       2.637  -0.077   0.226  0.00  0.00     0.000 A 
ATOM      3  C3  BNZ d   1       2.172  -1.108  -0.541  0.00  0.00     0.000 A 
ATOM      4  C4  BNZ d   1       1.596  -0.843  -1.731  0.00  0.00     0.000 A 
ATOM      5  C5  BNZ d   1       1.505   0.457  -2.189  0.00  0.00     0.000 A 
ATOM      6  C6  BNZ d   1       2.010   1.489  -1.432  0.00  0.00     0.000 A 
ENDROOT
TORSDOF 0
ENDMDL
