MODEL 1
REMARK minimizedAffinity -0.207490176
REMARK minimizedRMSD -1
REMARK  0 active torsions:
REMARK  status: ('A' for Active; 'I' for Inactive)
ROOT
ATOM      1  C1  BNZ d   1       1.946  -0.872  -0.665  0.00  0.00     0.000 A 
ATOM      2  C2  BNZ d   1       2.534   0.137   0.052  0.00  0.00     0.000 A 
ATOM      3  C3  BNZ d   1       2.362   1.444  -0.309  0.00  0.00     0.000 A 
ATOM      4  C4  BNZ d   1       1.636   1.738  -1.407  0.00  0.00     0.000 A 
ATOM      5  C5  BNZ d   1       1.045   0.732  -2.145  0.00  0.00     0.000 A 
ATOM      6  C6  BNZ d   1       1.188  -0.580  -1.756  0.00  0.00     0.000 A 
ENDROOT
TORSDOF 0
ENDMDL
