MODEL 1
REMARK minimizedAffinity -4.61584139
REMARK minimizedRMSD -1
REMARK  1 active torsions:
REMARK  status: ('A' for Active; 'I' for Inactive)
REMARK    1  A    between atoms: C1_2  and  C2_3 
ROOT
ATOM      1  C2  UNL d   1       1.834  -3.941   4.890  0.00  0.00    -0.081 A 
ATOM      2  C3  UNL d   1       0.688  -4.111   4.103  0.00  0.00     0.006 A 
ATOM      3  C4  UNL d   1       0.362  -3.177   3.117  0.00  0.00     0.002 A 
ATOM      4  C5  UNL d   1       1.179  -2.064   2.895  0.00  0.00    -0.080 A 
ATOM      5  C6  UNL d   1       0.856  -1.070   1.819  0.00  0.00     0.076 C 
ATOM      6  C7  UNL d   1       2.314  -1.884   3.693  0.00  0.00     0.002 A 
ATOM      7  C8  UNL d   1       2.641  -2.817   4.680  0.00  0.00     0.006 A 
ENDROOT
BRANCH   1   8
ATOM      8  C1  UNL d   1       2.224  -4.979   5.911  0.00  0.00     0.054 C 
ATOM      9  C   UNL d   1       3.192  -5.996   5.323  0.00  0.00     0.018 C 
ENDBRANCH   1   8
TORSDOF 1
ENDMDL
