MODEL 1
REMARK minimizedAffinity -5.28038979
REMARK minimizedRMSD -1
REMARK  1 active torsions:
REMARK  status: ('A' for Active; 'I' for Inactive)
REMARK    1  A    between atoms: C1_2  and  C2_3 
ROOT
ATOM      1  C2  UNL d   1      -2.593  -5.893  -0.977  0.00  0.00    -0.081 A 
ATOM      2  C3  UNL d   1      -3.623  -5.994  -1.919  0.00  0.00     0.006 A 
ATOM      3  C4  UNL d   1      -3.339  -5.954  -3.286  0.00  0.00     0.002 A 
ATOM      4  C5  UNL d   1      -2.020  -5.822  -3.733  0.00  0.00    -0.080 A 
ATOM      5  C6  UNL d   1      -1.697  -5.809  -5.198  0.00  0.00     0.076 C 
ATOM      6  C7  UNL d   1      -0.992  -5.704  -2.792  0.00  0.00     0.002 A 
ATOM      7  C8  UNL d   1      -1.276  -5.742  -1.425  0.00  0.00     0.006 A 
ENDROOT
BRANCH   1   8
ATOM      8  C1  UNL d   1      -2.889  -5.999   0.497  0.00  0.00     0.054 C 
ATOM      9  C   UNL d   1      -2.964  -4.625   1.148  0.00  0.00     0.018 C 
ENDBRANCH   1   8
TORSDOF 1
ENDMDL
