MODEL 1
REMARK minimizedAffinity -5.96000385
REMARK minimizedRMSD -1
REMARK  1 active torsions:
REMARK  status: ('A' for Active; 'I' for Inactive)
REMARK    1  A    between atoms: C1_2  and  C2_3 
ROOT
ATOM      1  C2  UNL d   1       1.295  -4.234   3.936  0.00  0.00    -0.081 A 
ATOM      2  C3  UNL d   1       0.833  -4.468   2.635  0.00  0.00     0.006 A 
ATOM      3  C4  UNL d   1       0.713  -3.414   1.726  0.00  0.00     0.002 A 
ATOM      4  C5  UNL d   1       1.059  -2.111   2.101  0.00  0.00    -0.080 A 
ATOM      5  C6  UNL d   1       0.963  -0.975   1.126  0.00  0.00     0.076 C 
ATOM      6  C7  UNL d   1       1.503  -1.875   3.406  0.00  0.00     0.002 A 
ATOM      7  C8  UNL d   1       1.623  -2.928   4.315  0.00  0.00     0.006 A 
ENDROOT
BRANCH   1   8
ATOM      8  C1  UNL d   1       1.488  -5.379   4.898  0.00  0.00     0.054 C 
ATOM      9  C   UNL d   1       2.870  -5.999   4.751  0.00  0.00     0.018 C 
ENDBRANCH   1   8
TORSDOF 1
ENDMDL
