MODEL 1
REMARK minimizedAffinity -2.75724721
REMARK minimizedRMSD -1
REMARK  1 active torsions:
REMARK  status: ('A' for Active; 'I' for Inactive)
REMARK    1  A    between atoms: C1_2  and  C2_3 
ROOT
ATOM      1  C2  UNL d   1       1.867  -3.850   4.599  0.00  0.00    -0.081 A 
ATOM      2  C3  UNL d   1       1.853  -4.146   3.230  0.00  0.00     0.006 A 
ATOM      3  C4  UNL d   1       1.815  -3.120   2.284  0.00  0.00     0.002 A 
ATOM      4  C5  UNL d   1       1.800  -1.781   2.689  0.00  0.00    -0.080 A 
ATOM      5  C6  UNL d   1       1.791  -0.669   1.683  0.00  0.00     0.076 C 
ATOM      6  C7  UNL d   1       1.797  -1.485   4.056  0.00  0.00     0.002 A 
ATOM      7  C8  UNL d   1       1.834  -2.511   5.003  0.00  0.00     0.006 A 
ENDROOT
BRANCH   1   8
ATOM      8  C1  UNL d   1       1.973  -4.953   5.621  0.00  0.00     0.054 C 
ATOM      9  C   UNL d   1       3.000  -5.997   5.205  0.00  0.00     0.018 C 
ENDBRANCH   1   8
TORSDOF 1
ENDMDL
