MODEL 1
REMARK minimizedAffinity -2.20072556
REMARK minimizedRMSD -1
REMARK  1 active torsions:
REMARK  status: ('A' for Active; 'I' for Inactive)
REMARK    1  A    between atoms: C1_2  and  C2_3 
ROOT
ATOM      1  C2  UNL d   1      -2.778  -5.881  -2.565  0.00  0.00    -0.081 A 
ATOM      2  C3  UNL d   1      -3.211  -5.791  -3.893  0.00  0.00     0.006 A 
ATOM      3  C4  UNL d   1      -2.289  -5.809  -4.942  0.00  0.00     0.002 A 
ATOM      4  C5  UNL d   1      -0.919  -5.926  -4.681  0.00  0.00    -0.080 A 
ATOM      5  C6  UNL d   1       0.079  -5.978  -5.798  0.00  0.00     0.076 C 
ATOM      6  C7  UNL d   1      -0.485  -5.998  -3.353  0.00  0.00     0.002 A 
ATOM      7  C8  UNL d   1      -1.407  -5.979  -2.304  0.00  0.00     0.006 A 
ENDROOT
BRANCH   1   8
ATOM      8  C1  UNL d   1      -3.775  -5.926  -1.435  0.00  0.00     0.054 C 
ATOM      9  C   UNL d   1      -3.120  -5.579  -0.106  0.00  0.00     0.018 C 
ENDBRANCH   1   8
TORSDOF 1
ENDMDL
