MODEL 1
REMARK minimizedAffinity -6.15136719
REMARK minimizedRMSD -1
REMARK  1 active torsions:
REMARK  status: ('A' for Active; 'I' for Inactive)
REMARK    1  A    between atoms: C1_2  and  C2_3 
ROOT
ATOM      1  C2  UNL d   1       1.474  -4.070   3.920  0.00  0.00    -0.081 A 
ATOM      2  C3  UNL d   1       0.880  -4.267   2.668  0.00  0.00     0.006 A 
ATOM      3  C4  UNL d   1       0.754  -3.204   1.769  0.00  0.00     0.002 A 
ATOM      4  C5  UNL d   1       1.226  -1.931   2.104  0.00  0.00    -0.080 A 
ATOM      5  C6  UNL d   1       1.125  -0.790   1.137  0.00  0.00     0.076 C 
ATOM      6  C7  UNL d   1       1.804  -1.731   3.362  0.00  0.00     0.002 A 
ATOM      7  C8  UNL d   1       1.930  -2.792   4.261  0.00  0.00     0.006 A 
ENDROOT
BRANCH   1   8
ATOM      8  C1  UNL d   1       1.670  -5.227   4.866  0.00  0.00     0.054 C 
ATOM      9  C   UNL d   1       2.617  -4.861   6.000  0.00  0.00     0.018 C 
ENDBRANCH   1   8
TORSDOF 1
ENDMDL
