MODEL 1
REMARK minimizedAffinity -4.60292196
REMARK minimizedRMSD -1
REMARK  1 active torsions:
REMARK  status: ('A' for Active; 'I' for Inactive)
REMARK    1  A    between atoms: C1_2  and  C2_3 
ROOT
ATOM      1  C2  UNL d   1       1.623  -3.781   4.371  0.00  0.00    -0.081 A 
ATOM      2  C3  UNL d   1       2.480  -2.674   4.424  0.00  0.00     0.006 A 
ATOM      3  C4  UNL d   1       2.468  -1.720   3.404  0.00  0.00     0.002 A 
ATOM      4  C5  UNL d   1       1.594  -1.852   2.320  0.00  0.00    -0.080 A 
ATOM      5  C6  UNL d   1       1.549  -0.818   1.233  0.00  0.00     0.076 C 
ATOM      6  C7  UNL d   1       0.750  -2.966   2.258  0.00  0.00     0.002 A 
ATOM      7  C8  UNL d   1       0.763  -3.921   3.277  0.00  0.00     0.006 A 
ENDROOT
BRANCH   1   8
ATOM      8  C1  UNL d   1       1.589  -4.778   5.502  0.00  0.00     0.054 C 
ATOM      9  C   UNL d   1       2.991  -5.101   5.997  0.00  0.00     0.018 C 
ENDBRANCH   1   8
TORSDOF 1
ENDMDL
