MODEL 1
REMARK minimizedAffinity -1.52167559
REMARK minimizedRMSD -1
REMARK  1 active torsions:
REMARK  status: ('A' for Active; 'I' for Inactive)
REMARK    1  A    between atoms: C1_2  and  C2_3 
ROOT
ATOM      1  C2  UNL d   1       1.910  -4.317   4.825  0.00  0.00    -0.081 A 
ATOM      2  C3  UNL d   1       1.185  -3.126   4.957  0.00  0.00     0.006 A 
ATOM      3  C4  UNL d   1       1.061  -2.249   3.877  0.00  0.00     0.002 A 
ATOM      4  C5  UNL d   1       1.654  -2.551   2.646  0.00  0.00    -0.080 A 
ATOM      5  C6  UNL d   1       1.504  -1.632   1.470  0.00  0.00     0.076 C 
ATOM      6  C7  UNL d   1       2.393  -3.732   2.519  0.00  0.00     0.002 A 
ATOM      7  C8  UNL d   1       2.517  -4.609   3.599  0.00  0.00     0.006 A 
ENDROOT
BRANCH   1   8
ATOM      8  C1  UNL d   1       1.990  -5.296   5.968  0.00  0.00     0.054 C 
ATOM      9  C   UNL d   1       3.340  -6.000   6.000  0.00  0.00     0.018 C 
ENDBRANCH   1   8
TORSDOF 1
ENDMDL
