MODEL 1
REMARK minimizedAffinity -3.91616869
REMARK minimizedRMSD -1
REMARK  1 active torsions:
REMARK  status: ('A' for Active; 'I' for Inactive)
REMARK    1  A    between atoms: C1_2  and  C2_3 
ROOT
ATOM      1  C2  UNL d   1      -2.529  -5.937  -2.158  0.00  0.00    -0.081 A 
ATOM      2  C3  UNL d   1      -1.171  -5.952  -1.817  0.00  0.00     0.006 A 
ATOM      3  C4  UNL d   1      -0.191  -5.985  -2.812  0.00  0.00     0.002 A 
ATOM      4  C5  UNL d   1      -0.552  -5.995  -4.164  0.00  0.00    -0.080 A 
ATOM      5  C6  UNL d   1       0.491  -6.000  -5.242  0.00  0.00     0.076 C 
ATOM      6  C7  UNL d   1      -1.909  -5.998  -4.504  0.00  0.00     0.002 A 
ATOM      7  C8  UNL d   1      -2.889  -5.966  -3.510  0.00  0.00     0.006 A 
ENDROOT
BRANCH   1   8
ATOM      8  C1  UNL d   1      -3.586  -5.837  -1.089  0.00  0.00     0.054 C 
ATOM      9  C   UNL d   1      -3.000  -5.341   0.225  0.00  0.00     0.018 C 
ENDBRANCH   1   8
TORSDOF 1
ENDMDL
