MODEL 1
REMARK minimizedAffinity 0.631824493
REMARK minimizedRMSD -1
REMARK  1 active torsions:
REMARK  status: ('A' for Active; 'I' for Inactive)
REMARK    1  A    between atoms: C1_2  and  C2_3 
ROOT
ATOM      1  C2  UNL d   1      -3.544   1.200  -2.657  0.00  0.00    -0.081 A 
ATOM      2  C3  UNL d   1      -4.892   1.521  -2.455  0.00  0.00     0.006 A 
ATOM      3  C4  UNL d   1      -5.595   0.980  -1.375  0.00  0.00     0.002 A 
ATOM      4  C5  UNL d   1      -4.960   0.117  -0.476  0.00  0.00    -0.080 A 
ATOM      5  C6  UNL d   1      -5.695  -0.446   0.704  0.00  0.00     0.076 C 
ATOM      6  C7  UNL d   1      -3.618  -0.217  -0.687  0.00  0.00     0.002 A 
ATOM      7  C8  UNL d   1      -2.915   0.322  -1.767  0.00  0.00     0.006 A 
ENDROOT
BRANCH   1   8
ATOM      8  C1  UNL d   1      -2.766   1.832  -3.782  0.00  0.00     0.054 C 
ATOM      9  C   UNL d   1      -1.361   2.213  -3.338  0.00  0.00     0.018 C 
ENDBRANCH   1   8
TORSDOF 1
ENDMDL
