MODEL 1
REMARK minimizedAffinity 4.57712889
REMARK minimizedRMSD -1
REMARK  1 active torsions:
REMARK  status: ('A' for Active; 'I' for Inactive)
REMARK    1  A    between atoms: C1_2  and  C2_3 
ROOT
ATOM      1  C2  UNL d   1       1.482  -5.289  -4.865  0.00  0.00    -0.081 A 
ATOM      2  C3  UNL d   1       0.802  -5.755  -5.997  0.00  0.00     0.006 A 
ATOM      3  C4  UNL d   1      -0.580  -5.955  -5.960  0.00  0.00     0.002 A 
ATOM      4  C5  UNL d   1      -1.305  -5.685  -4.794  0.00  0.00    -0.080 A 
ATOM      5  C6  UNL d   1      -2.794  -5.866  -4.750  0.00  0.00     0.076 C 
ATOM      6  C7  UNL d   1      -0.623  -5.236  -3.658  0.00  0.00     0.002 A 
ATOM      7  C8  UNL d   1       0.759  -5.037  -3.695  0.00  0.00     0.006 A 
ENDROOT
BRANCH   1   8
ATOM      8  C1  UNL d   1       2.963  -5.011  -4.922  0.00  0.00     0.054 C 
ATOM      9  C   UNL d   1       3.671  -5.972  -5.866  0.00  0.00     0.018 C 
ENDBRANCH   1   8
TORSDOF 1
ENDMDL
