MODEL 1
REMARK minimizedAffinity -3.49129462
REMARK minimizedRMSD -1
REMARK  0 active torsions:
REMARK  status: ('A' for Active; 'I' for Inactive)
ROOT
ATOM      1  C   UNL d   1       1.079   1.451   1.387  0.00  0.00     0.023 A 
ATOM      2  C1  UNL d   1      -0.296   1.241   1.500  0.00  0.00     0.003 A 
ATOM      3  C2  UNL d   1      -0.954   0.412   0.588  0.00  0.00     0.048 A 
ATOM      4  C3  UNL d   1      -0.231  -0.204  -0.433  0.00  0.00     0.023 A 
ATOM      5  C4  UNL d   1       1.144   0.002  -0.549  0.00  0.00     0.048 A 
ATOM      6  C5  UNL d   1       1.798   0.832   0.364  0.00  0.00     0.003 A 
ATOM      7  I   UNL d   1      -1.209  -1.438  -1.790  0.00  0.00    -0.146 I 
ENDROOT
TORSDOF 0
ENDMDL
