MODEL 1
REMARK minimizedAffinity -2.29256773
REMARK minimizedRMSD -1
REMARK  0 active torsions:
REMARK  status: ('A' for Active; 'I' for Inactive)
ROOT
ATOM      1  C   UNL d   1       1.357   2.525   1.546  0.00  0.00     0.023 A 
ATOM      2  C1  UNL d   1       0.698   1.495   2.217  0.00  0.00     0.003 A 
ATOM      3  C2  UNL d   1       0.084   0.470   1.493  0.00  0.00     0.048 A 
ATOM      4  C3  UNL d   1       0.133   0.482   0.100  0.00  0.00     0.023 A 
ATOM      5  C4  UNL d   1       0.792   1.510  -0.575  0.00  0.00     0.048 A 
ATOM      6  C5  UNL d   1       1.404   2.533   0.152  0.00  0.00     0.003 A 
ATOM      7  I   UNL d   1      -0.780  -1.042  -0.978  0.00  0.00    -0.146 I 
ENDROOT
TORSDOF 0
ENDMDL
