MODEL 1
REMARK minimizedAffinity -1.67180669
REMARK minimizedRMSD -1
REMARK  0 active torsions:
REMARK  status: ('A' for Active; 'I' for Inactive)
ROOT
ATOM      1  C   UNL d   1       1.235  -1.631  -1.094  0.00  0.00     0.023 A 
ATOM      2  C1  UNL d   1      -0.010  -1.217  -0.620  0.00  0.00     0.003 A 
ATOM      3  C2  UNL d   1      -0.144   0.024   0.005  0.00  0.00     0.048 A 
ATOM      4  C3  UNL d   1       0.972   0.847   0.153  0.00  0.00     0.023 A 
ATOM      5  C4  UNL d   1       2.220   0.438  -0.320  0.00  0.00     0.048 A 
ATOM      6  C5  UNL d   1       2.348  -0.804  -0.944  0.00  0.00     0.003 A 
ATOM      7  I   UNL d   1       0.776   2.695   1.084  0.00  0.00    -0.146 I 
ENDROOT
TORSDOF 0
ENDMDL
