MODEL 1
REMARK minimizedAffinity -4.89614153
REMARK minimizedRMSD -1
REMARK  0 active torsions:
REMARK  status: ('A' for Active; 'I' for Inactive)
ROOT
ATOM      1  C   UNL d   1      -2.617  -1.831  -2.876  0.00  0.00     0.023 A 
ATOM      2  C1  UNL d   1      -1.969  -2.444  -1.804  0.00  0.00     0.003 A 
ATOM      3  C2  UNL d   1      -1.047  -1.724  -1.040  0.00  0.00     0.048 A 
ATOM      4  C3  UNL d   1      -0.780  -0.392  -1.353  0.00  0.00     0.023 A 
ATOM      5  C4  UNL d   1      -1.427   0.226  -2.424  0.00  0.00     0.048 A 
ATOM      6  C5  UNL d   1      -2.347  -0.498  -3.185  0.00  0.00     0.003 A 
ATOM      7  I   UNL d   1       0.591   0.681  -0.217  0.00  0.00    -0.146 I 
ENDROOT
TORSDOF 0
ENDMDL
