MODEL 1
REMARK minimizedAffinity -3.67533851
REMARK minimizedRMSD -1
REMARK  0 active torsions:
REMARK  status: ('A' for Active; 'I' for Inactive)
ROOT
ATOM      1  C   UNL d   1       0.956   1.827   1.829  0.00  0.00     0.023 A 
ATOM      2  C1  UNL d   1       1.263   1.794   0.468  0.00  0.00     0.003 A 
ATOM      3  C2  UNL d   1       0.623   0.880  -0.371  0.00  0.00     0.048 A 
ATOM      4  C3  UNL d   1      -0.323   0.002   0.156  0.00  0.00     0.023 A 
ATOM      5  C4  UNL d   1      -0.634   0.032   1.517  0.00  0.00     0.048 A 
ATOM      6  C5  UNL d   1       0.009   0.947   2.352  0.00  0.00     0.003 A 
ATOM      7  I   UNL d   1      -1.277  -1.360  -1.091  0.00  0.00    -0.146 I 
ENDROOT
TORSDOF 0
ENDMDL
