MODEL 1
REMARK minimizedAffinity -1.15828049
REMARK minimizedRMSD -1
REMARK  0 active torsions:
REMARK  status: ('A' for Active; 'I' for Inactive)
ROOT
ATOM      1  C   UNL d   1       0.917   2.772   1.684  0.00  0.00     0.023 A 
ATOM      2  C1  UNL d   1       1.335   2.516   0.377  0.00  0.00     0.003 A 
ATOM      3  C2  UNL d   1       0.829   1.415  -0.316  0.00  0.00     0.048 A 
ATOM      4  C3  UNL d   1      -0.096   0.574   0.302  0.00  0.00     0.023 A 
ATOM      5  C4  UNL d   1      -0.518   0.827   1.608  0.00  0.00     0.048 A 
ATOM      6  C5  UNL d   1      -0.008   1.928   2.298  0.00  0.00     0.003 A 
ATOM      7  I   UNL d   1      -0.852  -1.065  -0.729  0.00  0.00    -0.146 I 
ENDROOT
TORSDOF 0
ENDMDL
