MODEL 1
REMARK minimizedAffinity -4.40232134
REMARK minimizedRMSD -1
REMARK  0 active torsions:
REMARK  status: ('A' for Active; 'I' for Inactive)
ROOT
ATOM      1  C   UNL d   1       0.470   1.676   1.758  0.00  0.00     0.023 A 
ATOM      2  C1  UNL d   1      -0.852   1.236   1.819  0.00  0.00     0.003 A 
ATOM      3  C2  UNL d   1      -1.362   0.413   0.813  0.00  0.00     0.048 A 
ATOM      4  C3  UNL d   1      -0.544   0.033  -0.251  0.00  0.00     0.023 A 
ATOM      5  C4  UNL d   1       0.780   0.470  -0.315  0.00  0.00     0.048 A 
ATOM      6  C5  UNL d   1       1.285   1.294   0.692  0.00  0.00     0.003 A 
ATOM      7  I   UNL d   1      -1.301  -1.193  -1.749  0.00  0.00    -0.146 I 
ENDROOT
TORSDOF 0
ENDMDL
