MODEL 1
REMARK minimizedAffinity -4.09643126
REMARK minimizedRMSD -1
REMARK  0 active torsions:
REMARK  status: ('A' for Active; 'I' for Inactive)
ROOT
ATOM      1  C   UNL d   1       0.573   2.322   1.524  0.00  0.00     0.023 A 
ATOM      2  C1  UNL d   1      -0.401   1.454   2.020  0.00  0.00     0.003 A 
ATOM      3  C2  UNL d   1      -0.865   0.400   1.231  0.00  0.00     0.048 A 
ATOM      4  C3  UNL d   1      -0.351   0.217  -0.052  0.00  0.00     0.023 A 
ATOM      5  C4  UNL d   1       0.624   1.082  -0.552  0.00  0.00     0.048 A 
ATOM      6  C5  UNL d   1       1.084   2.136   0.240  0.00  0.00     0.003 A 
ATOM      7  I   UNL d   1      -1.040  -1.352  -1.228  0.00  0.00    -0.146 I 
ENDROOT
TORSDOF 0
ENDMDL
