MODEL 1
REMARK minimizedAffinity -2.65658379
REMARK minimizedRMSD -1
REMARK  0 active torsions:
REMARK  status: ('A' for Active; 'I' for Inactive)
ROOT
ATOM      1  C   UNL d   1       1.268   0.135   0.096  0.00  0.00     0.023 A 
ATOM      2  C1  UNL d   1       1.433  -0.957  -0.756  0.00  0.00     0.003 A 
ATOM      3  C2  UNL d   1       0.355  -1.427  -1.508  0.00  0.00     0.048 A 
ATOM      4  C3  UNL d   1      -0.886  -0.800  -1.405  0.00  0.00     0.023 A 
ATOM      5  C4  UNL d   1      -1.056   0.294  -0.554  0.00  0.00     0.048 A 
ATOM      6  C5  UNL d   1       0.025   0.759   0.197  0.00  0.00     0.003 A 
ATOM      7  I   UNL d   1      -2.492  -1.497  -2.524  0.00  0.00    -0.146 I 
ENDROOT
TORSDOF 0
ENDMDL
