MODEL 1
REMARK minimizedAffinity -3.71049166
REMARK minimizedRMSD -1
REMARK  0 active torsions:
REMARK  status: ('A' for Active; 'I' for Inactive)
ROOT
ATOM      1  C   UNL d   1       0.737   2.602   1.362  0.00  0.00     0.023 A 
ATOM      2  C1  UNL d   1      -0.410   1.929   1.782  0.00  0.00     0.003 A 
ATOM      3  C2  UNL d   1      -0.821   0.769   1.123  0.00  0.00     0.048 A 
ATOM      4  C3  UNL d   1      -0.081   0.287   0.044  0.00  0.00     0.023 A 
ATOM      5  C4  UNL d   1       1.068   0.957  -0.380  0.00  0.00     0.048 A 
ATOM      6  C5  UNL d   1       1.475   2.117   0.282  0.00  0.00     0.003 A 
ATOM      7  I   UNL d   1      -0.692  -1.439  -0.939  0.00  0.00    -0.146 I 
ENDROOT
TORSDOF 0
ENDMDL
