MODEL 1
REMARK minimizedAffinity -2.24934506
REMARK minimizedRMSD -1
REMARK  0 active torsions:
REMARK  status: ('A' for Active; 'I' for Inactive)
ROOT
ATOM      1  C   UNL d   1      -2.648  -1.767  -3.396  0.00  0.00     0.023 A 
ATOM      2  C1  UNL d   1      -2.419  -0.393  -3.336  0.00  0.00     0.003 A 
ATOM      3  C2  UNL d   1      -1.736   0.156  -2.248  0.00  0.00     0.048 A 
ATOM      4  C3  UNL d   1      -1.283  -0.676  -1.225  0.00  0.00     0.023 A 
ATOM      5  C4  UNL d   1      -1.509  -2.053  -1.281  0.00  0.00     0.048 A 
ATOM      6  C5  UNL d   1      -2.194  -2.596  -2.370  0.00  0.00     0.003 A 
ATOM      7  I   UNL d   1      -0.265   0.138   0.394  0.00  0.00    -0.146 I 
ENDROOT
TORSDOF 0
ENDMDL
