MODEL 1
REMARK minimizedAffinity -4.51045036
REMARK minimizedRMSD -1
REMARK  0 active torsions:
REMARK  status: ('A' for Active; 'I' for Inactive)
ROOT
ATOM      1  C   UNL d   1       0.173  -1.739  -0.754  0.00  0.00     0.023 A 
ATOM      2  C1  UNL d   1       1.385  -1.101  -1.024  0.00  0.00     0.003 A 
ATOM      3  C2  UNL d   1       1.663   0.142  -0.453  0.00  0.00     0.048 A 
ATOM      4  C3  UNL d   1       0.726   0.742   0.388  0.00  0.00     0.023 A 
ATOM      5  C4  UNL d   1      -0.487   0.108   0.661  0.00  0.00     0.048 A 
ATOM      6  C5  UNL d   1      -0.761  -1.134   0.087  0.00  0.00     0.003 A 
ATOM      7  I   UNL d   1       1.139   2.593   1.239  0.00  0.00    -0.146 I 
ENDROOT
TORSDOF 0
ENDMDL
