MODEL 1
REMARK minimizedAffinity -1.19584358
REMARK minimizedRMSD -1
REMARK  0 active torsions:
REMARK  status: ('A' for Active; 'I' for Inactive)
ROOT
ATOM      1  C   UNL d   1       2.056   2.358   0.282  0.00  0.00     0.023 A 
ATOM      2  C1  UNL d   1       1.355   2.761   1.419  0.00  0.00     0.003 A 
ATOM      3  C2  UNL d   1       0.255   2.022   1.861  0.00  0.00     0.048 A 
ATOM      4  C3  UNL d   1      -0.137   0.881   1.162  0.00  0.00     0.023 A 
ATOM      5  C4  UNL d   1       0.562   0.474   0.024  0.00  0.00     0.048 A 
ATOM      6  C5  UNL d   1       1.660   1.216  -0.414  0.00  0.00     0.003 A 
ATOM      7  I   UNL d   1      -1.774  -0.220   1.817  0.00  0.00    -0.146 I 
ENDROOT
TORSDOF 0
ENDMDL
