MODEL 1
REMARK minimizedAffinity -4.38754416
REMARK minimizedRMSD -1
REMARK  0 active torsions:
REMARK  status: ('A' for Active; 'I' for Inactive)
ROOT
ATOM      1  C   UNL d   1       0.750   2.766   1.387  0.00  0.00     0.023 A 
ATOM      2  C1  UNL d   1       1.043   2.615   0.031  0.00  0.00     0.003 A 
ATOM      3  C2  UNL d   1       0.636   1.467  -0.650  0.00  0.00     0.048 A 
ATOM      4  C3  UNL d   1      -0.066   0.472   0.030  0.00  0.00     0.023 A 
ATOM      5  C4  UNL d   1      -0.363   0.618   1.386  0.00  0.00     0.048 A 
ATOM      6  C5  UNL d   1       0.047   1.768   2.063  0.00  0.00     0.003 A 
ATOM      7  I   UNL d   1      -0.674  -1.239  -0.981  0.00  0.00    -0.146 I 
ENDROOT
TORSDOF 0
ENDMDL
