MODEL 1
REMARK minimizedAffinity -5.04719782
REMARK minimizedRMSD -1
REMARK  0 active torsions:
REMARK  status: ('A' for Active; 'I' for Inactive)
ROOT
ATOM      1  C   UNL d   1       2.457   3.047   1.217  0.00  0.00     0.023 A 
ATOM      2  C1  UNL d   1       3.062   2.053   0.448  0.00  0.00     0.003 A 
ATOM      3  C2  UNL d   1       2.333   0.925   0.064  0.00  0.00     0.048 A 
ATOM      4  C3  UNL d   1       1.000   0.798   0.452  0.00  0.00     0.023 A 
ATOM      5  C4  UNL d   1       0.390   1.791   1.221  0.00  0.00     0.048 A 
ATOM      6  C5  UNL d   1       1.123   2.916   1.603  0.00  0.00     0.003 A 
ATOM      7  I   UNL d   1      -0.087  -0.879  -0.118  0.00  0.00    -0.146 I 
ENDROOT
TORSDOF 0
ENDMDL
