MODEL 1
REMARK minimizedAffinity -3.84253335
REMARK minimizedRMSD -1
REMARK  0 active torsions:
REMARK  status: ('A' for Active; 'I' for Inactive)
ROOT
ATOM      1  C   UNL d   1       1.018   2.526   1.511  0.00  0.00     0.023 A 
ATOM      2  C1  UNL d   1       1.613   2.038   0.348  0.00  0.00     0.003 A 
ATOM      3  C2  UNL d   1       1.055   0.944  -0.317  0.00  0.00     0.048 A 
ATOM      4  C3  UNL d   1      -0.098   0.343   0.187  0.00  0.00     0.023 A 
ATOM      5  C4  UNL d   1      -0.698   0.829   1.350  0.00  0.00     0.048 A 
ATOM      6  C5  UNL d   1      -0.136   1.923   2.011  0.00  0.00     0.003 A 
ATOM      7  I   UNL d   1      -0.930  -1.285  -0.801  0.00  0.00    -0.146 I 
ENDROOT
TORSDOF 0
ENDMDL
