MODEL 1
REMARK minimizedAffinity 3.81056404
REMARK minimizedRMSD -1
REMARK  1 active torsions:
REMARK  status: ('A' for Active; 'I' for Inactive)
REMARK    1  A    between atoms: C1_2  and  C2_3 
ROOT
ATOM      1  C2  UNL d   1       2.592  -1.644  -2.645  0.00  0.00    -0.076 A 
ATOM      2  C3  UNL d   1       3.848  -1.041  -2.830  0.00  0.00     0.004 A 
ATOM      3  C4  UNL d   1       4.454  -0.317  -1.805  0.00  0.00    -0.003 A 
ATOM      4  C5  UNL d   1       3.813  -0.184  -0.578  0.00  0.00     0.000 A 
ATOM      5  C6  UNL d   1       2.575  -0.791  -0.371  0.00  0.00     0.000 A 
ATOM      6  C7  UNL d   1       1.958  -1.538  -1.389  0.00  0.00    -0.073 A 
ATOM      7  C8  UNL d   1       0.619  -2.166  -1.113  0.00  0.00     0.078 C 
ENDROOT
BRANCH   1   8
ATOM      8  C1  UNL d   1       1.971  -2.395  -3.802  0.00  0.00     0.053 C 
ATOM      9  C   UNL d   1       1.529  -1.470  -4.926  0.00  0.00     0.018 C 
ENDBRANCH   1   8
TORSDOF 1
ENDMDL
