MODEL 1
REMARK minimizedAffinity -2.25871038
REMARK minimizedRMSD -1
REMARK  1 active torsions:
REMARK  status: ('A' for Active; 'I' for Inactive)
REMARK    1  A    between atoms: C1_2  and  C2_3 
ROOT
ATOM      1  C2  UNL d   1      -0.071   0.459   0.466  0.00  0.00    -0.076 A 
ATOM      2  C3  UNL d   1       0.562  -0.684   0.984  0.00  0.00     0.004 A 
ATOM      3  C4  UNL d   1       1.259  -1.558   0.150  0.00  0.00    -0.003 A 
ATOM      4  C5  UNL d   1       1.334  -1.302  -1.214  0.00  0.00     0.000 A 
ATOM      5  C6  UNL d   1       0.727  -0.163  -1.742  0.00  0.00     0.000 A 
ATOM      6  C7  UNL d   1       0.034   0.737  -0.914  0.00  0.00    -0.073 A 
ATOM      7  C8  UNL d   1      -0.607   1.946  -1.538  0.00  0.00     0.078 C 
ENDROOT
BRANCH   1   8
ATOM      8  C1  UNL d   1      -0.835   1.356   1.414  0.00  0.00     0.053 C 
ATOM      9  C   UNL d   1      -1.318   0.617   2.653  0.00  0.00     0.018 C 
ENDBRANCH   1   8
TORSDOF 1
ENDMDL
