MODEL 1
REMARK minimizedAffinity -1.60845971
REMARK minimizedRMSD -1
REMARK  1 active torsions:
REMARK  status: ('A' for Active; 'I' for Inactive)
REMARK    1  A    between atoms: C1_2  and  C2_3 
ROOT
ATOM      1  C2  UNL d   1       0.246  -0.924  -1.351  0.00  0.00    -0.076 A 
ATOM      2  C3  UNL d   1      -0.689  -0.089  -0.715  0.00  0.00     0.004 A 
ATOM      3  C4  UNL d   1      -2.018  -0.482  -0.565  0.00  0.00    -0.003 A 
ATOM      4  C5  UNL d   1      -2.433  -1.718  -1.048  0.00  0.00     0.000 A 
ATOM      5  C6  UNL d   1      -1.516  -2.567  -1.665  0.00  0.00     0.000 A 
ATOM      6  C7  UNL d   1      -0.169  -2.193  -1.810  0.00  0.00    -0.073 A 
ATOM      7  C8  UNL d   1       0.776  -3.145  -2.490  0.00  0.00     0.078 C 
ENDROOT
BRANCH   1   8
ATOM      8  C1  UNL d   1       1.667  -0.433  -1.509  0.00  0.00     0.053 C 
ATOM      9  C   UNL d   1       1.739   1.060  -1.792  0.00  0.00     0.018 C 
ENDBRANCH   1   8
TORSDOF 1
ENDMDL
