MODEL 1
REMARK minimizedAffinity 5.59103441
REMARK minimizedRMSD -1
REMARK  1 active torsions:
REMARK  status: ('A' for Active; 'I' for Inactive)
REMARK    1  A    between atoms: C1_2  and  C2_3 
ROOT
ATOM      1  C2  UNL d   1       0.035   1.031  -1.266  0.00  0.00    -0.076 A 
ATOM      2  C3  UNL d   1      -0.372   2.246  -1.846  0.00  0.00     0.004 A 
ATOM      3  C4  UNL d   1       0.417   2.884  -2.802  0.00  0.00    -0.003 A 
ATOM      4  C5  UNL d   1       1.625   2.318  -3.194  0.00  0.00     0.000 A 
ATOM      5  C6  UNL d   1       2.035   1.105  -2.643  0.00  0.00     0.000 A 
ATOM      6  C7  UNL d   1       1.245   0.440  -1.690  0.00  0.00    -0.073 A 
ATOM      7  C8  UNL d   1       1.739  -0.863  -1.124  0.00  0.00     0.078 C 
ENDROOT
BRANCH   1   8
ATOM      8  C1  UNL d   1      -0.848   0.399  -0.215  0.00  0.00     0.053 C 
ATOM      9  C   UNL d   1      -1.656  -0.770  -0.758  0.00  0.00     0.018 C 
ENDBRANCH   1   8
TORSDOF 1
ENDMDL
