MODEL 1
REMARK minimizedAffinity 6.51237869
REMARK minimizedRMSD -1
REMARK  1 active torsions:
REMARK  status: ('A' for Active; 'I' for Inactive)
REMARK    1  A    between atoms: C1_2  and  C2_3 
ROOT
ATOM      1  C2  UNL d   1       1.959   0.645  -1.867  0.00  0.00    -0.076 A 
ATOM      2  C3  UNL d   1       2.894   0.959  -2.869  0.00  0.00     0.004 A 
ATOM      3  C4  UNL d   1       2.832   2.171  -3.553  0.00  0.00    -0.003 A 
ATOM      4  C5  UNL d   1       1.834   3.090  -3.247  0.00  0.00     0.000 A 
ATOM      5  C6  UNL d   1       0.909   2.802  -2.244  0.00  0.00     0.000 A 
ATOM      6  C7  UNL d   1       0.967   1.591  -1.533  0.00  0.00    -0.073 A 
ATOM      7  C8  UNL d   1      -0.060   1.331  -0.465  0.00  0.00     0.078 C 
ENDROOT
BRANCH   1   8
ATOM      8  C1  UNL d   1       2.060  -0.697  -1.178  0.00  0.00     0.053 C 
ATOM      9  C   UNL d   1       3.339  -0.842  -0.368  0.00  0.00     0.018 C 
ENDBRANCH   1   8
TORSDOF 1
ENDMDL
