MODEL 1
REMARK minimizedAffinity 7.30113316
REMARK minimizedRMSD -1
REMARK  1 active torsions:
REMARK  status: ('A' for Active; 'I' for Inactive)
REMARK    1  A    between atoms: C1_2  and  C2_3 
ROOT
ATOM      1  C2  UNL d   1       0.942   0.877  -1.079  0.00  0.00    -0.076 A 
ATOM      2  C3  UNL d   1       1.610   2.113  -1.023  0.00  0.00     0.004 A 
ATOM      3  C4  UNL d   1       2.828   2.300  -1.675  0.00  0.00    -0.003 A 
ATOM      4  C5  UNL d   1       3.397   1.254  -2.393  0.00  0.00     0.000 A 
ATOM      5  C6  UNL d   1       2.740   0.027  -2.473  0.00  0.00     0.000 A 
ATOM      6  C7  UNL d   1       1.503  -0.173  -1.836  0.00  0.00    -0.073 A 
ATOM      7  C8  UNL d   1       0.842  -1.519  -1.951  0.00  0.00     0.078 C 
ENDROOT
BRANCH   1   8
ATOM      8  C1  UNL d   1      -0.363   0.725  -0.330  0.00  0.00     0.053 C 
ATOM      9  C   UNL d   1      -0.412   1.571   0.933  0.00  0.00     0.018 C 
ENDBRANCH   1   8
TORSDOF 1
ENDMDL
