MODEL 1
REMARK minimizedAffinity 6.3066783
REMARK minimizedRMSD -1
REMARK  1 active torsions:
REMARK  status: ('A' for Active; 'I' for Inactive)
REMARK    1  A    between atoms: C1_2  and  C2_3 
ROOT
ATOM      1  C2  UNL d   1      -3.130  -3.737  -0.231  0.00  0.00    -0.076 A 
ATOM      2  C3  UNL d   1      -3.695  -2.610  -0.852  0.00  0.00     0.004 A 
ATOM      3  C4  UNL d   1      -2.947  -1.451  -1.054  0.00  0.00    -0.003 A 
ATOM      4  C5  UNL d   1      -1.622  -1.401  -0.638  0.00  0.00     0.000 A 
ATOM      5  C6  UNL d   1      -1.039  -2.516  -0.036  0.00  0.00     0.000 A 
ATOM      6  C7  UNL d   1      -1.775  -3.697   0.160  0.00  0.00    -0.073 A 
ATOM      7  C8  UNL d   1      -1.098  -4.867   0.821  0.00  0.00     0.078 C 
ENDROOT
BRANCH   1   8
ATOM      8  C1  UNL d   1      -3.998  -4.956  -0.014  0.00  0.00     0.053 C 
ATOM      9  C   UNL d   1      -5.193  -4.995  -0.954  0.00  0.00     0.018 C 
ENDBRANCH   1   8
TORSDOF 1
ENDMDL
