MODEL 1
REMARK minimizedAffinity 4.44708729
REMARK minimizedRMSD -1
REMARK  1 active torsions:
REMARK  status: ('A' for Active; 'I' for Inactive)
REMARK    1  A    between atoms: C1_2  and  C2_3 
ROOT
ATOM      1  C2  UNL d   1       1.003   1.283  -1.716  0.00  0.00    -0.076 A 
ATOM      2  C3  UNL d   1       0.806   2.506  -2.380  0.00  0.00     0.004 A 
ATOM      3  C4  UNL d   1       1.694   2.939  -3.364  0.00  0.00    -0.003 A 
ATOM      4  C5  UNL d   1       2.793   2.156  -3.700  0.00  0.00     0.000 A 
ATOM      5  C6  UNL d   1       2.994   0.931  -3.064  0.00  0.00     0.000 A 
ATOM      6  C7  UNL d   1       2.099   0.472  -2.082  0.00  0.00    -0.073 A 
ATOM      7  C8  UNL d   1       2.368  -0.854  -1.424  0.00  0.00     0.078 C 
ENDROOT
BRANCH   1   8
ATOM      8  C1  UNL d   1       0.022   0.877  -0.639  0.00  0.00     0.053 C 
ATOM      9  C   UNL d   1      -1.161   1.827  -0.541  0.00  0.00     0.018 C 
ENDBRANCH   1   8
TORSDOF 1
ENDMDL
