MODEL 1
REMARK minimizedAffinity 11.6367416
REMARK minimizedRMSD -1
REMARK  1 active torsions:
REMARK  status: ('A' for Active; 'I' for Inactive)
REMARK    1  A    between atoms: C1_2  and  C2_3 
ROOT
ATOM      1  C2  UNL d   1       2.199   0.509  -1.780  0.00  0.00    -0.076 A 
ATOM      2  C3  UNL d   1       3.067   0.903  -2.813  0.00  0.00     0.004 A 
ATOM      3  C4  UNL d   1       2.891   2.117  -3.475  0.00  0.00    -0.003 A 
ATOM      4  C5  UNL d   1       1.843   2.957  -3.116  0.00  0.00     0.000 A 
ATOM      5  C6  UNL d   1       0.982   2.590  -2.082  0.00  0.00     0.000 A 
ATOM      6  C7  UNL d   1       1.156   1.378  -1.392  0.00  0.00    -0.073 A 
ATOM      7  C8  UNL d   1       0.194   1.030  -0.289  0.00  0.00     0.078 C 
ENDROOT
BRANCH   1   8
ATOM      8  C1  UNL d   1       2.423  -0.830  -1.116  0.00  0.00     0.053 C 
ATOM      9  C   UNL d   1       1.731  -1.968  -1.851  0.00  0.00     0.018 C 
ENDBRANCH   1   8
TORSDOF 1
ENDMDL
