MODEL 1
REMARK minimizedAffinity 4.37302017
REMARK minimizedRMSD -1
REMARK  1 active torsions:
REMARK  status: ('A' for Active; 'I' for Inactive)
REMARK    1  A    between atoms: C1_2  and  C2_3 
ROOT
ATOM      1  C2  UNL d   1      -0.196  -1.543  -1.002  0.00  0.00    -0.076 A 
ATOM      2  C3  UNL d   1       0.716  -2.556  -1.345  0.00  0.00     0.004 A 
ATOM      3  C4  UNL d   1       2.072  -2.277  -1.504  0.00  0.00    -0.003 A 
ATOM      4  C5  UNL d   1       2.539  -0.980  -1.321  0.00  0.00     0.000 A 
ATOM      5  C6  UNL d   1       1.651   0.034  -0.963  0.00  0.00     0.000 A 
ATOM      6  C7  UNL d   1       0.283  -0.234  -0.784  0.00  0.00    -0.073 A 
ATOM      7  C8  UNL d   1      -0.630   0.899  -0.403  0.00  0.00     0.078 C 
ENDROOT
BRANCH   1   8
ATOM      8  C1  UNL d   1      -1.660  -1.899  -0.871  0.00  0.00     0.053 C 
ATOM      9  C   UNL d   1      -1.877  -3.382  -0.609  0.00  0.00     0.018 C 
ENDBRANCH   1   8
TORSDOF 1
ENDMDL
