MODEL 1
REMARK minimizedAffinity 6.33412266
REMARK minimizedRMSD -1
REMARK  1 active torsions:
REMARK  status: ('A' for Active; 'I' for Inactive)
REMARK    1  A    between atoms: C1_2  and  C2_3 
ROOT
ATOM      1  C2  UNL d   1       0.067   0.780  -0.299  0.00  0.00    -0.076 A 
ATOM      2  C3  UNL d   1       0.411   0.037  -1.441  0.00  0.00     0.004 A 
ATOM      3  C4  UNL d   1       1.724   0.007  -1.910  0.00  0.00    -0.003 A 
ATOM      4  C5  UNL d   1       2.714   0.719  -1.242  0.00  0.00     0.000 A 
ATOM      5  C6  UNL d   1       2.394   1.448  -0.097  0.00  0.00     0.000 A 
ATOM      6  C7  UNL d   1       1.079   1.476   0.397  0.00  0.00    -0.073 A 
ATOM      7  C8  UNL d   1       0.789   2.283   1.633  0.00  0.00     0.078 C 
ENDROOT
BRANCH   1   8
ATOM      8  C1  UNL d   1      -1.378   0.798   0.146  0.00  0.00     0.053 C 
ATOM      9  C   UNL d   1      -2.001  -0.589   0.153  0.00  0.00     0.018 C 
ENDBRANCH   1   8
TORSDOF 1
ENDMDL
