MODEL 1
REMARK minimizedAffinity 11.6152782
REMARK minimizedRMSD -1
REMARK  1 active torsions:
REMARK  status: ('A' for Active; 'I' for Inactive)
REMARK    1  A    between atoms: C1_2  and  C2_3 
ROOT
ATOM      1  C2  UNL d   1      -0.479   0.509  -0.362  0.00  0.00    -0.076 A 
ATOM      2  C3  UNL d   1       0.155  -0.160  -1.424  0.00  0.00     0.004 A 
ATOM      3  C4  UNL d   1       1.456   0.166  -1.803  0.00  0.00    -0.003 A 
ATOM      4  C5  UNL d   1       2.145   1.167  -1.125  0.00  0.00     0.000 A 
ATOM      5  C6  UNL d   1       1.538   1.828  -0.058  0.00  0.00     0.000 A 
ATOM      6  C7  UNL d   1       0.232   1.500   0.347  0.00  0.00    -0.073 A 
ATOM      7  C8  UNL d   1      -0.376   2.250   1.500  0.00  0.00     0.078 C 
ENDROOT
BRANCH   1   8
ATOM      8  C1  UNL d   1      -1.901   0.130  -0.014  0.00  0.00     0.053 C 
ATOM      9  C   UNL d   1      -2.250  -1.285  -0.448  0.00  0.00     0.018 C 
ENDBRANCH   1   8
TORSDOF 1
ENDMDL
