MODEL 1
REMARK minimizedAffinity -4.19171143
REMARK minimizedRMSD -1
REMARK  1 active torsions:
REMARK  status: ('A' for Active; 'I' for Inactive)
REMARK    1  A    between atoms: C1_2  and  C2_3 
ROOT
ATOM      1  C2  UNL d   1       0.049   0.181  -0.195  0.00  0.00    -0.076 A 
ATOM      2  C3  UNL d   1      -1.177   0.707  -0.639  0.00  0.00     0.004 A 
ATOM      3  C4  UNL d   1      -1.253   1.987  -1.186  0.00  0.00    -0.003 A 
ATOM      4  C5  UNL d   1      -0.104   2.762  -1.298  0.00  0.00     0.000 A 
ATOM      5  C6  UNL d   1       1.124   2.250  -0.879  0.00  0.00     0.000 A 
ATOM      6  C7  UNL d   1       1.221   0.955  -0.341  0.00  0.00    -0.073 A 
ATOM      7  C8  UNL d   1       2.569   0.455   0.101  0.00  0.00     0.078 C 
ENDROOT
BRANCH   1   8
ATOM      8  C1  UNL d   1       0.066  -1.202   0.414  0.00  0.00     0.053 C 
ATOM      9  C   UNL d   1       0.109  -2.301  -0.636  0.00  0.00     0.018 C 
ENDBRANCH   1   8
TORSDOF 1
ENDMDL
