MODEL 1
REMARK minimizedAffinity 3.56996226
REMARK minimizedRMSD -1
REMARK  1 active torsions:
REMARK  status: ('A' for Active; 'I' for Inactive)
REMARK    1  A    between atoms: C1_2  and  C2_3 
ROOT
ATOM      1  C2  UNL d   1       0.863   1.011  -1.584  0.00  0.00    -0.076 A 
ATOM      2  C3  UNL d   1       0.721   2.253  -2.227  0.00  0.00     0.004 A 
ATOM      3  C4  UNL d   1       1.663   2.692  -3.155  0.00  0.00    -0.003 A 
ATOM      4  C5  UNL d   1       2.763   1.896  -3.456  0.00  0.00     0.000 A 
ATOM      5  C6  UNL d   1       2.911   0.654  -2.841  0.00  0.00     0.000 A 
ATOM      6  C7  UNL d   1       1.961   0.188  -1.915  0.00  0.00    -0.073 A 
ATOM      7  C8  UNL d   1       2.174  -1.157  -1.277  0.00  0.00     0.078 C 
ENDROOT
BRANCH   1   8
ATOM      8  C1  UNL d   1      -0.177   0.599  -0.566  0.00  0.00     0.053 C 
ATOM      9  C   UNL d   1      -1.336   1.580  -0.487  0.00  0.00     0.018 C 
ENDBRANCH   1   8
TORSDOF 1
ENDMDL
