MODEL 1
REMARK minimizedAffinity -1.64897311
REMARK minimizedRMSD -1
REMARK  2 active torsions:
REMARK  status: ('A' for Active; 'I' for Inactive)
REMARK    1  A    between atoms: C2'_3  and  C1'_4 
REMARK    2  A    between atoms: C1'_4  and  C1_5 
ROOT
ATOM      1  C1  I4B d   1       0.210  -0.521  -1.107  0.00  0.00    -0.075 A 
ATOM      2  C2  I4B d   1       1.001  -0.106  -0.065  0.00  0.00     0.003 A 
ATOM      3  C3  I4B d   1       0.415   0.274   1.167  0.00  0.00     0.002 A 
ATOM      4  C4  I4B d   1      -0.959   0.271   1.296  0.00  0.00    -0.004 A 
ATOM      5  C5  I4B d   1      -1.758  -0.172   0.245  0.00  0.00     0.002 A 
ATOM      6  C6  I4B d   1      -1.169  -0.583  -0.959  0.00  0.00     0.003 A 
ENDROOT
BRANCH   1   7
ATOM      7  C1' I4B d   1       0.860  -0.884  -2.405  0.00  0.00     0.060 C 
BRANCH   7   8
ATOM      8  C2' I4B d   1       1.316   0.398  -3.072  0.00  0.00    -0.013 C 
ATOM      9  C4' I4B d   1       2.756   0.307  -3.503  0.00  0.00     0.013 C 
ATOM     10  C3' I4B d   1       0.415   0.654  -4.244  0.00  0.00     0.013 C 
ENDBRANCH   7   8
ENDBRANCH   1   7
TORSDOF 2
ENDMDL
