MODEL 1
REMARK minimizedAffinity -1.82852697
REMARK minimizedRMSD -1
REMARK  2 active torsions:
REMARK  status: ('A' for Active; 'I' for Inactive)
REMARK    1  A    between atoms: C2'_3  and  C1'_4 
REMARK    2  A    between atoms: C1'_4  and  C1_5 
ROOT
ATOM      1  C1  I4B d   1       0.578  -0.646   0.405  0.00  0.00    -0.075 A 
ATOM      2  C2  I4B d   1      -0.667  -0.093   0.574  0.00  0.00     0.003 A 
ATOM      3  C3  I4B d   1      -1.076   0.364   1.851  0.00  0.00     0.002 A 
ATOM      4  C4  I4B d   1      -0.234   0.204   2.932  0.00  0.00    -0.004 A 
ATOM      5  C5  I4B d   1       1.036  -0.337   2.754  0.00  0.00     0.002 A 
ATOM      6  C6  I4B d   1       1.450  -0.753   1.480  0.00  0.00     0.003 A 
ENDROOT
BRANCH   1   7
ATOM      7  C1' I4B d   1       0.965  -1.149  -0.950  0.00  0.00     0.060 C 
BRANCH   7   8
ATOM      8  C2' I4B d   1       0.664  -0.057  -1.956  0.00  0.00    -0.013 C 
ATOM      9  C4' I4B d   1       1.900   0.738  -2.285  0.00  0.00     0.013 C 
ATOM     10  C3' I4B d   1       0.093  -0.702  -3.183  0.00  0.00     0.013 C 
ENDBRANCH   7   8
ENDBRANCH   1   7
TORSDOF 2
ENDMDL
