MODEL 1
REMARK minimizedAffinity -3.85091305
REMARK minimizedRMSD -1
REMARK  2 active torsions:
REMARK  status: ('A' for Active; 'I' for Inactive)
REMARK    1  A    between atoms: C2'_3  and  C1'_4 
REMARK    2  A    between atoms: C1'_4  and  C1_5 
ROOT
ATOM      1  C1  I4B d   1       0.734  -0.693  -2.354  0.00  0.00    -0.075 A 
ATOM      2  C2  I4B d   1       0.094  -1.416  -3.330  0.00  0.00     0.003 A 
ATOM      3  C3  I4B d   1       0.290  -1.100  -4.696  0.00  0.00     0.002 A 
ATOM      4  C4  I4B d   1       1.089  -0.027  -5.037  0.00  0.00    -0.004 A 
ATOM      5  C5  I4B d   1       1.755   0.691  -4.048  0.00  0.00     0.002 A 
ATOM      6  C6  I4B d   1       1.586   0.349  -2.699  0.00  0.00     0.003 A 
ENDROOT
BRANCH   1   7
ATOM      7  C1' I4B d   1       0.479  -1.033  -0.920  0.00  0.00     0.060 C 
BRANCH   7   8
ATOM      8  C2' I4B d   1      -0.450   0.019  -0.349  0.00  0.00    -0.013 C 
ATOM      9  C4' I4B d   1      -1.802  -0.563  -0.029  0.00  0.00     0.013 C 
ATOM     10  C3' I4B d   1       0.197   0.592   0.877  0.00  0.00     0.013 C 
ENDBRANCH   7   8
ENDBRANCH   1   7
TORSDOF 2
ENDMDL
