MODEL 1
REMARK minimizedAffinity -4.02223969
REMARK minimizedRMSD -1
REMARK  2 active torsions:
REMARK  status: ('A' for Active; 'I' for Inactive)
REMARK    1  A    between atoms: C2'_3  and  C1'_4 
REMARK    2  A    between atoms: C1'_4  and  C1_5 
ROOT
ATOM      1  C1  I4B d   1      -0.562   0.573   1.006  0.00  0.00    -0.075 A 
ATOM      2  C2  I4B d   1      -1.911   0.357   1.139  0.00  0.00     0.003 A 
ATOM      3  C3  I4B d   1      -2.550  -0.650   0.376  0.00  0.00     0.002 A 
ATOM      4  C4  I4B d   1      -1.816  -1.379  -0.539  0.00  0.00    -0.004 A 
ATOM      5  C5  I4B d   1      -0.445  -1.174  -0.655  0.00  0.00     0.002 A 
ATOM      6  C6  I4B d   1       0.189  -0.200   0.130  0.00  0.00     0.003 A 
ENDROOT
BRANCH   1   7
ATOM      7  C1' I4B d   1       0.075   1.667   1.803  0.00  0.00     0.060 C 
BRANCH   7   8
ATOM      8  C2' I4B d   1       0.675   1.048   3.049  0.00  0.00    -0.013 C 
ATOM      9  C4' I4B d   1      -0.294   1.091   4.200  0.00  0.00     0.013 C 
ATOM     10  C3' I4B d   1       1.066  -0.363   2.723  0.00  0.00     0.013 C 
ENDBRANCH   7   8
ENDBRANCH   1   7
TORSDOF 2
ENDMDL
