MODEL 1
REMARK minimizedAffinity -3.2937398
REMARK minimizedRMSD -1
REMARK  1 active torsions:
REMARK  status: ('A' for Active; 'I' for Inactive)
REMARK    1  A    between atoms: N_2  and  C1_3 
ROOT
ATOM      1  C1  UNL d   1       0.692   0.340  -3.016  0.00  0.00     0.143 A 
ATOM      2  C2  UNL d   1      -0.279  -0.533  -3.517  0.00  0.00    -0.057 A 
ATOM      3  C3  UNL d   1      -0.532  -0.627  -4.891  0.00  0.00     0.033 A 
ATOM      4  C4  UNL d   1       0.163   0.176  -5.789  0.00  0.00    -0.042 A 
ATOM      5  C5  UNL d   1       1.115   1.070  -5.311  0.00  0.00     0.033 A 
ATOM      6  C6  UNL d   1       1.368   1.154  -3.939  0.00  0.00    -0.057 A 
ENDROOT
BRANCH   1   7
ATOM      7  N   UNL d   1       0.921   0.550  -1.654  0.00  0.00    -0.732 N 
ATOM      8  C   UNL d   1       0.503  -0.432  -0.677  0.00  0.00     0.284 C 
ATOM      9  H3  UNL d   1       1.837   0.955  -1.472  0.00  0.00     0.395 HD
ENDBRANCH   1   7
TORSDOF 1
ENDMDL
