MODEL 1
REMARK minimizedAffinity -4.04695702
REMARK minimizedRMSD -1
REMARK  1 active torsions:
REMARK  status: ('A' for Active; 'I' for Inactive)
REMARK    1  A    between atoms: N_2  and  C1_3 
ROOT
ATOM      1  C1  UNL d   1      -0.193  -0.008   0.596  0.00  0.00     0.143 A 
ATOM      2  C2  UNL d   1      -1.477   0.328   1.038  0.00  0.00    -0.057 A 
ATOM      3  C3  UNL d   1      -1.673   1.028   2.235  0.00  0.00     0.033 A 
ATOM      4  C4  UNL d   1      -0.585   1.381   3.027  0.00  0.00    -0.042 A 
ATOM      5  C5  UNL d   1       0.699   1.036   2.619  0.00  0.00     0.033 A 
ATOM      6  C6  UNL d   1       0.888   0.342   1.420  0.00  0.00    -0.057 A 
ENDROOT
BRANCH   1   7
ATOM      7  N   UNL d   1       0.061  -0.789  -0.534  0.00  0.00    -0.732 N 
ATOM      8  C   UNL d   1       0.231  -0.173  -1.833  0.00  0.00     0.284 C 
ATOM      9  H3  UNL d   1       0.713  -1.546  -0.345  0.00  0.00     0.395 HD
ENDBRANCH   1   7
TORSDOF 1
ENDMDL
