MODEL 1
REMARK minimizedAffinity 0.527769208
REMARK minimizedRMSD -1
REMARK  1 active torsions:
REMARK  status: ('A' for Active; 'I' for Inactive)
REMARK    1  A    between atoms: N_2  and  C1_3 
ROOT
ATOM      1  C1  UNL d   1      -0.003   0.091  -4.894  0.00  0.00     0.143 A 
ATOM      2  C2  UNL d   1       1.294   0.609  -4.987  0.00  0.00    -0.057 A 
ATOM      3  C3  UNL d   1       1.989   1.036  -3.849  0.00  0.00     0.033 A 
ATOM      4  C4  UNL d   1       1.387   0.979  -2.597  0.00  0.00    -0.042 A 
ATOM      5  C5  UNL d   1       0.090   0.491  -2.483  0.00  0.00     0.033 A 
ATOM      6  C6  UNL d   1      -0.597   0.060  -3.622  0.00  0.00    -0.057 A 
ENDROOT
BRANCH   1   7
ATOM      7  N   UNL d   1      -0.783  -0.257  -5.999  0.00  0.00    -0.732 N 
ATOM      8  C   UNL d   1      -2.115  -0.795  -5.821  0.00  0.00     0.284 C 
ATOM      9  H3  UNL d   1      -0.704   0.416  -6.758  0.00  0.00     0.395 HD
ENDBRANCH   1   7
TORSDOF 1
ENDMDL
