MODEL 1
REMARK minimizedAffinity -4.25708771
REMARK minimizedRMSD -1
REMARK  0 active torsions:
REMARK  status: ('A' for Active; 'I' for Inactive)
ROOT
ATOM      1  C   UNL d   1      -2.685   4.131   1.352  0.00  0.00     0.078 C 
ATOM      2  C1  UNL d   1      -2.042   3.756   0.050  0.00  0.00    -0.077 A 
ATOM      3  C2  UNL d   1      -0.704   3.348  -0.002  0.00  0.00    -0.001 A 
ATOM      4  C3  UNL d   1      -0.115   3.011  -1.222  0.00  0.00     0.003 A 
ATOM      5  C4  UNL d   1      -0.857   3.079  -2.399  0.00  0.00    -0.005 A 
ATOM      6  C5  UNL d   1      -2.189   3.486  -2.358  0.00  0.00     0.003 A 
ATOM      7  C6  UNL d   1      -2.779   3.824  -1.139  0.00  0.00    -0.001 A 
ENDROOT
TORSDOF 0
ENDMDL
