MODEL 1
REMARK minimizedAffinity 4.96304941
REMARK minimizedRMSD -1
REMARK  0 active torsions:
REMARK  status: ('A' for Active; 'I' for Inactive)
ROOT
ATOM      1  C   UNL d   1       0.835  -0.923   4.136  0.00  0.00     0.078 C 
ATOM      2  C1  UNL d   1       0.598   0.256   3.241  0.00  0.00    -0.077 A 
ATOM      3  C2  UNL d   1       1.400   0.479   2.115  0.00  0.00    -0.001 A 
ATOM      4  C3  UNL d   1       1.174   1.587   1.296  0.00  0.00     0.003 A 
ATOM      5  C4  UNL d   1       0.148   2.481   1.596  0.00  0.00    -0.005 A 
ATOM      6  C5  UNL d   1      -0.654   2.268   2.715  0.00  0.00     0.003 A 
ATOM      7  C6  UNL d   1      -0.429   1.161   3.536  0.00  0.00    -0.001 A 
ENDROOT
TORSDOF 0
ENDMDL
