MODEL 1
REMARK minimizedAffinity 2.45687628
REMARK minimizedRMSD -1
REMARK  0 active torsions:
REMARK  status: ('A' for Active; 'I' for Inactive)
ROOT
ATOM      1  C   UNL d   1       0.039   0.741  -1.844  0.00  0.00     0.078 C 
ATOM      2  C1  UNL d   1       0.159   1.312  -0.463  0.00  0.00    -0.077 A 
ATOM      3  C2  UNL d   1       0.498   0.501   0.626  0.00  0.00    -0.001 A 
ATOM      4  C3  UNL d   1       0.597   1.045   1.908  0.00  0.00     0.003 A 
ATOM      5  C4  UNL d   1       0.357   2.402   2.112  0.00  0.00    -0.005 A 
ATOM      6  C5  UNL d   1       0.017   3.217   1.034  0.00  0.00     0.003 A 
ATOM      7  C6  UNL d   1      -0.083   2.675  -0.248  0.00  0.00    -0.001 A 
ENDROOT
TORSDOF 0
ENDMDL
