MODEL 1
REMARK minimizedAffinity 1.44691563
REMARK minimizedRMSD -1
REMARK  0 active torsions:
REMARK  status: ('A' for Active; 'I' for Inactive)
ROOT
ATOM      1  C   UNL d   1      -0.048   2.835   1.577  0.00  0.00     0.078 C 
ATOM      2  C1  UNL d   1       0.175   1.653   2.472  0.00  0.00    -0.077 A 
ATOM      3  C2  UNL d   1      -0.698   1.376   3.531  0.00  0.00    -0.001 A 
ATOM      4  C3  UNL d   1      -0.473   0.277   4.363  0.00  0.00     0.003 A 
ATOM      5  C4  UNL d   1       0.626  -0.551   4.145  0.00  0.00    -0.005 A 
ATOM      6  C5  UNL d   1       1.502  -0.281   3.096  0.00  0.00     0.003 A 
ATOM      7  C6  UNL d   1       1.278   0.817   2.263  0.00  0.00    -0.001 A 
ENDROOT
TORSDOF 0
ENDMDL
