MODEL 1
REMARK minimizedAffinity 0.244753718
REMARK minimizedRMSD -1
REMARK  0 active torsions:
REMARK  status: ('A' for Active; 'I' for Inactive)
ROOT
ATOM      1  C   UNL d   1       0.942  -0.078   3.544  0.00  0.00     0.078 C 
ATOM      2  C1  UNL d   1       0.040   0.948   2.925  0.00  0.00    -0.077 A 
ATOM      3  C2  UNL d   1      -1.335   0.716   2.798  0.00  0.00    -0.001 A 
ATOM      4  C3  UNL d   1      -2.161   1.676   2.211  0.00  0.00     0.003 A 
ATOM      5  C4  UNL d   1      -1.622   2.874   1.747  0.00  0.00    -0.005 A 
ATOM      6  C5  UNL d   1      -0.254   3.113   1.867  0.00  0.00     0.003 A 
ATOM      7  C6  UNL d   1       0.573   2.154   2.453  0.00  0.00    -0.001 A 
ENDROOT
TORSDOF 0
ENDMDL
