MODEL 1
REMARK minimizedAffinity 3.89778829
REMARK minimizedRMSD -1
REMARK  0 active torsions:
REMARK  status: ('A' for Active; 'I' for Inactive)
ROOT
ATOM      1  C   UNL d   1      -0.767   1.949  -2.729  0.00  0.00     0.078 C 
ATOM      2  C1  UNL d   1      -2.105   2.569  -2.454  0.00  0.00    -0.077 A 
ATOM      3  C2  UNL d   1      -3.116   1.845  -1.809  0.00  0.00    -0.001 A 
ATOM      4  C3  UNL d   1      -4.359   2.431  -1.568  0.00  0.00     0.003 A 
ATOM      5  C4  UNL d   1      -4.604   3.743  -1.970  0.00  0.00    -0.005 A 
ATOM      6  C5  UNL d   1      -3.606   4.470  -2.614  0.00  0.00     0.003 A 
ATOM      7  C6  UNL d   1      -2.361   3.885  -2.856  0.00  0.00    -0.001 A 
ENDROOT
TORSDOF 0
ENDMDL
