MODEL 1
REMARK minimizedAffinity 2.58204079
REMARK minimizedRMSD -1
REMARK  0 active torsions:
REMARK  status: ('A' for Active; 'I' for Inactive)
ROOT
ATOM      1  C   UNL d   1       0.591   0.052  -1.958  0.00  0.00     0.078 C 
ATOM      2  C1  UNL d   1      -0.807  -0.193  -2.441  0.00  0.00    -0.077 A 
ATOM      3  C2  UNL d   1      -1.048  -0.705  -3.722  0.00  0.00    -0.001 A 
ATOM      4  C3  UNL d   1      -2.355  -0.919  -4.162  0.00  0.00     0.003 A 
ATOM      5  C4  UNL d   1      -3.431  -0.623  -3.329  0.00  0.00    -0.005 A 
ATOM      6  C5  UNL d   1      -3.202  -0.111  -2.054  0.00  0.00     0.003 A 
ATOM      7  C6  UNL d   1      -1.895   0.104  -1.612  0.00  0.00    -0.001 A 
ENDROOT
TORSDOF 0
ENDMDL
