MODEL 1
REMARK minimizedAffinity 4.57468414
REMARK minimizedRMSD -1
REMARK  0 active torsions:
REMARK  status: ('A' for Active; 'I' for Inactive)
ROOT
ATOM      1  C   UNL d   1       0.376   2.347   2.571  0.00  0.00     0.078 C 
ATOM      2  C1  UNL d   1       0.542   1.116   1.730  0.00  0.00    -0.077 A 
ATOM      3  C2  UNL d   1       1.075  -0.060   2.272  0.00  0.00    -0.001 A 
ATOM      4  C3  UNL d   1       1.234  -1.196   1.475  0.00  0.00     0.003 A 
ATOM      5  C4  UNL d   1       0.862  -1.166   0.132  0.00  0.00    -0.005 A 
ATOM      6  C5  UNL d   1       0.333   0.001  -0.416  0.00  0.00     0.003 A 
ATOM      7  C6  UNL d   1       0.174   1.137   0.379  0.00  0.00    -0.001 A 
ENDROOT
TORSDOF 0
ENDMDL
