MODEL 1
REMARK minimizedAffinity -4.444242
REMARK minimizedRMSD -1
REMARK  2 active torsions:
REMARK  status: ('A' for Active; 'I' for Inactive)
REMARK    1  A    between atoms: C1_2  and  C2_3 
REMARK    2  A    between atoms: C2_3  and  C3_4 
ROOT
ATOM      1  C3  UNL d   1       0.390  -0.084   1.243  0.00  0.00    -0.075 A 
ATOM      2  C4  UNL d   1      -0.454   0.137   0.146  0.00  0.00     0.002 A 
ATOM      3  C5  UNL d   1      -1.779   0.530   0.339  0.00  0.00     0.002 A 
ATOM      4  C6  UNL d   1      -2.278   0.697   1.629  0.00  0.00    -0.004 A 
ATOM      5  C7  UNL d   1      -1.452   0.465   2.727  0.00  0.00     0.002 A 
ATOM      6  C8  UNL d   1      -0.125   0.076   2.536  0.00  0.00     0.002 A 
ENDROOT
BRANCH   1   7
ATOM      7  C2  UNL d   1       1.833  -0.481   1.040  0.00  0.00     0.056 C 
BRANCH   7   8
ATOM      8  C1  UNL d   1       2.448   0.046  -0.261  0.00  0.00     0.007 C 
ATOM      9  C   UNL d   1       3.942  -0.226  -0.372  0.00  0.00     0.009 C 
ENDBRANCH   7   8
ENDBRANCH   1   7
TORSDOF 2
ENDMDL
