MODEL 1
REMARK minimizedAffinity -0.350184172
REMARK minimizedRMSD -1
REMARK  2 active torsions:
REMARK  status: ('A' for Active; 'I' for Inactive)
REMARK    1  A    between atoms: C1_2  and  C2_3 
REMARK    2  A    between atoms: C2_3  and  C3_4 
ROOT
ATOM      1  C3  UNL d   1       1.046   0.582   0.430  0.00  0.00    -0.075 A 
ATOM      2  C4  UNL d   1       2.160   0.369  -0.395  0.00  0.00     0.002 A 
ATOM      3  C5  UNL d   1       3.213   1.284  -0.413  0.00  0.00     0.002 A 
ATOM      4  C6  UNL d   1       3.163   2.425   0.384  0.00  0.00    -0.004 A 
ATOM      5  C7  UNL d   1       2.054   2.655   1.196  0.00  0.00     0.002 A 
ATOM      6  C8  UNL d   1       1.000   1.740   1.219  0.00  0.00     0.002 A 
ENDROOT
BRANCH   1   7
ATOM      7  C2  UNL d   1      -0.084  -0.418   0.476  0.00  0.00     0.056 C 
BRANCH   7   8
ATOM      8  C1  UNL d   1      -1.449   0.198   0.802  0.00  0.00     0.007 C 
ATOM      9  C   UNL d   1      -1.876  -0.020   2.248  0.00  0.00     0.009 C 
ENDBRANCH   7   8
ENDBRANCH   1   7
TORSDOF 2
ENDMDL
