MODEL 1
REMARK minimizedAffinity -1.88301325
REMARK minimizedRMSD -1
REMARK  2 active torsions:
REMARK  status: ('A' for Active; 'I' for Inactive)
REMARK    1  A    between atoms: C1_2  and  C2_3 
REMARK    2  A    between atoms: C2_3  and  C3_4 
ROOT
ATOM      1  C3  UNL d   1      -0.198  -1.103  -0.689  0.00  0.00    -0.075 A 
ATOM      2  C4  UNL d   1       0.602  -0.707   0.394  0.00  0.00     0.002 A 
ATOM      3  C5  UNL d   1       0.048  -0.003   1.463  0.00  0.00     0.002 A 
ATOM      4  C6  UNL d   1      -1.307   0.323   1.459  0.00  0.00    -0.004 A 
ATOM      5  C7  UNL d   1      -2.107  -0.050   0.381  0.00  0.00     0.002 A 
ATOM      6  C8  UNL d   1      -1.556  -0.759  -0.688  0.00  0.00     0.002 A 
ENDROOT
BRANCH   1   7
ATOM      7  C2  UNL d   1       0.389  -1.892  -1.835  0.00  0.00     0.056 C 
BRANCH   7   8
ATOM      8  C1  UNL d   1       0.095  -1.297  -3.216  0.00  0.00     0.007 C 
ATOM      9  C   UNL d   1       0.718   0.076  -3.424  0.00  0.00     0.009 C 
ENDBRANCH   7   8
ENDBRANCH   1   7
TORSDOF 2
ENDMDL
