MODEL 1
REMARK minimizedAffinity -3.35901666
REMARK minimizedRMSD -1
REMARK  2 active torsions:
REMARK  status: ('A' for Active; 'I' for Inactive)
REMARK    1  A    between atoms: C1_2  and  C2_3 
REMARK    2  A    between atoms: C2_3  and  C3_4 
ROOT
ATOM      1  C3  UNL d   1      -0.153  -0.069   2.616  0.00  0.00    -0.075 A 
ATOM      2  C4  UNL d   1      -1.513   0.103   2.914  0.00  0.00     0.002 A 
ATOM      3  C5  UNL d   1      -2.465   0.114   1.894  0.00  0.00     0.002 A 
ATOM      4  C6  UNL d   1      -2.071  -0.037   0.567  0.00  0.00    -0.004 A 
ATOM      5  C7  UNL d   1      -0.721  -0.192   0.258  0.00  0.00     0.002 A 
ATOM      6  C8  UNL d   1       0.233  -0.207   1.276  0.00  0.00     0.002 A 
ENDROOT
BRANCH   1   7
ATOM      7  C2  UNL d   1       0.880  -0.111   3.717  0.00  0.00     0.056 C 
BRANCH   7   8
ATOM      8  C1  UNL d   1       0.854  -1.398   4.548  0.00  0.00     0.007 C 
ATOM      9  C   UNL d   1       1.261  -1.184   5.999  0.00  0.00     0.009 C 
ENDBRANCH   7   8
ENDBRANCH   1   7
TORSDOF 2
ENDMDL
