MODEL 1
REMARK minimizedAffinity 1.07409179
REMARK minimizedRMSD -1
REMARK  2 active torsions:
REMARK  status: ('A' for Active; 'I' for Inactive)
REMARK    1  A    between atoms: C1_2  and  C2_3 
REMARK    2  A    between atoms: C2_3  and  C3_4 
ROOT
ATOM      1  C3  UNL d   1      -0.451  -0.281   1.297  0.00  0.00    -0.075 A 
ATOM      2  C4  UNL d   1      -0.075  -0.848   2.523  0.00  0.00     0.002 A 
ATOM      3  C5  UNL d   1      -0.900  -0.730   3.641  0.00  0.00     0.002 A 
ATOM      4  C6  UNL d   1      -2.104  -0.036   3.552  0.00  0.00    -0.004 A 
ATOM      5  C7  UNL d   1      -2.481   0.546   2.344  0.00  0.00     0.002 A 
ATOM      6  C8  UNL d   1      -1.659   0.426   1.222  0.00  0.00     0.002 A 
ENDROOT
BRANCH   1   7
ATOM      7  C2  UNL d   1       0.423  -0.430   0.075  0.00  0.00     0.056 C 
BRANCH   7   8
ATOM      8  C1  UNL d   1      -0.248  -1.173  -1.085  0.00  0.00     0.007 C 
ATOM      9  C   UNL d   1       0.111  -2.652  -1.139  0.00  0.00     0.009 C 
ENDBRANCH   7   8
ENDBRANCH   1   7
TORSDOF 2
ENDMDL
