MODEL 1
REMARK minimizedAffinity 0.437495559
REMARK minimizedRMSD -1
REMARK  2 active torsions:
REMARK  status: ('A' for Active; 'I' for Inactive)
REMARK    1  A    between atoms: C1_2  and  C2_3 
REMARK    2  A    between atoms: C2_3  and  C3_4 
ROOT
ATOM      1  C3  UNL d   1       1.512   0.503  -2.049  0.00  0.00    -0.075 A 
ATOM      2  C4  UNL d   1       1.438   1.283  -3.212  0.00  0.00     0.002 A 
ATOM      3  C5  UNL d   1       2.597   1.795  -3.797  0.00  0.00     0.002 A 
ATOM      4  C6  UNL d   1       3.840   1.543  -3.223  0.00  0.00    -0.004 A 
ATOM      5  C7  UNL d   1       3.925   0.782  -2.058  0.00  0.00     0.002 A 
ATOM      6  C8  UNL d   1       2.767   0.265  -1.473  0.00  0.00     0.002 A 
ENDROOT
BRANCH   1   7
ATOM      7  C2  UNL d   1       0.265  -0.079  -1.428  0.00  0.00     0.056 C 
BRANCH   7   8
ATOM      8  C1  UNL d   1       0.260  -0.051   0.104  0.00  0.00     0.007 C 
ATOM      9  C   UNL d   1      -1.095  -0.399   0.706  0.00  0.00     0.009 C 
ENDBRANCH   7   8
ENDBRANCH   1   7
TORSDOF 2
ENDMDL
