MODEL 1
REMARK minimizedAffinity 1.41877031
REMARK minimizedRMSD -1
REMARK  2 active torsions:
REMARK  status: ('A' for Active; 'I' for Inactive)
REMARK    1  A    between atoms: C1_2  and  C2_3 
REMARK    2  A    between atoms: C2_3  and  C3_4 
ROOT
ATOM      1  C3  UNL d   1      -1.354  -1.251   3.579  0.00  0.00    -0.075 A 
ATOM      2  C4  UNL d   1      -1.565  -1.713   4.886  0.00  0.00     0.002 A 
ATOM      3  C5  UNL d   1      -0.484  -2.012   5.715  0.00  0.00     0.002 A 
ATOM      4  C6  UNL d   1       0.820  -1.863   5.246  0.00  0.00    -0.004 A 
ATOM      5  C7  UNL d   1       1.041  -1.421   3.944  0.00  0.00     0.002 A 
ATOM      6  C8  UNL d   1      -0.039  -1.117   3.113  0.00  0.00     0.002 A 
ENDROOT
BRANCH   1   7
ATOM      7  C2  UNL d   1      -2.520  -0.898   2.686  0.00  0.00     0.056 C 
BRANCH   7   8
ATOM      8  C1  UNL d   1      -3.592  -1.989   2.600  0.00  0.00     0.007 C 
ATOM      9  C   UNL d   1      -4.711  -1.813   3.617  0.00  0.00     0.009 C 
ENDBRANCH   7   8
ENDBRANCH   1   7
TORSDOF 2
ENDMDL
