MODEL 1
REMARK minimizedAffinity 3.06667686
REMARK minimizedRMSD -1
REMARK  2 active torsions:
REMARK  status: ('A' for Active; 'I' for Inactive)
REMARK    1  A    between atoms: C1_2  and  C2_3 
REMARK    2  A    between atoms: C2_3  and  C3_4 
ROOT
ATOM      1  C3  UNL d   1      -1.557   0.771   0.966  0.00  0.00    -0.075 A 
ATOM      2  C4  UNL d   1      -0.534  -0.027   0.433  0.00  0.00     0.002 A 
ATOM      3  C5  UNL d   1      -0.797  -0.914  -0.611  0.00  0.00     0.002 A 
ATOM      4  C6  UNL d   1      -2.086  -1.022  -1.128  0.00  0.00    -0.004 A 
ATOM      5  C7  UNL d   1      -3.114  -0.247  -0.596  0.00  0.00     0.002 A 
ATOM      6  C8  UNL d   1      -2.852   0.644   0.446  0.00  0.00     0.002 A 
ENDROOT
BRANCH   1   7
ATOM      7  C2  UNL d   1      -1.272   1.754   2.076  0.00  0.00     0.056 C 
BRANCH   7   8
ATOM      8  C1  UNL d   1      -0.432   2.959   1.641  0.00  0.00     0.007 C 
ATOM      9  C   UNL d   1       1.061   2.665   1.594  0.00  0.00     0.009 C 
ENDBRANCH   7   8
ENDBRANCH   1   7
TORSDOF 2
ENDMDL
