MODEL 1
REMARK minimizedAffinity -2.27818608
REMARK minimizedRMSD -1
REMARK  2 active torsions:
REMARK  status: ('A' for Active; 'I' for Inactive)
REMARK    1  A    between atoms: C1_2  and  C2_3 
REMARK    2  A    between atoms: C2_3  and  C3_4 
ROOT
ATOM      1  C3  UNL d   1       0.824  -0.350   0.950  0.00  0.00    -0.075 A 
ATOM      2  C4  UNL d   1      -0.159  -0.523  -0.035  0.00  0.00     0.002 A 
ATOM      3  C5  UNL d   1      -1.512  -0.513   0.305  0.00  0.00     0.002 A 
ATOM      4  C6  UNL d   1      -1.898  -0.341   1.632  0.00  0.00    -0.004 A 
ATOM      5  C7  UNL d   1      -0.930  -0.185   2.621  0.00  0.00     0.002 A 
ATOM      6  C8  UNL d   1       0.425  -0.190   2.283  0.00  0.00     0.002 A 
ENDROOT
BRANCH   1   7
ATOM      7  C2  UNL d   1       2.289  -0.330   0.585  0.00  0.00     0.056 C 
BRANCH   7   8
ATOM      8  C1  UNL d   1       2.729   0.934  -0.161  0.00  0.00     0.007 C 
ATOM      9  C   UNL d   1       4.005   0.740  -0.971  0.00  0.00     0.009 C 
ENDBRANCH   7   8
ENDBRANCH   1   7
TORSDOF 2
ENDMDL
