MODEL 1
REMARK minimizedAffinity -5.53436327
REMARK minimizedRMSD -1
REMARK  1 active torsions:
REMARK  status: ('A' for Active; 'I' for Inactive)
REMARK    1  A    between atoms: C1_2  and  C2_3 
ROOT
ATOM      1  C2  UNL d   1       0.434   0.084  -0.589  0.00  0.00    -0.076 A 
ATOM      2  C3  UNL d   1       0.864  -1.168  -0.117  0.00  0.00     0.004 A 
ATOM      3  C4  UNL d   1       2.085  -1.706  -0.520  0.00  0.00    -0.003 A 
ATOM      4  C5  UNL d   1       2.897  -1.000  -1.400  0.00  0.00     0.000 A 
ATOM      5  C6  UNL d   1       2.495   0.252  -1.864  0.00  0.00     0.000 A 
ATOM      6  C7  UNL d   1       1.274   0.816  -1.455  0.00  0.00    -0.073 A 
ATOM      7  C8  UNL d   1       0.887   2.167  -1.992  0.00  0.00     0.078 C 
ENDROOT
BRANCH   1   8
ATOM      8  C1  UNL d   1      -0.912   0.605  -0.139  0.00  0.00     0.053 C 
ATOM      9  C   UNL d   1      -1.163   0.369   1.342  0.00  0.00     0.018 C 
ENDBRANCH   1   8
TORSDOF 1
ENDMDL
