MODEL 1
REMARK minimizedAffinity -3.90173793
REMARK minimizedRMSD -1
REMARK  1 active torsions:
REMARK  status: ('A' for Active; 'I' for Inactive)
REMARK    1  A    between atoms: C1_2  and  C2_3 
ROOT
ATOM      1  C2  UNL d   1       1.163   0.001  -1.623  0.00  0.00    -0.076 A 
ATOM      2  C3  UNL d   1      -0.023   0.181  -0.889  0.00  0.00     0.004 A 
ATOM      3  C4  UNL d   1      -0.468  -0.792   0.004  0.00  0.00    -0.003 A 
ATOM      4  C5  UNL d   1       0.266  -1.959   0.180  0.00  0.00     0.000 A 
ATOM      5  C6  UNL d   1       1.454  -2.147  -0.526  0.00  0.00     0.000 A 
ATOM      6  C7  UNL d   1       1.925  -1.169  -1.419  0.00  0.00    -0.073 A 
ATOM      7  C8  UNL d   1       3.210  -1.426  -2.158  0.00  0.00     0.078 C 
ENDROOT
BRANCH   1   8
ATOM      8  C1  UNL d   1       1.582   1.078  -2.598  0.00  0.00     0.053 C 
ATOM      9  C   UNL d   1       0.799   2.369  -2.412  0.00  0.00     0.018 C 
ENDBRANCH   1   8
TORSDOF 1
ENDMDL
