MODEL 1
REMARK minimizedAffinity -5.60499716
REMARK minimizedRMSD -1
REMARK  1 active torsions:
REMARK  status: ('A' for Active; 'I' for Inactive)
REMARK    1  A    between atoms: C1_2  and  C2_3 
ROOT
ATOM      1  C2  UNL d   1       0.450   0.503  -1.384  0.00  0.00    -0.076 A 
ATOM      2  C3  UNL d   1       1.595   0.092  -2.088  0.00  0.00     0.004 A 
ATOM      3  C4  UNL d   1       2.259  -1.087  -1.750  0.00  0.00    -0.003 A 
ATOM      4  C5  UNL d   1       1.788  -1.873  -0.704  0.00  0.00     0.000 A 
ATOM      5  C6  UNL d   1       0.643  -1.488  -0.007  0.00  0.00     0.000 A 
ATOM      6  C7  UNL d   1      -0.047  -0.312  -0.345  0.00  0.00    -0.073 A 
ATOM      7  C8  UNL d   1      -1.273   0.057   0.445  0.00  0.00     0.078 C 
ENDROOT
BRANCH   1   8
ATOM      8  C1  UNL d   1      -0.213   1.804  -1.777  0.00  0.00     0.053 C 
ATOM      9  C   UNL d   1       0.794   2.901  -2.086  0.00  0.00     0.018 C 
ENDBRANCH   1   8
TORSDOF 1
ENDMDL
