MODEL 1
REMARK minimizedAffinity -6.26475286
REMARK minimizedRMSD -1
REMARK  1 active torsions:
REMARK  status: ('A' for Active; 'I' for Inactive)
REMARK    1  A    between atoms: C1_2  and  C2_3 
ROOT
ATOM      1  C2  UNL d   1       0.823  -0.498  -0.798  0.00  0.00    -0.076 A 
ATOM      2  C3  UNL d   1       1.894  -0.793  -1.659  0.00  0.00     0.004 A 
ATOM      3  C4  UNL d   1       2.242   0.073  -2.694  0.00  0.00    -0.003 A 
ATOM      4  C5  UNL d   1       1.525   1.249  -2.885  0.00  0.00     0.000 A 
ATOM      5  C6  UNL d   1       0.470   1.566  -2.030  0.00  0.00     0.000 A 
ATOM      6  C7  UNL d   1       0.117   0.712  -0.971  0.00  0.00    -0.073 A 
ATOM      7  C8  UNL d   1      -1.034   1.101  -0.083  0.00  0.00     0.078 C 
ENDROOT
BRANCH   1   8
ATOM      8  C1  UNL d   1       0.474  -1.488   0.290  0.00  0.00     0.053 C 
ATOM      9  C   UNL d   1       0.087  -2.851  -0.264  0.00  0.00     0.018 C 
ENDBRANCH   1   8
TORSDOF 1
ENDMDL
