MODEL 1
REMARK minimizedAffinity -1.81390357
REMARK minimizedRMSD -1
REMARK  1 active torsions:
REMARK  status: ('A' for Active; 'I' for Inactive)
REMARK    1  A    between atoms: C1_2  and  C2_3 
ROOT
ATOM      1  C2  UNL d   1      -0.220  -0.163  -0.270  0.00  0.00    -0.076 A 
ATOM      2  C3  UNL d   1      -0.422  -1.446   0.267  0.00  0.00     0.004 A 
ATOM      3  C4  UNL d   1       0.424  -2.504  -0.062  0.00  0.00    -0.003 A 
ATOM      4  C5  UNL d   1       1.488  -2.295  -0.934  0.00  0.00     0.000 A 
ATOM      5  C6  UNL d   1       1.714  -1.024  -1.462  0.00  0.00     0.000 A 
ATOM      6  C7  UNL d   1       0.880   0.056  -1.127  0.00  0.00    -0.073 A 
ATOM      7  C8  UNL d   1       1.166   1.404  -1.731  0.00  0.00     0.078 C 
ENDROOT
BRANCH   1   8
ATOM      8  C1  UNL d   1      -1.186   0.939   0.102  0.00  0.00     0.053 C 
ATOM      9  C   UNL d   1      -1.748   0.771   1.506  0.00  0.00     0.018 C 
ENDBRANCH   1   8
TORSDOF 1
ENDMDL
