MODEL 1
REMARK minimizedAffinity -4.13395452
REMARK minimizedRMSD -1
REMARK  1 active torsions:
REMARK  status: ('A' for Active; 'I' for Inactive)
REMARK    1  A    between atoms: C1_2  and  C2_3 
ROOT
ATOM      1  C2  UNL d   1       0.958  -1.102  -0.825  0.00  0.00    -0.076 A 
ATOM      2  C3  UNL d   1      -0.365  -0.763  -0.495  0.00  0.00     0.004 A 
ATOM      3  C4  UNL d   1      -0.692   0.525  -0.072  0.00  0.00    -0.003 A 
ATOM      4  C5  UNL d   1       0.301   1.494   0.026  0.00  0.00     0.000 A 
ATOM      5  C6  UNL d   1       1.616   1.180  -0.315  0.00  0.00     0.000 A 
ATOM      6  C7  UNL d   1       1.958  -0.109  -0.758  0.00  0.00    -0.073 A 
ATOM      7  C8  UNL d   1       3.394  -0.395  -1.107  0.00  0.00     0.078 C 
ENDROOT
BRANCH   1   8
ATOM      8  C1  UNL d   1       1.257  -2.522  -1.252  0.00  0.00     0.053 C 
ATOM      9  C   UNL d   1       0.942  -2.768  -2.719  0.00  0.00     0.018 C 
ENDBRANCH   1   8
TORSDOF 1
ENDMDL
