MODEL 1
REMARK minimizedAffinity -5.82875776
REMARK minimizedRMSD -1
REMARK  1 active torsions:
REMARK  status: ('A' for Active; 'I' for Inactive)
REMARK    1  A    between atoms: C1_2  and  C2_3 
ROOT
ATOM      1  C2  UNL d   1       0.710   0.041  -0.630  0.00  0.00    -0.076 A 
ATOM      2  C3  UNL d   1       0.450   1.371  -1.004  0.00  0.00     0.004 A 
ATOM      3  C4  UNL d   1       1.228   2.011  -1.967  0.00  0.00    -0.003 A 
ATOM      4  C5  UNL d   1       2.279   1.330  -2.573  0.00  0.00     0.000 A 
ATOM      5  C6  UNL d   1       2.540   0.005  -2.227  0.00  0.00     0.000 A 
ATOM      6  C7  UNL d   1       1.755  -0.660  -1.269  0.00  0.00    -0.073 A 
ATOM      7  C8  UNL d   1       2.085  -2.087  -0.930  0.00  0.00     0.078 C 
ENDROOT
BRANCH   1   8
ATOM      8  C1  UNL d   1      -0.150  -0.592   0.441  0.00  0.00     0.053 C 
ATOM      9  C   UNL d   1      -1.029   0.422   1.157  0.00  0.00     0.018 C 
ENDBRANCH   1   8
TORSDOF 1
ENDMDL
