MODEL 1
REMARK minimizedAffinity 4.13806438
REMARK minimizedRMSD -1
REMARK  1 active torsions:
REMARK  status: ('A' for Active; 'I' for Inactive)
REMARK    1  A    between atoms: C1_2  and  C2_3 
ROOT
ATOM      1  C2  UNL d   1       0.100   0.530  -1.706  0.00  0.00    -0.076 A 
ATOM      2  C3  UNL d   1       0.900   0.695  -2.850  0.00  0.00     0.004 A 
ATOM      3  C4  UNL d   1       1.782  -0.304  -3.259  0.00  0.00    -0.003 A 
ATOM      4  C5  UNL d   1       1.878  -1.485  -2.530  0.00  0.00     0.000 A 
ATOM      5  C6  UNL d   1       1.079  -1.672  -1.402  0.00  0.00     0.000 A 
ATOM      6  C7  UNL d   1       0.173  -0.682  -0.986  0.00  0.00    -0.073 A 
ATOM      7  C8  UNL d   1      -0.660  -0.935   0.241  0.00  0.00     0.078 C 
ENDROOT
BRANCH   1   8
ATOM      8  C1  UNL d   1      -0.818   1.659  -1.296  0.00  0.00     0.053 C 
ATOM      9  C   UNL d   1      -0.449   2.979  -1.955  0.00  0.00     0.018 C 
ENDBRANCH   1   8
TORSDOF 1
ENDMDL
