MODEL 1
REMARK minimizedAffinity 0.189104497
REMARK minimizedRMSD -1
REMARK  1 active torsions:
REMARK  status: ('A' for Active; 'I' for Inactive)
REMARK    1  A    between atoms: C1_2  and  C2_3 
ROOT
ATOM      1  C2  UNL d   1      -0.263  -0.152   0.111  0.00  0.00    -0.076 A 
ATOM      2  C3  UNL d   1      -0.122  -1.439   0.659  0.00  0.00     0.004 A 
ATOM      3  C4  UNL d   1       0.797  -2.346   0.133  0.00  0.00    -0.003 A 
ATOM      4  C5  UNL d   1       1.590  -1.980  -0.949  0.00  0.00     0.000 A 
ATOM      5  C6  UNL d   1       1.475  -0.701  -1.494  0.00  0.00     0.000 A 
ATOM      6  C7  UNL d   1       0.565   0.230  -0.965  0.00  0.00    -0.073 A 
ATOM      7  C8  UNL d   1       0.479   1.593  -1.595  0.00  0.00     0.078 C 
ENDROOT
BRANCH   1   8
ATOM      8  C1  UNL d   1      -1.296   0.778   0.707  0.00  0.00     0.053 C 
ATOM      9  C   UNL d   1      -1.558   0.494   2.177  0.00  0.00     0.018 C 
ENDBRANCH   1   8
TORSDOF 1
ENDMDL
