MODEL 1
REMARK minimizedAffinity 0.352721602
REMARK minimizedRMSD -1
REMARK  1 active torsions:
REMARK  status: ('A' for Active; 'I' for Inactive)
REMARK    1  A    between atoms: C1_2  and  C2_3 
ROOT
ATOM      1  C2  UNL d   1      -1.475   0.273   2.124  0.00  0.00    -0.076 A 
ATOM      2  C3  UNL d   1      -2.551  -0.588   2.399  0.00  0.00     0.004 A 
ATOM      3  C4  UNL d   1      -3.578  -0.201   3.259  0.00  0.00    -0.003 A 
ATOM      4  C5  UNL d   1      -3.545   1.054   3.857  0.00  0.00     0.000 A 
ATOM      5  C6  UNL d   1      -2.493   1.928   3.581  0.00  0.00     0.000 A 
ATOM      6  C7  UNL d   1      -1.459   1.560   2.704  0.00  0.00    -0.073 A 
ATOM      7  C8  UNL d   1      -0.347   2.539   2.447  0.00  0.00     0.078 C 
ENDROOT
BRANCH   1   8
ATOM      8  C1  UNL d   1      -0.376  -0.212   1.204  0.00  0.00     0.053 C 
ATOM      9  C   UNL d   1      -0.902  -0.637  -0.158  0.00  0.00     0.018 C 
ENDBRANCH   1   8
TORSDOF 1
ENDMDL
