MODEL 1
REMARK minimizedAffinity -4.30369711
REMARK minimizedRMSD -1
REMARK  1 active torsions:
REMARK  status: ('A' for Active; 'I' for Inactive)
REMARK    1  A    between atoms: C1_2  and  C2_3 
ROOT
ATOM      1  C2  UNL d   1      -0.162   0.078  -0.419  0.00  0.00    -0.076 A 
ATOM      2  C3  UNL d   1      -0.191  -1.316  -0.239  0.00  0.00     0.004 A 
ATOM      3  C4  UNL d   1       0.813  -2.128  -0.765  0.00  0.00    -0.003 A 
ATOM      4  C5  UNL d   1       1.862  -1.559  -1.478  0.00  0.00     0.000 A 
ATOM      5  C6  UNL d   1       1.916  -0.176  -1.651  0.00  0.00     0.000 A 
ATOM      6  C7  UNL d   1       0.921   0.658  -1.113  0.00  0.00    -0.073 A 
ATOM      7  C8  UNL d   1       1.026   2.142  -1.335  0.00  0.00     0.078 C 
ENDROOT
BRANCH   1   8
ATOM      8  C1  UNL d   1      -1.292   0.906   0.151  0.00  0.00     0.053 C 
ATOM      9  C   UNL d   1      -2.032   0.189   1.271  0.00  0.00     0.018 C 
ENDBRANCH   1   8
TORSDOF 1
ENDMDL
