MODEL 1
REMARK minimizedAffinity 0.118282169
REMARK minimizedRMSD -1
REMARK  1 active torsions:
REMARK  status: ('A' for Active; 'I' for Inactive)
REMARK    1  A    between atoms: C1_2  and  C2_3 
ROOT
ATOM      1  C2  UNL d   1       0.877   3.904  -0.218  0.00  0.00    -0.077 A 
ATOM      2  C3  UNL d   1       2.182   4.261   0.151  0.00  0.00     0.002 A 
ATOM      3  C4  UNL d   1       2.703   3.857   1.382  0.00  0.00     0.002 A 
ATOM      4  C5  UNL d   1       1.929   3.091   2.250  0.00  0.00    -0.004 A 
ATOM      5  C6  UNL d   1       0.630   2.732   1.893  0.00  0.00     0.002 A 
ATOM      6  C7  UNL d   1       0.107   3.136   0.664  0.00  0.00     0.002 A 
ENDROOT
BRANCH   1   7
ATOM      7  C1  UNL d   1       0.331   4.297  -1.566  0.00  0.00     0.055 C 
ATOM      8  C   UNL d   1      -1.143   4.667  -1.479  0.00  0.00     0.019 C 
ENDBRANCH   1   7
TORSDOF 1
ENDMDL
