MODEL 1
REMARK minimizedAffinity 17.4565811
REMARK minimizedRMSD -1
REMARK  1 active torsions:
REMARK  status: ('A' for Active; 'I' for Inactive)
REMARK    1  A    between atoms: C1_2  and  C2_3 
ROOT
ATOM      1  C2  UNL d   1       4.776  -4.796  -3.219  0.00  0.00    -0.077 A 
ATOM      2  C3  UNL d   1       5.297  -3.734  -2.466  0.00  0.00     0.002 A 
ATOM      3  C4  UNL d   1       5.329  -3.805  -1.072  0.00  0.00     0.002 A 
ATOM      4  C5  UNL d   1       4.847  -4.938  -0.420  0.00  0.00    -0.004 A 
ATOM      5  C6  UNL d   1       4.326  -5.999  -1.159  0.00  0.00     0.002 A 
ATOM      6  C7  UNL d   1       4.292  -5.929  -2.553  0.00  0.00     0.002 A 
ENDROOT
BRANCH   1   7
ATOM      7  C1  UNL d   1       4.786  -4.741  -4.725  0.00  0.00     0.055 C 
ATOM      8  C   UNL d   1       4.077  -5.946  -5.326  0.00  0.00     0.019 C 
ENDBRANCH   1   7
TORSDOF 1
ENDMDL
