MODEL 1
REMARK minimizedAffinity 10.8423052
REMARK minimizedRMSD -1
REMARK  1 active torsions:
REMARK  status: ('A' for Active; 'I' for Inactive)
REMARK    1  A    between atoms: C1_2  and  C2_3 
ROOT
ATOM      1  C2  UNL d   1      -5.993   1.196  -3.312  0.00  0.00    -0.077 A 
ATOM      2  C3  UNL d   1      -5.987   2.550  -3.675  0.00  0.00     0.002 A 
ATOM      3  C4  UNL d   1      -5.988   3.544  -2.694  0.00  0.00     0.002 A 
ATOM      4  C5  UNL d   1      -5.990   3.194  -1.346  0.00  0.00    -0.004 A 
ATOM      5  C6  UNL d   1      -5.998   1.850  -0.975  0.00  0.00     0.002 A 
ATOM      6  C7  UNL d   1      -5.998   0.856  -1.954  0.00  0.00     0.002 A 
ENDROOT
BRANCH   1   7
ATOM      7  C1  UNL d   1      -5.942   0.123  -4.368  0.00  0.00     0.055 C 
ATOM      8  C   UNL d   1      -4.754   0.317  -5.299  0.00  0.00     0.019 C 
ENDBRANCH   1   7
TORSDOF 1
ENDMDL
