MODEL 1
REMARK minimizedAffinity 8.33284378
REMARK minimizedRMSD -1
REMARK  1 active torsions:
REMARK  status: ('A' for Active; 'I' for Inactive)
REMARK    1  A    between atoms: C1_2  and  C2_3 
ROOT
ATOM      1  C2  UNL d   1      -1.814  -3.677  -5.315  0.00  0.00    -0.077 A 
ATOM      2  C3  UNL d   1      -3.213  -3.591  -5.279  0.00  0.00     0.002 A 
ATOM      3  C4  UNL d   1      -3.997  -4.700  -5.601  0.00  0.00     0.002 A 
ATOM      4  C5  UNL d   1      -3.392  -5.904  -5.957  0.00  0.00    -0.004 A 
ATOM      5  C6  UNL d   1      -2.002  -5.999  -5.998  0.00  0.00     0.002 A 
ATOM      6  C7  UNL d   1      -1.216  -4.890  -5.678  0.00  0.00     0.002 A 
ENDROOT
BRANCH   1   7
ATOM      7  C1  UNL d   1      -0.966  -2.496  -4.921  0.00  0.00     0.055 C 
ATOM      8  C   UNL d   1      -1.684  -1.182  -5.195  0.00  0.00     0.019 C 
ENDBRANCH   1   7
TORSDOF 1
ENDMDL
