MODEL 1
REMARK minimizedAffinity 1.45502388
REMARK minimizedRMSD -1
REMARK  1 active torsions:
REMARK  status: ('A' for Active; 'I' for Inactive)
REMARK    1  A    between atoms: C1_2  and  C2_3 
ROOT
ATOM      1  C2  UNL d   1      -5.288   5.131  -3.553  0.00  0.00    -0.077 A 
ATOM      2  C3  UNL d   1      -3.898   5.225  -3.392  0.00  0.00     0.002 A 
ATOM      3  C4  UNL d   1      -3.235   4.402  -2.480  0.00  0.00     0.002 A 
ATOM      4  C5  UNL d   1      -3.953   3.477  -1.724  0.00  0.00    -0.004 A 
ATOM      5  C6  UNL d   1      -5.335   3.378  -1.875  0.00  0.00     0.002 A 
ATOM      6  C7  UNL d   1      -6.000   4.200  -2.786  0.00  0.00     0.002 A 
ENDROOT
BRANCH   1   7
ATOM      7  C1  UNL d   1      -5.998   5.984  -4.571  0.00  0.00     0.055 C 
ATOM      8  C   UNL d   1      -5.978   5.334  -5.947  0.00  0.00     0.019 C 
ENDBRANCH   1   7
TORSDOF 1
ENDMDL
