MODEL 1
REMARK minimizedAffinity 3.82416892
REMARK minimizedRMSD -1
REMARK  1 active torsions:
REMARK  status: ('A' for Active; 'I' for Inactive)
REMARK    1  A    between atoms: C1_2  and  C2_3 
ROOT
ATOM      1  C2  UNL d   1       0.053   5.398  -2.884  0.00  0.00    -0.077 A 
ATOM      2  C3  UNL d   1      -1.336   5.385  -2.691  0.00  0.00     0.002 A 
ATOM      3  C4  UNL d   1      -1.880   4.869  -1.514  0.00  0.00     0.002 A 
ATOM      4  C5  UNL d   1      -1.044   4.368  -0.518  0.00  0.00    -0.004 A 
ATOM      5  C6  UNL d   1       0.338   4.375  -0.701  0.00  0.00     0.002 A 
ATOM      6  C7  UNL d   1       0.884   4.889  -1.878  0.00  0.00     0.002 A 
ENDROOT
BRANCH   1   7
ATOM      7  C1  UNL d   1       0.645   5.999  -4.132  0.00  0.00     0.055 C 
ATOM      8  C   UNL d   1      -0.359   6.000  -5.276  0.00  0.00     0.019 C 
ENDBRANCH   1   7
TORSDOF 1
ENDMDL
