MODEL 1
REMARK minimizedAffinity 6.39448071
REMARK minimizedRMSD -1
REMARK  1 active torsions:
REMARK  status: ('A' for Active; 'I' for Inactive)
REMARK    1  A    between atoms: C1_2  and  C2_3 
ROOT
ATOM      1  C2  UNL d   1      -5.965   1.321  -4.276  0.00  0.00    -0.077 A 
ATOM      2  C3  UNL d   1      -5.976   0.486  -3.151  0.00  0.00     0.002 A 
ATOM      3  C4  UNL d   1      -5.991   1.032  -1.866  0.00  0.00     0.002 A 
ATOM      4  C5  UNL d   1      -6.000   2.414  -1.695  0.00  0.00    -0.004 A 
ATOM      5  C6  UNL d   1      -5.986   3.254  -2.808  0.00  0.00     0.002 A 
ATOM      6  C7  UNL d   1      -5.970   2.710  -4.093  0.00  0.00     0.002 A 
ENDROOT
BRANCH   1   7
ATOM      7  C1  UNL d   1      -5.999   0.734  -5.663  0.00  0.00     0.055 C 
ATOM      8  C   UNL d   1      -4.691   0.032  -5.999  0.00  0.00     0.019 C 
ENDBRANCH   1   7
TORSDOF 1
ENDMDL
