MODEL 1
REMARK minimizedAffinity 1.15873134
REMARK minimizedRMSD -1
REMARK  1 active torsions:
REMARK  status: ('A' for Active; 'I' for Inactive)
REMARK    1  A    between atoms: C1_2  and  C2_3 
ROOT
ATOM      1  C2  UNL d   1      -5.274   2.247  -3.364  0.00  0.00    -0.077 A 
ATOM      2  C3  UNL d   1      -4.165   2.595  -4.148  0.00  0.00     0.002 A 
ATOM      3  C4  UNL d   1      -3.788   1.799  -5.231  0.00  0.00     0.002 A 
ATOM      4  C5  UNL d   1      -4.518   0.654  -5.544  0.00  0.00    -0.004 A 
ATOM      5  C6  UNL d   1      -5.622   0.299  -4.769  0.00  0.00     0.002 A 
ATOM      6  C7  UNL d   1      -5.999   1.092  -3.685  0.00  0.00     0.002 A 
ENDROOT
BRANCH   1   7
ATOM      7  C1  UNL d   1      -5.711   3.131  -2.225  0.00  0.00     0.055 C 
ATOM      8  C   UNL d   1      -5.990   2.318  -0.969  0.00  0.00     0.019 C 
ENDBRANCH   1   7
TORSDOF 1
ENDMDL
