MODEL 1
REMARK minimizedAffinity 10.654789
REMARK minimizedRMSD -1
REMARK  2 active torsions:
REMARK  status: ('A' for Active; 'I' for Inactive)
REMARK    1  A    between atoms: C2'_3  and  C1'_4 
REMARK    2  A    between atoms: C1'_4  and  C1_5 
ROOT
ATOM      1  C1  I4B d   1      -1.225  -1.884  -0.395  0.00  0.00    -0.075 A 
ATOM      2  C2  I4B d   1      -0.459  -3.004  -0.185  0.00  0.00     0.003 A 
ATOM      3  C3  I4B d   1      -0.726  -3.855   0.915  0.00  0.00     0.002 A 
ATOM      4  C4  I4B d   1      -1.729  -3.523   1.802  0.00  0.00    -0.004 A 
ATOM      5  C5  I4B d   1      -2.520  -2.400   1.575  0.00  0.00     0.002 A 
ATOM      6  C6  I4B d   1      -2.274  -1.582   0.463  0.00  0.00     0.003 A 
ENDROOT
BRANCH   1   7
ATOM      7  C1' I4B d   1      -0.894  -0.990  -1.547  0.00  0.00     0.060 C 
BRANCH   7   8
ATOM      8  C2' I4B d   1      -1.928  -1.223  -2.631  0.00  0.00    -0.013 C 
ATOM      9  C4' I4B d   1      -2.577   0.068  -3.052  0.00  0.00     0.013 C 
ATOM     10  C3' I4B d   1      -1.243  -1.888  -3.788  0.00  0.00     0.013 C 
ENDBRANCH   7   8
ENDBRANCH   1   7
TORSDOF 2
ENDMDL
