MODEL 1
REMARK minimizedAffinity 23.5418472
REMARK minimizedRMSD -1
REMARK  2 active torsions:
REMARK  status: ('A' for Active; 'I' for Inactive)
REMARK    1  A    between atoms: C2'_3  and  C1'_4 
REMARK    2  A    between atoms: C1'_4  and  C1_5 
ROOT
ATOM      1  C1  I4B d   1      -1.824   0.895  -3.505  0.00  0.00    -0.075 A 
ATOM      2  C2  I4B d   1      -0.574   1.268  -3.929  0.00  0.00     0.003 A 
ATOM      3  C3  I4B d   1      -0.365   2.550  -4.493  0.00  0.00     0.002 A 
ATOM      4  C4  I4B d   1      -1.438   3.402  -4.660  0.00  0.00    -0.004 A 
ATOM      5  C5  I4B d   1      -2.701   3.030  -4.208  0.00  0.00     0.002 A 
ATOM      6  C6  I4B d   1      -2.894   1.774  -3.615  0.00  0.00     0.003 A 
ENDROOT
BRANCH   1   7
ATOM      7  C1' I4B d   1      -2.015  -0.479  -2.943  0.00  0.00     0.060 C 
BRANCH   7   8
ATOM      8  C2' I4B d   1      -0.654  -1.014  -2.547  0.00  0.00    -0.013 C 
ATOM      9  C4' I4B d   1      -0.711  -1.718  -1.217  0.00  0.00     0.013 C 
ATOM     10  C3' I4B d   1      -0.188  -1.940  -3.631  0.00  0.00     0.013 C 
ENDBRANCH   7   8
ENDBRANCH   1   7
TORSDOF 2
ENDMDL
