MODEL 1
REMARK minimizedAffinity 14.5273342
REMARK minimizedRMSD -1
REMARK  2 active torsions:
REMARK  status: ('A' for Active; 'I' for Inactive)
REMARK    1  A    between atoms: C2'_3  and  C1'_4 
REMARK    2  A    between atoms: C1'_4  and  C1_5 
ROOT
ATOM      1  C1  I4B d   1       1.248   1.936  -3.312  0.00  0.00    -0.075 A 
ATOM      2  C2  I4B d   1       0.952   0.805  -4.029  0.00  0.00     0.003 A 
ATOM      3  C3  I4B d   1       1.605  -0.417  -3.735  0.00  0.00     0.002 A 
ATOM      4  C4  I4B d   1       2.576  -0.450  -2.755  0.00  0.00    -0.004 A 
ATOM      5  C5  I4B d   1       2.858   0.693  -2.013  0.00  0.00     0.002 A 
ATOM      6  C6  I4B d   1       2.181   1.891  -2.284  0.00  0.00     0.003 A 
ENDROOT
BRANCH   1   7
ATOM      7  C1' I4B d   1       0.564   3.217  -3.671  0.00  0.00     0.060 C 
BRANCH   7   8
ATOM      8  C2' I4B d   1      -0.377   2.936  -4.824  0.00  0.00    -0.013 C 
ATOM      9  C4' I4B d   1      -1.808   3.209  -4.440  0.00  0.00     0.013 C 
ATOM     10  C3' I4B d   1       0.043   3.788  -5.985  0.00  0.00     0.013 C 
ENDBRANCH   7   8
ENDBRANCH   1   7
TORSDOF 2
ENDMDL
