MODEL 1
REMARK minimizedAffinity 17.5201359
REMARK minimizedRMSD -1
REMARK  2 active torsions:
REMARK  status: ('A' for Active; 'I' for Inactive)
REMARK    1  A    between atoms: C2'_3  and  C1'_4 
REMARK    2  A    between atoms: C1'_4  and  C1_5 
ROOT
ATOM      1  C1  I4B d   1       1.002   1.273  -3.330  0.00  0.00    -0.075 A 
ATOM      2  C2  I4B d   1       1.128  -0.047  -2.977  0.00  0.00     0.003 A 
ATOM      3  C3  I4B d   1       1.934  -0.416  -1.873  0.00  0.00     0.002 A 
ATOM      4  C4  I4B d   1       2.632   0.556  -1.186  0.00  0.00    -0.004 A 
ATOM      5  C5  I4B d   1       2.485   1.897  -1.531  0.00  0.00     0.002 A 
ATOM      6  C6  I4B d   1       1.655   2.259  -2.602  0.00  0.00     0.003 A 
ENDROOT
BRANCH   1   7
ATOM      7  C1' I4B d   1       0.169   1.624  -4.522  0.00  0.00     0.060 C 
BRANCH   7   8
ATOM      8  C2' I4B d   1       0.177   3.132  -4.669  0.00  0.00    -0.013 C 
ATOM      9  C4' I4B d   1       0.748   3.547  -6.000  0.00  0.00     0.013 C 
ATOM     10  C3' I4B d   1      -1.231   3.621  -4.509  0.00  0.00     0.013 C 
ENDBRANCH   7   8
ENDBRANCH   1   7
TORSDOF 2
ENDMDL
