MODEL 1
REMARK minimizedAffinity 16.5374794
REMARK minimizedRMSD -1
REMARK  2 active torsions:
REMARK  status: ('A' for Active; 'I' for Inactive)
REMARK    1  A    between atoms: C2'_3  and  C1'_4 
REMARK    2  A    between atoms: C1'_4  and  C1_5 
ROOT
ATOM      1  C1  I4B d   1       4.573   3.057  -0.717  0.00  0.00    -0.075 A 
ATOM      2  C2  I4B d   1       3.559   2.291  -1.235  0.00  0.00     0.003 A 
ATOM      3  C3  I4B d   1       3.760   1.554  -2.428  0.00  0.00     0.002 A 
ATOM      4  C4  I4B d   1       4.965   1.653  -3.093  0.00  0.00    -0.004 A 
ATOM      5  C5  I4B d   1       6.000   2.413  -2.554  0.00  0.00     0.002 A 
ATOM      6  C6  I4B d   1       5.807   3.110  -1.353  0.00  0.00     0.003 A 
ENDROOT
BRANCH   1   7
ATOM      7  C1' I4B d   1       4.316   3.848   0.526  0.00  0.00     0.060 C 
BRANCH   7   8
ATOM      8  C2' I4B d   1       5.038   5.174   0.394  0.00  0.00    -0.013 C 
ATOM      9  C4' I4B d   1       4.462   5.998  -0.728  0.00  0.00     0.013 C 
ATOM     10  C3' I4B d   1       4.929   5.893   1.705  0.00  0.00     0.013 C 
ENDBRANCH   7   8
ENDBRANCH   1   7
TORSDOF 2
ENDMDL
