MODEL 1
REMARK minimizedAffinity 17.5022259
REMARK minimizedRMSD -1
REMARK  2 active torsions:
REMARK  status: ('A' for Active; 'I' for Inactive)
REMARK    1  A    between atoms: C2'_3  and  C1'_4 
REMARK    2  A    between atoms: C1'_4  and  C1_5 
ROOT
ATOM      1  C1  I4B d   1      -2.139   0.963  -3.453  0.00  0.00    -0.075 A 
ATOM      2  C2  I4B d   1      -3.009   2.012  -3.619  0.00  0.00     0.003 A 
ATOM      3  C3  I4B d   1      -2.540   3.256  -4.109  0.00  0.00     0.002 A 
ATOM      4  C4  I4B d   1      -1.195   3.420  -4.370  0.00  0.00    -0.004 A 
ATOM      5  C5  I4B d   1      -0.319   2.348  -4.223  0.00  0.00     0.002 A 
ATOM      6  C6  I4B d   1      -0.796   1.108  -3.773  0.00  0.00     0.003 A 
ENDROOT
BRANCH   1   7
ATOM      7  C1' I4B d   1      -2.662  -0.325  -2.902  0.00  0.00     0.060 C 
BRANCH   7   8
ATOM      8  C2' I4B d   1      -1.514  -1.042  -2.221  0.00  0.00    -0.013 C 
ATOM      9  C4' I4B d   1      -1.949  -1.650  -0.914  0.00  0.00     0.013 C 
ATOM     10  C3' I4B d   1      -0.999  -2.091  -3.162  0.00  0.00     0.013 C 
ENDBRANCH   7   8
ENDBRANCH   1   7
TORSDOF 2
ENDMDL
