MODEL 1
REMARK minimizedAffinity 21.125433
REMARK minimizedRMSD -1
REMARK  2 active torsions:
REMARK  status: ('A' for Active; 'I' for Inactive)
REMARK    1  A    between atoms: C2'_3  and  C1'_4 
REMARK    2  A    between atoms: C1'_4  and  C1_5 
ROOT
ATOM      1  C1  I4B d   1      -1.703  -2.483   2.802  0.00  0.00    -0.075 A 
ATOM      2  C2  I4B d   1      -0.571  -3.253   2.708  0.00  0.00     0.003 A 
ATOM      3  C3  I4B d   1      -0.003  -3.535   1.442  0.00  0.00     0.002 A 
ATOM      4  C4  I4B d   1      -0.625  -3.071   0.300  0.00  0.00    -0.004 A 
ATOM      5  C5  I4B d   1      -1.760  -2.272   0.399  0.00  0.00     0.002 A 
ATOM      6  C6  I4B d   1      -2.296  -1.965   1.658  0.00  0.00     0.003 A 
ENDROOT
BRANCH   1   7
ATOM      7  C1' I4B d   1      -2.295  -2.233   4.153  0.00  0.00     0.060 C 
BRANCH   7   8
ATOM      8  C2' I4B d   1      -1.542  -1.081   4.786  0.00  0.00    -0.013 C 
ATOM      9  C4' I4B d   1      -2.488  -0.083   5.400  0.00  0.00     0.013 C 
ATOM     10  C3' I4B d   1      -0.610  -1.646   5.816  0.00  0.00     0.013 C 
ENDBRANCH   7   8
ENDBRANCH   1   7
TORSDOF 2
ENDMDL
