MODEL 1
REMARK minimizedAffinity 10.6009045
REMARK minimizedRMSD -1
REMARK  2 active torsions:
REMARK  status: ('A' for Active; 'I' for Inactive)
REMARK    1  A    between atoms: C2'_3  and  C1'_4 
REMARK    2  A    between atoms: C1'_4  and  C1_5 
ROOT
ATOM      1  C1  I4B d   1      -1.959  -2.952   2.721  0.00  0.00    -0.075 A 
ATOM      2  C2  I4B d   1      -2.202  -2.304   1.536  0.00  0.00     0.003 A 
ATOM      3  C3  I4B d   1      -1.587  -2.749   0.340  0.00  0.00     0.002 A 
ATOM      4  C4  I4B d   1      -0.703  -3.807   0.384  0.00  0.00    -0.004 A 
ATOM      5  C5  I4B d   1      -0.476  -4.478   1.582  0.00  0.00     0.002 A 
ATOM      6  C6  I4B d   1      -1.117  -4.056   2.756  0.00  0.00     0.003 A 
ENDROOT
BRANCH   1   7
ATOM      7  C1' I4B d   1      -2.600  -2.435   3.970  0.00  0.00     0.060 C 
BRANCH   7   8
ATOM      8  C2' I4B d   1      -1.768  -1.274   4.474  0.00  0.00    -0.013 C 
ATOM      9  C4' I4B d   1      -2.640  -0.193   5.058  0.00  0.00     0.013 C 
ATOM     10  C3' I4B d   1      -0.805  -1.802   5.495  0.00  0.00     0.013 C 
ENDBRANCH   7   8
ENDBRANCH   1   7
TORSDOF 2
ENDMDL
