MODEL 1
REMARK minimizedAffinity 21.0508575
REMARK minimizedRMSD -1
REMARK  2 active torsions:
REMARK  status: ('A' for Active; 'I' for Inactive)
REMARK    1  A    between atoms: C2'_3  and  C1'_4 
REMARK    2  A    between atoms: C1'_4  and  C1_5 
ROOT
ATOM      1  C1  I4B d   1      -4.015   3.727  -5.192  0.00  0.00    -0.075 A 
ATOM      2  C2  I4B d   1      -3.754   4.778  -4.349  0.00  0.00     0.003 A 
ATOM      3  C3  I4B d   1      -4.632   5.888  -4.301  0.00  0.00     0.002 A 
ATOM      4  C4  I4B d   1      -5.724   5.928  -5.143  0.00  0.00    -0.004 A 
ATOM      5  C5  I4B d   1      -6.000   4.850  -5.980  0.00  0.00     0.002 A 
ATOM      6  C6  I4B d   1      -5.147   3.737  -5.996  0.00  0.00     0.003 A 
ENDROOT
BRANCH   1   7
ATOM      7  C1' I4B d   1      -3.048   2.586  -5.241  0.00  0.00     0.060 C 
BRANCH   7   8
ATOM      8  C2' I4B d   1      -2.177   2.658  -4.004  0.00  0.00    -0.013 C 
ATOM      9  C4' I4B d   1      -2.283   1.396  -3.189  0.00  0.00     0.013 C 
ATOM     10  C3' I4B d   1      -0.765   2.901  -4.445  0.00  0.00     0.013 C 
ENDBRANCH   7   8
ENDBRANCH   1   7
TORSDOF 2
ENDMDL
