MODEL 1
REMARK minimizedAffinity 17.214716
REMARK minimizedRMSD -1
REMARK  2 active torsions:
REMARK  status: ('A' for Active; 'I' for Inactive)
REMARK    1  A    between atoms: C2'_3  and  C1'_4 
REMARK    2  A    between atoms: C1'_4  and  C1_5 
ROOT
ATOM      1  C1  I4B d   1      -1.242  -2.554   0.240  0.00  0.00    -0.075 A 
ATOM      2  C2  I4B d   1      -2.418  -1.967   0.637  0.00  0.00     0.003 A 
ATOM      3  C3  I4B d   1      -3.091  -1.068  -0.225  0.00  0.00     0.002 A 
ATOM      4  C4  I4B d   1      -2.531  -0.747  -1.444  0.00  0.00    -0.004 A 
ATOM      5  C5  I4B d   1      -1.351  -1.360  -1.854  0.00  0.00     0.002 A 
ATOM      6  C6  I4B d   1      -0.709  -2.279  -1.012  0.00  0.00     0.003 A 
ENDROOT
BRANCH   1   7
ATOM      7  C1' I4B d   1      -0.541  -3.474   1.188  0.00  0.00     0.060 C 
BRANCH   7   8
ATOM      8  C2' I4B d   1      -1.025  -4.884   0.915  0.00  0.00    -0.013 C 
ATOM      9  C4' I4B d   1      -0.716  -5.302  -0.498  0.00  0.00     0.013 C 
ATOM     10  C3' I4B d   1      -0.369  -5.799   1.906  0.00  0.00     0.013 C 
ENDBRANCH   7   8
ENDBRANCH   1   7
TORSDOF 2
ENDMDL
