MODEL 1
REMARK minimizedAffinity 9.48415756
REMARK minimizedRMSD -1
REMARK  2 active torsions:
REMARK  status: ('A' for Active; 'I' for Inactive)
REMARK    1  A    between atoms: C2'_3  and  C1'_4 
REMARK    2  A    between atoms: C1'_4  and  C1_5 
ROOT
ATOM      1  C1  I4B d   1      -1.436  -2.418  -0.245  0.00  0.00    -0.075 A 
ATOM      2  C2  I4B d   1      -2.095  -2.120   0.922  0.00  0.00     0.003 A 
ATOM      3  C3  I4B d   1      -2.034  -3.009   2.022  0.00  0.00     0.002 A 
ATOM      4  C4  I4B d   1      -1.350  -4.201   1.896  0.00  0.00    -0.004 A 
ATOM      5  C5  I4B d   1      -0.664  -4.491   0.720  0.00  0.00     0.002 A 
ATOM      6  C6  I4B d   1      -0.697  -3.588  -0.353  0.00  0.00     0.003 A 
ENDROOT
BRANCH   1   7
ATOM      7  C1' I4B d   1      -1.548  -1.472  -1.398  0.00  0.00     0.060 C 
BRANCH   7   8
ATOM      8  C2' I4B d   1      -0.600  -1.942  -2.481  0.00  0.00    -0.013 C 
ATOM      9  C4' I4B d   1      -1.342  -2.280  -3.747  0.00  0.00     0.013 C 
ATOM     10  C3' I4B d   1       0.407  -0.856  -2.718  0.00  0.00     0.013 C 
ENDBRANCH   7   8
ENDBRANCH   1   7
TORSDOF 2
ENDMDL
