MODEL 1
REMARK minimizedAffinity 12.563612
REMARK minimizedRMSD -1
REMARK  2 active torsions:
REMARK  status: ('A' for Active; 'I' for Inactive)
REMARK    1  A    between atoms: C2'_3  and  C1'_4 
REMARK    2  A    between atoms: C1'_4  and  C1_5 
ROOT
ATOM      1  C1  I4B d   1      -3.280  -0.139   5.917  0.00  0.00    -0.075 A 
ATOM      2  C2  I4B d   1      -2.852   1.166   5.928  0.00  0.00     0.003 A 
ATOM      3  C3  I4B d   1      -3.791   2.223   5.989  0.00  0.00     0.002 A 
ATOM      4  C4  I4B d   1      -5.140   1.935   5.987  0.00  0.00    -0.004 A 
ATOM      5  C5  I4B d   1      -5.572   0.612   5.999  0.00  0.00     0.002 A 
ATOM      6  C6  I4B d   1      -4.636  -0.432   5.976  0.00  0.00     0.003 A 
ENDROOT
BRANCH   1   7
ATOM      7  C1' I4B d   1      -2.262  -1.230   5.819  0.00  0.00     0.060 C 
BRANCH   7   8
ATOM      8  C2' I4B d   1      -2.173  -1.656   4.367  0.00  0.00    -0.013 C 
ATOM      9  C4' I4B d   1      -1.086  -2.679   4.165  0.00  0.00     0.013 C 
ATOM     10  C3' I4B d   1      -3.510  -2.200   3.961  0.00  0.00     0.013 C 
ENDBRANCH   7   8
ENDBRANCH   1   7
TORSDOF 2
ENDMDL
