MODEL 1
REMARK minimizedAffinity 11.8031015
REMARK minimizedRMSD -1
REMARK  2 active torsions:
REMARK  status: ('A' for Active; 'I' for Inactive)
REMARK    1  A    between atoms: C2'_3  and  C1'_4 
REMARK    2  A    between atoms: C1'_4  and  C1_5 
ROOT
ATOM      1  C1  I4B d   1       0.472   0.890  -3.970  0.00  0.00    -0.075 A 
ATOM      2  C2  I4B d   1       0.961   2.113  -4.356  0.00  0.00     0.003 A 
ATOM      3  C3  I4B d   1       0.082   3.210  -4.527  0.00  0.00     0.002 A 
ATOM      4  C4  I4B d   1      -1.275   3.028  -4.351  0.00  0.00    -0.004 A 
ATOM      5  C5  I4B d   1      -1.766   1.793  -3.937  0.00  0.00     0.002 A 
ATOM      6  C6  I4B d   1      -0.886   0.721  -3.733  0.00  0.00     0.003 A 
ENDROOT
BRANCH   1   7
ATOM      7  C1' I4B d   1       1.424  -0.255  -3.831  0.00  0.00     0.060 C 
BRANCH   7   8
ATOM      8  C2' I4B d   1       2.688   0.265  -3.176  0.00  0.00    -0.013 C 
ATOM      9  C4' I4B d   1       2.694  -0.023  -1.698  0.00  0.00     0.013 C 
ATOM     10  C3' I4B d   1       3.860  -0.375  -3.858  0.00  0.00     0.013 C 
ENDBRANCH   7   8
ENDBRANCH   1   7
TORSDOF 2
ENDMDL
