MODEL 1
REMARK minimizedAffinity 21.1773167
REMARK minimizedRMSD -1
REMARK  2 active torsions:
REMARK  status: ('A' for Active; 'I' for Inactive)
REMARK    1  A    between atoms: C2'_3  and  C1'_4 
REMARK    2  A    between atoms: C1'_4  and  C1_5 
ROOT
ATOM      1  C1  I4B d   1      -3.584   3.868  -5.174  0.00  0.00    -0.075 A 
ATOM      2  C2  I4B d   1      -4.680   3.839  -6.000  0.00  0.00     0.003 A 
ATOM      3  C3  I4B d   1      -5.611   4.906  -5.986  0.00  0.00     0.002 A 
ATOM      4  C4  I4B d   1      -5.435   5.950  -5.100  0.00  0.00    -0.004 A 
ATOM      5  C5  I4B d   1      -4.312   5.988  -4.279  0.00  0.00     0.002 A 
ATOM      6  C6  I4B d   1      -3.374   4.946  -4.325  0.00  0.00     0.003 A 
ENDROOT
BRANCH   1   7
ATOM      7  C1' I4B d   1      -2.638   2.709  -5.191  0.00  0.00     0.060 C 
BRANCH   7   8
ATOM      8  C2' I4B d   1      -1.955   2.644  -3.840  0.00  0.00    -0.013 C 
ATOM      9  C4' I4B d   1      -2.547   1.559  -2.980  0.00  0.00     0.013 C 
ATOM     10  C3' I4B d   1      -0.491   2.413  -4.072  0.00  0.00     0.013 C 
ENDBRANCH   7   8
ENDBRANCH   1   7
TORSDOF 2
ENDMDL
