MODEL 1
REMARK minimizedAffinity 20.8605938
REMARK minimizedRMSD -1
REMARK  2 active torsions:
REMARK  status: ('A' for Active; 'I' for Inactive)
REMARK    1  A    between atoms: C2'_3  and  C1'_4 
REMARK    2  A    between atoms: C1'_4  and  C1_5 
ROOT
ATOM      1  C1  I4B d   1       4.534   3.016   0.018  0.00  0.00    -0.075 A 
ATOM      2  C2  I4B d   1       5.476   3.262  -0.951  0.00  0.00     0.003 A 
ATOM      3  C3  I4B d   1       5.995   4.568  -1.125  0.00  0.00     0.002 A 
ATOM      4  C4  I4B d   1       5.512   5.601  -0.348  0.00  0.00    -0.004 A 
ATOM      5  C5  I4B d   1       4.574   5.345   0.649  0.00  0.00     0.002 A 
ATOM      6  C6  I4B d   1       4.091   4.043   0.841  0.00  0.00     0.003 A 
ENDROOT
BRANCH   1   7
ATOM      7  C1' I4B d   1       3.983   1.632   0.152  0.00  0.00     0.060 C 
BRANCH   7   8
ATOM      8  C2' I4B d   1       2.823   1.496  -0.813  0.00  0.00    -0.013 C 
ATOM      9  C4' I4B d   1       2.753   0.106  -1.388  0.00  0.00     0.013 C 
ATOM     10  C3' I4B d   1       1.564   1.841  -0.075  0.00  0.00     0.013 C 
ENDBRANCH   7   8
ENDBRANCH   1   7
TORSDOF 2
ENDMDL
