MODEL 1
REMARK minimizedAffinity -3.72505641
REMARK minimizedRMSD -1
REMARK  0 active torsions:
REMARK  status: ('A' for Active; 'I' for Inactive)
ROOT
ATOM      1  C4' PXY d   1       0.603   2.628   0.274  0.00  0.00     0.077 C 
ATOM      2  C1' PXY d   1       0.547  -2.811  -1.682  0.00  0.00     0.077 C 
ATOM      3  C1  PXY d   1       0.565  -1.380  -1.181  0.00  0.00    -0.082 A 
ATOM      4  C2  PXY d   1       0.785  -1.139   0.101  0.00  0.00     0.003 A 
ATOM      5  C3  PXY d   1       0.773   0.147   0.577  0.00  0.00     0.003 A 
ATOM      6  C4  PXY d   1       0.586   1.200  -0.278  0.00  0.00    -0.082 A 
ATOM      7  C5  PXY d   1       0.371   0.963  -1.589  0.00  0.00     0.003 A 
ATOM      8  C6  PXY d   1       0.346  -0.352  -2.045  0.00  0.00     0.003 A 
ENDROOT
TORSDOF 0
ENDMDL
