MODEL 1
REMARK minimizedAffinity -3.54374814
REMARK minimizedRMSD -1
REMARK  0 active torsions:
REMARK  status: ('A' for Active; 'I' for Inactive)
ROOT
ATOM      1  C4' PXY d   1       0.165   3.029   0.506  0.00  0.00     0.077 C 
ATOM      2  C1' PXY d   1      -0.872  -2.656   0.636  0.00  0.00     0.077 C 
ATOM      3  C1  PXY d   1      -0.593  -1.167   0.591  0.00  0.00    -0.082 A 
ATOM      4  C2  PXY d   1      -0.666  -0.454   1.703  0.00  0.00     0.003 A 
ATOM      5  C3  PXY d   1      -0.448   0.900   1.675  0.00  0.00     0.003 A 
ATOM      6  C4  PXY d   1      -0.100   1.521   0.506  0.00  0.00    -0.082 A 
ATOM      7  C5  PXY d   1      -0.013   0.799  -0.631  0.00  0.00     0.003 A 
ATOM      8  C6  PXY d   1      -0.278  -0.567  -0.589  0.00  0.00     0.003 A 
ENDROOT
TORSDOF 0
ENDMDL
