MODEL 1
REMARK minimizedAffinity -3.98538876
REMARK minimizedRMSD -1
REMARK  0 active torsions:
REMARK  status: ('A' for Active; 'I' for Inactive)
ROOT
ATOM      1  C4' PXY d   1      -0.009   2.475  -0.408  0.00  0.00     0.077 C 
ATOM      2  C1' PXY d   1       0.094  -3.095   1.135  0.00  0.00     0.077 C 
ATOM      3  C1  PXY d   1       0.054  -1.635   0.728  0.00  0.00    -0.082 A 
ATOM      4  C2  PXY d   1       1.155  -1.049   0.286  0.00  0.00     0.003 A 
ATOM      5  C3  PXY d   1       1.145   0.279  -0.056  0.00  0.00     0.003 A 
ATOM      6  C4  PXY d   1      -0.017   1.001   0.005  0.00  0.00    -0.082 A 
ATOM      7  C5  PXY d   1      -1.147   0.407   0.445  0.00  0.00     0.003 A 
ATOM      8  C6  PXY d   1      -1.106  -0.931   0.826  0.00  0.00     0.003 A 
ENDROOT
TORSDOF 0
ENDMDL
