MODEL 1
REMARK minimizedAffinity -4.57778549
REMARK minimizedRMSD -1
REMARK  0 active torsions:
REMARK  status: ('A' for Active; 'I' for Inactive)
ROOT
ATOM      1  C4' PXY d   1       1.083   2.897   0.068  0.00  0.00     0.077 C 
ATOM      2  C1' PXY d   1      -0.849  -2.535   0.488  0.00  0.00     0.077 C 
ATOM      3  C1  PXY d   1      -0.338  -1.113   0.366  0.00  0.00    -0.082 A 
ATOM      4  C2  PXY d   1      -0.078  -0.415   1.459  0.00  0.00     0.003 A 
ATOM      5  C3  PXY d   1       0.354   0.883   1.367  0.00  0.00     0.003 A 
ATOM      6  C4  PXY d   1       0.574   1.455   0.143  0.00  0.00    -0.082 A 
ATOM      7  C5  PXY d   1       0.321   0.746  -0.978  0.00  0.00     0.003 A 
ATOM      8  C6  PXY d   1      -0.157  -0.556  -0.863  0.00  0.00     0.003 A 
ENDROOT
TORSDOF 0
ENDMDL
