MODEL 1
REMARK minimizedAffinity -4.42970753
REMARK minimizedRMSD -1
REMARK  0 active torsions:
REMARK  status: ('A' for Active; 'I' for Inactive)
ROOT
ATOM      1  C4' PXY d   1      -0.235  -3.806  -0.155  0.00  0.00     0.077 C 
ATOM      2  C1' PXY d   1      -0.296   1.966  -0.468  0.00  0.00     0.077 C 
ATOM      3  C1  PXY d   1      -0.279   0.453  -0.373  0.00  0.00    -0.082 A 
ATOM      4  C2  PXY d   1       0.123  -0.264  -1.410  0.00  0.00     0.003 A 
ATOM      5  C3  PXY d   1       0.114  -1.633  -1.352  0.00  0.00     0.003 A 
ATOM      6  C4  PXY d   1      -0.260  -2.276  -0.203  0.00  0.00    -0.082 A 
ATOM      7  C5  PXY d   1      -0.661  -1.552   0.864  0.00  0.00     0.003 A 
ATOM      8  C6  PXY d   1      -0.684  -0.164   0.771  0.00  0.00     0.003 A 
ENDROOT
TORSDOF 0
ENDMDL
