MODEL 1
REMARK minimizedAffinity -5.3118
REMARK minimizedRMSD -1
REMARK  0 active torsions:
REMARK  status: ('A' for Active; 'I' for Inactive)
ROOT
ATOM      1  C4' PXY d   1       1.942   2.931   0.415  0.00  0.00     0.077 C 
ATOM      2  C1' PXY d   1      -1.101  -1.982   0.563  0.00  0.00     0.077 C 
ATOM      3  C1  PXY d   1      -0.305  -0.693   0.511  0.00  0.00    -0.082 A 
ATOM      4  C2  PXY d   1       0.576  -0.430   1.463  0.00  0.00     0.003 A 
ATOM      5  C3  PXY d   1       1.282   0.746   1.448  0.00  0.00     0.003 A 
ATOM      6  C4  PXY d   1       1.123   1.637   0.421  0.00  0.00    -0.082 A 
ATOM      7  C5  PXY d   1       0.234   1.371  -0.559  0.00  0.00     0.003 A 
ATOM      8  C6  PXY d   1      -0.503   0.191  -0.504  0.00  0.00     0.003 A 
ENDROOT
TORSDOF 0
ENDMDL
