MODEL 1
REMARK minimizedAffinity -3.16269398
REMARK minimizedRMSD -1
REMARK  0 active torsions:
REMARK  status: ('A' for Active; 'I' for Inactive)
ROOT
ATOM      1  C4' PXY d   1       0.399   2.119  -0.081  0.00  0.00     0.077 C 
ATOM      2  C1' PXY d   1      -1.470  -3.346  -0.310  0.00  0.00     0.077 C 
ATOM      3  C1  PXY d   1      -0.972  -1.915  -0.260  0.00  0.00    -0.082 A 
ATOM      4  C2  PXY d   1      -0.988  -1.256   0.887  0.00  0.00     0.003 A 
ATOM      5  C3  PXY d   1      -0.572   0.049   0.943  0.00  0.00     0.003 A 
ATOM      6  C4  PXY d   1      -0.085   0.669  -0.176  0.00  0.00    -0.082 A 
ATOM      7  C5  PXY d   1      -0.056   0.001  -1.348  0.00  0.00     0.003 A 
ATOM      8  C6  PXY d   1      -0.521  -1.310  -1.393  0.00  0.00     0.003 A 
ENDROOT
TORSDOF 0
ENDMDL
