MODEL 1
REMARK minimizedAffinity -5.6587863
REMARK minimizedRMSD -1
REMARK  0 active torsions:
REMARK  status: ('A' for Active; 'I' for Inactive)
ROOT
ATOM      1  C4' PXY d   1       1.700   2.734   0.084  0.00  0.00     0.077 C 
ATOM      2  C1' PXY d   1      -1.485  -2.005   0.986  0.00  0.00     0.077 C 
ATOM      3  C1  PXY d   1      -0.658  -0.759   0.740  0.00  0.00    -0.082 A 
ATOM      4  C2  PXY d   1       0.630  -0.757   1.045  0.00  0.00     0.003 A 
ATOM      5  C3  PXY d   1       1.385   0.372   0.859  0.00  0.00     0.003 A 
ATOM      6  C4  PXY d   1       0.829   1.494   0.306  0.00  0.00    -0.082 A 
ATOM      7  C5  PXY d   1      -0.482   1.497  -0.018  0.00  0.00     0.003 A 
ATOM      8  C6  PXY d   1      -1.240   0.354   0.217  0.00  0.00     0.003 A 
ENDROOT
TORSDOF 0
ENDMDL
