MODEL 1
REMARK minimizedAffinity -2.66201782
REMARK minimizedRMSD -1
REMARK  0 active torsions:
REMARK  status: ('A' for Active; 'I' for Inactive)
ROOT
ATOM      1  C4' PXY d   1      -0.580  -3.745   0.017  0.00  0.00     0.077 C 
ATOM      2  C1' PXY d   1      -0.048   1.991   0.493  0.00  0.00     0.077 C 
ATOM      3  C1  PXY d   1      -0.190   0.486   0.381  0.00  0.00    -0.082 A 
ATOM      4  C2  PXY d   1       0.394  -0.153  -0.619  0.00  0.00     0.003 A 
ATOM      5  C3  PXY d   1       0.250  -1.510  -0.754  0.00  0.00     0.003 A 
ATOM      6  C4  PXY d   1      -0.456  -2.227   0.175  0.00  0.00    -0.082 A 
ATOM      7  C5  PXY d   1      -1.046  -1.584   1.205  0.00  0.00     0.003 A 
ATOM      8  C6  PXY d   1      -0.921  -0.201   1.300  0.00  0.00     0.003 A 
ENDROOT
TORSDOF 0
ENDMDL
