MODEL 1
REMARK minimizedAffinity -1.16586983
REMARK minimizedRMSD -1
REMARK  0 active torsions:
REMARK  status: ('A' for Active; 'I' for Inactive)
ROOT
ATOM      1  C4' PXY d   1       0.279   2.451   0.019  0.00  0.00     0.077 C 
ATOM      2  C1' PXY d   1      -1.019  -3.182   0.015  0.00  0.00     0.077 C 
ATOM      3  C1  PXY d   1      -0.672  -1.706   0.005  0.00  0.00    -0.082 A 
ATOM      4  C2  PXY d   1      -0.680  -1.025   1.139  0.00  0.00     0.003 A 
ATOM      5  C3  PXY d   1      -0.400   0.318   1.143  0.00  0.00     0.003 A 
ATOM      6  C4  PXY d   1      -0.056   0.957  -0.017  0.00  0.00    -0.082 A 
ATOM      7  C5  PXY d   1      -0.035   0.267  -1.177  0.00  0.00     0.003 A 
ATOM      8  C6  PXY d   1      -0.363  -1.086  -1.166  0.00  0.00     0.003 A 
ENDROOT
TORSDOF 0
ENDMDL
