MODEL 1
REMARK minimizedAffinity -2.40203166
REMARK minimizedRMSD -1
REMARK  0 active torsions:
REMARK  status: ('A' for Active; 'I' for Inactive)
ROOT
ATOM      1  C4' PXY d   1       0.785   2.546   0.115  0.00  0.00     0.077 C 
ATOM      2  C1' PXY d   1      -1.130  -2.849   0.916  0.00  0.00     0.077 C 
ATOM      3  C1  PXY d   1      -0.628  -1.437   0.693  0.00  0.00    -0.082 A 
ATOM      4  C2  PXY d   1       0.025  -0.814   1.661  0.00  0.00     0.003 A 
ATOM      5  C3  PXY d   1       0.458   0.475   1.488  0.00  0.00     0.003 A 
ATOM      6  C4  PXY d   1       0.268   1.115   0.292  0.00  0.00    -0.082 A 
ATOM      7  C5  PXY d   1      -0.388   0.483  -0.704  0.00  0.00     0.003 A 
ATOM      8  C6  PXY d   1      -0.856  -0.811  -0.494  0.00  0.00     0.003 A 
ENDROOT
TORSDOF 0
ENDMDL
