MODEL 1
REMARK minimizedAffinity -2.24966335
REMARK minimizedRMSD -1
REMARK  0 active torsions:
REMARK  status: ('A' for Active; 'I' for Inactive)
ROOT
ATOM      1  C4' PXY d   1       0.445   1.984  -0.159  0.00  0.00     0.077 C 
ATOM      2  C1' PXY d   1      -0.502  -3.716  -0.356  0.00  0.00     0.077 C 
ATOM      3  C1  PXY d   1      -0.245  -2.222  -0.314  0.00  0.00    -0.082 A 
ATOM      4  C2  PXY d   1      -0.496  -1.546   0.795  0.00  0.00     0.003 A 
ATOM      5  C3  PXY d   1      -0.299  -0.190   0.840  0.00  0.00     0.003 A 
ATOM      6  C4  PXY d   1       0.210   0.473  -0.244  0.00  0.00    -0.082 A 
ATOM      7  C5  PXY d   1       0.478  -0.212  -1.376  0.00  0.00     0.003 A 
ATOM      8  C6  PXY d   1       0.233  -1.581  -1.415  0.00  0.00     0.003 A 
ENDROOT
TORSDOF 0
ENDMDL
