MODEL 1
REMARK minimizedAffinity -3.48599911
REMARK minimizedRMSD -1
REMARK  0 active torsions:
REMARK  status: ('A' for Active; 'I' for Inactive)
ROOT
ATOM      1  C4' PXY d   1       0.476   2.181   0.300  0.00  0.00     0.077 C 
ATOM      2  C1' PXY d   1      -0.743  -3.095  -1.724  0.00  0.00     0.077 C 
ATOM      3  C1  PXY d   1      -0.431  -1.714  -1.182  0.00  0.00    -0.082 A 
ATOM      4  C2  PXY d   1      -0.080  -0.748  -2.016  0.00  0.00     0.003 A 
ATOM      5  C3  PXY d   1       0.237   0.498  -1.540  0.00  0.00     0.003 A 
ATOM      6  C4  PXY d   1       0.142   0.774  -0.203  0.00  0.00    -0.082 A 
ATOM      7  C5  PXY d   1      -0.226  -0.203   0.654  0.00  0.00     0.003 A 
ATOM      8  C6  PXY d   1      -0.503  -1.473   0.155  0.00  0.00     0.003 A 
ENDROOT
TORSDOF 0
ENDMDL
