MODEL 1
REMARK minimizedAffinity -3.55302668
REMARK minimizedRMSD -1
REMARK  0 active torsions:
REMARK  status: ('A' for Active; 'I' for Inactive)
ROOT
ATOM      1  C4' PXY d   1       1.300   3.326  -0.041  0.00  0.00     0.077 C 
ATOM      2  C1' PXY d   1      -1.070  -1.895   0.690  0.00  0.00     0.077 C 
ATOM      3  C1  PXY d   1      -0.450  -0.527   0.485  0.00  0.00    -0.082 A 
ATOM      4  C2  PXY d   1       0.378  -0.041   1.396  0.00  0.00     0.003 A 
ATOM      5  C3  PXY d   1       0.923   1.208   1.242  0.00  0.00     0.003 A 
ATOM      6  C4  PXY d   1       0.658   1.946   0.119  0.00  0.00    -0.082 A 
ATOM      7  C5  PXY d   1      -0.178   1.453  -0.819  0.00  0.00     0.003 A 
ATOM      8  C6  PXY d   1      -0.752   0.200  -0.625  0.00  0.00     0.003 A 
ENDROOT
TORSDOF 0
ENDMDL
