MODEL 1
REMARK minimizedAffinity -3.73117805
REMARK minimizedRMSD -1
REMARK  0 active torsions:
REMARK  status: ('A' for Active; 'I' for Inactive)
ROOT
ATOM      1  C4' PXY d   1       1.211   2.888   0.344  0.00  0.00     0.077 C 
ATOM      2  C1' PXY d   1      -1.227  -2.345   0.650  0.00  0.00     0.077 C 
ATOM      3  C1  PXY d   1      -0.586  -0.974   0.557  0.00  0.00    -0.082 A 
ATOM      4  C2  PXY d   1       0.034  -0.469   1.610  0.00  0.00     0.003 A 
ATOM      5  C3  PXY d   1       0.591   0.783   1.554  0.00  0.00     0.003 A 
ATOM      6  C4  PXY d   1       0.559   1.503   0.390  0.00  0.00    -0.082 A 
ATOM      7  C5  PXY d   1      -0.063   0.990  -0.693  0.00  0.00     0.003 A 
ATOM      8  C6  PXY d   1      -0.658  -0.265  -0.602  0.00  0.00     0.003 A 
ENDROOT
TORSDOF 0
ENDMDL
