MODEL 1
REMARK minimizedAffinity -3.32523251
REMARK minimizedRMSD -1
REMARK  0 active torsions:
REMARK  status: ('A' for Active; 'I' for Inactive)
ROOT
ATOM      1  C4' PXY d   1       1.155   2.952   0.413  0.00  0.00     0.077 C 
ATOM      2  C1' PXY d   1      -1.285  -2.272   0.831  0.00  0.00     0.077 C 
ATOM      3  C1  PXY d   1      -0.645  -0.903   0.709  0.00  0.00    -0.082 A 
ATOM      4  C2  PXY d   1       0.009  -0.392   1.739  0.00  0.00     0.003 A 
ATOM      5  C3  PXY d   1       0.567   0.858   1.656  0.00  0.00     0.003 A 
ATOM      6  C4  PXY d   1       0.501   1.570   0.489  0.00  0.00    -0.082 A 
ATOM      7  C5  PXY d   1      -0.156   1.051  -0.571  0.00  0.00     0.003 A 
ATOM      8  C6  PXY d   1      -0.750  -0.202  -0.453  0.00  0.00     0.003 A 
ENDROOT
TORSDOF 0
ENDMDL
