MODEL 1
REMARK minimizedAffinity -0.977980912
REMARK minimizedRMSD -1
REMARK  0 active torsions:
REMARK  status: ('A' for Active; 'I' for Inactive)
ROOT
ATOM      1  C4' PXY d   1      -0.957  -0.613   0.413  0.00  0.00     0.077 C 
ATOM      2  C1' PXY d   1       2.441   4.062   0.507  0.00  0.00     0.077 C 
ATOM      3  C1  PXY d   1       1.541   2.843   0.474  0.00  0.00    -0.082 A 
ATOM      4  C2  PXY d   1       1.591   1.967   1.465  0.00  0.00     0.003 A 
ATOM      5  C3  PXY d   1       0.808   0.842   1.436  0.00  0.00     0.003 A 
ATOM      6  C4  PXY d   1      -0.074   0.638   0.408  0.00  0.00    -0.082 A 
ATOM      7  C5  PXY d   1      -0.139   1.533  -0.600  0.00  0.00     0.003 A 
ATOM      8  C6  PXY d   1       0.695   2.647  -0.573  0.00  0.00     0.003 A 
ENDROOT
TORSDOF 0
ENDMDL
