MODEL 1
REMARK minimizedAffinity 10.8625488
REMARK minimizedRMSD -1
REMARK  3 active torsions:
REMARK  status: ('A' for Active; 'I' for Inactive)
REMARK    1  A    between atoms: C3'_2  and  C2'_3 
REMARK    2  A    between atoms: C2'_3  and  C1'_4 
REMARK    3  A    between atoms: C1'_4  and  C1_5 
ROOT
ATOM      1  C1  N4B d   1       2.827  -2.116   1.621  0.00  0.00    -0.075 A 
ATOM      2  C2  N4B d   1       2.403  -3.306   0.989  0.00  0.00     0.002 A 
ATOM      3  C3  N4B d   1       1.317  -3.289   0.149  0.00  0.00     0.002 A 
ATOM      4  C4  N4B d   1       0.631  -2.102  -0.060  0.00  0.00    -0.004 A 
ATOM      5  C5  N4B d   1       1.061  -0.952   0.534  0.00  0.00     0.002 A 
ATOM      6  C6  N4B d   1       2.154  -0.954   1.378  0.00  0.00     0.002 A 
ENDROOT
BRANCH   1   7
ATOM      7  C1' N4B d   1       3.956  -2.103   2.614  0.00  0.00     0.057 C 
BRANCH   7   8
ATOM      8  C2' N4B d   1       3.380  -2.093   4.027  0.00  0.00     0.009 C 
BRANCH   8   9
ATOM      9  C3' N4B d   1       4.345  -2.686   5.039  0.00  0.00     0.004 C 
ATOM     10  C4' N4B d   1       3.796  -3.904   5.720  0.00  0.00     0.003 C 
ENDBRANCH   8   9
ENDBRANCH   7   8
ENDBRANCH   1   7
TORSDOF 3
ENDMDL
