MODEL 1
REMARK minimizedAffinity 16.1447048
REMARK minimizedRMSD -1
REMARK  3 active torsions:
REMARK  status: ('A' for Active; 'I' for Inactive)
REMARK    1  A    between atoms: C3'_2  and  C2'_3 
REMARK    2  A    between atoms: C2'_3  and  C1'_4 
REMARK    3  A    between atoms: C1'_4  and  C1_5 
ROOT
ATOM      1  C1  N4B d   1       0.765  -2.075   1.038  0.00  0.00    -0.075 A 
ATOM      2  C2  N4B d   1       1.778  -1.382   1.736  0.00  0.00     0.002 A 
ATOM      3  C3  N4B d   1       3.036  -1.923   1.836  0.00  0.00     0.002 A 
ATOM      4  C4  N4B d   1       3.298  -3.160   1.265  0.00  0.00    -0.004 A 
ATOM      5  C5  N4B d   1       2.321  -3.811   0.572  0.00  0.00     0.002 A 
ATOM      6  C6  N4B d   1       1.053  -3.277   0.459  0.00  0.00     0.002 A 
ENDROOT
BRANCH   1   7
ATOM      7  C1' N4B d   1      -0.649  -1.564   0.975  0.00  0.00     0.057 C 
BRANCH   7   8
ATOM      8  C2' N4B d   1      -1.316  -1.768   2.332  0.00  0.00     0.009 C 
BRANCH   8   9
ATOM      9  C3' N4B d   1      -2.202  -3.001   2.350  0.00  0.00     0.004 C 
ATOM     10  C4' N4B d   1      -2.189  -3.707   3.673  0.00  0.00     0.003 C 
ENDBRANCH   8   9
ENDBRANCH   7   8
ENDBRANCH   1   7
TORSDOF 3
ENDMDL
