MODEL 1
REMARK minimizedAffinity 15.1303473
REMARK minimizedRMSD -1
REMARK  3 active torsions:
REMARK  status: ('A' for Active; 'I' for Inactive)
REMARK    1  A    between atoms: C3'_2  and  C2'_3 
REMARK    2  A    between atoms: C2'_3  and  C1'_4 
REMARK    3  A    between atoms: C1'_4  and  C1_5 
ROOT
ATOM      1  C1  N4B d   1       4.383  -3.259   5.763  0.00  0.00    -0.075 A 
ATOM      2  C2  N4B d   1       3.356  -4.229   5.798  0.00  0.00     0.002 A 
ATOM      3  C3  N4B d   1       3.674  -5.563   5.865  0.00  0.00     0.002 A 
ATOM      4  C4  N4B d   1       5.006  -5.951   5.880  0.00  0.00    -0.004 A 
ATOM      5  C5  N4B d   1       5.991  -5.008   5.871  0.00  0.00     0.002 A 
ATOM      6  C6  N4B d   1       5.686  -3.663   5.808  0.00  0.00     0.002 A 
ENDROOT
BRANCH   1   7
ATOM      7  C1' N4B d   1       4.086  -1.794   5.603  0.00  0.00     0.057 C 
BRANCH   7   8
ATOM      8  C2' N4B d   1       3.752  -1.507   4.142  0.00  0.00     0.009 C 
BRANCH   8   9
ATOM      9  C3' N4B d   1       2.334  -0.989   3.974  0.00  0.00     0.004 C 
ATOM     10  C4' N4B d   1       1.790  -1.221   2.596  0.00  0.00     0.003 C 
ENDBRANCH   8   9
ENDBRANCH   7   8
ENDBRANCH   1   7
TORSDOF 3
ENDMDL
