MODEL 1
REMARK minimizedAffinity 13.0206881
REMARK minimizedRMSD -1
REMARK  3 active torsions:
REMARK  status: ('A' for Active; 'I' for Inactive)
REMARK    1  A    between atoms: C3'_2  and  C2'_3 
REMARK    2  A    between atoms: C2'_3  and  C1'_4 
REMARK    3  A    between atoms: C1'_4  and  C1_5 
ROOT
ATOM      1  C1  N4B d   1       3.845  -2.265   4.335  0.00  0.00    -0.075 A 
ATOM      2  C2  N4B d   1       3.853  -3.429   5.135  0.00  0.00     0.002 A 
ATOM      3  C3  N4B d   1       4.921  -3.690   5.957  0.00  0.00     0.002 A 
ATOM      4  C4  N4B d   1       5.998  -2.815   5.981  0.00  0.00    -0.004 A 
ATOM      5  C5  N4B d   1       5.972  -1.681   5.224  0.00  0.00     0.002 A 
ATOM      6  C6  N4B d   1       4.902  -1.404   4.396  0.00  0.00     0.002 A 
ENDROOT
BRANCH   1   7
ATOM      7  C1' N4B d   1       2.738  -1.981   3.357  0.00  0.00     0.057 C 
BRANCH   7   8
ATOM      8  C2' N4B d   1       3.256  -2.195   1.938  0.00  0.00     0.009 C 
BRANCH   8   9
ATOM      9  C3' N4B d   1       2.139  -2.549   0.972  0.00  0.00     0.004 C 
ATOM     10  C4' N4B d   1       0.794  -2.083   1.443  0.00  0.00     0.003 C 
ENDBRANCH   8   9
ENDBRANCH   7   8
ENDBRANCH   1   7
TORSDOF 3
ENDMDL
