MODEL 1
REMARK minimizedAffinity 17.9941788
REMARK minimizedRMSD -1
REMARK  3 active torsions:
REMARK  status: ('A' for Active; 'I' for Inactive)
REMARK    1  A    between atoms: C3'_2  and  C2'_3 
REMARK    2  A    between atoms: C2'_3  and  C1'_4 
REMARK    3  A    between atoms: C1'_4  and  C1_5 
ROOT
ATOM      1  C1  N4B d   1      -3.637   2.886  -3.893  0.00  0.00    -0.075 A 
ATOM      2  C2  N4B d   1      -4.406   1.908  -4.561  0.00  0.00     0.002 A 
ATOM      3  C3  N4B d   1      -5.481   2.285  -5.328  0.00  0.00     0.002 A 
ATOM      4  C4  N4B d   1      -5.815   3.628  -5.426  0.00  0.00    -0.004 A 
ATOM      5  C5  N4B d   1      -5.052   4.568  -4.799  0.00  0.00     0.002 A 
ATOM      6  C6  N4B d   1      -3.966   4.203  -4.028  0.00  0.00     0.002 A 
ENDROOT
BRANCH   1   7
ATOM      7  C1' N4B d   1      -2.505   2.515  -2.974  0.00  0.00     0.057 C 
BRANCH   7   8
ATOM      8  C2' N4B d   1      -3.078   1.999  -1.657  0.00  0.00     0.009 C 
BRANCH   8   9
ATOM      9  C3' N4B d   1      -3.720   0.631  -1.813  0.00  0.00     0.004 C 
ATOM     10  C4' N4B d   1      -3.116  -0.401  -0.908  0.00  0.00     0.003 C 
ENDBRANCH   8   9
ENDBRANCH   7   8
ENDBRANCH   1   7
TORSDOF 3
ENDMDL
