MODEL 1
REMARK minimizedAffinity 8.23243523
REMARK minimizedRMSD -1
REMARK  0 active torsions:
REMARK  status: ('A' for Active; 'I' for Inactive)
ROOT
ATOM      1  N1  IND d   1      -5.517  -5.650  -2.197  0.00  0.00    -0.196 N 
ATOM      2  C2  IND d   1      -4.400  -5.281  -1.501  0.00  0.00     0.054 A 
ATOM      3  C3  IND d   1      -3.365  -5.079  -2.347  0.00  0.00    -0.031 A 
ATOM      4  C4  IND d   1      -3.305  -5.199  -4.917  0.00  0.00     0.051 A 
ATOM      5  C5  IND d   1      -4.071  -5.532  -5.999  0.00  0.00    -0.031 A 
ATOM      6  C6  IND d   1      -5.387  -5.927  -5.865  0.00  0.00     0.015 A 
ATOM      7  C7  IND d   1      -5.990  -5.993  -4.641  0.00  0.00    -0.016 A 
ATOM      8  C8  IND d   1      -5.213  -5.662  -3.541  0.00  0.00    -0.047 A 
ATOM      9  C9  IND d   1      -3.865  -5.301  -3.666  0.00  0.00    -0.096 A 
ATOM     10  HN1 IND d   1      -6.282  -5.843  -1.854  0.00  0.00     0.298 HD
ENDROOT
TORSDOF 0
ENDMDL
