MODEL 1
REMARK minimizedAffinity 12.3255215
REMARK minimizedRMSD -1
REMARK  0 active torsions:
REMARK  status: ('A' for Active; 'I' for Inactive)
ROOT
ATOM      1  N1  IND d   1       0.313   2.836  -1.984  0.00  0.00    -0.196 N 
ATOM      2  C2  IND d   1      -0.839   3.081  -2.679  0.00  0.00     0.054 A 
ATOM      3  C3  IND d   1      -1.907   3.034  -1.851  0.00  0.00    -0.031 A 
ATOM      4  C4  IND d   1      -1.987   2.671   0.696  0.00  0.00     0.051 A 
ATOM      5  C5  IND d   1      -1.193   2.369   1.767  0.00  0.00    -0.031 A 
ATOM      6  C6  IND d   1       0.172   2.206   1.640  0.00  0.00     0.015 A 
ATOM      7  C7  IND d   1       0.797   2.352   0.434  0.00  0.00    -0.016 A 
ATOM      8  C8  IND d   1      -0.007   2.652  -0.657  0.00  0.00    -0.047 A 
ATOM      9  C9  IND d   1      -1.398   2.776  -0.541  0.00  0.00    -0.096 A 
ATOM     10  HN1 IND d   1       1.104   2.802  -2.319  0.00  0.00     0.298 HD
ENDROOT
TORSDOF 0
ENDMDL
