MODEL 1
REMARK minimizedAffinity 4.65473509
REMARK minimizedRMSD -1
REMARK  0 active torsions:
REMARK  status: ('A' for Active; 'I' for Inactive)
ROOT
ATOM      1  N1  IND d   1       1.059  -0.215  -1.467  0.00  0.00    -0.196 N 
ATOM      2  C2  IND d   1       1.241  -1.535  -1.773  0.00  0.00     0.054 A 
ATOM      3  C3  IND d   1       0.049  -2.166  -1.860  0.00  0.00    -0.031 A 
ATOM      4  C4  IND d   1      -2.330  -1.208  -1.638  0.00  0.00     0.051 A 
ATOM      5  C5  IND d   1      -3.004  -0.061  -1.325  0.00  0.00    -0.031 A 
ATOM      6  C6  IND d   1      -2.345   1.118  -1.041  0.00  0.00     0.015 A 
ATOM      7  C7  IND d   1      -0.981   1.196  -1.070  0.00  0.00    -0.016 A 
ATOM      8  C8  IND d   1      -0.293   0.032  -1.380  0.00  0.00    -0.047 A 
ATOM      9  C9  IND d   1      -0.955  -1.177  -1.628  0.00  0.00    -0.096 A 
ATOM     10  HN1 IND d   1       1.684   0.363  -1.348  0.00  0.00     0.298 HD
ENDROOT
TORSDOF 0
ENDMDL
