MODEL 1
REMARK minimizedAffinity 6.09699535
REMARK minimizedRMSD -1
REMARK  0 active torsions:
REMARK  status: ('A' for Active; 'I' for Inactive)
ROOT
ATOM      1  N1  IND d   1       0.987   4.304   0.512  0.00  0.00    -0.196 N 
ATOM      2  C2  IND d   1      -0.043   3.929  -0.305  0.00  0.00     0.054 A 
ATOM      3  C3  IND d   1      -0.724   2.896   0.240  0.00  0.00    -0.031 A 
ATOM      4  C4  IND d   1      -0.386   1.730   2.510  0.00  0.00     0.051 A 
ATOM      5  C5  IND d   1       0.451   1.698   3.591  0.00  0.00    -0.031 A 
ATOM      6  C6  IND d   1       1.529   2.552   3.704  0.00  0.00     0.015 A 
ATOM      7  C7  IND d   1       1.805   3.482   2.741  0.00  0.00    -0.016 A 
ATOM      8  C8  IND d   1       0.962   3.512   1.639  0.00  0.00    -0.047 A 
ATOM      9  C9  IND d   1      -0.108   2.620   1.499  0.00  0.00    -0.096 A 
ATOM     10  HN1 IND d   1       1.555   4.928   0.349  0.00  0.00     0.298 HD
ENDROOT
TORSDOF 0
ENDMDL
