MODEL 1
REMARK minimizedAffinity -1.02417362
REMARK minimizedRMSD -1
REMARK  0 active torsions:
REMARK  status: ('A' for Active; 'I' for Inactive)
ROOT
ATOM      1  N1  IND d   1      -5.938  -0.529   3.758  0.00  0.00    -0.196 N 
ATOM      2  C2  IND d   1      -5.948   0.165   4.936  0.00  0.00     0.054 A 
ATOM      3  C3  IND d   1      -5.995  -0.689   5.984  0.00  0.00    -0.031 A 
ATOM      4  C4  IND d   1      -5.958  -3.263   6.000  0.00  0.00     0.051 A 
ATOM      5  C5  IND d   1      -5.987  -4.346   5.167  0.00  0.00    -0.031 A 
ATOM      6  C6  IND d   1      -5.999  -4.209   3.794  0.00  0.00     0.015 A 
ATOM      7  C7  IND d   1      -5.971  -2.979   3.200  0.00  0.00    -0.016 A 
ATOM      8  C8  IND d   1      -5.948  -1.877   4.043  0.00  0.00    -0.047 A 
ATOM      9  C9  IND d   1      -5.978  -2.008   5.437  0.00  0.00    -0.096 A 
ATOM     10  HN1 IND d   1      -5.927  -0.182   2.971  0.00  0.00     0.298 HD
ENDROOT
TORSDOF 0
ENDMDL
