MODEL 1
REMARK minimizedAffinity -2.2555933
REMARK minimizedRMSD -1
REMARK  0 active torsions:
REMARK  status: ('A' for Active; 'I' for Inactive)
ROOT
ATOM      1  N1  IND d   1       5.998  -2.999   0.174  0.00  0.00    -0.196 N 
ATOM      2  C2  IND d   1       5.510  -1.811   0.644  0.00  0.00     0.054 A 
ATOM      3  C3  IND d   1       4.341  -1.508   0.036  0.00  0.00    -0.031 A 
ATOM      4  C4  IND d   1       2.993  -2.868  -1.685  0.00  0.00     0.051 A 
ATOM      5  C5  IND d   1       3.051  -4.001  -2.447  0.00  0.00    -0.031 A 
ATOM      6  C6  IND d   1       4.115  -4.877  -2.370  0.00  0.00     0.015 A 
ATOM      7  C7  IND d   1       5.159  -4.657  -1.517  0.00  0.00    -0.016 A 
ATOM      8  C8  IND d   1       5.107  -3.504  -0.747  0.00  0.00    -0.047 A 
ATOM      9  C9  IND d   1       4.050  -2.590  -0.851  0.00  0.00    -0.096 A 
ATOM     10  HN1 IND d   1       6.736  -3.368   0.414  0.00  0.00     0.298 HD
ENDROOT
TORSDOF 0
ENDMDL
