MODEL 1
REMARK minimizedAffinity 13.217288
REMARK minimizedRMSD -1
REMARK  0 active torsions:
REMARK  status: ('A' for Active; 'I' for Inactive)
ROOT
ATOM      1  N1  IND d   1       2.682  -6.000  -1.449  0.00  0.00    -0.196 N 
ATOM      2  C2  IND d   1       1.525  -5.835  -0.740  0.00  0.00     0.054 A 
ATOM      3  C3  IND d   1       1.589  -4.713   0.011  0.00  0.00    -0.031 A 
ATOM      4  C4  IND d   1       3.454  -2.944   0.153  0.00  0.00     0.051 A 
ATOM      5  C5  IND d   1       4.722  -2.678  -0.283  0.00  0.00    -0.031 A 
ATOM      6  C6  IND d   1       5.387  -3.522  -1.149  0.00  0.00     0.015 A 
ATOM      7  C7  IND d   1       4.802  -4.662  -1.623  0.00  0.00    -0.016 A 
ATOM      8  C8  IND d   1       3.517  -4.938  -1.177  0.00  0.00    -0.047 A 
ATOM      9  C9  IND d   1       2.853  -4.108  -0.265  0.00  0.00    -0.096 A 
ATOM     10  HN1 IND d   1       2.859  -6.656  -1.975  0.00  0.00     0.298 HD
ENDROOT
TORSDOF 0
ENDMDL
