MODEL 1
REMARK minimizedAffinity 5.44221163
REMARK minimizedRMSD -1
REMARK  2 active torsions:
REMARK  status: ('A' for Active; 'I' for Inactive)
REMARK    1  A    between atoms: C2'_3  and  C1'_4 
REMARK    2  A    between atoms: C1'_4  and  C1_5 
ROOT
ATOM      1  C1  I4B d   1       2.406  -1.728   3.016  0.00  0.00    -0.075 A 
ATOM      2  C2  I4B d   1       1.607  -2.705   3.556  0.00  0.00     0.003 A 
ATOM      3  C3  I4B d   1       2.151  -3.654   4.456  0.00  0.00     0.002 A 
ATOM      4  C4  I4B d   1       3.500  -3.620   4.746  0.00  0.00    -0.004 A 
ATOM      5  C5  I4B d   1       4.303  -2.616   4.215  0.00  0.00     0.002 A 
ATOM      6  C6  I4B d   1       3.751  -1.656   3.354  0.00  0.00     0.003 A 
ENDROOT
BRANCH   1   7
ATOM      7  C1' I4B d   1       1.806  -0.762   2.044  0.00  0.00     0.060 C 
BRANCH   7   8
ATOM      8  C2' I4B d   1       2.779   0.385   1.865  0.00  0.00    -0.013 C 
ATOM      9  C4' I4B d   1       3.025   0.670   0.407  0.00  0.00     0.013 C 
ATOM     10  C3' I4B d   1       2.213   1.585   2.564  0.00  0.00     0.013 C 
ENDBRANCH   7   8
ENDBRANCH   1   7
TORSDOF 2
ENDMDL
