MODEL 1
REMARK minimizedAffinity 13.3513336
REMARK minimizedRMSD -1
REMARK  2 active torsions:
REMARK  status: ('A' for Active; 'I' for Inactive)
REMARK    1  A    between atoms: C2'_3  and  C1'_4 
REMARK    2  A    between atoms: C1'_4  and  C1_5 
ROOT
ATOM      1  C1  I4B d   1       2.171  -2.694   3.944  0.00  0.00    -0.075 A 
ATOM      2  C2  I4B d   1       3.465  -2.513   4.363  0.00  0.00     0.003 A 
ATOM      3  C3  I4B d   1       4.194  -3.595   4.914  0.00  0.00     0.002 A 
ATOM      4  C4  I4B d   1       3.577  -4.819   5.073  0.00  0.00    -0.004 A 
ATOM      5  C5  I4B d   1       2.272  -5.007   4.627  0.00  0.00     0.002 A 
ATOM      6  C6  I4B d   1       1.568  -3.941   4.047  0.00  0.00     0.003 A 
ENDROOT
BRANCH   1   7
ATOM      7  C1' I4B d   1       1.419  -1.522   3.398  0.00  0.00     0.060 C 
BRANCH   7   8
ATOM      8  C2' I4B d   1       1.656  -1.472   1.902  0.00  0.00    -0.013 C 
ATOM      9  C4' I4B d   1       0.370  -1.653   1.140  0.00  0.00     0.013 C 
ATOM     10  C3' I4B d   1       2.297  -0.155   1.579  0.00  0.00     0.013 C 
ENDBRANCH   7   8
ENDBRANCH   1   7
TORSDOF 2
ENDMDL
