MODEL 1
REMARK minimizedAffinity -0.338811219
REMARK minimizedRMSD -1
REMARK  2 active torsions:
REMARK  status: ('A' for Active; 'I' for Inactive)
REMARK    1  A    between atoms: C2'_3  and  C1'_4 
REMARK    2  A    between atoms: C1'_4  and  C1_5 
ROOT
ATOM      1  C1  I4B d   1       1.818   0.704   1.269  0.00  0.00    -0.075 A 
ATOM      2  C2  I4B d   1       2.489   0.628   2.465  0.00  0.00     0.003 A 
ATOM      3  C3  I4B d   1       2.284  -0.476   3.328  0.00  0.00     0.002 A 
ATOM      4  C4  I4B d   1       1.369  -1.449   2.982  0.00  0.00    -0.004 A 
ATOM      5  C5  I4B d   1       0.707  -1.381   1.759  0.00  0.00     0.002 A 
ATOM      6  C6  I4B d   1       0.942  -0.305   0.892  0.00  0.00     0.003 A 
ENDROOT
BRANCH   1   7
ATOM      7  C1' I4B d   1       2.033   1.900   0.397  0.00  0.00     0.060 C 
BRANCH   7   8
ATOM      8  C2' I4B d   1       0.847   2.014  -0.539  0.00  0.00    -0.013 C 
ATOM      9  C4' I4B d   1      -0.397   2.425   0.204  0.00  0.00     0.013 C 
ATOM     10  C3' I4B d   1       1.194   3.010  -1.606  0.00  0.00     0.013 C 
ENDBRANCH   7   8
ENDBRANCH   1   7
TORSDOF 2
ENDMDL
