MODEL 1
REMARK minimizedAffinity 0.0261289291
REMARK minimizedRMSD -1
REMARK  2 active torsions:
REMARK  status: ('A' for Active; 'I' for Inactive)
REMARK    1  A    between atoms: C2'_3  and  C1'_4 
REMARK    2  A    between atoms: C1'_4  and  C1_5 
ROOT
ATOM      1  C1  I4B d   1       1.731   0.126   2.240  0.00  0.00    -0.075 A 
ATOM      2  C2  I4B d   1       2.336  -0.072   3.456  0.00  0.00     0.003 A 
ATOM      3  C3  I4B d   1       2.091  -1.258   4.190  0.00  0.00     0.002 A 
ATOM      4  C4  I4B d   1       1.201  -2.190   3.697  0.00  0.00    -0.004 A 
ATOM      5  C5  I4B d   1       0.606  -1.999   2.454  0.00  0.00     0.002 A 
ATOM      6  C6  I4B d   1       0.882  -0.839   1.714  0.00  0.00     0.003 A 
ENDROOT
BRANCH   1   7
ATOM      7  C1' I4B d   1       1.987   1.404   1.507  0.00  0.00     0.060 C 
BRANCH   7   8
ATOM      8  C2' I4B d   1       0.910   1.562   0.454  0.00  0.00    -0.013 C 
ATOM      9  C4' I4B d   1      -0.286   2.295   1.003  0.00  0.00     0.013 C 
ATOM     10  C3' I4B d   1       1.505   2.295  -0.711  0.00  0.00     0.013 C 
ENDBRANCH   7   8
ENDBRANCH   1   7
TORSDOF 2
ENDMDL
