MODEL 1
REMARK minimizedAffinity 2.71245527
REMARK minimizedRMSD -1
REMARK  2 active torsions:
REMARK  status: ('A' for Active; 'I' for Inactive)
REMARK    1  A    between atoms: C2'_3  and  C1'_4 
REMARK    2  A    between atoms: C1'_4  and  C1_5 
ROOT
ATOM      1  C1  I4B d   1       1.817   0.076   1.304  0.00  0.00    -0.075 A 
ATOM      2  C2  I4B d   1       2.303  -0.083   2.578  0.00  0.00     0.003 A 
ATOM      3  C3  I4B d   1       1.901  -1.192   3.361  0.00  0.00     0.002 A 
ATOM      4  C4  I4B d   1       0.978  -2.084   2.853  0.00  0.00    -0.004 A 
ATOM      5  C5  I4B d   1       0.504  -1.933   1.553  0.00  0.00     0.002 A 
ATOM      6  C6  I4B d   1       0.935  -0.854   0.768  0.00  0.00     0.003 A 
ENDROOT
BRANCH   1   7
ATOM      7  C1' I4B d   1       2.238   1.277   0.517  0.00  0.00     0.060 C 
BRANCH   7   8
ATOM      8  C2' I4B d   1       1.016   1.818  -0.197  0.00  0.00    -0.013 C 
ATOM      9  C4' I4B d   1       0.125   2.581   0.748  0.00  0.00     0.013 C 
ATOM     10  C3' I4B d   1       1.486   2.692  -1.322  0.00  0.00     0.013 C 
ENDBRANCH   7   8
ENDBRANCH   1   7
TORSDOF 2
ENDMDL
