MODEL 1
REMARK minimizedAffinity 2.65395546
REMARK minimizedRMSD -1
REMARK  2 active torsions:
REMARK  status: ('A' for Active; 'I' for Inactive)
REMARK    1  A    between atoms: C2'_3  and  C1'_4 
REMARK    2  A    between atoms: C1'_4  and  C1_5 
ROOT
ATOM      1  C1  I4B d   1      -0.082  -1.699   0.272  0.00  0.00    -0.075 A 
ATOM      2  C2  I4B d   1       1.038  -2.481   0.134  0.00  0.00     0.003 A 
ATOM      3  C3  I4B d   1       0.999  -3.644  -0.673  0.00  0.00     0.002 A 
ATOM      4  C4  I4B d   1      -0.185  -4.013  -1.277  0.00  0.00    -0.004 A 
ATOM      5  C5  I4B d   1      -1.313  -3.207  -1.154  0.00  0.00     0.002 A 
ATOM      6  C6  I4B d   1      -1.258  -2.036  -0.384  0.00  0.00     0.003 A 
ENDROOT
BRANCH   1   7
ATOM      7  C1' I4B d   1      -0.015  -0.495   1.158  0.00  0.00     0.060 C 
BRANCH   7   8
ATOM      8  C2' I4B d   1       0.307   0.705   0.290  0.00  0.00    -0.013 C 
ATOM      9  C4' I4B d   1      -0.858   1.658   0.224  0.00  0.00     0.013 C 
ATOM     10  C3' I4B d   1       1.522   1.374   0.858  0.00  0.00     0.013 C 
ENDBRANCH   7   8
ENDBRANCH   1   7
TORSDOF 2
ENDMDL
