MODEL 1
REMARK minimizedAffinity 1.53975654
REMARK minimizedRMSD -1
REMARK  2 active torsions:
REMARK  status: ('A' for Active; 'I' for Inactive)
REMARK    1  A    between atoms: C2'_3  and  C1'_4 
REMARK    2  A    between atoms: C1'_4  and  C1_5 
ROOT
ATOM      1  C1  I4B d   1       2.103  -1.053   3.655  0.00  0.00    -0.075 A 
ATOM      2  C2  I4B d   1       1.291  -1.370   2.595  0.00  0.00     0.003 A 
ATOM      3  C3  I4B d   1       0.562  -2.585   2.593  0.00  0.00     0.002 A 
ATOM      4  C4  I4B d   1       0.713  -3.469   3.641  0.00  0.00    -0.004 A 
ATOM      5  C5  I4B d   1       1.520  -3.136   4.726  0.00  0.00     0.002 A 
ATOM      6  C6  I4B d   1       2.209  -1.915   4.739  0.00  0.00     0.003 A 
ENDROOT
BRANCH   1   7
ATOM      7  C1' I4B d   1       2.883   0.222   3.609  0.00  0.00     0.060 C 
BRANCH   7   8
ATOM      8  C2' I4B d   1       2.092   1.224   2.793  0.00  0.00    -0.013 C 
ATOM      9  C4' I4B d   1       2.216   2.612   3.365  0.00  0.00     0.013 C 
ATOM     10  C3' I4B d   1       2.596   1.173   1.381  0.00  0.00     0.013 C 
ENDBRANCH   7   8
ENDBRANCH   1   7
TORSDOF 2
ENDMDL
