MODEL 1
REMARK minimizedAffinity 4.28410149
REMARK minimizedRMSD -1
REMARK  2 active torsions:
REMARK  status: ('A' for Active; 'I' for Inactive)
REMARK    1  A    between atoms: C2'_3  and  C1'_4 
REMARK    2  A    between atoms: C1'_4  and  C1_5 
ROOT
ATOM      1  C1  I4B d   1      -0.056  -0.625   0.395  0.00  0.00    -0.075 A 
ATOM      2  C2  I4B d   1       1.168  -0.034   0.587  0.00  0.00     0.003 A 
ATOM      3  C3  I4B d   1       1.307   1.370   0.464  0.00  0.00     0.002 A 
ATOM      4  C4  I4B d   1       0.216   2.133   0.101  0.00  0.00    -0.004 A 
ATOM      5  C5  I4B d   1      -1.029   1.534  -0.070  0.00  0.00     0.002 A 
ATOM      6  C6  I4B d   1      -1.169   0.147   0.090  0.00  0.00     0.003 A 
ENDROOT
BRANCH   1   7
ATOM      7  C1' I4B d   1      -0.161  -2.114   0.500  0.00  0.00     0.060 C 
BRANCH   7   8
ATOM      8  C2' I4B d   1       0.269  -2.707  -0.827  0.00  0.00    -0.013 C 
ATOM      9  C4' I4B d   1       1.430  -3.650  -0.652  0.00  0.00     0.013 C 
ATOM     10  C3' I4B d   1      -0.913  -3.409  -1.425  0.00  0.00     0.013 C 
ENDBRANCH   7   8
ENDBRANCH   1   7
TORSDOF 2
ENDMDL
