MODEL 1
REMARK minimizedAffinity -5.77059889
REMARK minimizedRMSD -1
REMARK  0 active torsions:
REMARK  status: ('A' for Active; 'I' for Inactive)
ROOT
ATOM      1  C   UNL d   1      -1.252   2.925  -0.719  0.00  0.00     0.020 A 
ATOM      2  C1  UNL d   1      -1.401   3.195   0.640  0.00  0.00     0.020 A 
ATOM      3  C2  UNL d   1      -1.000   2.250   1.588  0.00  0.00     0.034 A 
ATOM      4  C3  UNL d   1      -0.450   1.031   1.177  0.00  0.00     0.017 A 
ATOM      5  C4  UNL d   1      -0.301   0.761  -0.189  0.00  0.00     0.017 A 
ATOM      6  C5  UNL d   1      -0.704   1.710  -1.133  0.00  0.00     0.034 A 
ATOM      7 Cl   UNL d   1       0.370  -0.721  -0.773  0.00  0.00    -0.070 Cl
ATOM      8 Cl1  UNL d   1       0.024  -0.091   2.402  0.00  0.00    -0.070 Cl
ENDROOT
TORSDOF 0
ENDMDL
