MODEL 1
REMARK minimizedAffinity -0.15929921
REMARK minimizedRMSD -1
REMARK  0 active torsions:
REMARK  status: ('A' for Active; 'I' for Inactive)
ROOT
ATOM      1  C   UNL d   1      -0.537   3.154  -1.014  0.00  0.00     0.020 A 
ATOM      2  C1  UNL d   1      -0.318   2.294  -2.089  0.00  0.00     0.020 A 
ATOM      3  C2  UNL d   1      -0.004   0.953  -1.857  0.00  0.00     0.034 A 
ATOM      4  C3  UNL d   1       0.090   0.468  -0.548  0.00  0.00     0.017 A 
ATOM      5  C4  UNL d   1      -0.130   1.332   0.531  0.00  0.00     0.017 A 
ATOM      6  C5  UNL d   1      -0.444   2.674   0.293  0.00  0.00     0.034 A 
ATOM      7 Cl   UNL d   1      -0.031   0.807   2.174  0.00  0.00    -0.070 Cl
ATOM      8 Cl1  UNL d   1       0.481  -1.202  -0.336  0.00  0.00    -0.070 Cl
ENDROOT
TORSDOF 0
ENDMDL
