MODEL 1
REMARK minimizedAffinity -0.287882894
REMARK minimizedRMSD -1
REMARK  0 active torsions:
REMARK  status: ('A' for Active; 'I' for Inactive)
ROOT
ATOM      1  C   UNL d   1      -0.330   1.578  -1.054  0.00  0.00     0.020 A 
ATOM      2  C1  UNL d   1      -0.319   0.841  -2.237  0.00  0.00     0.020 A 
ATOM      3  C2  UNL d   1       0.047  -0.507  -2.217  0.00  0.00     0.034 A 
ATOM      4  C3  UNL d   1       0.405  -1.121  -1.012  0.00  0.00     0.017 A 
ATOM      5  C4  UNL d   1       0.394  -0.380   0.176  0.00  0.00     0.017 A 
ATOM      6  C5  UNL d   1       0.026   0.969   0.150  0.00  0.00     0.034 A 
ATOM      7 Cl   UNL d   1       0.823  -1.069   1.702  0.00  0.00    -0.070 Cl
ATOM      8 Cl1  UNL d   1       0.847  -2.791  -1.061  0.00  0.00    -0.070 Cl
ENDROOT
TORSDOF 0
ENDMDL
