MODEL 1
REMARK minimizedAffinity -2.23527932
REMARK minimizedRMSD -1
REMARK  0 active torsions:
REMARK  status: ('A' for Active; 'I' for Inactive)
ROOT
ATOM      1  C   UNL d   1      -1.003   2.751   0.357  0.00  0.00     0.020 A 
ATOM      2  C1  UNL d   1      -0.686   2.714   1.714  0.00  0.00     0.020 A 
ATOM      3  C2  UNL d   1      -0.142   1.556   2.273  0.00  0.00     0.034 A 
ATOM      4  C3  UNL d   1       0.088   0.430   1.473  0.00  0.00     0.017 A 
ATOM      5  C4  UNL d   1      -0.230   0.468   0.111  0.00  0.00     0.017 A 
ATOM      6  C5  UNL d   1      -0.775   1.631  -0.443  0.00  0.00     0.034 A 
ATOM      7 Cl   UNL d   1       0.024  -0.881  -0.939  0.00  0.00    -0.070 Cl
ATOM      8 Cl1  UNL d   1       0.764  -0.969   2.230  0.00  0.00    -0.070 Cl
ENDROOT
TORSDOF 0
ENDMDL
