MODEL 1
REMARK minimizedAffinity -5.00714445
REMARK minimizedRMSD -1
REMARK  0 active torsions:
REMARK  status: ('A' for Active; 'I' for Inactive)
ROOT
ATOM      1  C   UNL d   1      -0.983   2.667  -0.762  0.00  0.00     0.020 A 
ATOM      2  C1  UNL d   1      -0.992   2.982   0.596  0.00  0.00     0.020 A 
ATOM      3  C2  UNL d   1      -0.659   2.009   1.541  0.00  0.00     0.034 A 
ATOM      4  C3  UNL d   1      -0.317   0.716   1.128  0.00  0.00     0.017 A 
ATOM      5  C4  UNL d   1      -0.309   0.400  -0.235  0.00  0.00     0.017 A 
ATOM      6  C5  UNL d   1      -0.642   1.379  -1.177  0.00  0.00     0.034 A 
ATOM      7 Cl   UNL d   1       0.103  -1.173  -0.820  0.00  0.00    -0.070 Cl
ATOM      8 Cl1  UNL d   1       0.084  -0.438   2.351  0.00  0.00    -0.070 Cl
ENDROOT
TORSDOF 0
ENDMDL
