MODEL 1
REMARK minimizedAffinity -4.7135148
REMARK minimizedRMSD -1
REMARK  0 active torsions:
REMARK  status: ('A' for Active; 'I' for Inactive)
ROOT
ATOM      1  C   UNL d   1      -1.385   3.174   1.537  0.00  0.00     0.020 A 
ATOM      2  C1  UNL d   1      -1.605   3.087   0.163  0.00  0.00     0.020 A 
ATOM      3  C2  UNL d   1      -1.097   2.004  -0.557  0.00  0.00     0.034 A 
ATOM      4  C3  UNL d   1      -0.366   1.004   0.096  0.00  0.00     0.017 A 
ATOM      5  C4  UNL d   1      -0.147   1.093   1.475  0.00  0.00     0.017 A 
ATOM      6  C5  UNL d   1      -0.658   2.180   2.192  0.00  0.00     0.034 A 
ATOM      7 Cl   UNL d   1       0.745  -0.101   2.350  0.00  0.00    -0.070 Cl
ATOM      8 Cl1  UNL d   1       0.232  -0.307  -0.858  0.00  0.00    -0.070 Cl
ENDROOT
TORSDOF 0
ENDMDL
