MODEL 1
REMARK minimizedAffinity 5.81683588
REMARK minimizedRMSD -1
REMARK  0 active torsions:
REMARK  status: ('A' for Active; 'I' for Inactive)
ROOT
ATOM      1  C   UNL d   1      -4.731   0.822  -1.264  0.00  0.00     0.020 A 
ATOM      2  C1  UNL d   1      -4.347  -0.277  -2.032  0.00  0.00     0.020 A 
ATOM      3  C2  UNL d   1      -4.179  -0.140  -3.411  0.00  0.00     0.034 A 
ATOM      4  C3  UNL d   1      -4.394   1.098  -4.027  0.00  0.00     0.017 A 
ATOM      5  C4  UNL d   1      -4.780   2.200  -3.256  0.00  0.00     0.017 A 
ATOM      6  C5  UNL d   1      -4.947   2.058  -1.875  0.00  0.00     0.034 A 
ATOM      7 Cl   UNL d   1      -5.064   3.760  -3.945  0.00  0.00    -0.070 Cl
ATOM      8 Cl1  UNL d   1      -4.168   1.195  -5.737  0.00  0.00    -0.070 Cl
ENDROOT
TORSDOF 0
ENDMDL
