MODEL 1
REMARK minimizedAffinity 1.77584863
REMARK minimizedRMSD -1
REMARK  0 active torsions:
REMARK  status: ('A' for Active; 'I' for Inactive)
ROOT
ATOM      1  C   UNL d   1       0.552  -0.947  -0.589  0.00  0.00     0.020 A 
ATOM      2  C1  UNL d   1       0.746  -1.199   0.769  0.00  0.00     0.020 A 
ATOM      3  C2  UNL d   1       0.666  -0.154   1.692  0.00  0.00     0.034 A 
ATOM      4  C3  UNL d   1       0.391   1.148   1.258  0.00  0.00     0.017 A 
ATOM      5  C4  UNL d   1       0.196   1.400  -0.105  0.00  0.00     0.017 A 
ATOM      6  C5  UNL d   1       0.277   0.350  -1.024  0.00  0.00     0.034 A 
ATOM      7 Cl   UNL d   1      -0.147   2.980  -0.715  0.00  0.00    -0.070 Cl
ATOM      8 Cl1  UNL d   1       0.307   2.392   2.454  0.00  0.00    -0.070 Cl
ENDROOT
TORSDOF 0
ENDMDL
