MODEL 1
REMARK minimizedAffinity 3.45940948
REMARK minimizedRMSD -1
REMARK  0 active torsions:
REMARK  status: ('A' for Active; 'I' for Inactive)
ROOT
ATOM      1  C1  DEN d   1       3.052   6.000   5.985  0.00  0.00     0.130 A 
ATOM      2  C2  DEN d   1       4.212   5.113   5.999  0.00  0.00    -0.031 A 
ATOM      3  C3  DEN d   1       4.012   4.083   4.960  0.00  0.00     0.027 A 
ATOM      4  C4  DEN d   1       2.031   3.779   3.337  0.00  0.00     0.027 A 
ATOM      5  C5  DEN d   1       0.805   4.278   2.956  0.00  0.00    -0.003 A 
ATOM      6  C6  DEN d   1       0.232   5.356   3.575  0.00  0.00     0.001 A 
ATOM      7  C7  DEN d   1       0.905   5.999   4.580  0.00  0.00     0.017 A 
ATOM      8  C8  DEN d   1       2.138   5.497   4.975  0.00  0.00    -0.094 A 
ATOM      9  C9  DEN d   1       2.707   4.413   4.328  0.00  0.00    -0.072 A 
ENDROOT
TORSDOF 0
ENDMDL
