MODEL 1
REMARK minimizedAffinity 14.3608246
REMARK minimizedRMSD -1
REMARK  0 active torsions:
REMARK  status: ('A' for Active; 'I' for Inactive)
ROOT
ATOM      1  C1  DEN d   1       4.268   3.818   2.873  0.00  0.00     0.130 A 
ATOM      2  C2  DEN d   1       3.373   3.282   1.850  0.00  0.00    -0.031 A 
ATOM      3  C3  DEN d   1       2.009   3.771   2.135  0.00  0.00     0.027 A 
ATOM      4  C4  DEN d   1       1.201   5.302   4.047  0.00  0.00     0.027 A 
ATOM      5  C5  DEN d   1       1.593   6.000   5.168  0.00  0.00    -0.003 A 
ATOM      6  C6  DEN d   1       2.886   5.992   5.618  0.00  0.00     0.001 A 
ATOM      7  C7  DEN d   1       3.845   5.308   4.918  0.00  0.00     0.017 A 
ATOM      8  C8  DEN d   1       3.456   4.596   3.791  0.00  0.00    -0.094 A 
ATOM      9  C9  DEN d   1       2.146   4.626   3.345  0.00  0.00    -0.072 A 
ENDROOT
TORSDOF 0
ENDMDL
