MODEL 1
REMARK minimizedAffinity -0.581805229
REMARK minimizedRMSD -1
REMARK  0 active torsions:
REMARK  status: ('A' for Active; 'I' for Inactive)
ROOT
ATOM      1  C1  DEN d   1       3.622   3.261   3.404  0.00  0.00     0.130 A 
ATOM      2  C2  DEN d   1       2.902   2.855   2.200  0.00  0.00    -0.031 A 
ATOM      3  C3  DEN d   1       1.615   3.578   2.172  0.00  0.00     0.027 A 
ATOM      4  C4  DEN d   1       0.673   5.281   3.865  0.00  0.00     0.027 A 
ATOM      5  C5  DEN d   1       0.916   5.935   5.053  0.00  0.00    -0.003 A 
ATOM      6  C6  DEN d   1       2.053   5.719   5.785  0.00  0.00     0.001 A 
ATOM      7  C7  DEN d   1       3.011   4.861   5.315  0.00  0.00     0.017 A 
ATOM      8  C8  DEN d   1       2.770   4.193   4.122  0.00  0.00    -0.094 A 
ATOM      9  C9  DEN d   1       1.620   4.433   3.389  0.00  0.00    -0.072 A 
ENDROOT
TORSDOF 0
ENDMDL
