MODEL 1
REMARK minimizedAffinity 2.37618542
REMARK minimizedRMSD -1
REMARK  0 active torsions:
REMARK  status: ('A' for Active; 'I' for Inactive)
ROOT
ATOM      1  C1  DEN d   1       1.506   2.996   2.305  0.00  0.00     0.130 A 
ATOM      2  C2  DEN d   1       2.941   2.813   2.499  0.00  0.00    -0.031 A 
ATOM      3  C3  DEN d   1       3.385   3.756   3.545  0.00  0.00     0.027 A 
ATOM      4  C4  DEN d   1       1.994   5.470   4.880  0.00  0.00     0.027 A 
ATOM      5  C5  DEN d   1       0.735   6.000   5.057  0.00  0.00    -0.003 A 
ATOM      6  C6  DEN d   1      -0.340   5.592   4.313  0.00  0.00     0.001 A 
ATOM      7  C7  DEN d   1      -0.185   4.595   3.386  0.00  0.00     0.017 A 
ATOM      8  C8  DEN d   1       1.083   4.062   3.196  0.00  0.00    -0.094 A 
ATOM      9  C9  DEN d   1       2.154   4.479   3.967  0.00  0.00    -0.072 A 
ENDROOT
TORSDOF 0
ENDMDL
