MODEL 1
REMARK minimizedAffinity -1.13691342
REMARK minimizedRMSD -1
REMARK  0 active torsions:
REMARK  status: ('A' for Active; 'I' for Inactive)
ROOT
ATOM      1  C1  DEN d   1       2.441   3.810   1.863  0.00  0.00     0.130 A 
ATOM      2  C2  DEN d   1       3.733   3.162   1.656  0.00  0.00    -0.031 A 
ATOM      3  C3  DEN d   1       4.610   3.520   2.789  0.00  0.00     0.027 A 
ATOM      4  C4  DEN d   1       4.094   5.004   4.835  0.00  0.00     0.027 A 
ATOM      5  C5  DEN d   1       3.135   5.784   5.442  0.00  0.00    -0.003 A 
ATOM      6  C6  DEN d   1       1.899   5.987   4.887  0.00  0.00     0.001 A 
ATOM      7  C7  DEN d   1       1.574   5.365   3.710  0.00  0.00     0.017 A 
ATOM      8  C8  DEN d   1       2.538   4.583   3.088  0.00  0.00    -0.094 A 
ATOM      9  C9  DEN d   1       3.777   4.381   3.671  0.00  0.00    -0.072 A 
ENDROOT
TORSDOF 0
ENDMDL
