MODEL 1
REMARK minimizedAffinity 8.44408703
REMARK minimizedRMSD -1
REMARK  0 active torsions:
REMARK  status: ('A' for Active; 'I' for Inactive)
ROOT
ATOM      1  C1  DEN d   1       2.013   3.757   2.516  0.00  0.00     0.130 A 
ATOM      2  C2  DEN d   1       3.393   3.282   2.558  0.00  0.00    -0.031 A 
ATOM      3  C3  DEN d   1       4.024   3.819   3.781  0.00  0.00     0.027 A 
ATOM      4  C4  DEN d   1       3.001   5.327   5.606  0.00  0.00     0.027 A 
ATOM      5  C5  DEN d   1       1.865   6.000   6.000  0.00  0.00    -0.003 A 
ATOM      6  C6  DEN d   1       0.719   6.000   5.249  0.00  0.00     0.001 A 
ATOM      7  C7  DEN d   1       0.669   5.276   4.087  0.00  0.00     0.017 A 
ATOM      8  C8  DEN d   1       1.812   4.601   3.680  0.00  0.00    -0.094 A 
ATOM      9  C9  DEN d   1       2.957   4.604   4.458  0.00  0.00    -0.072 A 
ENDROOT
TORSDOF 0
ENDMDL
