MODEL 1
REMARK minimizedAffinity 3.62298107
REMARK minimizedRMSD -1
REMARK  0 active torsions:
REMARK  status: ('A' for Active; 'I' for Inactive)
ROOT
ATOM      1  C1  DEN d   1       3.723   3.881   3.649  0.00  0.00     0.130 A 
ATOM      2  C2  DEN d   1       3.241   3.345   2.378  0.00  0.00    -0.031 A 
ATOM      3  C3  DEN d   1       1.853   3.810   2.183  0.00  0.00     0.027 A 
ATOM      4  C4  DEN d   1       0.412   5.304   3.714  0.00  0.00     0.027 A 
ATOM      5  C5  DEN d   1       0.384   5.993   4.907  0.00  0.00    -0.003 A 
ATOM      6  C6  DEN d   1       1.446   5.998   5.772  0.00  0.00     0.001 A 
ATOM      7  C7  DEN d   1       2.598   5.338   5.436  0.00  0.00     0.017 A 
ATOM      8  C8  DEN d   1       2.632   4.635   4.239  0.00  0.00    -0.094 A 
ATOM      9  C9  DEN d   1       1.552   4.652   3.373  0.00  0.00    -0.072 A 
ENDROOT
TORSDOF 0
ENDMDL
