MODEL 1
REMARK minimizedAffinity -2.83903623
REMARK minimizedRMSD -1
REMARK  0 active torsions:
REMARK  status: ('A' for Active; 'I' for Inactive)
ROOT
ATOM      1  C1  DEN d   1       4.091   1.987  -5.976  0.00  0.00     0.130 A 
ATOM      2  C2  DEN d   1       5.548   2.084  -5.988  0.00  0.00    -0.031 A 
ATOM      3  C3  DEN d   1       5.909   3.516  -5.983  0.00  0.00     0.027 A 
ATOM      4  C4  DEN d   1       4.363   5.580  -5.953  0.00  0.00     0.027 A 
ATOM      5  C5  DEN d   1       3.051   6.000  -5.950  0.00  0.00    -0.003 A 
ATOM      6  C6  DEN d   1       2.002   5.119  -5.990  0.00  0.00     0.001 A 
ATOM      7  C7  DEN d   1       2.248   3.771  -5.989  0.00  0.00     0.017 A 
ATOM      8  C8  DEN d   1       3.568   3.341  -5.999  0.00  0.00    -0.094 A 
ATOM      9  C9  DEN d   1       4.614   4.246  -5.946  0.00  0.00    -0.072 A 
ENDROOT
TORSDOF 0
ENDMDL
