MODEL 1
REMARK minimizedAffinity -1.97295558
REMARK minimizedRMSD -1
REMARK  0 active torsions:
REMARK  status: ('A' for Active; 'I' for Inactive)
ROOT
ATOM      1  C1  DEN d   1       3.616   3.573   3.233  0.00  0.00     0.130 A 
ATOM      2  C2  DEN d   1       3.027   2.997   2.027  0.00  0.00    -0.031 A 
ATOM      3  C3  DEN d   1       1.667   3.551   1.874  0.00  0.00     0.027 A 
ATOM      4  C4  DEN d   1       0.423   5.239   3.377  0.00  0.00     0.027 A 
ATOM      5  C5  DEN d   1       0.512   6.000   4.522  0.00  0.00    -0.003 A 
ATOM      6  C6  DEN d   1       1.618   5.980   5.328  0.00  0.00     0.001 A 
ATOM      7  C7  DEN d   1       2.700   5.217   4.978  0.00  0.00     0.017 A 
ATOM      8  C8  DEN d   1       2.616   4.441   3.829  0.00  0.00    -0.094 A 
ATOM      9  C9  DEN d   1       1.493   4.484   3.020  0.00  0.00    -0.072 A 
ENDROOT
TORSDOF 0
ENDMDL
