MODEL 1
REMARK minimizedAffinity -0.205658913
REMARK minimizedRMSD -1
REMARK  0 active torsions:
REMARK  status: ('A' for Active; 'I' for Inactive)
ROOT
ATOM      1  O1  BZF d   1       1.106   2.498   1.953  0.00  0.00    -0.204 OA
ATOM      2  C2  BZF d   1       0.574   1.230   1.822  0.00  0.00     0.174 A 
ATOM      3  C3  BZF d   1      -0.019   1.082   0.619  0.00  0.00    -0.012 A 
ATOM      4  C3A BZF d   1       0.234   2.306  -0.078  0.00  0.00    -0.107 A 
ATOM      5  C4  BZF d   1      -0.087   2.759  -1.325  0.00  0.00     0.055 A 
ATOM      6  C5  BZF d   1       0.246   4.030  -1.672  0.00  0.00    -0.016 A 
ATOM      7  C6  BZF d   1       0.895   4.875  -0.796  0.00  0.00     0.022 A 
ATOM      8  C7  BZF d   1       1.239   4.469   0.450  0.00  0.00     0.029 A 
ATOM      9  C7A BZF d   1       0.933   3.174   0.792  0.00  0.00     0.058 A 
ENDROOT
TORSDOF 0
ENDMDL
