MODEL 1
REMARK minimizedAffinity 5.99308062
REMARK minimizedRMSD -1
REMARK  0 active torsions:
REMARK  status: ('A' for Active; 'I' for Inactive)
ROOT
ATOM      1  O1  BZF d   1      -1.300   2.663   1.082  0.00  0.00    -0.204 OA
ATOM      2  C2  BZF d   1      -0.578   1.485   1.118  0.00  0.00     0.174 A 
ATOM      3  C3  BZF d   1       0.425   1.510   0.217  0.00  0.00    -0.012 A 
ATOM      4  C3A BZF d   1       0.380   2.820  -0.359  0.00  0.00    -0.107 A 
ATOM      5  C4  BZF d   1       1.133   3.455  -1.304  0.00  0.00     0.055 A 
ATOM      6  C5  BZF d   1       0.782   4.709  -1.695  0.00  0.00    -0.016 A 
ATOM      7  C6  BZF d   1      -0.317   5.353  -1.165  0.00  0.00     0.022 A 
ATOM      8  C7  BZF d   1      -1.091   4.765  -0.221  0.00  0.00     0.029 A 
ATOM      9  C7A BZF d   1      -0.720   3.511   0.200  0.00  0.00     0.058 A 
ENDROOT
TORSDOF 0
ENDMDL
