MODEL 1
REMARK minimizedAffinity 3.52920437
REMARK minimizedRMSD -1
REMARK  0 active torsions:
REMARK  status: ('A' for Active; 'I' for Inactive)
ROOT
ATOM      1  O1  BZF d   1       1.819   4.960  -0.666  0.00  0.00    -0.204 OA
ATOM      2  C2  BZF d   1       0.713   4.759  -1.469  0.00  0.00     0.174 A 
ATOM      3  C3  BZF d   1      -0.063   3.771  -0.976  0.00  0.00    -0.012 A 
ATOM      4  C3A BZF d   1       0.552   3.390   0.258  0.00  0.00    -0.107 A 
ATOM      5  C4  BZF d   1       0.240   2.470   1.218  0.00  0.00     0.055 A 
ATOM      6  C5  BZF d   1       1.088   2.296   2.266  0.00  0.00    -0.016 A 
ATOM      7  C6  BZF d   1       2.256   3.020   2.383  0.00  0.00     0.022 A 
ATOM      8  C7  BZF d   1       2.605   3.948   1.459  0.00  0.00     0.029 A 
ATOM      9  C7A BZF d   1       1.735   4.150   0.416  0.00  0.00     0.058 A 
ENDROOT
TORSDOF 0
ENDMDL
