MODEL 1
REMARK minimizedAffinity 15.6876116
REMARK minimizedRMSD -1
REMARK  0 active torsions:
REMARK  status: ('A' for Active; 'I' for Inactive)
ROOT
ATOM      1  O1  BZF d   1       4.110  -4.481  -1.585  0.00  0.00    -0.204 OA
ATOM      2  C2  BZF d   1       5.130  -5.238  -2.128  0.00  0.00     0.174 A 
ATOM      3  C3  BZF d   1       6.000  -4.457  -2.800  0.00  0.00    -0.012 A 
ATOM      4  C3A BZF d   1       5.542  -3.118  -2.591  0.00  0.00    -0.107 A 
ATOM      5  C4  BZF d   1       6.000  -1.896  -2.994  0.00  0.00     0.055 A 
ATOM      6  C5  BZF d   1       5.281  -0.785  -2.681  0.00  0.00    -0.016 A 
ATOM      7  C6  BZF d   1       4.100  -0.861  -1.972  0.00  0.00     0.022 A 
ATOM      8  C7  BZF d   1       3.609  -2.050  -1.547  0.00  0.00     0.029 A 
ATOM      9  C7A BZF d   1       4.349  -3.171  -1.834  0.00  0.00     0.058 A 
ENDROOT
TORSDOF 0
ENDMDL
