MODEL 1
REMARK minimizedAffinity 5.43925095
REMARK minimizedRMSD -1
REMARK  0 active torsions:
REMARK  status: ('A' for Active; 'I' for Inactive)
ROOT
ATOM      1  O1  BZF d   1       1.119   2.612  -0.466  0.00  0.00    -0.204 OA
ATOM      2  C2  BZF d   1       0.254   3.017  -1.464  0.00  0.00     0.174 A 
ATOM      3  C3  BZF d   1      -0.970   2.482  -1.282  0.00  0.00    -0.012 A 
ATOM      4  C3A BZF d   1      -0.889   1.768  -0.045  0.00  0.00    -0.107 A 
ATOM      5  C4  BZF d   1      -1.788   1.038   0.679  0.00  0.00     0.055 A 
ATOM      6  C5  BZF d   1      -1.371   0.408   1.808  0.00  0.00    -0.016 A 
ATOM      7  C6  BZF d   1      -0.063   0.482   2.240  0.00  0.00     0.022 A 
ATOM      8  C7  BZF d   1       0.865   1.197   1.558  0.00  0.00     0.029 A 
ATOM      9  C7A BZF d   1       0.438   1.862   0.434  0.00  0.00     0.058 A 
ENDROOT
TORSDOF 0
ENDMDL
