MODEL 1
REMARK minimizedAffinity 1.09536076
REMARK minimizedRMSD -1
REMARK  0 active torsions:
REMARK  status: ('A' for Active; 'I' for Inactive)
ROOT
ATOM      1  O1  BZF d   1      -0.815   1.759   1.663  0.00  0.00    -0.204 OA
ATOM      2  C2  BZF d   1      -0.193   2.646   0.805  0.00  0.00     0.174 A 
ATOM      3  C3  BZF d   1       0.976   2.141   0.361  0.00  0.00    -0.012 A 
ATOM      4  C3A BZF d   1       1.047   0.820   0.906  0.00  0.00    -0.107 A 
ATOM      5  C4  BZF d   1       1.963  -0.188   0.810  0.00  0.00     0.055 A 
ATOM      6  C5  BZF d   1       1.770  -1.328   1.524  0.00  0.00    -0.016 A 
ATOM      7  C6  BZF d   1       0.675  -1.491   2.347  0.00  0.00     0.022 A 
ATOM      8  C7  BZF d   1      -0.264  -0.522   2.471  0.00  0.00     0.029 A 
ATOM      9  C7A BZF d   1      -0.088   0.618   1.725  0.00  0.00     0.058 A 
ENDROOT
TORSDOF 0
ENDMDL
