MODEL 1
REMARK minimizedAffinity 7.20846128
REMARK minimizedRMSD -1
REMARK  0 active torsions:
REMARK  status: ('A' for Active; 'I' for Inactive)
ROOT
ATOM      1  O1  BZF d   1       1.713   2.879   1.947  0.00  0.00    -0.204 OA
ATOM      2  C2  BZF d   1       0.943   1.760   2.197  0.00  0.00     0.174 A 
ATOM      3  C3  BZF d   1       0.182   1.454   1.127  0.00  0.00    -0.012 A 
ATOM      4  C3A BZF d   1       0.564   2.389   0.113  0.00  0.00    -0.107 A 
ATOM      5  C4  BZF d   1       0.172   2.584  -1.180  0.00  0.00     0.055 A 
ATOM      6  C5  BZF d   1       0.687   3.632  -1.876  0.00  0.00    -0.016 A 
ATOM      7  C6  BZF d   1       1.590   4.507  -1.308  0.00  0.00     0.022 A 
ATOM      8  C7  BZF d   1       2.012   4.352  -0.029  0.00  0.00     0.029 A 
ATOM      9  C7A BZF d   1       1.519   3.274   0.666  0.00  0.00     0.058 A 
ENDROOT
TORSDOF 0
ENDMDL
