MODEL 1
REMARK minimizedAffinity 1.08585584
REMARK minimizedRMSD -1
REMARK  0 active torsions:
REMARK  status: ('A' for Active; 'I' for Inactive)
ROOT
ATOM      1  O1  BZF d   1      -1.052   2.226   0.952  0.00  0.00    -0.204 OA
ATOM      2  C2  BZF d   1      -0.114   1.215   0.876  0.00  0.00     0.174 A 
ATOM      3  C3  BZF d   1       0.879   1.548   0.026  0.00  0.00    -0.012 A 
ATOM      4  C3A BZF d   1       0.587   2.886  -0.388  0.00  0.00    -0.107 A 
ATOM      5  C4  BZF d   1       1.216   3.770  -1.218  0.00  0.00     0.055 A 
ATOM      6  C5  BZF d   1       0.632   4.971  -1.468  0.00  0.00    -0.016 A 
ATOM      7  C6  BZF d   1      -0.581   5.319  -0.910  0.00  0.00     0.022 A 
ATOM      8  C7  BZF d   1      -1.240   4.477  -0.076  0.00  0.00     0.029 A 
ATOM      9  C7A BZF d   1      -0.636   3.276   0.204  0.00  0.00     0.058 A 
ENDROOT
TORSDOF 0
ENDMDL
