MODEL 1
REMARK minimizedAffinity -0.156992316
REMARK minimizedRMSD -1
REMARK  0 active torsions:
REMARK  status: ('A' for Active; 'I' for Inactive)
ROOT
ATOM      1  O1  BZF d   1      -0.109   3.627  -2.022  0.00  0.00    -0.204 OA
ATOM      2  C2  BZF d   1       0.659   4.730  -1.703  0.00  0.00     0.174 A 
ATOM      3  C3  BZF d   1       1.138   4.633  -0.446  0.00  0.00    -0.012 A 
ATOM      4  C3A BZF d   1       0.714   3.348   0.019  0.00  0.00    -0.107 A 
ATOM      5  C4  BZF d   1       0.893   2.667   1.189  0.00  0.00     0.055 A 
ATOM      6  C5  BZF d   1       0.286   1.462   1.352  0.00  0.00    -0.016 A 
ATOM      7  C6  BZF d   1      -0.509   0.911   0.368  0.00  0.00     0.022 A 
ATOM      8  C7  BZF d   1      -0.712   1.546  -0.811  0.00  0.00     0.029 A 
ATOM      9  C7A BZF d   1      -0.074   2.749  -0.991  0.00  0.00     0.058 A 
ENDROOT
TORSDOF 0
ENDMDL
