MODEL 1
REMARK minimizedAffinity -0.197389901
REMARK minimizedRMSD -1
REMARK  0 active torsions:
REMARK  status: ('A' for Active; 'I' for Inactive)
ROOT
ATOM      1  N1  IND d   1      -4.273   4.792  -5.997  0.00  0.00    -0.196 N 
ATOM      2  C2  IND d   1      -5.132   5.853  -5.930  0.00  0.00     0.054 A 
ATOM      3  C3  IND d   1      -5.952   5.728  -4.862  0.00  0.00    -0.031 A 
ATOM      4  C4  IND d   1      -5.993   3.914  -3.036  0.00  0.00     0.051 A 
ATOM      5  C5  IND d   1      -5.423   2.721  -2.689  0.00  0.00    -0.031 A 
ATOM      6  C6  IND d   1      -4.419   2.147  -3.442  0.00  0.00     0.015 A 
ATOM      7  C7  IND d   1      -3.937   2.753  -4.567  0.00  0.00    -0.016 A 
ATOM      8  C8  IND d   1      -4.518   3.961  -4.926  0.00  0.00    -0.047 A 
ATOM      9  C9  IND d   1      -5.567   4.527  -4.190  0.00  0.00    -0.096 A 
ATOM     10  HN1 IND d   1      -3.680   4.664  -6.607  0.00  0.00     0.298 HD
ENDROOT
TORSDOF 0
ENDMDL
