MODEL 1
REMARK minimizedAffinity 12.3720903
REMARK minimizedRMSD -1
REMARK  0 active torsions:
REMARK  status: ('A' for Active; 'I' for Inactive)
ROOT
ATOM      1  N1  IND d   1      -4.887   4.888  -4.989  0.00  0.00    -0.196 N 
ATOM      2  C2  IND d   1      -4.642   5.419  -3.753  0.00  0.00     0.054 A 
ATOM      3  C3  IND d   1      -4.078   4.493  -2.946  0.00  0.00    -0.031 A 
ATOM      4  C4  IND d   1      -3.376   2.073  -3.475  0.00  0.00     0.051 A 
ATOM      5  C5  IND d   1      -3.430   1.126  -4.459  0.00  0.00    -0.031 A 
ATOM      6  C6  IND d   1      -3.981   1.391  -5.696  0.00  0.00     0.015 A 
ATOM      7  C7  IND d   1      -4.491   2.622  -6.000  0.00  0.00    -0.016 A 
ATOM      8  C8  IND d   1      -4.444   3.583  -5.001  0.00  0.00    -0.047 A 
ATOM      9  C9  IND d   1      -3.924   3.308  -3.729  0.00  0.00    -0.096 A 
ATOM     10  HN1 IND d   1      -5.256   5.299  -5.648  0.00  0.00     0.298 HD
ENDROOT
TORSDOF 0
ENDMDL
