MODEL 1
REMARK minimizedAffinity 15.8378143
REMARK minimizedRMSD -1
REMARK  0 active torsions:
REMARK  status: ('A' for Active; 'I' for Inactive)
ROOT
ATOM      1  N1  IND d   1       1.515  -2.194   5.073  0.00  0.00    -0.196 N 
ATOM      2  C2  IND d   1       2.571  -2.280   4.210  0.00  0.00     0.054 A 
ATOM      3  C3  IND d   1       2.548  -1.251   3.334  0.00  0.00    -0.031 A 
ATOM      4  C4  IND d   1       0.927   0.745   3.197  0.00  0.00     0.051 A 
ATOM      5  C5  IND d   1      -0.221   1.240   3.750  0.00  0.00    -0.031 A 
ATOM      6  C6  IND d   1      -0.860   0.604   4.794  0.00  0.00     0.015 A 
ATOM      7  C7  IND d   1      -0.367  -0.549   5.336  0.00  0.00    -0.016 A 
ATOM      8  C8  IND d   1       0.794  -1.059   4.772  0.00  0.00    -0.047 A 
ATOM      9  C9  IND d   1       1.424  -0.441   3.684  0.00  0.00    -0.096 A 
ATOM     10  HN1 IND d   1       1.331  -2.754   5.699  0.00  0.00     0.298 HD
ENDROOT
TORSDOF 0
ENDMDL
