MODEL 1
REMARK minimizedAffinity 8.15974045
REMARK minimizedRMSD -1
REMARK  0 active torsions:
REMARK  status: ('A' for Active; 'I' for Inactive)
ROOT
ATOM      1  N1  IND d   1       4.717  -1.617  -2.352  0.00  0.00    -0.196 N 
ATOM      2  C2  IND d   1       3.401  -1.438  -2.028  0.00  0.00     0.054 A 
ATOM      3  C3  IND d   1       2.608  -2.105  -2.896  0.00  0.00    -0.031 A 
ATOM      4  C4  IND d   1       3.258  -3.636  -4.861  0.00  0.00     0.051 A 
ATOM      5  C5  IND d   1       4.340  -4.078  -5.570  0.00  0.00    -0.031 A 
ATOM      6  C6  IND d   1       5.628  -3.718  -5.234  0.00  0.00     0.015 A 
ATOM      7  C7  IND d   1       5.885  -2.907  -4.164  0.00  0.00    -0.016 A 
ATOM      8  C8  IND d   1       4.789  -2.450  -3.447  0.00  0.00    -0.047 A 
ATOM      9  C9  IND d   1       3.476  -2.778  -3.809  0.00  0.00    -0.096 A 
ATOM     10  HN1 IND d   1       5.387  -1.268  -1.941  0.00  0.00     0.298 HD
ENDROOT
TORSDOF 0
ENDMDL
