MODEL 1
REMARK minimizedAffinity 21.7964153
REMARK minimizedRMSD -1
REMARK  0 active torsions:
REMARK  status: ('A' for Active; 'I' for Inactive)
ROOT
ATOM      1  N1  IND d   1      -0.394   1.115  -0.609  0.00  0.00    -0.196 N 
ATOM      2  C2  IND d   1       0.069   1.181   0.675  0.00  0.00     0.054 A 
ATOM      3  C3  IND d   1       0.341   2.462   1.011  0.00  0.00    -0.031 A 
ATOM      4  C4  IND d   1       0.005   4.618  -0.355  0.00  0.00     0.051 A 
ATOM      5  C5  IND d   1      -0.358   5.062  -1.596  0.00  0.00    -0.031 A 
ATOM      6  C6  IND d   1      -0.763   4.195  -2.590  0.00  0.00     0.015 A 
ATOM      7  C7  IND d   1      -0.831   2.847  -2.376  0.00  0.00    -0.016 A 
ATOM      8  C8  IND d   1      -0.456   2.393  -1.120  0.00  0.00    -0.047 A 
ATOM      9  C9  IND d   1      -0.003   3.263  -0.120  0.00  0.00    -0.096 A 
ATOM     10  HN1 IND d   1      -0.611   0.396  -1.028  0.00  0.00     0.298 HD
ENDROOT
TORSDOF 0
ENDMDL
