MODEL 1
REMARK minimizedAffinity 2.38170004
REMARK minimizedRMSD -1
REMARK  0 active torsions:
REMARK  status: ('A' for Active; 'I' for Inactive)
ROOT
ATOM      1  N1  IND d   1      -2.355   4.592  -2.933  0.00  0.00    -0.196 N 
ATOM      2  C2  IND d   1      -2.214   5.588  -3.859  0.00  0.00     0.054 A 
ATOM      3  C3  IND d   1      -0.927   5.998  -3.916  0.00  0.00    -0.031 A 
ATOM      4  C4  IND d   1       1.132   5.107  -2.653  0.00  0.00     0.051 A 
ATOM      5  C5  IND d   1       1.496   4.226  -1.673  0.00  0.00    -0.031 A 
ATOM      6  C6  IND d   1       0.578   3.404  -1.053  0.00  0.00     0.015 A 
ATOM      7  C7  IND d   1      -0.744   3.424  -1.399  0.00  0.00    -0.016 A 
ATOM      8  C8  IND d   1      -1.119   4.322  -2.388  0.00  0.00    -0.047 A 
ATOM      9  C9  IND d   1      -0.199   5.189  -2.991  0.00  0.00    -0.096 A 
ATOM     10  HN1 IND d   1      -3.092   4.200  -2.726  0.00  0.00     0.298 HD
ENDROOT
TORSDOF 0
ENDMDL
