MODEL 1
REMARK minimizedAffinity -1.52734756
REMARK minimizedRMSD -1
REMARK  0 active torsions:
REMARK  status: ('A' for Active; 'I' for Inactive)
ROOT
ATOM      1  N1  IND d   1       1.218   2.835   0.346  0.00  0.00    -0.196 N 
ATOM      2  C2  IND d   1       0.241   3.463  -0.374  0.00  0.00     0.054 A 
ATOM      3  C3  IND d   1      -0.979   3.167   0.129  0.00  0.00    -0.031 A 
ATOM      4  C4  IND d   1      -1.599   1.755   2.190  0.00  0.00     0.051 A 
ATOM      5  C5  IND d   1      -1.051   0.949   3.148  0.00  0.00    -0.031 A 
ATOM      6  C6  IND d   1       0.309   0.727   3.224  0.00  0.00     0.015 A 
ATOM      7  C7  IND d   1       1.176   1.316   2.348  0.00  0.00    -0.016 A 
ATOM      8  C8  IND d   1       0.623   2.130   1.370  0.00  0.00    -0.047 A 
ATOM      9  C9  IND d   1      -0.760   2.325   1.261  0.00  0.00    -0.096 A 
ATOM     10  HN1 IND d   1       2.062   2.873   0.187  0.00  0.00     0.298 HD
ENDROOT
TORSDOF 0
ENDMDL
