MODEL 1
REMARK minimizedAffinity 8.6862402
REMARK minimizedRMSD -1
REMARK  0 active torsions:
REMARK  status: ('A' for Active; 'I' for Inactive)
ROOT
ATOM      1  N1  IND d   1       2.328  -0.872  -4.230  0.00  0.00    -0.196 N 
ATOM      2  C2  IND d   1       1.734  -0.957  -3.002  0.00  0.00     0.054 A 
ATOM      3  C3  IND d   1       2.583  -1.506  -2.105  0.00  0.00    -0.031 A 
ATOM      4  C4  IND d   1       5.031  -2.243  -2.410  0.00  0.00     0.051 A 
ATOM      5  C5  IND d   1       6.000  -2.394  -3.362  0.00  0.00    -0.031 A 
ATOM      6  C6  IND d   1       5.791  -2.036  -4.678  0.00  0.00     0.015 A 
ATOM      7  C7  IND d   1       4.604  -1.500  -5.090  0.00  0.00    -0.016 A 
ATOM      8  C8  IND d   1       3.615  -1.352  -4.128  0.00  0.00    -0.047 A 
ATOM      9  C9  IND d   1       3.807  -1.753  -2.800  0.00  0.00    -0.096 A 
ATOM     10  HN1 IND d   1       1.960  -0.570  -4.946  0.00  0.00     0.298 HD
ENDROOT
TORSDOF 0
ENDMDL
