MODEL 1
REMARK minimizedAffinity -2.60756445
REMARK minimizedRMSD -1
REMARK  0 active torsions:
REMARK  status: ('A' for Active; 'I' for Inactive)
ROOT
ATOM      1  N1  IND d   1       0.444   1.467   3.564  0.00  0.00    -0.196 N 
ATOM      2  C2  IND d   1       0.909   0.298   4.101  0.00  0.00     0.054 A 
ATOM      3  C3  IND d   1       1.373  -0.515   3.126  0.00  0.00    -0.031 A 
ATOM      4  C4  IND d   1       1.562  -0.092   0.594  0.00  0.00     0.051 A 
ATOM      5  C5  IND d   1       1.235   0.816  -0.373  0.00  0.00    -0.031 A 
ATOM      6  C6  IND d   1       0.617   2.013  -0.072  0.00  0.00     0.015 A 
ATOM      7  C7  IND d   1       0.313   2.352   1.216  0.00  0.00    -0.016 A 
ATOM      8  C8  IND d   1       0.638   1.430   2.201  0.00  0.00    -0.047 A 
ATOM      9  C9  IND d   1       1.226   0.195   1.896  0.00  0.00    -0.096 A 
ATOM     10  HN1 IND d   1       0.091   2.115   4.004  0.00  0.00     0.298 HD
ENDROOT
TORSDOF 0
ENDMDL
