MODEL 1
REMARK minimizedAffinity -5.75503492
REMARK minimizedRMSD -1
REMARK  0 active torsions:
REMARK  status: ('A' for Active; 'I' for Inactive)
ROOT
ATOM      1  N1  IND d   1       0.093   1.965   0.993  0.00  0.00    -0.196 N 
ATOM      2  C2  IND d   1       0.336   1.261   2.140  0.00  0.00     0.054 A 
ATOM      3  C3  IND d   1       0.947   0.089   1.852  0.00  0.00    -0.031 A 
ATOM      4  C4  IND d   1       1.731  -0.831  -0.421  0.00  0.00     0.051 A 
ATOM      5  C5  IND d   1       1.699  -0.563  -1.761  0.00  0.00    -0.031 A 
ATOM      6  C6  IND d   1       1.119   0.585  -2.261  0.00  0.00     0.015 A 
ATOM      7  C7  IND d   1       0.559   1.518  -1.435  0.00  0.00    -0.016 A 
ATOM      8  C8  IND d   1       0.585   1.247  -0.075  0.00  0.00    -0.047 A 
ATOM      9  C9  IND d   1       1.133   0.063   0.436  0.00  0.00    -0.096 A 
ATOM     10  HN1 IND d   1      -0.301   2.727   0.947  0.00  0.00     0.298 HD
ENDROOT
TORSDOF 0
ENDMDL
