MODEL 1
REMARK minimizedAffinity -4.38273668
REMARK minimizedRMSD -1
REMARK  0 active torsions:
REMARK  status: ('A' for Active; 'I' for Inactive)
ROOT
ATOM      1  C   UNL d   1      -0.999   1.361   2.279  0.00  0.00     0.020 A 
ATOM      2  C1  UNL d   1       0.343   1.462   1.915  0.00  0.00     0.020 A 
ATOM      3  C2  UNL d   1       0.825   0.739   0.822  0.00  0.00     0.034 A 
ATOM      4  C3  UNL d   1      -0.034  -0.088   0.090  0.00  0.00     0.017 A 
ATOM      5  C4  UNL d   1      -1.381  -0.189   0.457  0.00  0.00     0.017 A 
ATOM      6  C5  UNL d   1      -1.859   0.538   1.552  0.00  0.00     0.034 A 
ATOM      7 Cl   UNL d   1      -2.503  -1.188  -0.398  0.00  0.00    -0.070 Cl
ATOM      8 Cl1  UNL d   1       0.631  -0.954  -1.250  0.00  0.00    -0.070 Cl
ENDROOT
TORSDOF 0
ENDMDL
