MODEL 1
REMARK minimizedAffinity -2.74111128
REMARK minimizedRMSD -1
REMARK  0 active torsions:
REMARK  status: ('A' for Active; 'I' for Inactive)
ROOT
ATOM      1  C   UNL d   1      -0.761   0.159  -0.994  0.00  0.00     0.020 A 
ATOM      2  C1  UNL d   1       0.514  -0.393  -1.119  0.00  0.00     0.020 A 
ATOM      3  C2  UNL d   1       1.403  -0.347  -0.043  0.00  0.00     0.034 A 
ATOM      4  C3  UNL d   1       1.019   0.253   1.162  0.00  0.00     0.017 A 
ATOM      5  C4  UNL d   1      -0.261   0.806   1.287  0.00  0.00     0.017 A 
ATOM      6  C5  UNL d   1      -1.147   0.757   0.206  0.00  0.00     0.034 A 
ATOM      7 Cl   UNL d   1      -0.806   1.562   2.742  0.00  0.00    -0.070 Cl
ATOM      8 Cl1  UNL d   1       2.170   0.274   2.451  0.00  0.00    -0.070 Cl
ENDROOT
TORSDOF 0
ENDMDL
