MODEL 1
REMARK minimizedAffinity -4.78213549
REMARK minimizedRMSD -1
REMARK  0 active torsions:
REMARK  status: ('A' for Active; 'I' for Inactive)
ROOT
ATOM      1  C   UNL d   1       0.735   1.136   2.478  0.00  0.00     0.020 A 
ATOM      2  C1  UNL d   1      -0.608   1.474   2.644  0.00  0.00     0.020 A 
ATOM      3  C2  UNL d   1      -1.534   1.167   1.645  0.00  0.00     0.034 A 
ATOM      4  C3  UNL d   1      -1.119   0.520   0.475  0.00  0.00     0.017 A 
ATOM      5  C4  UNL d   1       0.229   0.181   0.309  0.00  0.00     0.017 A 
ATOM      6  C5  UNL d   1       1.152   0.491   1.313  0.00  0.00     0.034 A 
ATOM      7 Cl   UNL d   1       0.817  -0.618  -1.106  0.00  0.00    -0.070 Cl
ATOM      8 Cl1  UNL d   1      -2.318   0.171  -0.719  0.00  0.00    -0.070 Cl
ENDROOT
TORSDOF 0
ENDMDL
