MODEL 1
REMARK minimizedAffinity 1.36992359
REMARK minimizedRMSD -1
REMARK  0 active torsions:
REMARK  status: ('A' for Active; 'I' for Inactive)
ROOT
ATOM      1  C   UNL d   1       1.878   1.492  -2.044  0.00  0.00     0.020 A 
ATOM      2  C1  UNL d   1       0.592   1.013  -1.793  0.00  0.00     0.020 A 
ATOM      3  C2  UNL d   1      -0.202   0.559  -2.848  0.00  0.00     0.034 A 
ATOM      4  C3  UNL d   1       0.288   0.583  -4.159  0.00  0.00     0.017 A 
ATOM      5  C4  UNL d   1       1.579   1.063  -4.410  0.00  0.00     0.017 A 
ATOM      6  C5  UNL d   1       2.370   1.516  -3.349  0.00  0.00     0.034 A 
ATOM      7 Cl   UNL d   1       2.253   1.123  -6.000  0.00  0.00    -0.070 Cl
ATOM      8 Cl1  UNL d   1      -0.748   0.006  -5.415  0.00  0.00    -0.070 Cl
ENDROOT
TORSDOF 0
ENDMDL
