MODEL 1
REMARK minimizedAffinity -3.14157629
REMARK minimizedRMSD -1
REMARK  0 active torsions:
REMARK  status: ('A' for Active; 'I' for Inactive)
ROOT
ATOM      1  C   UNL d   1      -1.471  -0.264  -1.017  0.00  0.00     0.020 A 
ATOM      2  C1  UNL d   1      -0.212  -0.774  -1.330  0.00  0.00     0.020 A 
ATOM      3  C2  UNL d   1       0.831  -0.673  -0.406  0.00  0.00     0.034 A 
ATOM      4  C3  UNL d   1       0.617  -0.061   0.834  0.00  0.00     0.017 A 
ATOM      5  C4  UNL d   1      -0.648   0.451   1.147  0.00  0.00     0.017 A 
ATOM      6  C5  UNL d   1      -1.689   0.347   0.219  0.00  0.00     0.034 A 
ATOM      7 Cl   UNL d   1      -0.989   1.220   2.657  0.00  0.00    -0.070 Cl
ATOM      8 Cl1  UNL d   1       1.952   0.028   1.927  0.00  0.00    -0.070 Cl
ENDROOT
TORSDOF 0
ENDMDL
