MODEL 1
REMARK minimizedAffinity -1.97648168
REMARK minimizedRMSD -1
REMARK  0 active torsions:
REMARK  status: ('A' for Active; 'I' for Inactive)
ROOT
ATOM      1  C   UNL d   1       0.565   0.749   2.258  0.00  0.00     0.020 A 
ATOM      2  C1  UNL d   1      -0.790   0.978   2.496  0.00  0.00     0.020 A 
ATOM      3  C2  UNL d   1      -1.737   0.619   1.534  0.00  0.00     0.034 A 
ATOM      4  C3  UNL d   1      -1.331   0.031   0.331  0.00  0.00     0.017 A 
ATOM      5  C4  UNL d   1       0.029  -0.198   0.094  0.00  0.00     0.017 A 
ATOM      6  C5  UNL d   1       0.973   0.162   1.060  0.00  0.00     0.034 A 
ATOM      7 Cl   UNL d   1       0.606  -0.920  -1.367  0.00  0.00    -0.070 Cl
ATOM      8 Cl1  UNL d   1      -2.557  -0.387  -0.813  0.00  0.00    -0.070 Cl
ENDROOT
TORSDOF 0
ENDMDL
