MODEL 1
REMARK minimizedAffinity -2.6802814
REMARK minimizedRMSD -1
REMARK  0 active torsions:
REMARK  status: ('A' for Active; 'I' for Inactive)
ROOT
ATOM      1  C   UNL d   1      -2.347   0.754   0.585  0.00  0.00     0.020 A 
ATOM      2  C1  UNL d   1      -1.785   0.938   1.847  0.00  0.00     0.020 A 
ATOM      3  C2  UNL d   1      -0.436   0.645   2.060  0.00  0.00     0.034 A 
ATOM      4  C3  UNL d   1       0.354   0.166   1.009  0.00  0.00     0.017 A 
ATOM      5  C4  UNL d   1      -0.212  -0.019  -0.258  0.00  0.00     0.017 A 
ATOM      6  C5  UNL d   1      -1.563   0.277  -0.465  0.00  0.00     0.034 A 
ATOM      7 Cl   UNL d   1       0.700  -0.606  -1.604  0.00  0.00    -0.070 Cl
ATOM      8 Cl1  UNL d   1       2.015  -0.177   1.343  0.00  0.00    -0.070 Cl
ENDROOT
TORSDOF 0
ENDMDL
