MODEL 1
REMARK minimizedAffinity -4.00953341
REMARK minimizedRMSD -1
REMARK  0 active torsions:
REMARK  status: ('A' for Active; 'I' for Inactive)
ROOT
ATOM      1  C   UNL d   1       0.119   0.228   1.828  0.00  0.00     0.020 A 
ATOM      2  C1  UNL d   1      -1.206   0.239   2.264  0.00  0.00     0.020 A 
ATOM      3  C2  UNL d   1      -2.221  -0.220   1.422  0.00  0.00     0.034 A 
ATOM      4  C3  UNL d   1      -1.915  -0.690   0.140  0.00  0.00     0.017 A 
ATOM      5  C4  UNL d   1      -0.585  -0.701  -0.296  0.00  0.00     0.017 A 
ATOM      6  C5  UNL d   1       0.428  -0.241   0.551  0.00  0.00     0.034 A 
ATOM      7 Cl   UNL d   1      -0.128  -1.267  -1.864  0.00  0.00    -0.070 Cl
ATOM      8 Cl1  UNL d   1      -3.221  -1.242  -0.847  0.00  0.00    -0.070 Cl
ENDROOT
TORSDOF 0
ENDMDL
