MODEL 1
REMARK minimizedAffinity -5.38599348
REMARK minimizedRMSD -1
REMARK  0 active torsions:
REMARK  status: ('A' for Active; 'I' for Inactive)
ROOT
ATOM      1  C   UNL d   1       1.008   0.659   2.909  0.00  0.00     0.020 A 
ATOM      2  C1  UNL d   1      -0.192   1.352   3.061  0.00  0.00     0.020 A 
ATOM      3  C2  UNL d   1      -1.182   1.257   2.080  0.00  0.00     0.034 A 
ATOM      4  C3  UNL d   1      -0.972   0.469   0.943  0.00  0.00     0.017 A 
ATOM      5  C4  UNL d   1       0.233  -0.225   0.791  0.00  0.00     0.017 A 
ATOM      6  C5  UNL d   1       1.221  -0.128   1.776  0.00  0.00     0.034 A 
ATOM      7 Cl   UNL d   1       0.564  -1.218  -0.585  0.00  0.00    -0.070 Cl
ATOM      8 Cl1  UNL d   1      -2.240   0.398  -0.230  0.00  0.00    -0.070 Cl
ENDROOT
TORSDOF 0
ENDMDL
