MODEL 1
REMARK minimizedAffinity -4.18363237
REMARK minimizedRMSD -1
REMARK  0 active torsions:
REMARK  status: ('A' for Active; 'I' for Inactive)
ROOT
ATOM      1  C1  BNZ d   1       0.334  -3.414  -1.788  0.00  0.00     0.000 A 
ATOM      2  C2  BNZ d   1       1.055  -3.783  -0.684  0.00  0.00     0.000 A 
ATOM      3  C3  BNZ d   1       2.234  -3.163  -0.378  0.00  0.00     0.000 A 
ATOM      4  C4  BNZ d   1       2.709  -2.203  -1.197  0.00  0.00     0.000 A 
ATOM      5  C5  BNZ d   1       1.999  -1.825  -2.319  0.00  0.00     0.000 A 
ATOM      6  C6  BNZ d   1       0.793  -2.425  -2.602  0.00  0.00     0.000 A 
ENDROOT
TORSDOF 0
ENDMDL
