MODEL 1
REMARK minimizedAffinity 2.81544614
REMARK minimizedRMSD -1
REMARK  0 active torsions:
REMARK  status: ('A' for Active; 'I' for Inactive)
ROOT
ATOM      1  C1  BNZ d   1       4.910  -5.997  -2.953  0.00  0.00     0.000 A 
ATOM      2  C2  BNZ d   1       4.517  -5.055  -3.865  0.00  0.00     0.000 A 
ATOM      3  C3  BNZ d   1       3.769  -3.977  -3.481  0.00  0.00     0.000 A 
ATOM      4  C4  BNZ d   1       3.382  -3.864  -2.194  0.00  0.00     0.000 A 
ATOM      5  C5  BNZ d   1       3.763  -4.811  -1.263  0.00  0.00     0.000 A 
ATOM      6  C6  BNZ d   1       4.548  -5.874  -1.647  0.00  0.00     0.000 A 
ENDROOT
TORSDOF 0
ENDMDL
