MODEL 1
REMARK minimizedAffinity 2.55937743
REMARK minimizedRMSD -1
REMARK  0 active torsions:
REMARK  status: ('A' for Active; 'I' for Inactive)
ROOT
ATOM      1  C1  BNZ d   1       4.549  -2.419  -3.168  0.00  0.00     0.000 A 
ATOM      2  C2  BNZ d   1       3.535  -2.121  -2.297  0.00  0.00     0.000 A 
ATOM      3  C3  BNZ d   1       3.750  -2.123  -0.947  0.00  0.00     0.000 A 
ATOM      4  C4  BNZ d   1       4.965  -2.461  -0.469  0.00  0.00     0.000 A 
ATOM      5  C5  BNZ d   1       5.994  -2.773  -1.334  0.00  0.00     0.000 A 
ATOM      6  C6  BNZ d   1       5.786  -2.732  -2.693  0.00  0.00     0.000 A 
ENDROOT
TORSDOF 0
ENDMDL
