MODEL 1
REMARK minimizedAffinity -2.20015287
REMARK minimizedRMSD -1
REMARK  0 active torsions:
REMARK  status: ('A' for Active; 'I' for Inactive)
ROOT
ATOM      1  C1  BNZ d   1       5.646  -4.803  -2.358  0.00  0.00     0.000 A 
ATOM      2  C2  BNZ d   1       5.486  -3.579  -2.949  0.00  0.00     0.000 A 
ATOM      3  C3  BNZ d   1       4.248  -3.009  -3.055  0.00  0.00     0.000 A 
ATOM      4  C4  BNZ d   1       3.168  -3.682  -2.607  0.00  0.00     0.000 A 
ATOM      5  C5  BNZ d   1       3.312  -4.922  -2.017  0.00  0.00     0.000 A 
ATOM      6  C6  BNZ d   1       4.564  -5.474  -1.876  0.00  0.00     0.000 A 
ENDROOT
TORSDOF 0
ENDMDL
