MODEL 1
REMARK minimizedAffinity 3.29295778
REMARK minimizedRMSD -1
REMARK  0 active torsions:
REMARK  status: ('A' for Active; 'I' for Inactive)
ROOT
ATOM      1  C1  BNZ d   1       5.375  -3.331  -2.958  0.00  0.00     0.000 A 
ATOM      2  C2  BNZ d   1       5.492  -3.435  -1.598  0.00  0.00     0.000 A 
ATOM      3  C3  BNZ d   1       4.732  -2.658  -0.769  0.00  0.00     0.000 A 
ATOM      4  C4  BNZ d   1       3.887  -1.751  -1.300  0.00  0.00     0.000 A 
ATOM      5  C5  BNZ d   1       3.764  -1.628  -2.670  0.00  0.00     0.000 A 
ATOM      6  C6  BNZ d   1       4.502  -2.439  -3.501  0.00  0.00     0.000 A 
ENDROOT
TORSDOF 0
ENDMDL
