MODEL 1
REMARK minimizedAffinity 3.09035516
REMARK minimizedRMSD -1
REMARK  0 active torsions:
REMARK  status: ('A' for Active; 'I' for Inactive)
ROOT
ATOM      1  C1  BNZ d   1       3.652  -2.685  -0.626  0.00  0.00     0.000 A 
ATOM      2  C2  BNZ d   1       4.266  -2.130  -1.717  0.00  0.00     0.000 A 
ATOM      3  C3  BNZ d   1       4.246  -2.762  -2.929  0.00  0.00     0.000 A 
ATOM      4  C4  BNZ d   1       3.647  -3.966  -3.039  0.00  0.00     0.000 A 
ATOM      5  C5  BNZ d   1       3.032  -4.543  -1.946  0.00  0.00     0.000 A 
ATOM      6  C6  BNZ d   1       3.021  -3.885  -0.737  0.00  0.00     0.000 A 
ENDROOT
TORSDOF 0
ENDMDL
