MODEL 1
REMARK minimizedAffinity -4.1184001
REMARK minimizedRMSD -1
REMARK  0 active torsions:
REMARK  status: ('A' for Active; 'I' for Inactive)
ROOT
ATOM      1  C1  BNZ d   1       4.912  -5.065  -1.746  0.00  0.00     0.000 A 
ATOM      2  C2  BNZ d   1       4.998  -4.008  -0.880  0.00  0.00     0.000 A 
ATOM      3  C3  BNZ d   1       4.652  -2.747  -1.278  0.00  0.00     0.000 A 
ATOM      4  C4  BNZ d   1       4.259  -2.538  -2.551  0.00  0.00     0.000 A 
ATOM      5  C5  BNZ d   1       4.177  -3.592  -3.439  0.00  0.00     0.000 A 
ATOM      6  C6  BNZ d   1       4.489  -4.866  -3.024  0.00  0.00     0.000 A 
ENDROOT
TORSDOF 0
ENDMDL
