MODEL 1
REMARK minimizedAffinity 1.59975541
REMARK minimizedRMSD -1
REMARK  0 active torsions:
REMARK  status: ('A' for Active; 'I' for Inactive)
ROOT
ATOM      1  C1  BNZ d   1       3.847  -4.473  -1.050  0.00  0.00     0.000 A 
ATOM      2  C2  BNZ d   1       4.354  -3.526  -0.199  0.00  0.00     0.000 A 
ATOM      3  C3  BNZ d   1       4.447  -2.218  -0.584  0.00  0.00     0.000 A 
ATOM      4  C4  BNZ d   1       4.072  -1.865  -1.830  0.00  0.00     0.000 A 
ATOM      5  C5  BNZ d   1       3.568  -2.808  -2.702  0.00  0.00     0.000 A 
ATOM      6  C6  BNZ d   1       3.439  -4.118  -2.299  0.00  0.00     0.000 A 
ENDROOT
TORSDOF 0
ENDMDL
