MODEL 1
REMARK minimizedAffinity 2.18484998
REMARK minimizedRMSD -1
REMARK  0 active torsions:
REMARK  status: ('A' for Active; 'I' for Inactive)
ROOT
ATOM      1  C1  BNZ d   1       3.384  -4.170  -3.027  0.00  0.00     0.000 A 
ATOM      2  C2  BNZ d   1       4.553  -4.365  -3.714  0.00  0.00     0.000 A 
ATOM      3  C3  BNZ d   1       5.484  -5.262  -3.270  0.00  0.00     0.000 A 
ATOM      4  C4  BNZ d   1       5.264  -5.931  -2.120  0.00  0.00     0.000 A 
ATOM      5  C5  BNZ d   1       4.095  -5.738  -1.411  0.00  0.00     0.000 A 
ATOM      6  C6  BNZ d   1       3.143  -4.864  -1.882  0.00  0.00     0.000 A 
ENDROOT
TORSDOF 0
ENDMDL
