MODEL 1
REMARK minimizedAffinity 13.4835691
REMARK minimizedRMSD -1
REMARK  0 active torsions:
REMARK  status: ('A' for Active; 'I' for Inactive)
ROOT
ATOM      1  C   UNL d   1       3.997   2.123   0.173  0.00  0.00    -0.002 A 
ATOM      2  C1  UNL d   1       3.802   2.093  -1.201  0.00  0.00     0.010 A 
ATOM      3  C2  UNL d   1       3.201   0.989  -1.809  0.00  0.00     0.041 A 
ATOM      4  C3  UNL d   1       2.794  -0.094  -1.006  0.00  0.00    -0.075 A 
ATOM      5  S   UNL d   1       2.036  -1.551  -1.531  0.00  0.00     0.015 SA
ATOM      6  C4  UNL d   1       1.952  -2.168   0.056  0.00  0.00     0.022 A 
ATOM      7  C5  UNL d   1       2.485  -1.297   0.976  0.00  0.00     0.026 A 
ATOM      8  C6  UNL d   1       2.979  -0.087   0.380  0.00  0.00    -0.082 A 
ATOM      9  C7  UNL d   1       3.592   1.046   0.966  0.00  0.00     0.045 A 
ENDROOT
TORSDOF 0
ENDMDL
