MODEL 1
REMARK minimizedAffinity 10.5368824
REMARK minimizedRMSD -1
REMARK  0 active torsions:
REMARK  status: ('A' for Active; 'I' for Inactive)
ROOT
ATOM      1  C   UNL d   1      -5.187  -0.000  -3.764  0.00  0.00    -0.002 A 
ATOM      2  C1  UNL d   1      -5.928   1.173  -3.747  0.00  0.00     0.010 A 
ATOM      3  C2  UNL d   1      -6.000   1.951  -2.590  0.00  0.00     0.041 A 
ATOM      4  C3  UNL d   1      -5.306   1.527  -1.439  0.00  0.00    -0.075 A 
ATOM      5  S   UNL d   1      -5.249   2.319   0.091  0.00  0.00     0.015 SA
ATOM      6  C4  UNL d   1      -4.239   1.120   0.758  0.00  0.00     0.022 A 
ATOM      7  C5  UNL d   1      -3.943   0.131  -0.151  0.00  0.00     0.026 A 
ATOM      8  C6  UNL d   1      -4.553   0.350  -1.432  0.00  0.00    -0.082 A 
ATOM      9  C7  UNL d   1      -4.500  -0.418  -2.621  0.00  0.00     0.045 A 
ENDROOT
TORSDOF 0
ENDMDL
