MODEL 1
REMARK minimizedAffinity 8.98584652
REMARK minimizedRMSD -1
REMARK  0 active torsions:
REMARK  status: ('A' for Active; 'I' for Inactive)
ROOT
ATOM      1  C   UNL d   1      -5.164   0.146  -0.745  0.00  0.00    -0.002 A 
ATOM      2  C1  UNL d   1      -3.787   0.043  -0.883  0.00  0.00     0.010 A 
ATOM      3  C2  UNL d   1      -3.187   0.171  -2.137  0.00  0.00     0.041 A 
ATOM      4  C3  UNL d   1      -4.002   0.409  -3.261  0.00  0.00    -0.075 A 
ATOM      5  S   UNL d   1      -3.489   0.602  -4.896  0.00  0.00     0.015 SA
ATOM      6  C4  UNL d   1      -5.085   0.827  -5.450  0.00  0.00     0.022 A 
ATOM      7  C5  UNL d   1      -6.000   0.760  -4.426  0.00  0.00     0.026 A 
ATOM      8  C6  UNL d   1      -5.391   0.519  -3.148  0.00  0.00    -0.082 A 
ATOM      9  C7  UNL d   1      -5.969   0.383  -1.863  0.00  0.00     0.045 A 
ENDROOT
TORSDOF 0
ENDMDL
