MODEL 1
REMARK minimizedAffinity 19.5568829
REMARK minimizedRMSD -1
REMARK  0 active torsions:
REMARK  status: ('A' for Active; 'I' for Inactive)
ROOT
ATOM      1  C   UNL d   1      -4.640   1.603   0.006  0.00  0.00    -0.002 A 
ATOM      2  C1  UNL d   1      -4.815   2.961  -0.219  0.00  0.00     0.010 A 
ATOM      3  C2  UNL d   1      -5.233   3.426  -1.467  0.00  0.00     0.041 A 
ATOM      4  C3  UNL d   1      -5.476   2.495  -2.496  0.00  0.00    -0.075 A 
ATOM      5  S   UNL d   1      -5.996   2.834  -4.104  0.00  0.00     0.015 SA
ATOM      6  C4  UNL d   1      -5.998   1.184  -4.531  0.00  0.00     0.022 A 
ATOM      7  C5  UNL d   1      -5.614   0.380  -3.484  0.00  0.00     0.026 A 
ATOM      8  C6  UNL d   1      -5.308   1.122  -2.293  0.00  0.00    -0.082 A 
ATOM      9  C7  UNL d   1      -4.882   0.682  -1.017  0.00  0.00     0.045 A 
ENDROOT
TORSDOF 0
ENDMDL
