MODEL 1
REMARK minimizedAffinity 8.31306553
REMARK minimizedRMSD -1
REMARK  0 active torsions:
REMARK  status: ('A' for Active; 'I' for Inactive)
ROOT
ATOM      1  C   UNL d   1       3.969   2.224  -1.287  0.00  0.00    -0.002 A 
ATOM      2  C1  UNL d   1       4.809   2.057  -0.196  0.00  0.00     0.010 A 
ATOM      3  C2  UNL d   1       4.681   0.942   0.635  0.00  0.00     0.041 A 
ATOM      4  C3  UNL d   1       3.686  -0.012   0.347  0.00  0.00    -0.075 A 
ATOM      5  S   UNL d   1       3.345  -1.457   1.225  0.00  0.00     0.015 SA
ATOM      6  C4  UNL d   1       2.077  -1.887   0.171  0.00  0.00     0.022 A 
ATOM      7  C5  UNL d   1       1.904  -0.962  -0.832  0.00  0.00     0.026 A 
ATOM      8  C6  UNL d   1       2.828   0.133  -0.747  0.00  0.00    -0.082 A 
ATOM      9  C7  UNL d   1       2.983   1.275  -1.570  0.00  0.00     0.045 A 
ENDROOT
TORSDOF 0
ENDMDL
