MODEL 1
REMARK minimizedAffinity 12.6966391
REMARK minimizedRMSD -1
REMARK  0 active torsions:
REMARK  status: ('A' for Active; 'I' for Inactive)
ROOT
ATOM      1  C   UNL d   1      -1.526  -5.999   5.049  0.00  0.00    -0.002 A 
ATOM      2  C1  UNL d   1      -0.504  -6.000   5.988  0.00  0.00     0.010 A 
ATOM      3  C2  UNL d   1       0.454  -4.984   5.997  0.00  0.00     0.041 A 
ATOM      4  C3  UNL d   1       0.365  -3.956   5.038  0.00  0.00    -0.075 A 
ATOM      5  S   UNL d   1       1.425  -2.608   4.859  0.00  0.00     0.015 SA
ATOM      6  C4  UNL d   1       0.546  -1.998   3.532  0.00  0.00     0.022 A 
ATOM      7  C5  UNL d   1      -0.533  -2.791   3.219  0.00  0.00     0.026 A 
ATOM      8  C6  UNL d   1      -0.655  -3.932   4.083  0.00  0.00    -0.082 A 
ATOM      9  C7  UNL d   1      -1.610  -4.977   4.099  0.00  0.00     0.045 A 
ENDROOT
TORSDOF 0
ENDMDL
