MODEL 1
REMARK minimizedAffinity 0.582131803
REMARK minimizedRMSD -1
REMARK  0 active torsions:
REMARK  status: ('A' for Active; 'I' for Inactive)
ROOT
ATOM      1  C   UNL d   1      -1.781   1.905   1.507  0.00  0.00     0.124 A 
ATOM      2  C1  UNL d   1      -0.961   1.050   2.231  0.00  0.00     0.062 A 
ATOM      3  C2  UNL d   1      -0.224   0.067   1.577  0.00  0.00     0.162 A 
ATOM      4  C3  UNL d   1      -0.303  -0.067   0.191  0.00  0.00    -0.034 A 
ATOM      5  C4  UNL d   1      -1.131   0.796  -0.530  0.00  0.00     0.162 A 
ATOM      6  C5  UNL d   1      -1.865   1.777   0.128  0.00  0.00     0.062 A 
ATOM      7  F   UNL d   1      -2.656   2.602  -0.573  0.00  0.00    -0.097 F 
ATOM      8  F1  UNL d   1      -1.230   0.695  -1.864  0.00  0.00    -0.096 F 
ATOM      9  I   UNL d   1       0.797  -1.537  -0.790  0.00  0.00    -0.060 I 
ATOM     10  F2  UNL d   1       0.560  -0.745   2.302  0.00  0.00    -0.096 F 
ATOM     11  F3  UNL d   1      -0.878   1.171   3.564  0.00  0.00    -0.097 F 
ATOM     12  F4  UNL d   1      -2.489   2.850   2.139  0.00  0.00    -0.092 F 
ENDROOT
TORSDOF 0
ENDMDL
