MODEL 1
REMARK minimizedAffinity 1.92544234
REMARK minimizedRMSD -1
REMARK  0 active torsions:
REMARK  status: ('A' for Active; 'I' for Inactive)
ROOT
ATOM      1  C   UNL d   1      -0.818   1.643  -0.933  0.00  0.00     0.124 A 
ATOM      2  C1  UNL d   1       0.243   0.758  -1.066  0.00  0.00     0.062 A 
ATOM      3  C2  UNL d   1       0.640  -0.026   0.013  0.00  0.00     0.162 A 
ATOM      4  C3  UNL d   1      -0.025   0.070   1.236  0.00  0.00    -0.034 A 
ATOM      5  C4  UNL d   1      -1.090   0.963   1.362  0.00  0.00     0.162 A 
ATOM      6  C5  UNL d   1      -1.483   1.745   0.281  0.00  0.00     0.062 A 
ATOM      7  F   UNL d   1      -2.509   2.599   0.412  0.00  0.00    -0.097 F 
ATOM      8  F1  UNL d   1      -1.752   1.081   2.523  0.00  0.00    -0.096 F 
ATOM      9  I   UNL d   1       0.566  -1.101   2.852  0.00  0.00    -0.060 I 
ATOM     10  F2  UNL d   1       1.669  -0.873  -0.144  0.00  0.00    -0.096 F 
ATOM     11  F3  UNL d   1       0.889   0.659  -2.237  0.00  0.00    -0.097 F 
ATOM     12  F4  UNL d   1      -1.197   2.398  -1.972  0.00  0.00    -0.092 F 
ENDROOT
TORSDOF 0
ENDMDL
