MODEL 1
REMARK minimizedAffinity -2.35248041
REMARK minimizedRMSD -1
REMARK  0 active torsions:
REMARK  status: ('A' for Active; 'I' for Inactive)
ROOT
ATOM      1  C   UNL d   1       0.689   0.071   0.022  0.00  0.00     0.124 A 
ATOM      2  C1  UNL d   1       0.538   1.140  -0.850  0.00  0.00     0.062 A 
ATOM      3  C2  UNL d   1      -0.343   2.173  -0.545  0.00  0.00     0.162 A 
ATOM      4  C3  UNL d   1      -1.079   2.143   0.640  0.00  0.00    -0.034 A 
ATOM      5  C4  UNL d   1      -0.923   1.064   1.511  0.00  0.00     0.162 A 
ATOM      6  C5  UNL d   1      -0.041   0.034   1.201  0.00  0.00     0.062 A 
ATOM      7  F   UNL d   1       0.103  -0.999   2.045  0.00  0.00    -0.097 F 
ATOM      8  F1  UNL d   1      -1.616   1.003   2.658  0.00  0.00    -0.096 F 
ATOM      9  I   UNL d   1      -2.397   3.687   1.100  0.00  0.00    -0.060 I 
ATOM     10  F2  UNL d   1      -0.468   3.194  -1.406  0.00  0.00    -0.096 F 
ATOM     11  F3  UNL d   1       1.242   1.178  -1.991  0.00  0.00    -0.097 F 
ATOM     12  F4  UNL d   1       1.537  -0.923  -0.275  0.00  0.00    -0.092 F 
ENDROOT
TORSDOF 0
ENDMDL
