MODEL 1
REMARK minimizedAffinity 0.727557182
REMARK minimizedRMSD -1
REMARK  0 active torsions:
REMARK  status: ('A' for Active; 'I' for Inactive)
ROOT
ATOM      1  C   UNL d   1       0.694  -3.787  -1.381  0.00  0.00     0.124 A 
ATOM      2  C1  UNL d   1       1.365  -2.999  -0.456  0.00  0.00     0.062 A 
ATOM      3  C2  UNL d   1       1.120  -1.631  -0.394  0.00  0.00     0.162 A 
ATOM      4  C3  UNL d   1       0.198  -1.041  -1.259  0.00  0.00    -0.034 A 
ATOM      5  C4  UNL d   1      -0.472  -1.839  -2.187  0.00  0.00     0.162 A 
ATOM      6  C5  UNL d   1      -0.224  -3.207  -2.245  0.00  0.00     0.062 A 
ATOM      7  F   UNL d   1      -0.874  -3.967  -3.139  0.00  0.00    -0.097 F 
ATOM      8  F1  UNL d   1      -1.365  -1.305  -3.033  0.00  0.00    -0.096 F 
ATOM      9  I   UNL d   1      -0.171   1.006  -1.169  0.00  0.00    -0.060 I 
ATOM     10  F2  UNL d   1       1.783  -0.893   0.509  0.00  0.00    -0.096 F 
ATOM     11  F3  UNL d   1       2.253  -3.558   0.379  0.00  0.00    -0.097 F 
ATOM     12  F4  UNL d   1       0.932  -5.104  -1.439  0.00  0.00    -0.092 F 
ENDROOT
TORSDOF 0
ENDMDL
