MODEL 1
REMARK minimizedAffinity -2.53956819
REMARK minimizedRMSD -1
REMARK  0 active torsions:
REMARK  status: ('A' for Active; 'I' for Inactive)
ROOT
ATOM      1  C   UNL d   1      -0.830   1.578   0.454  0.00  0.00     0.124 A 
ATOM      2  C1  UNL d   1      -0.387   1.475  -0.858  0.00  0.00     0.062 A 
ATOM      3  C2  UNL d   1       0.319   0.350  -1.272  0.00  0.00     0.162 A 
ATOM      4  C3  UNL d   1       0.586  -0.684  -0.374  0.00  0.00    -0.034 A 
ATOM      5  C4  UNL d   1       0.138  -0.573   0.944  0.00  0.00     0.162 A 
ATOM      6  C5  UNL d   1      -0.567   0.554   1.353  0.00  0.00     0.062 A 
ATOM      7  F   UNL d   1      -0.994   0.652   2.621  0.00  0.00    -0.097 F 
ATOM      8  F1  UNL d   1       0.377  -1.548   1.834  0.00  0.00    -0.096 F 
ATOM      9  I   UNL d   1       1.641  -2.369  -0.989  0.00  0.00    -0.060 I 
ATOM     10  F2  UNL d   1       0.735   0.277  -2.545  0.00  0.00    -0.096 F 
ATOM     11  F3  UNL d   1      -0.639   2.463  -1.728  0.00  0.00    -0.097 F 
ATOM     12  F4  UNL d   1      -1.508   2.663   0.850  0.00  0.00    -0.092 F 
ENDROOT
TORSDOF 0
ENDMDL
