MODEL 1
REMARK minimizedAffinity -2.63402486
REMARK minimizedRMSD -1
REMARK  0 active torsions:
REMARK  status: ('A' for Active; 'I' for Inactive)
ROOT
ATOM      1  C   UNL d   1      -1.314   1.694   0.883  0.00  0.00     0.124 A 
ATOM      2  C1  UNL d   1      -1.305   0.598   1.735  0.00  0.00     0.062 A 
ATOM      3  C2  UNL d   1      -0.635  -0.566   1.370  0.00  0.00     0.162 A 
ATOM      4  C3  UNL d   1       0.033  -0.640   0.148  0.00  0.00    -0.034 A 
ATOM      5  C4  UNL d   1       0.020   0.466  -0.703  0.00  0.00     0.162 A 
ATOM      6  C5  UNL d   1      -0.651   1.628  -0.334  0.00  0.00     0.062 A 
ATOM      7  F   UNL d   1      -0.658   2.686  -1.158  0.00  0.00    -0.097 F 
ATOM      8  F1  UNL d   1       0.652   0.430  -1.885  0.00  0.00    -0.096 F 
ATOM      9  I   UNL d   1       1.037  -2.379  -0.401  0.00  0.00    -0.060 I 
ATOM     10  F2  UNL d   1      -0.644  -1.610   2.212  0.00  0.00    -0.096 F 
ATOM     11  F3  UNL d   1      -1.945   0.660   2.911  0.00  0.00    -0.097 F 
ATOM     12  F4  UNL d   1      -1.960   2.813   1.236  0.00  0.00    -0.092 F 
ENDROOT
TORSDOF 0
ENDMDL
