MODEL 1
REMARK minimizedAffinity 0.510810733
REMARK minimizedRMSD -1
REMARK  0 active torsions:
REMARK  status: ('A' for Active; 'I' for Inactive)
ROOT
ATOM      1  C   UNL d   1       0.972  -0.373   0.315  0.00  0.00     0.124 A 
ATOM      2  C1  UNL d   1       0.243  -0.483   1.491  0.00  0.00     0.062 A 
ATOM      3  C2  UNL d   1      -0.795   0.405   1.757  0.00  0.00     0.162 A 
ATOM      4  C3  UNL d   1      -1.112   1.411   0.844  0.00  0.00    -0.034 A 
ATOM      5  C4  UNL d   1      -0.374   1.516  -0.336  0.00  0.00     0.162 A 
ATOM      6  C5  UNL d   1       0.663   0.626  -0.597  0.00  0.00     0.062 A 
ATOM      7  F   UNL d   1       1.365   0.733  -1.734  0.00  0.00    -0.097 F 
ATOM      8  F1  UNL d   1      -0.652   2.471  -1.236  0.00  0.00    -0.096 F 
ATOM      9  I   UNL d   1      -2.664   2.741   1.238  0.00  0.00    -0.060 I 
ATOM     10  F2  UNL d   1      -1.482   0.276   2.902  0.00  0.00    -0.096 F 
ATOM     11  F3  UNL d   1       0.540  -1.446   2.375  0.00  0.00    -0.097 F 
ATOM     12  F4  UNL d   1       1.971  -1.228   0.062  0.00  0.00    -0.092 F 
ENDROOT
TORSDOF 0
ENDMDL
