MODEL 1
REMARK minimizedAffinity -0.584093928
REMARK minimizedRMSD -1
REMARK  0 active torsions:
REMARK  status: ('A' for Active; 'I' for Inactive)
ROOT
ATOM      1  C   UNL d   1      -1.137   1.495   0.803  0.00  0.00     0.124 A 
ATOM      2  C1  UNL d   1      -0.905   0.436   1.670  0.00  0.00     0.062 A 
ATOM      3  C2  UNL d   1      -0.115  -0.637   1.270  0.00  0.00     0.162 A 
ATOM      4  C3  UNL d   1       0.452  -0.656  -0.005  0.00  0.00    -0.034 A 
ATOM      5  C4  UNL d   1       0.215   0.412  -0.872  0.00  0.00     0.162 A 
ATOM      6  C5  UNL d   1      -0.577   1.482  -0.467  0.00  0.00     0.062 A 
ATOM      7  F   UNL d   1      -0.799   2.504  -1.306  0.00  0.00    -0.097 F 
ATOM      8  F1  UNL d   1       0.744   0.425  -2.104  0.00  0.00    -0.096 F 
ATOM      9  I   UNL d   1       1.636  -2.259  -0.607  0.00  0.00    -0.060 I 
ATOM     10  F2  UNL d   1       0.092  -1.646   2.129  0.00  0.00    -0.096 F 
ATOM     11  F3  UNL d   1      -1.446   0.446   2.897  0.00  0.00    -0.097 F 
ATOM     12  F4  UNL d   1      -1.899   2.526   1.190  0.00  0.00    -0.092 F 
ENDROOT
TORSDOF 0
ENDMDL
