MODEL 1
REMARK minimizedAffinity 0.134555817
REMARK minimizedRMSD -1
REMARK  0 active torsions:
REMARK  status: ('A' for Active; 'I' for Inactive)
ROOT
ATOM      1  C   UNL d   1      -1.038   1.724   1.021  0.00  0.00     0.124 A 
ATOM      2  C1  UNL d   1      -0.954   0.652   1.899  0.00  0.00     0.062 A 
ATOM      3  C2  UNL d   1      -0.446  -0.569   1.466  0.00  0.00     0.162 A 
ATOM      4  C3  UNL d   1      -0.017  -0.726   0.148  0.00  0.00    -0.034 A 
ATOM      5  C4  UNL d   1      -0.106   0.357  -0.729  0.00  0.00     0.162 A 
ATOM      6  C5  UNL d   1      -0.614   1.575  -0.292  0.00  0.00     0.062 A 
ATOM      7  F   UNL d   1      -0.695   2.609  -1.141  0.00  0.00    -0.097 F 
ATOM      8  F1  UNL d   1       0.298   0.241  -2.003  0.00  0.00    -0.096 F 
ATOM      9  I   UNL d   1       0.743  -2.550  -0.503  0.00  0.00    -0.060 I 
ATOM     10  F2  UNL d   1      -0.377  -1.588   2.336  0.00  0.00    -0.096 F 
ATOM     11  F3  UNL d   1      -1.364   0.793   3.168  0.00  0.00    -0.097 F 
ATOM     12  F4  UNL d   1      -1.529   2.897   1.440  0.00  0.00    -0.092 F 
ENDROOT
TORSDOF 0
ENDMDL
