MODEL 1
REMARK minimizedAffinity -2.28759646
REMARK minimizedRMSD -1
REMARK  0 active torsions:
REMARK  status: ('A' for Active; 'I' for Inactive)
ROOT
ATOM      1  C   UNL d   1      -1.082   2.070   1.515  0.00  0.00     0.124 A 
ATOM      2  C1  UNL d   1      -1.135   2.003   0.130  0.00  0.00     0.062 A 
ATOM      3  C2  UNL d   1      -0.741   0.842  -0.530  0.00  0.00     0.162 A 
ATOM      4  C3  UNL d   1      -0.292  -0.262   0.194  0.00  0.00    -0.034 A 
ATOM      5  C4  UNL d   1      -0.240  -0.186   1.587  0.00  0.00     0.162 A 
ATOM      6  C5  UNL d   1      -0.635   0.976   2.243  0.00  0.00     0.062 A 
ATOM      7  F   UNL d   1      -0.583   1.039   3.581  0.00  0.00    -0.097 F 
ATOM      8  F1  UNL d   1       0.186  -1.229   2.315  0.00  0.00    -0.096 F 
ATOM      9  I   UNL d   1       0.297  -1.999  -0.789  0.00  0.00    -0.060 I 
ATOM     10  F2  UNL d   1      -0.803   0.806  -1.870  0.00  0.00    -0.096 F 
ATOM     11  F3  UNL d   1      -1.565   3.059  -0.575  0.00  0.00    -0.097 F 
ATOM     12  F4  UNL d   1      -1.460   3.188   2.148  0.00  0.00    -0.092 F 
ENDROOT
TORSDOF 0
ENDMDL
