MODEL 1
REMARK minimizedAffinity -3.27463222
REMARK minimizedRMSD -1
REMARK  0 active torsions:
REMARK  status: ('A' for Active; 'I' for Inactive)
ROOT
ATOM      1  C   UNL d   1      -1.347   2.452   0.448  0.00  0.00     0.124 A 
ATOM      2  C1  UNL d   1      -2.018   1.287   0.791  0.00  0.00     0.062 A 
ATOM      3  C2  UNL d   1      -1.515   0.049   0.403  0.00  0.00     0.162 A 
ATOM      4  C3  UNL d   1      -0.333  -0.031  -0.332  0.00  0.00    -0.034 A 
ATOM      5  C4  UNL d   1       0.337   1.145  -0.675  0.00  0.00     0.162 A 
ATOM      6  C5  UNL d   1      -0.170   2.380  -0.284  0.00  0.00     0.062 A 
ATOM      7  F   UNL d   1       0.480   3.505  -0.617  0.00  0.00    -0.097 F 
ATOM      8  F1  UNL d   1       1.477   1.104  -1.381  0.00  0.00    -0.096 F 
ATOM      9  I   UNL d   1       0.423  -1.881  -0.914  0.00  0.00    -0.060 I 
ATOM     10  F2  UNL d   1      -2.185  -1.060   0.749  0.00  0.00    -0.096 F 
ATOM     11  F3  UNL d   1      -3.156   1.355   1.498  0.00  0.00    -0.097 F 
ATOM     12  F4  UNL d   1      -1.833   3.643   0.821  0.00  0.00    -0.092 F 
ENDROOT
TORSDOF 0
ENDMDL
