MODEL 1
REMARK minimizedAffinity 1.62619805
REMARK minimizedRMSD -1
REMARK  0 active torsions:
REMARK  status: ('A' for Active; 'I' for Inactive)
ROOT
ATOM      1  C   UNL d   1       0.343   1.202  -0.424  0.00  0.00     0.124 A 
ATOM      2  C1  UNL d   1      -0.715   0.489   0.122  0.00  0.00     0.062 A 
ATOM      3  C2  UNL d   1      -0.815  -0.884  -0.083  0.00  0.00     0.162 A 
ATOM      4  C3  UNL d   1       0.147  -1.554  -0.838  0.00  0.00    -0.034 A 
ATOM      5  C4  UNL d   1       1.209  -0.831  -1.385  0.00  0.00     0.162 A 
ATOM      6  C5  UNL d   1       1.304   0.541  -1.176  0.00  0.00     0.062 A 
ATOM      7  F   UNL d   1       2.328   1.228  -1.705  0.00  0.00    -0.097 F 
ATOM      8  F1  UNL d   1       2.151  -1.444  -2.115  0.00  0.00    -0.096 F 
ATOM      9  I   UNL d   1       0.001  -3.607  -1.148  0.00  0.00    -0.060 I 
ATOM     10  F2  UNL d   1      -1.849  -1.546   0.456  0.00  0.00    -0.096 F 
ATOM     11  F3  UNL d   1      -1.645   1.125   0.849  0.00  0.00    -0.097 F 
ATOM     12  F4  UNL d   1       0.437   2.523  -0.225  0.00  0.00    -0.092 F 
ENDROOT
TORSDOF 0
ENDMDL
