MODEL 1
REMARK minimizedAffinity -0.477109343
REMARK minimizedRMSD -1
REMARK  0 active torsions:
REMARK  status: ('A' for Active; 'I' for Inactive)
ROOT
ATOM      1  C   UNL d   1       1.478   0.068  -0.664  0.00  0.00     0.124 A 
ATOM      2  C1  UNL d   1       0.867  -0.485   0.453  0.00  0.00     0.062 A 
ATOM      3  C2  UNL d   1      -0.207   0.163   1.056  0.00  0.00     0.162 A 
ATOM      4  C3  UNL d   1      -0.678   1.372   0.543  0.00  0.00    -0.034 A 
ATOM      5  C4  UNL d   1      -0.058   1.922  -0.580  0.00  0.00     0.162 A 
ATOM      6  C5  UNL d   1       1.015   1.270  -1.179  0.00  0.00     0.062 A 
ATOM      7  F   UNL d   1       1.605   1.806  -2.258  0.00  0.00    -0.097 F 
ATOM      8  F1  UNL d   1      -0.485   3.082  -1.100  0.00  0.00    -0.096 F 
ATOM      9  I   UNL d   1      -2.284   2.344   1.441  0.00  0.00    -0.060 I 
ATOM     10  F2  UNL d   1      -0.779  -0.394   2.134  0.00  0.00    -0.096 F 
ATOM     11  F3  UNL d   1       1.312  -1.647   0.953  0.00  0.00    -0.097 F 
ATOM     12  F4  UNL d   1       2.512  -0.558  -1.242  0.00  0.00    -0.092 F 
ENDROOT
TORSDOF 0
ENDMDL
