MODEL 1
REMARK minimizedAffinity -4.45618868
REMARK minimizedRMSD -1
REMARK  0 active torsions:
REMARK  status: ('A' for Active; 'I' for Inactive)
ROOT
ATOM      1  C   UNL d   1      -0.551   0.633   1.439  0.00  0.00     0.124 A 
ATOM      2  C1  UNL d   1       0.454  -0.322   1.371  0.00  0.00     0.062 A 
ATOM      3  C2  UNL d   1       0.577  -1.130   0.245  0.00  0.00     0.162 A 
ATOM      4  C3  UNL d   1      -0.308  -0.987  -0.824  0.00  0.00    -0.034 A 
ATOM      5  C4  UNL d   1      -1.316  -0.025  -0.749  0.00  0.00     0.162 A 
ATOM      6  C5  UNL d   1      -1.435   0.781   0.379  0.00  0.00     0.062 A 
ATOM      7  F   UNL d   1      -2.406   1.703   0.442  0.00  0.00    -0.097 F 
ATOM      8  F1  UNL d   1      -2.184   0.140  -1.759  0.00  0.00    -0.096 F 
ATOM      9  I   UNL d   1      -0.128  -2.194  -2.510  0.00  0.00    -0.060 I 
ATOM     10  F2  UNL d   1       1.557  -2.045   0.207  0.00  0.00    -0.096 F 
ATOM     11  F3  UNL d   1       1.309  -0.467   2.394  0.00  0.00    -0.097 F 
ATOM     12  F4  UNL d   1      -0.667   1.409   2.524  0.00  0.00    -0.092 F 
ENDROOT
TORSDOF 0
ENDMDL
