MODEL 1
REMARK minimizedAffinity 4.83874369
REMARK minimizedRMSD -1
REMARK  0 active torsions:
REMARK  status: ('A' for Active; 'I' for Inactive)
ROOT
ATOM      1  C   UNL d   1       0.069   1.636   2.492  0.00  0.00     0.124 A 
ATOM      2  C1  UNL d   1       0.764   0.567   1.944  0.00  0.00     0.062 A 
ATOM      3  C2  UNL d   1       0.277  -0.080   0.812  0.00  0.00     0.162 A 
ATOM      4  C3  UNL d   1      -0.913   0.342   0.219  0.00  0.00    -0.034 A 
ATOM      5  C4  UNL d   1      -1.607   1.418   0.775  0.00  0.00     0.162 A 
ATOM      6  C5  UNL d   1      -1.116   2.060   1.907  0.00  0.00     0.062 A 
ATOM      7  F   UNL d   1      -1.789   3.093   2.434  0.00  0.00    -0.097 F 
ATOM      8  F1  UNL d   1      -2.754   1.849   0.230  0.00  0.00    -0.096 F 
ATOM      9  I   UNL d   1      -1.645  -0.622  -1.474  0.00  0.00    -0.060 I 
ATOM     10  F2  UNL d   1       0.970  -1.110   0.305  0.00  0.00    -0.096 F 
ATOM     11  F3  UNL d   1       1.909   0.154   2.508  0.00  0.00    -0.097 F 
ATOM     12  F4  UNL d   1       0.540   2.255   3.582  0.00  0.00    -0.092 F 
ENDROOT
TORSDOF 0
ENDMDL
