MODEL 1
REMARK minimizedAffinity -1.00384295
REMARK minimizedRMSD -1
REMARK  0 active torsions:
REMARK  status: ('A' for Active; 'I' for Inactive)
ROOT
ATOM      1  C   UNL d   1      -1.044   1.964   0.214  0.00  0.00     0.124 A 
ATOM      2  C1  UNL d   1      -0.974   0.961   1.171  0.00  0.00     0.062 A 
ATOM      3  C2  UNL d   1      -0.508  -0.305   0.827  0.00  0.00     0.162 A 
ATOM      4  C3  UNL d   1      -0.108  -0.575  -0.482  0.00  0.00    -0.034 A 
ATOM      5  C4  UNL d   1      -0.182   0.438  -1.439  0.00  0.00     0.162 A 
ATOM      6  C5  UNL d   1      -0.648   1.701  -1.090  0.00  0.00     0.062 A 
ATOM      7  F   UNL d   1      -0.714   2.668  -2.017  0.00  0.00    -0.097 F 
ATOM      8  F1  UNL d   1       0.195   0.212  -2.706  0.00  0.00    -0.096 F 
ATOM      9  I   UNL d   1       0.589  -2.466  -1.000  0.00  0.00    -0.060 I 
ATOM     10  F2  UNL d   1      -0.452  -1.254   1.773  0.00  0.00    -0.096 F 
ATOM     11  F3  UNL d   1      -1.357   1.212   2.431  0.00  0.00    -0.097 F 
ATOM     12  F4  UNL d   1      -1.493   3.180   0.548  0.00  0.00    -0.092 F 
ENDROOT
TORSDOF 0
ENDMDL
