MODEL 1
REMARK minimizedAffinity 3.74072838
REMARK minimizedRMSD -1
REMARK  0 active torsions:
REMARK  status: ('A' for Active; 'I' for Inactive)
ROOT
ATOM      1  C   UNL d   1      -0.150   1.884   0.681  0.00  0.00     0.124 A 
ATOM      2  C1  UNL d   1      -0.061   1.571  -0.668  0.00  0.00     0.062 A 
ATOM      3  C2  UNL d   1       0.046   0.244  -1.073  0.00  0.00     0.162 A 
ATOM      4  C3  UNL d   1       0.062  -0.781  -0.128  0.00  0.00    -0.034 A 
ATOM      5  C4  UNL d   1      -0.027  -0.459   1.228  0.00  0.00     0.162 A 
ATOM      6  C5  UNL d   1      -0.133   0.869   1.628  0.00  0.00     0.062 A 
ATOM      7  F   UNL d   1      -0.220   1.170   2.932  0.00  0.00    -0.097 F 
ATOM      8  F1  UNL d   1      -0.014  -1.420   2.163  0.00  0.00    -0.096 F 
ATOM      9  I   UNL d   1       0.222  -2.767  -0.729  0.00  0.00    -0.060 I 
ATOM     10  F2  UNL d   1       0.131  -0.029  -2.384  0.00  0.00    -0.096 F 
ATOM     11  F3  UNL d   1      -0.076   2.550  -1.584  0.00  0.00    -0.097 F 
ATOM     12  F4  UNL d   1      -0.252   3.162   1.068  0.00  0.00    -0.092 F 
ENDROOT
TORSDOF 0
ENDMDL
