MODEL 1
REMARK minimizedAffinity -0.742783666
REMARK minimizedRMSD -1
REMARK  0 active torsions:
REMARK  status: ('A' for Active; 'I' for Inactive)
ROOT
ATOM      1  C   UNL d   1       1.362  -0.139  -1.290  0.00  0.00     0.124 A 
ATOM      2  C1  UNL d   1       1.335  -0.444   0.064  0.00  0.00     0.062 A 
ATOM      3  C2  UNL d   1       0.389   0.148   0.896  0.00  0.00     0.162 A 
ATOM      4  C3  UNL d   1      -0.538   1.051   0.376  0.00  0.00    -0.034 A 
ATOM      5  C4  UNL d   1      -0.504   1.353  -0.986  0.00  0.00     0.162 A 
ATOM      6  C5  UNL d   1       0.443   0.759  -1.814  0.00  0.00     0.062 A 
ATOM      7  F   UNL d   1       0.467   1.055  -3.122  0.00  0.00    -0.097 F 
ATOM      8  F1  UNL d   1      -1.382   2.217  -1.519  0.00  0.00    -0.096 F 
ATOM      9  I   UNL d   1      -1.954   1.939   1.617  0.00  0.00    -0.060 I 
ATOM     10  F2  UNL d   1       0.386  -0.165   2.200  0.00  0.00    -0.096 F 
ATOM     11  F3  UNL d   1       2.223  -1.311   0.572  0.00  0.00    -0.097 F 
ATOM     12  F4  UNL d   1       2.273  -0.710  -2.088  0.00  0.00    -0.092 F 
ENDROOT
TORSDOF 0
ENDMDL
