MODEL 1
REMARK minimizedAffinity 3.90539885
REMARK minimizedRMSD -1
REMARK  0 active torsions:
REMARK  status: ('A' for Active; 'I' for Inactive)
ROOT
ATOM      1  C   UNL d   1      -1.343   2.085  -0.368  0.00  0.00     0.124 A 
ATOM      2  C1  UNL d   1      -1.120   1.516  -1.614  0.00  0.00     0.062 A 
ATOM      3  C2  UNL d   1      -0.497   0.275  -1.715  0.00  0.00     0.162 A 
ATOM      4  C3  UNL d   1      -0.092  -0.405  -0.567  0.00  0.00    -0.034 A 
ATOM      5  C4  UNL d   1      -0.319   0.175   0.683  0.00  0.00     0.162 A 
ATOM      6  C5  UNL d   1      -0.942   1.414   0.779  0.00  0.00     0.062 A 
ATOM      7  F   UNL d   1      -1.157   1.963   1.984  0.00  0.00    -0.097 F 
ATOM      8  F1  UNL d   1       0.058  -0.452   1.808  0.00  0.00    -0.096 F 
ATOM      9  I   UNL d   1       0.841  -2.260  -0.714  0.00  0.00    -0.060 I 
ATOM     10  F2  UNL d   1      -0.294  -0.251  -2.932  0.00  0.00    -0.096 F 
ATOM     11  F3  UNL d   1      -1.506   2.162  -2.723  0.00  0.00    -0.097 F 
ATOM     12  F4  UNL d   1      -1.942   3.279  -0.273  0.00  0.00    -0.092 F 
ENDROOT
TORSDOF 0
ENDMDL
