MODEL 1
REMARK minimizedAffinity -3.68948984
REMARK minimizedRMSD -1
REMARK  0 active torsions:
REMARK  status: ('A' for Active; 'I' for Inactive)
ROOT
ATOM      1  C   UNL d   1      -0.619   2.249   1.259  0.00  0.00     0.124 A 
ATOM      2  C1  UNL d   1       0.073   1.239   1.913  0.00  0.00     0.062 A 
ATOM      3  C2  UNL d   1       0.405   0.068   1.238  0.00  0.00     0.162 A 
ATOM      4  C3  UNL d   1       0.047  -0.099  -0.100  0.00  0.00    -0.034 A 
ATOM      5  C4  UNL d   1      -0.650   0.921  -0.751  0.00  0.00     0.162 A 
ATOM      6  C5  UNL d   1      -0.979   2.089  -0.072  0.00  0.00     0.062 A 
ATOM      7  F   UNL d   1      -1.647   3.064  -0.705  0.00  0.00    -0.097 F 
ATOM      8  F1  UNL d   1      -1.009   0.793  -2.036  0.00  0.00    -0.096 F 
ATOM      9  I   UNL d   1       0.541  -1.849  -1.113  0.00  0.00    -0.060 I 
ATOM     10  F2  UNL d   1       1.073  -0.892   1.894  0.00  0.00    -0.096 F 
ATOM     11  F3  UNL d   1       0.421   1.390   3.198  0.00  0.00    -0.097 F 
ATOM     12  F4  UNL d   1      -0.938   3.375   1.911  0.00  0.00    -0.092 F 
ENDROOT
TORSDOF 0
ENDMDL
