MODEL 1
REMARK minimizedAffinity 3.81437707
REMARK minimizedRMSD -1
REMARK  0 active torsions:
REMARK  status: ('A' for Active; 'I' for Inactive)
ROOT
ATOM      1  C   UNL d   1      -0.488   1.990   1.127  0.00  0.00     0.124 A 
ATOM      2  C1  UNL d   1      -0.232   1.724  -0.211  0.00  0.00     0.062 A 
ATOM      3  C2  UNL d   1      -0.342   0.426  -0.700  0.00  0.00     0.162 A 
ATOM      4  C3  UNL d   1      -0.712  -0.617   0.149  0.00  0.00    -0.034 A 
ATOM      5  C4  UNL d   1      -0.967  -0.342   1.494  0.00  0.00     0.162 A 
ATOM      6  C5  UNL d   1      -0.855   0.957   1.978  0.00  0.00     0.062 A 
ATOM      7  F   UNL d   1      -1.103   1.212   3.271  0.00  0.00    -0.097 F 
ATOM      8  F1  UNL d   1      -1.324  -1.321   2.338  0.00  0.00    -0.096 F 
ATOM      9  I   UNL d   1      -0.878  -2.560  -0.578  0.00  0.00    -0.060 I 
ATOM     10  F2  UNL d   1      -0.089   0.198  -1.997  0.00  0.00    -0.096 F 
ATOM     11  F3  UNL d   1       0.124   2.720  -1.035  0.00  0.00    -0.097 F 
ATOM     12  F4  UNL d   1      -0.380   3.240   1.595  0.00  0.00    -0.092 F 
ENDROOT
TORSDOF 0
ENDMDL
