MODEL 1
REMARK minimizedAffinity -3.50730753
REMARK minimizedRMSD -1
REMARK  0 active torsions:
REMARK  status: ('A' for Active; 'I' for Inactive)
ROOT
ATOM      1  C   UNL d   1      -0.639   1.684  -1.046  0.00  0.00     0.124 A 
ATOM      2  C1  UNL d   1       0.230   0.624  -1.262  0.00  0.00     0.062 A 
ATOM      3  C2  UNL d   1       0.775  -0.065  -0.183  0.00  0.00     0.162 A 
ATOM      4  C3  UNL d   1       0.452   0.303   1.123  0.00  0.00    -0.034 A 
ATOM      5  C4  UNL d   1      -0.422   1.371   1.332  0.00  0.00     0.162 A 
ATOM      6  C5  UNL d   1      -0.964   2.057   0.250  0.00  0.00     0.062 A 
ATOM      7  F   UNL d   1      -1.804   3.081   0.461  0.00  0.00    -0.097 F 
ATOM      8  F1  UNL d   1      -0.754   1.752   2.575  0.00  0.00    -0.096 F 
ATOM      9  I   UNL d   1       1.265  -0.725   2.740  0.00  0.00    -0.060 I 
ATOM     10  F2  UNL d   1       1.613  -1.086  -0.421  0.00  0.00    -0.096 F 
ATOM     11  F3  UNL d   1       0.547   0.263  -2.514  0.00  0.00    -0.097 F 
ATOM     12  F4  UNL d   1      -1.162   2.346  -2.087  0.00  0.00    -0.092 F 
ENDROOT
TORSDOF 0
ENDMDL
