MODEL 1
REMARK minimizedAffinity 13.5819321
REMARK minimizedRMSD -1
REMARK  0 active torsions:
REMARK  status: ('A' for Active; 'I' for Inactive)
ROOT
ATOM      1  C1  DEN d   1      -4.385   2.203  -5.946  0.00  0.00     0.130 A 
ATOM      2  C2  DEN d   1      -3.219   1.812  -5.159  0.00  0.00    -0.031 A 
ATOM      3  C3  DEN d   1      -2.888   2.927  -4.249  0.00  0.00     0.027 A 
ATOM      4  C4  DEN d   1      -4.064   5.206  -3.981  0.00  0.00     0.027 A 
ATOM      5  C5  DEN d   1      -5.092   6.000  -4.439  0.00  0.00    -0.003 A 
ATOM      6  C6  DEN d   1      -5.929   5.600  -5.448  0.00  0.00     0.001 A 
ATOM      7  C7  DEN d   1      -5.780   4.356  -6.000  0.00  0.00     0.017 A 
ATOM      8  C8  DEN d   1      -4.741   3.553  -5.548  0.00  0.00    -0.094 A 
ATOM      9  C9  DEN d   1      -3.914   3.970  -4.519  0.00  0.00    -0.072 A 
ENDROOT
TORSDOF 0
ENDMDL
