MODEL 1
REMARK minimizedAffinity 7.54633904
REMARK minimizedRMSD -1
REMARK  0 active torsions:
REMARK  status: ('A' for Active; 'I' for Inactive)
ROOT
ATOM      1  C1  DEN d   1      -2.894  -0.920  -1.399  0.00  0.00     0.130 A 
ATOM      2  C2  DEN d   1      -2.151  -1.242  -2.614  0.00  0.00    -0.031 A 
ATOM      3  C3  DEN d   1      -1.002  -2.089  -2.236  0.00  0.00     0.027 A 
ATOM      4  C4  DEN d   1      -0.307  -2.931   0.101  0.00  0.00     0.027 A 
ATOM      5  C5  DEN d   1      -0.622  -2.909   1.442  0.00  0.00    -0.003 A 
ATOM      6  C6  DEN d   1      -1.687  -2.200   1.930  0.00  0.00     0.001 A 
ATOM      7  C7  DEN d   1      -2.504  -1.520   1.065  0.00  0.00     0.017 A 
ATOM      8  C8  DEN d   1      -2.189  -1.532  -0.288  0.00  0.00    -0.094 A 
ATOM      9  C9  DEN d   1      -1.115  -2.265  -0.763  0.00  0.00    -0.072 A 
ENDROOT
TORSDOF 0
ENDMDL
