MODEL 1
REMARK minimizedAffinity 16.4605026
REMARK minimizedRMSD -1
REMARK  0 active torsions:
REMARK  status: ('A' for Active; 'I' for Inactive)
ROOT
ATOM      1  C1  DEN d   1       2.497   1.827   1.214  0.00  0.00     0.130 A 
ATOM      2  C2  DEN d   1       3.517   2.862   1.068  0.00  0.00    -0.031 A 
ATOM      3  C3  DEN d   1       3.861   2.965  -0.364  0.00  0.00     0.027 A 
ATOM      4  C4  DEN d   1       2.913   1.634  -2.360  0.00  0.00     0.027 A 
ATOM      5  C5  DEN d   1       2.035   0.639  -2.731  0.00  0.00    -0.003 A 
ATOM      6  C6  DEN d   1       1.281  -0.046  -1.816  0.00  0.00     0.001 A 
ATOM      7  C7  DEN d   1       1.357   0.284  -0.489  0.00  0.00     0.017 A 
ATOM      8  C8  DEN d   1       2.245   1.280  -0.107  0.00  0.00    -0.094 A 
ATOM      9  C9  DEN d   1       2.990   1.971  -1.048  0.00  0.00    -0.072 A 
ENDROOT
TORSDOF 0
ENDMDL
