MODEL 1
REMARK minimizedAffinity 15.9109507
REMARK minimizedRMSD -1
REMARK  0 active torsions:
REMARK  status: ('A' for Active; 'I' for Inactive)
ROOT
ATOM      1  C1  DEN d   1      -0.087  -4.887  -0.777  0.00  0.00     0.130 A 
ATOM      2  C2  DEN d   1      -0.128  -4.552   0.644  0.00  0.00    -0.031 A 
ATOM      3  C3  DEN d   1      -0.501  -3.129   0.767  0.00  0.00     0.027 A 
ATOM      4  C4  DEN d   1      -1.024  -1.422  -1.095  0.00  0.00     0.027 A 
ATOM      5  C5  DEN d   1      -1.108  -1.237  -2.457  0.00  0.00    -0.003 A 
ATOM      6  C6  DEN d   1      -0.828  -2.239  -3.349  0.00  0.00     0.001 A 
ATOM      7  C7  DEN d   1      -0.493  -3.484  -2.887  0.00  0.00     0.017 A 
ATOM      8  C8  DEN d   1      -0.398  -3.676  -1.514  0.00  0.00    -0.094 A 
ATOM      9  C9  DEN d   1      -0.698  -2.654  -0.630  0.00  0.00    -0.072 A 
ENDROOT
TORSDOF 0
ENDMDL
