MODEL 1
REMARK minimizedAffinity 14.879282
REMARK minimizedRMSD -1
REMARK  0 active torsions:
REMARK  status: ('A' for Active; 'I' for Inactive)
ROOT
ATOM      1  C1  DEN d   1      -0.729  -1.363  -1.340  0.00  0.00     0.130 A 
ATOM      2  C2  DEN d   1      -0.810  -1.462  -2.795  0.00  0.00    -0.031 A 
ATOM      3  C3  DEN d   1      -0.636  -2.881  -3.166  0.00  0.00     0.027 A 
ATOM      4  C4  DEN d   1      -0.256  -4.923  -1.637  0.00  0.00     0.027 A 
ATOM      5  C5  DEN d   1      -0.102  -5.335  -0.332  0.00  0.00    -0.003 A 
ATOM      6  C6  DEN d   1      -0.112  -4.455   0.717  0.00  0.00     0.001 A 
ATOM      7  C7  DEN d   1      -0.325  -3.122   0.483  0.00  0.00     0.017 A 
ATOM      8  C8  DEN d   1      -0.473  -2.698  -0.831  0.00  0.00    -0.094 A 
ATOM      9  C9  DEN d   1      -0.473  -3.605  -1.877  0.00  0.00    -0.072 A 
ENDROOT
TORSDOF 0
ENDMDL
