MODEL 1
REMARK minimizedAffinity 19.1354122
REMARK minimizedRMSD -1
REMARK  0 active torsions:
REMARK  status: ('A' for Active; 'I' for Inactive)
ROOT
ATOM      1  C1  DEN d   1       3.563   2.539   1.638  0.00  0.00     0.130 A 
ATOM      2  C2  DEN d   1       4.268   1.700   2.604  0.00  0.00    -0.031 A 
ATOM      3  C3  DEN d   1       4.219   0.306   2.117  0.00  0.00     0.027 A 
ATOM      4  C4  DEN d   1       3.133  -0.627  -0.028  0.00  0.00     0.027 A 
ATOM      5  C5  DEN d   1       2.409  -0.300  -1.153  0.00  0.00    -0.003 A 
ATOM      6  C6  DEN d   1       1.993   0.980  -1.408  0.00  0.00     0.001 A 
ATOM      7  C7  DEN d   1       2.338   1.989  -0.548  0.00  0.00     0.017 A 
ATOM      8  C8  DEN d   1       3.061   1.666   0.593  0.00  0.00    -0.094 A 
ATOM      9  C9  DEN d   1       3.482   0.368   0.826  0.00  0.00    -0.072 A 
ENDROOT
TORSDOF 0
ENDMDL
