MODEL 1
REMARK minimizedAffinity 15.8255062
REMARK minimizedRMSD -1
REMARK  0 active torsions:
REMARK  status: ('A' for Active; 'I' for Inactive)
ROOT
ATOM      1  C1  DEN d   1      -0.314  -4.589  -0.818  0.00  0.00     0.130 A 
ATOM      2  C2  DEN d   1      -0.260  -4.541   0.641  0.00  0.00    -0.031 A 
ATOM      3  C3  DEN d   1      -0.676  -3.191   1.069  0.00  0.00     0.027 A 
ATOM      4  C4  DEN d   1      -1.399  -1.181  -0.377  0.00  0.00     0.027 A 
ATOM      5  C5  DEN d   1      -1.592  -0.738  -1.667  0.00  0.00    -0.003 A 
ATOM      6  C6  DEN d   1      -1.342  -1.530  -2.756  0.00  0.00     0.001 A 
ATOM      7  C7  DEN d   1      -0.928  -2.823  -2.575  0.00  0.00     0.017 A 
ATOM      8  C8  DEN d   1      -0.724  -3.274  -1.278  0.00  0.00    -0.094 A 
ATOM      9  C9  DEN d   1      -0.994  -2.462  -0.189  0.00  0.00    -0.072 A 
ENDROOT
TORSDOF 0
ENDMDL
