MODEL 1
REMARK minimizedAffinity 18.8893051
REMARK minimizedRMSD -1
REMARK  0 active torsions:
REMARK  status: ('A' for Active; 'I' for Inactive)
ROOT
ATOM      1  C1  DEN d   1       0.791   1.256  -0.486  0.00  0.00     0.130 A 
ATOM      2  C2  DEN d   1       1.865   1.333  -1.473  0.00  0.00    -0.031 A 
ATOM      3  C3  DEN d   1       1.546   0.395  -2.568  0.00  0.00     0.027 A 
ATOM      4  C4  DEN d   1      -0.497  -1.157  -2.832  0.00  0.00     0.027 A 
ATOM      5  C5  DEN d   1      -1.669  -1.579  -2.245  0.00  0.00    -0.003 A 
ATOM      6  C6  DEN d   1      -2.083  -1.115  -1.025  0.00  0.00     0.001 A 
ATOM      7  C7  DEN d   1      -1.341  -0.167  -0.372  0.00  0.00     0.017 A 
ATOM      8  C8  DEN d   1      -0.154   0.259  -0.954  0.00  0.00    -0.094 A 
ATOM      9  C9  DEN d   1       0.241  -0.214  -2.194  0.00  0.00    -0.072 A 
ENDROOT
TORSDOF 0
ENDMDL
