MODEL 1
REMARK minimizedAffinity 8.57934856
REMARK minimizedRMSD -1
REMARK  0 active torsions:
REMARK  status: ('A' for Active; 'I' for Inactive)
ROOT
ATOM      1  C1  DEN d   1      -6.000   4.725  -6.000  0.00  0.00     0.130 A 
ATOM      2  C2  DEN d   1      -5.902   6.000  -5.295  0.00  0.00    -0.031 A 
ATOM      3  C3  DEN d   1      -4.715   5.946  -4.417  0.00  0.00     0.027 A 
ATOM      4  C4  DEN d   1      -3.027   4.024  -4.086  0.00  0.00     0.027 A 
ATOM      5  C5  DEN d   1      -2.703   2.739  -4.459  0.00  0.00    -0.003 A 
ATOM      6  C6  DEN d   1      -3.467   2.019  -5.339  0.00  0.00     0.001 A 
ATOM      7  C7  DEN d   1      -4.570   2.596  -5.910  0.00  0.00     0.017 A 
ATOM      8  C8  DEN d   1      -4.908   3.889  -5.533  0.00  0.00    -0.094 A 
ATOM      9  C9  DEN d   1      -4.116   4.605  -4.652  0.00  0.00    -0.072 A 
ENDROOT
TORSDOF 0
ENDMDL
