MODEL 1
REMARK minimizedAffinity 10.3215342
REMARK minimizedRMSD -1
REMARK  0 active torsions:
REMARK  status: ('A' for Active; 'I' for Inactive)
ROOT
ATOM      1  C1  DEN d   1       2.002   0.218  -0.936  0.00  0.00     0.130 A 
ATOM      2  C2  DEN d   1       3.056   0.319  -1.942  0.00  0.00    -0.031 A 
ATOM      3  C3  DEN d   1       2.527  -0.215  -3.213  0.00  0.00     0.027 A 
ATOM      4  C4  DEN d   1       0.190  -1.182  -3.719  0.00  0.00     0.027 A 
ATOM      5  C5  DEN d   1      -1.041  -1.485  -3.179  0.00  0.00    -0.003 A 
ATOM      6  C6  DEN d   1      -1.329  -1.276  -1.856  0.00  0.00     0.001 A 
ATOM      7  C7  DEN d   1      -0.390  -0.705  -1.039  0.00  0.00     0.017 A 
ATOM      8  C8  DEN d   1       0.855  -0.403  -1.574  0.00  0.00    -0.094 A 
ATOM      9  C9  DEN d   1       1.124  -0.611  -2.916  0.00  0.00    -0.072 A 
ENDROOT
TORSDOF 0
ENDMDL
