MODEL 1
REMARK minimizedAffinity 22.1814938
REMARK minimizedRMSD -1
REMARK  0 active torsions:
REMARK  status: ('A' for Active; 'I' for Inactive)
ROOT
ATOM      1  C1  DEN d   1      -0.882  -0.394  -0.449  0.00  0.00     0.130 A 
ATOM      2  C2  DEN d   1      -1.703  -1.366  -1.165  0.00  0.00    -0.031 A 
ATOM      3  C3  DEN d   1      -1.015  -1.704  -2.427  0.00  0.00     0.027 A 
ATOM      4  C4  DEN d   1       1.234  -0.825  -3.335  0.00  0.00     0.027 A 
ATOM      5  C5  DEN d   1       2.290   0.023  -3.086  0.00  0.00    -0.003 A 
ATOM      6  C6  DEN d   1       2.346   0.811  -1.967  0.00  0.00     0.001 A 
ATOM      7  C7  DEN d   1       1.348   0.733  -1.032  0.00  0.00     0.017 A 
ATOM      8  C8  DEN d   1       0.277  -0.115  -1.279  0.00  0.00    -0.094 A 
ATOM      9  C9  DEN d   1       0.244  -0.912  -2.410  0.00  0.00    -0.072 A 
ENDROOT
TORSDOF 0
ENDMDL
