MODEL 1
REMARK minimizedAffinity 9.06938171
REMARK minimizedRMSD -1
REMARK  0 active torsions:
REMARK  status: ('A' for Active; 'I' for Inactive)
ROOT
ATOM      1  C1  DEN d   1      -4.641   2.152  -5.975  0.00  0.00     0.130 A 
ATOM      2  C2  DEN d   1      -3.460   1.715  -5.236  0.00  0.00    -0.031 A 
ATOM      3  C3  DEN d   1      -3.032   2.824  -4.360  0.00  0.00     0.027 A 
ATOM      4  C4  DEN d   1      -4.082   5.163  -4.076  0.00  0.00     0.027 A 
ATOM      5  C5  DEN d   1      -5.091   6.000  -4.499  0.00  0.00    -0.003 A 
ATOM      6  C6  DEN d   1      -5.992   5.628  -5.461  0.00  0.00     0.001 A 
ATOM      7  C7  DEN d   1      -5.931   4.370  -5.999  0.00  0.00     0.017 A 
ATOM      8  C8  DEN d   1      -4.912   3.523  -5.582  0.00  0.00    -0.094 A 
ATOM      9  C9  DEN d   1      -4.018   3.913  -4.600  0.00  0.00    -0.072 A 
ENDROOT
TORSDOF 0
ENDMDL
