MODEL 1
REMARK minimizedAffinity 6.4067831
REMARK minimizedRMSD -1
REMARK  0 active torsions:
REMARK  status: ('A' for Active; 'I' for Inactive)
ROOT
ATOM      1  C1  DEN d   1      -4.803   6.000  -1.979  0.00  0.00     0.130 A 
ATOM      2  C2  DEN d   1      -3.866   5.084  -2.625  0.00  0.00    -0.031 A 
ATOM      3  C3  DEN d   1      -3.586   3.980  -1.686  0.00  0.00     0.027 A 
ATOM      4  C4  DEN d   1      -4.511   3.598   0.692  0.00  0.00     0.027 A 
ATOM      5  C5  DEN d   1      -5.329   4.111   1.674  0.00  0.00    -0.003 A 
ATOM      6  C6  DEN d   1      -5.996   5.298   1.522  0.00  0.00     0.001 A 
ATOM      7  C7  DEN d   1      -5.894   5.988   0.343  0.00  0.00     0.017 A 
ATOM      8  C8  DEN d   1      -5.065   5.481  -0.649  0.00  0.00    -0.094 A 
ATOM      9  C9  DEN d   1      -4.408   4.273  -0.481  0.00  0.00    -0.072 A 
ENDROOT
TORSDOF 0
ENDMDL
