MODEL 1
REMARK minimizedAffinity -2.08504939
REMARK minimizedRMSD -1
REMARK  1 active torsions:
REMARK  status: ('A' for Active; 'I' for Inactive)
REMARK    1  A    between atoms: C3_4  and  O_7 
ROOT
ATOM      1  C   UNL d   1      -5.886  -5.335  -0.604  0.00  0.00    -0.033 A 
ATOM      2  C1  UNL d   1      -5.844  -5.996  -1.834  0.00  0.00     0.039 A 
ATOM      3  C2  UNL d   1      -5.880  -5.265  -3.023  0.00  0.00    -0.080 A 
ATOM      4  C3  UNL d   1      -5.955  -3.876  -2.969  0.00  0.00     0.150 A 
ATOM      5  C4  UNL d   1      -5.993  -3.211  -1.748  0.00  0.00    -0.007 A 
ATOM      6  C5  UNL d   1      -5.959  -3.942  -0.562  0.00  0.00     0.039 A 
ENDROOT
BRANCH   4   7
ATOM      7  O   UNL d   1      -5.997  -3.120  -4.103  0.00  0.00    -0.526 OA
ATOM      8  H5  UNL d   1      -5.992  -3.716  -4.870  0.00  0.00     0.418 HD
ENDBRANCH   4   7
TORSDOF 1
ENDMDL
