MODEL 1
REMARK minimizedAffinity 0.869917989
REMARK minimizedRMSD -1
REMARK  1 active torsions:
REMARK  status: ('A' for Active; 'I' for Inactive)
REMARK    1  A    between atoms: C3_4  and  O_7 
ROOT
ATOM      1  C   UNL d   1      -3.881  -5.829  -0.655  0.00  0.00    -0.033 A 
ATOM      2  C1  UNL d   1      -3.186  -5.940   0.550  0.00  0.00     0.039 A 
ATOM      3  C2  UNL d   1      -3.884  -6.000   1.758  0.00  0.00    -0.080 A 
ATOM      4  C3  UNL d   1      -5.275  -5.949   1.746  0.00  0.00     0.150 A 
ATOM      5  C4  UNL d   1      -5.975  -5.842   0.549  0.00  0.00    -0.007 A 
ATOM      6  C5  UNL d   1      -5.276  -5.782  -0.656  0.00  0.00     0.039 A 
ENDROOT
BRANCH   4   7
ATOM      7  O   UNL d   1      -6.000  -5.999   2.900  0.00  0.00    -0.526 OA
ATOM      8  H5  UNL d   1      -5.383  -6.043   3.649  0.00  0.00     0.418 HD
ENDBRANCH   4   7
TORSDOF 1
ENDMDL
