MODEL 1
REMARK minimizedAffinity -0.593388736
REMARK minimizedRMSD -1
REMARK  1 active torsions:
REMARK  status: ('A' for Active; 'I' for Inactive)
REMARK    1  A    between atoms: C3_4  and  O_7 
ROOT
ATOM      1  C   UNL d   1      -5.869  -2.537  -2.745  0.00  0.00    -0.033 A 
ATOM      2  C1  UNL d   1      -5.998  -2.260  -1.383  0.00  0.00     0.039 A 
ATOM      3  C2  UNL d   1      -6.000  -3.302  -0.454  0.00  0.00    -0.080 A 
ATOM      4  C3  UNL d   1      -5.872  -4.615  -0.900  0.00  0.00     0.150 A 
ATOM      5  C4  UNL d   1      -5.740  -4.898  -2.255  0.00  0.00    -0.007 A 
ATOM      6  C5  UNL d   1      -5.739  -3.856  -3.181  0.00  0.00     0.039 A 
ENDROOT
BRANCH   4   7
ATOM      7  O   UNL d   1      -5.873  -5.666  -0.031  0.00  0.00    -0.526 OA
ATOM      8  H5  UNL d   1      -6.001  -5.321   0.868  0.00  0.00     0.418 HD
ENDBRANCH   4   7
TORSDOF 1
ENDMDL
