MODEL 1
REMARK minimizedAffinity -4.32357788
REMARK minimizedRMSD -1
REMARK  1 active torsions:
REMARK  status: ('A' for Active; 'I' for Inactive)
REMARK    1  A    between atoms: C3_4  and  O_7 
ROOT
ATOM      1  C   UNL d   1      -5.605  -5.612  -1.076  0.00  0.00    -0.033 A 
ATOM      2  C1  UNL d   1      -5.857  -4.379  -1.681  0.00  0.00     0.039 A 
ATOM      3  C2  UNL d   1      -5.813  -3.206  -0.924  0.00  0.00    -0.080 A 
ATOM      4  C3  UNL d   1      -5.515  -3.279   0.434  0.00  0.00     0.150 A 
ATOM      5  C4  UNL d   1      -5.259  -4.504   1.042  0.00  0.00    -0.007 A 
ATOM      6  C5  UNL d   1      -5.304  -5.674   0.285  0.00  0.00     0.039 A 
ENDROOT
BRANCH   4   7
ATOM      7  O   UNL d   1      -5.466  -2.162   1.214  0.00  0.00    -0.526 OA
ATOM      8  H5  UNL d   1      -5.692  -1.393   0.665  0.00  0.00     0.418 HD
ENDBRANCH   4   7
TORSDOF 1
ENDMDL
