MODEL 1
REMARK minimizedAffinity 4.17514801
REMARK minimizedRMSD -1
REMARK  1 active torsions:
REMARK  status: ('A' for Active; 'I' for Inactive)
REMARK    1  A    between atoms: C3_4  and  O_7 
ROOT
ATOM      1  C   UNL d   1       4.749   2.659  -5.994  0.00  0.00    -0.033 A 
ATOM      2  C1  UNL d   1       3.406   3.041  -6.000  0.00  0.00     0.039 A 
ATOM      3  C2  UNL d   1       2.993   4.158  -5.271  0.00  0.00    -0.080 A 
ATOM      4  C3  UNL d   1       3.931   4.884  -4.542  0.00  0.00     0.150 A 
ATOM      5  C4  UNL d   1       5.271   4.511  -4.535  0.00  0.00    -0.007 A 
ATOM      6  C5  UNL d   1       5.682   3.395  -5.262  0.00  0.00     0.039 A 
ENDROOT
BRANCH   4   7
ATOM      7  O   UNL d   1       3.575   5.978  -3.812  0.00  0.00    -0.526 OA
ATOM      8  H5  UNL d   1       2.613   6.099  -3.888  0.00  0.00     0.418 HD
ENDBRANCH   4   7
TORSDOF 1
ENDMDL
