MODEL 1
REMARK minimizedAffinity -1.51394951
REMARK minimizedRMSD -1
REMARK  1 active torsions:
REMARK  status: ('A' for Active; 'I' for Inactive)
REMARK    1  A    between atoms: C3_4  and  O_7 
ROOT
ATOM      1  C   UNL d   1      -5.551  -6.000  -0.236  0.00  0.00    -0.033 A 
ATOM      2  C1  UNL d   1      -5.485  -6.000  -1.630  0.00  0.00     0.039 A 
ATOM      3  C2  UNL d   1      -5.631  -4.805  -2.338  0.00  0.00    -0.080 A 
ATOM      4  C3  UNL d   1      -5.840  -3.619  -1.640  0.00  0.00     0.150 A 
ATOM      5  C4  UNL d   1      -5.903  -3.611  -0.251  0.00  0.00    -0.007 A 
ATOM      6  C5  UNL d   1      -5.758  -4.805   0.454  0.00  0.00     0.039 A 
ENDROOT
BRANCH   4   7
ATOM      7  O   UNL d   1      -5.993  -2.429  -2.287  0.00  0.00    -0.526 OA
ATOM      8  H5  UNL d   1      -5.956  -2.592  -3.245  0.00  0.00     0.418 HD
ENDBRANCH   4   7
TORSDOF 1
ENDMDL
