MODEL 1
REMARK minimizedAffinity 3.44269037
REMARK minimizedRMSD -1
REMARK  1 active torsions:
REMARK  status: ('A' for Active; 'I' for Inactive)
REMARK    1  A    between atoms: C3_4  and  O_7 
ROOT
ATOM      1  C   UNL d   1      -1.390   0.207   2.165  0.00  0.00    -0.033 A 
ATOM      2  C1  UNL d   1      -0.861   1.436   2.565  0.00  0.00     0.039 A 
ATOM      3  C2  UNL d   1      -1.651   2.586   2.522  0.00  0.00    -0.080 A 
ATOM      4  C3  UNL d   1      -2.967   2.495   2.079  0.00  0.00     0.150 A 
ATOM      5  C4  UNL d   1      -3.503   1.274   1.682  0.00  0.00    -0.007 A 
ATOM      6  C5  UNL d   1      -2.712   0.126   1.725  0.00  0.00     0.039 A 
ENDROOT
BRANCH   4   7
ATOM      7  O   UNL d   1      -3.775   3.591   2.015  0.00  0.00    -0.526 OA
ATOM      8  H5  UNL d   1      -3.262   4.368   2.293  0.00  0.00     0.418 HD
ENDBRANCH   4   7
TORSDOF 1
ENDMDL
