MODEL 1
REMARK minimizedAffinity 5.16627741
REMARK minimizedRMSD -1
REMARK  1 active torsions:
REMARK  status: ('A' for Active; 'I' for Inactive)
REMARK    1  A    between atoms: C3_4  and  O_7 
ROOT
ATOM      1  C   UNL d   1       1.830   4.225  -5.629  0.00  0.00    -0.033 A 
ATOM      2  C1  UNL d   1       2.561   3.095  -6.000  0.00  0.00     0.039 A 
ATOM      3  C2  UNL d   1       3.899   2.971  -5.618  0.00  0.00    -0.080 A 
ATOM      4  C3  UNL d   1       4.491   3.981  -4.866  0.00  0.00     0.150 A 
ATOM      5  C4  UNL d   1       3.767   5.108  -4.489  0.00  0.00    -0.007 A 
ATOM      6  C5  UNL d   1       2.432   5.230  -4.872  0.00  0.00     0.039 A 
ENDROOT
BRANCH   4   7
ATOM      7  O   UNL d   1       5.795   3.907  -4.474  0.00  0.00    -0.526 OA
ATOM      8  H5  UNL d   1       6.177   3.087  -4.830  0.00  0.00     0.418 HD
ENDBRANCH   4   7
TORSDOF 1
ENDMDL
