MODEL 1
REMARK minimizedAffinity 9.27859592
REMARK minimizedRMSD -1
REMARK  1 active torsions:
REMARK  status: ('A' for Active; 'I' for Inactive)
REMARK    1  A    between atoms: C3_4  and  O_7 
ROOT
ATOM      1  C   UNL d   1       4.395   4.202  -4.167  0.00  0.00    -0.033 A 
ATOM      2  C1  UNL d   1       3.230   4.959  -4.032  0.00  0.00     0.039 A 
ATOM      3  C2  UNL d   1       2.399   4.773  -2.925  0.00  0.00    -0.080 A 
ATOM      4  C3  UNL d   1       2.745   3.829  -1.962  0.00  0.00     0.150 A 
ATOM      5  C4  UNL d   1       3.906   3.074  -2.089  0.00  0.00    -0.007 A 
ATOM      6  C5  UNL d   1       4.734   3.260  -3.195  0.00  0.00     0.039 A 
ENDROOT
BRANCH   4   7
ATOM      7  O   UNL d   1       1.963   3.609  -0.867  0.00  0.00    -0.526 OA
ATOM      8  H5  UNL d   1       1.180   4.181  -0.928  0.00  0.00     0.418 HD
ENDBRANCH   4   7
TORSDOF 1
ENDMDL
