MODEL 1
REMARK minimizedAffinity 1.32522476
REMARK minimizedRMSD -1
REMARK  1 active torsions:
REMARK  status: ('A' for Active; 'I' for Inactive)
REMARK    1  A    between atoms: C3_4  and  O_7 
ROOT
ATOM      1  C   UNL d   1       1.592   3.043   2.337  0.00  0.00    -0.033 A 
ATOM      2  C1  UNL d   1       0.479   3.121   3.176  0.00  0.00     0.039 A 
ATOM      3  C2  UNL d   1       0.028   1.984   3.849  0.00  0.00    -0.080 A 
ATOM      4  C3  UNL d   1       0.698   0.776   3.674  0.00  0.00     0.150 A 
ATOM      5  C4  UNL d   1       1.809   0.691   2.843  0.00  0.00    -0.007 A 
ATOM      6  C5  UNL d   1       2.258   1.828   2.171  0.00  0.00     0.039 A 
ENDROOT
BRANCH   4   7
ATOM      7  O   UNL d   1       0.292  -0.362   4.306  0.00  0.00    -0.526 OA
ATOM      8  H5  UNL d   1      -0.505  -0.158   4.824  0.00  0.00     0.418 HD
ENDBRANCH   4   7
TORSDOF 1
ENDMDL
