MODEL 1
REMARK minimizedAffinity 0.688647568
REMARK minimizedRMSD -1
REMARK  1 active torsions:
REMARK  status: ('A' for Active; 'I' for Inactive)
REMARK    1  A    between atoms: C3_4  and  O_7 
ROOT
ATOM      1  C   UNL d   1       1.202  -0.160  -2.476  0.00  0.00    -0.033 A 
ATOM      2  C1  UNL d   1       0.293   0.282  -1.513  0.00  0.00     0.039 A 
ATOM      3  C2  UNL d   1       0.478   1.518  -0.891  0.00  0.00    -0.080 A 
ATOM      4  C3  UNL d   1       1.575   2.302  -1.240  0.00  0.00     0.150 A 
ATOM      5  C4  UNL d   1       2.482   1.869  -2.201  0.00  0.00    -0.007 A 
ATOM      6  C5  UNL d   1       2.296   0.634  -2.821  0.00  0.00     0.039 A 
ENDROOT
BRANCH   4   7
ATOM      7  O   UNL d   1       1.800   3.513  -0.657  0.00  0.00    -0.526 OA
ATOM      8  H5  UNL d   1       1.108   3.668   0.008  0.00  0.00     0.418 HD
ENDBRANCH   4   7
TORSDOF 1
ENDMDL
