MODEL 1
REMARK minimizedAffinity 13.8112583
REMARK minimizedRMSD -1
REMARK  0 active torsions:
REMARK  status: ('A' for Active; 'I' for Inactive)
ROOT
ATOM      1  C1  DEN d   1      -2.095   3.214  -5.921  0.00  0.00     0.130 A 
ATOM      2  C2  DEN d   1      -2.327   1.773  -5.856  0.00  0.00    -0.031 A 
ATOM      3  C3  DEN d   1      -3.786   1.545  -5.851  0.00  0.00     0.027 A 
ATOM      4  C4  DEN d   1      -5.698   3.274  -5.940  0.00  0.00     0.027 A 
ATOM      5  C5  DEN d   1      -5.995   4.618  -5.992  0.00  0.00    -0.003 A 
ATOM      6  C6  DEN d   1      -5.022   5.581  -5.989  0.00  0.00     0.001 A 
ATOM      7  C7  DEN d   1      -3.702   5.213  -5.979  0.00  0.00     0.017 A 
ATOM      8  C8  DEN d   1      -3.395   3.860  -5.920  0.00  0.00    -0.094 A 
ATOM      9  C9  DEN d   1      -4.394   2.901  -5.936  0.00  0.00    -0.072 A 
ENDROOT
TORSDOF 0
ENDMDL
