MODEL 1
REMARK minimizedAffinity 17.6592293
REMARK minimizedRMSD -1
REMARK  0 active torsions:
REMARK  status: ('A' for Active; 'I' for Inactive)
ROOT
ATOM      1  C1  DEN d   1       1.369  -4.248  -0.527  0.00  0.00     0.130 A 
ATOM      2  C2  DEN d   1       1.502  -2.858  -0.099  0.00  0.00    -0.031 A 
ATOM      3  C3  DEN d   1       2.864  -2.403  -0.442  0.00  0.00     0.027 A 
ATOM      4  C4  DEN d   1       4.769  -3.708  -1.591  0.00  0.00     0.027 A 
ATOM      5  C5  DEN d   1       5.133  -4.923  -2.128  0.00  0.00    -0.003 A 
ATOM      6  C6  DEN d   1       4.286  -6.000  -2.138  0.00  0.00     0.001 A 
ATOM      7  C7  DEN d   1       3.016  -5.869  -1.641  0.00  0.00     0.017 A 
ATOM      8  C8  DEN d   1       2.645  -4.649  -1.092  0.00  0.00    -0.094 A 
ATOM      9  C9  DEN d   1       3.511  -3.569  -1.102  0.00  0.00    -0.072 A 
ENDROOT
TORSDOF 0
ENDMDL
