MODEL 1
REMARK minimizedAffinity 10.4494696
REMARK minimizedRMSD -1
REMARK  0 active torsions:
REMARK  status: ('A' for Active; 'I' for Inactive)
ROOT
ATOM      1  C1  DEN d   1       1.614   0.822   1.456  0.00  0.00     0.130 A 
ATOM      2  C2  DEN d   1       2.478   1.988   1.293  0.00  0.00    -0.031 A 
ATOM      3  C3  DEN d   1       1.695   3.189   1.644  0.00  0.00     0.027 A 
ATOM      4  C4  DEN d   1      -0.757   3.357   2.426  0.00  0.00     0.027 A 
ATOM      5  C5  DEN d   1      -1.898   2.638   2.703  0.00  0.00    -0.003 A 
ATOM      6  C6  DEN d   1      -1.959   1.278   2.553  0.00  0.00     0.001 A 
ATOM      7  C7  DEN d   1      -0.843   0.588   2.157  0.00  0.00     0.017 A 
ATOM      8  C8  DEN d   1       0.309   1.308   1.868  0.00  0.00    -0.094 A 
ATOM      9  C9  DEN d   1       0.354   2.681   2.037  0.00  0.00    -0.072 A 
ENDROOT
TORSDOF 0
ENDMDL
