MODEL 1
REMARK minimizedAffinity 3.70860744
REMARK minimizedRMSD -1
REMARK  0 active torsions:
REMARK  status: ('A' for Active; 'I' for Inactive)
ROOT
ATOM      1  C1  DEN d   1       2.980   2.931   2.343  0.00  0.00     0.130 A 
ATOM      2  C2  DEN d   1       2.597   2.105   1.201  0.00  0.00    -0.031 A 
ATOM      3  C3  DEN d   1       1.931   0.892   1.717  0.00  0.00     0.027 A 
ATOM      4  C4  DEN d   1       1.455   0.218   4.161  0.00  0.00     0.027 A 
ATOM      5  C5  DEN d   1       1.603   0.593   5.478  0.00  0.00    -0.003 A 
ATOM      6  C6  DEN d   1       2.246   1.747   5.841  0.00  0.00     0.001 A 
ATOM      7  C7  DEN d   1       2.725   2.590   4.873  0.00  0.00     0.017 A 
ATOM      8  C8  DEN d   1       2.585   2.216   3.543  0.00  0.00    -0.094 A 
ATOM      9  C9  DEN d   1       1.922   1.051   3.196  0.00  0.00    -0.072 A 
ENDROOT
TORSDOF 0
ENDMDL
