MODEL 1
REMARK minimizedAffinity 12.0668964
REMARK minimizedRMSD -1
REMARK  0 active torsions:
REMARK  status: ('A' for Active; 'I' for Inactive)
ROOT
ATOM      1  C1  DEN d   1       1.552   1.756  -2.168  0.00  0.00     0.130 A 
ATOM      2  C2  DEN d   1       1.269   0.750  -3.188  0.00  0.00    -0.031 A 
ATOM      3  C3  DEN d   1       1.788  -0.546  -2.706  0.00  0.00     0.027 A 
ATOM      4  C4  DEN d   1       2.993  -1.090  -0.491  0.00  0.00     0.027 A 
ATOM      5  C5  DEN d   1       3.470  -0.559   0.687  0.00  0.00    -0.003 A 
ATOM      6  C6  DEN d   1       3.373   0.776   0.978  0.00  0.00     0.001 A 
ATOM      7  C7  DEN d   1       2.744   1.618   0.100  0.00  0.00     0.017 A 
ATOM      8  C8  DEN d   1       2.267   1.092  -1.093  0.00  0.00    -0.094 A 
ATOM      9  C9  DEN d   1       2.364  -0.263  -1.364  0.00  0.00    -0.072 A 
ENDROOT
TORSDOF 0
ENDMDL
