MODEL 1
REMARK minimizedAffinity 9.48383617
REMARK minimizedRMSD -1
REMARK  0 active torsions:
REMARK  status: ('A' for Active; 'I' for Inactive)
ROOT
ATOM      1  C1  DEN d   1       1.167  -0.401  -3.055  0.00  0.00     0.130 A 
ATOM      2  C2  DEN d   1       2.134   0.128  -2.097  0.00  0.00    -0.031 A 
ATOM      3  C3  DEN d   1       2.353  -0.897  -1.057  0.00  0.00     0.027 A 
ATOM      4  C4  DEN d   1       1.298  -3.240  -0.839  0.00  0.00     0.027 A 
ATOM      5  C5  DEN d   1       0.411  -4.129  -1.406  0.00  0.00    -0.003 A 
ATOM      6  C6  DEN d   1      -0.305  -3.827  -2.534  0.00  0.00     0.001 A 
ATOM      7  C7  DEN d   1      -0.114  -2.622  -3.157  0.00  0.00     0.017 A 
ATOM      8  C8  DEN d   1       0.773  -1.718  -2.587  0.00  0.00    -0.094 A 
ATOM      9  C9  DEN d   1       1.497  -2.047  -1.454  0.00  0.00    -0.072 A 
ENDROOT
TORSDOF 0
ENDMDL
