MODEL 1
REMARK minimizedAffinity 16.5737228
REMARK minimizedRMSD -1
REMARK  0 active torsions:
REMARK  status: ('A' for Active; 'I' for Inactive)
ROOT
ATOM      1  C1  DEN d   1       1.895   2.975  -1.895  0.00  0.00     0.130 A 
ATOM      2  C2  DEN d   1       0.866   2.695  -2.893  0.00  0.00    -0.031 A 
ATOM      3  C3  DEN d   1       0.682   1.232  -2.961  0.00  0.00     0.027 A 
ATOM      4  C4  DEN d   1       1.880  -0.619  -1.622  0.00  0.00     0.027 A 
ATOM      5  C5  DEN d   1       2.840  -0.871  -0.667  0.00  0.00    -0.003 A 
ATOM      6  C6  DEN d   1       3.570   0.131  -0.084  0.00  0.00     0.001 A 
ATOM      7  C7  DEN d   1       3.320   1.435  -0.417  0.00  0.00     0.017 A 
ATOM      8  C8  DEN d   1       2.359   1.697  -1.385  0.00  0.00    -0.094 A 
ATOM      9  C9  DEN d   1       1.623   0.672  -1.954  0.00  0.00    -0.072 A 
ENDROOT
TORSDOF 0
ENDMDL
