MODEL 1
REMARK minimizedAffinity 3.16460848
REMARK minimizedRMSD -1
REMARK  0 active torsions:
REMARK  status: ('A' for Active; 'I' for Inactive)
ROOT
ATOM      1  C1  DEN d   1      -0.190  -1.916  -2.297  0.00  0.00     0.130 A 
ATOM      2  C2  DEN d   1      -0.124  -3.006  -1.327  0.00  0.00    -0.031 A 
ATOM      3  C3  DEN d   1       0.996  -2.729  -0.405  0.00  0.00     0.027 A 
ATOM      4  C4  DEN d   1       2.623  -0.728  -0.382  0.00  0.00     0.027 A 
ATOM      5  C5  DEN d   1       2.968   0.445  -1.016  0.00  0.00    -0.003 A 
ATOM      6  C6  DEN d   1       2.313   0.892  -2.133  0.00  0.00     0.001 A 
ATOM      7  C7  DEN d   1       1.247   0.184  -2.623  0.00  0.00     0.017 A 
ATOM      8  C8  DEN d   1       0.898  -1.003  -1.994  0.00  0.00    -0.094 A 
ATOM      9  C9  DEN d   1       1.565  -1.432  -0.859  0.00  0.00    -0.072 A 
ENDROOT
TORSDOF 0
ENDMDL
