MODEL 1
REMARK minimizedAffinity 20.145977
REMARK minimizedRMSD -1
REMARK  0 active torsions:
REMARK  status: ('A' for Active; 'I' for Inactive)
ROOT
ATOM      1  C1  DEN d   1      -3.766  -2.373  -3.399  0.00  0.00     0.130 A 
ATOM      2  C2  DEN d   1      -4.229  -2.239  -4.777  0.00  0.00    -0.031 A 
ATOM      3  C3  DEN d   1      -3.401  -3.119  -5.626  0.00  0.00     0.027 A 
ATOM      4  C4  DEN d   1      -1.459  -4.672  -4.942  0.00  0.00     0.027 A 
ATOM      5  C5  DEN d   1      -0.694  -5.115  -3.885  0.00  0.00    -0.003 A 
ATOM      6  C6  DEN d   1      -0.876  -4.653  -2.609  0.00  0.00     0.001 A 
ATOM      7  C7  DEN d   1      -1.875  -3.753  -2.348  0.00  0.00     0.017 A 
ATOM      8  C8  DEN d   1      -2.646  -3.297  -3.409  0.00  0.00    -0.094 A 
ATOM      9  C9  DEN d   1      -2.455  -3.785  -4.691  0.00  0.00    -0.072 A 
ENDROOT
TORSDOF 0
ENDMDL
