MODEL 1
REMARK minimizedAffinity 14.1997538
REMARK minimizedRMSD -1
REMARK  0 active torsions:
REMARK  status: ('A' for Active; 'I' for Inactive)
ROOT
ATOM      1  C1  DEN d   1       1.685  -1.941  -0.399  0.00  0.00     0.130 A 
ATOM      2  C2  DEN d   1       0.865  -2.298  -1.554  0.00  0.00    -0.031 A 
ATOM      3  C3  DEN d   1       0.850  -1.145  -2.477  0.00  0.00     0.027 A 
ATOM      4  C4  DEN d   1       2.014   1.144  -2.234  0.00  0.00     0.027 A 
ATOM      5  C5  DEN d   1       2.811   1.917  -1.418  0.00  0.00    -0.003 A 
ATOM      6  C6  DEN d   1       3.257   1.474  -0.201  0.00  0.00     0.001 A 
ATOM      7  C7  DEN d   1       2.945   0.207   0.216  0.00  0.00     0.017 A 
ATOM      8  C8  DEN d   1       2.136  -0.575  -0.597  0.00  0.00    -0.094 A 
ATOM      9  C9  DEN d   1       1.706  -0.115  -1.830  0.00  0.00    -0.072 A 
ENDROOT
TORSDOF 0
ENDMDL
