MODEL 1
REMARK minimizedAffinity 15.5589523
REMARK minimizedRMSD -1
REMARK  0 active torsions:
REMARK  status: ('A' for Active; 'I' for Inactive)
ROOT
ATOM      1  C1  DEN d   1       3.651  -0.314  -1.001  0.00  0.00     0.130 A 
ATOM      2  C2  DEN d   1       4.279   0.998  -0.864  0.00  0.00    -0.031 A 
ATOM      3  C3  DEN d   1       3.457   1.977  -1.604  0.00  0.00     0.027 A 
ATOM      4  C4  DEN d   1       1.282   1.592  -2.936  0.00  0.00     0.027 A 
ATOM      5  C5  DEN d   1       0.371   0.646  -3.348  0.00  0.00    -0.003 A 
ATOM      6  C6  DEN d   1       0.505  -0.682  -3.037  0.00  0.00     0.001 A 
ATOM      7  C7  DEN d   1       1.552  -1.093  -2.255  0.00  0.00     0.017 A 
ATOM      8  C8  DEN d   1       2.480  -0.145  -1.843  0.00  0.00    -0.094 A 
ATOM      9  C9  DEN d   1       2.319   1.194  -2.157  0.00  0.00    -0.072 A 
ENDROOT
TORSDOF 0
ENDMDL
