MODEL 1
REMARK minimizedAffinity 7.72422981
REMARK minimizedRMSD -1
REMARK  0 active torsions:
REMARK  status: ('A' for Active; 'I' for Inactive)
ROOT
ATOM      1  C1  DEN d   1       1.139  -0.313  -2.593  0.00  0.00     0.130 A 
ATOM      2  C2  DEN d   1       2.060   0.213  -1.590  0.00  0.00    -0.031 A 
ATOM      3  C3  DEN d   1       2.174  -0.784  -0.506  0.00  0.00     0.027 A 
ATOM      4  C4  DEN d   1       1.021  -3.081  -0.288  0.00  0.00     0.027 A 
ATOM      5  C5  DEN d   1       0.142  -3.957  -0.885  0.00  0.00    -0.003 A 
ATOM      6  C6  DEN d   1      -0.488  -3.668  -2.066  0.00  0.00     0.001 A 
ATOM      7  C7  DEN d   1      -0.212  -2.491  -2.712  0.00  0.00     0.017 A 
ATOM      8  C8  DEN d   1       0.668  -1.600  -2.113  0.00  0.00    -0.094 A 
ATOM      9  C9  DEN d   1       1.304  -1.916  -0.924  0.00  0.00    -0.072 A 
ENDROOT
TORSDOF 0
ENDMDL
