MODEL 1
REMARK minimizedAffinity 3.21380687
REMARK minimizedRMSD -1
REMARK  0 active torsions:
REMARK  status: ('A' for Active; 'I' for Inactive)
ROOT
ATOM      1  C1  DEN d   1      -0.256  -4.984  -2.414  0.00  0.00     0.130 A 
ATOM      2  C2  DEN d   1      -0.805  -5.999  -3.309  0.00  0.00    -0.031 A 
ATOM      3  C3  DEN d   1      -1.931  -5.396  -4.049  0.00  0.00     0.027 A 
ATOM      4  C4  DEN d   1      -2.871  -2.998  -3.901  0.00  0.00     0.027 A 
ATOM      5  C5  DEN d   1      -2.741  -1.779  -3.274  0.00  0.00    -0.003 A 
ATOM      6  C6  DEN d   1      -1.804  -1.553  -2.301  0.00  0.00     0.001 A 
ATOM      7  C7  DEN d   1      -0.929  -2.550  -1.958  0.00  0.00     0.017 A 
ATOM      8  C8  DEN d   1      -1.059  -3.785  -2.579  0.00  0.00    -0.094 A 
ATOM      9  C9  DEN d   1      -2.005  -3.989  -3.570  0.00  0.00    -0.072 A 
ENDROOT
TORSDOF 0
ENDMDL
