MODEL 1
REMARK minimizedAffinity 5.90116262
REMARK minimizedRMSD -1
REMARK  0 active torsions:
REMARK  status: ('A' for Active; 'I' for Inactive)
ROOT
ATOM      1  C1  DEN d   1      -0.779  -2.610  -3.137  0.00  0.00     0.130 A 
ATOM      2  C2  DEN d   1      -1.257  -3.700  -2.291  0.00  0.00    -0.031 A 
ATOM      3  C3  DEN d   1      -0.329  -3.833  -1.151  0.00  0.00     0.027 A 
ATOM      4  C4  DEN d   1       1.789  -2.462  -0.614  0.00  0.00     0.027 A 
ATOM      5  C5  DEN d   1       2.603  -1.438  -1.046  0.00  0.00    -0.003 A 
ATOM      6  C6  DEN d   1       2.368  -0.762  -2.214  0.00  0.00     0.001 A 
ATOM      7  C7  DEN d   1       1.266  -1.071  -2.967  0.00  0.00     0.017 A 
ATOM      8  C8  DEN d   1       0.445  -2.107  -2.541  0.00  0.00    -0.094 A 
ATOM      9  C9  DEN d   1       0.693  -2.770  -1.352  0.00  0.00    -0.072 A 
ENDROOT
TORSDOF 0
ENDMDL
