MODEL 1
REMARK minimizedAffinity 10.2096386
REMARK minimizedRMSD -1
REMARK  0 active torsions:
REMARK  status: ('A' for Active; 'I' for Inactive)
ROOT
ATOM      1  C1  DEN d   1       3.722   3.389   1.531  0.00  0.00     0.130 A 
ATOM      2  C2  DEN d   1       2.766   4.074   2.397  0.00  0.00    -0.031 A 
ATOM      3  C3  DEN d   1       1.622   3.166   2.621  0.00  0.00     0.027 A 
ATOM      4  C4  DEN d   1       1.245   0.779   1.720  0.00  0.00     0.027 A 
ATOM      5  C5  DEN d   1       1.774  -0.222   0.936  0.00  0.00    -0.003 A 
ATOM      6  C6  DEN d   1       2.964  -0.077   0.273  0.00  0.00     0.001 A 
ATOM      7  C7  DEN d   1       3.687   1.078   0.418  0.00  0.00     0.017 A 
ATOM      8  C8  DEN d   1       3.156   2.094   1.202  0.00  0.00    -0.094 A 
ATOM      9  C9  DEN d   1       1.957   1.924   1.874  0.00  0.00    -0.072 A 
ENDROOT
TORSDOF 0
ENDMDL
