MODEL 1
REMARK minimizedAffinity 22.3556347
REMARK minimizedRMSD -1
REMARK  0 active torsions:
REMARK  status: ('A' for Active; 'I' for Inactive)
ROOT
ATOM      1  C1  DEN d   1       3.063  -0.486  -0.797  0.00  0.00     0.130 A 
ATOM      2  C2  DEN d   1       3.821   0.479  -0.004  0.00  0.00    -0.031 A 
ATOM      3  C3  DEN d   1       3.511   1.830  -0.513  0.00  0.00     0.027 A 
ATOM      4  C4  DEN d   1       1.937   2.519  -2.436  0.00  0.00     0.027 A 
ATOM      5  C5  DEN d   1       1.083   2.051  -3.410  0.00  0.00    -0.003 A 
ATOM      6  C6  DEN d   1       0.858   0.714  -3.603  0.00  0.00     0.001 A 
ATOM      7  C7  DEN d   1       1.460  -0.201  -2.779  0.00  0.00     0.017 A 
ATOM      8  C8  DEN d   1       2.327   0.263  -1.799  0.00  0.00    -0.094 A 
ATOM      9  C9  DEN d   1       2.532   1.619  -1.613  0.00  0.00    -0.072 A 
ENDROOT
TORSDOF 0
ENDMDL
