MODEL 1
REMARK minimizedAffinity 0.473388225
REMARK minimizedRMSD -1
REMARK  1 active torsions:
REMARK  status: ('A' for Active; 'I' for Inactive)
REMARK    1  A    between atoms: C3_4  and  O_7 
ROOT
ATOM      1  C   UNL d   1      -1.139   0.384   1.509  0.00  0.00    -0.033 A 
ATOM      2  C1  UNL d   1      -2.138  -0.366   0.886  0.00  0.00     0.039 A 
ATOM      3  C2  UNL d   1      -2.357  -1.692   1.263  0.00  0.00    -0.080 A 
ATOM      4  C3  UNL d   1      -1.570  -2.256   2.264  0.00  0.00     0.150 A 
ATOM      5  C4  UNL d   1      -0.575  -1.514   2.892  0.00  0.00    -0.007 A 
ATOM      6  C5  UNL d   1      -0.358  -0.190   2.513  0.00  0.00     0.039 A 
ENDROOT
BRANCH   4   7
ATOM      7  O   UNL d   1      -1.743  -3.548   2.663  0.00  0.00    -0.526 OA
ATOM      8  H5  UNL d   1      -2.446  -3.946   2.122  0.00  0.00     0.418 HD
ENDBRANCH   4   7
TORSDOF 1
ENDMDL
