MODEL 1
REMARK minimizedAffinity 1.37332845
REMARK minimizedRMSD -1
REMARK  1 active torsions:
REMARK  status: ('A' for Active; 'I' for Inactive)
REMARK    1  A    between atoms: C3_4  and  O_7 
ROOT
ATOM      1  C   UNL d   1      -1.870  -0.626   2.422  0.00  0.00    -0.033 A 
ATOM      2  C1  UNL d   1      -0.815  -1.440   2.838  0.00  0.00     0.039 A 
ATOM      3  C2  UNL d   1       0.171  -1.827   1.928  0.00  0.00    -0.080 A 
ATOM      4  C3  UNL d   1       0.092  -1.392   0.608  0.00  0.00     0.150 A 
ATOM      5  C4  UNL d   1      -0.954  -0.577   0.188  0.00  0.00    -0.007 A 
ATOM      6  C5  UNL d   1      -1.939  -0.193   1.097  0.00  0.00     0.039 A 
ENDROOT
BRANCH   4   7
ATOM      7  O   UNL d   1       1.028  -1.746  -0.317  0.00  0.00    -0.526 OA
ATOM      8  H5  UNL d   1       1.675  -2.334   0.110  0.00  0.00     0.418 HD
ENDBRANCH   4   7
TORSDOF 1
ENDMDL
