MODEL 1
REMARK minimizedAffinity 3.03501964
REMARK minimizedRMSD -1
REMARK  1 active torsions:
REMARK  status: ('A' for Active; 'I' for Inactive)
REMARK    1  A    between atoms: C3_4  and  O_7 
ROOT
ATOM      1  C   UNL d   1       3.928  -5.445   1.112  0.00  0.00    -0.033 A 
ATOM      2  C1  UNL d   1       2.683  -5.050   1.605  0.00  0.00     0.039 A 
ATOM      3  C2  UNL d   1       2.053  -3.917   1.087  0.00  0.00    -0.080 A 
ATOM      4  C3  UNL d   1       2.677  -3.189   0.077  0.00  0.00     0.150 A 
ATOM      5  C4  UNL d   1       3.915  -3.579  -0.421  0.00  0.00    -0.007 A 
ATOM      6  C5  UNL d   1       4.544  -4.711   0.098  0.00  0.00     0.039 A 
ENDROOT
BRANCH   4   7
ATOM      7  O   UNL d   1       2.103  -2.073  -0.456  0.00  0.00    -0.526 OA
ATOM      8  H5  UNL d   1       1.264  -1.908   0.006  0.00  0.00     0.418 HD
ENDBRANCH   4   7
TORSDOF 1
ENDMDL
