MODEL 1
REMARK minimizedAffinity -2.31165218
REMARK minimizedRMSD -1
REMARK  1 active torsions:
REMARK  status: ('A' for Active; 'I' for Inactive)
REMARK    1  A    between atoms: C3_4  and  O_7 
ROOT
ATOM      1  C   UNL d   1       2.017   0.519  -1.421  0.00  0.00    -0.033 A 
ATOM      2  C1  UNL d   1       1.654  -0.803  -1.153  0.00  0.00     0.039 A 
ATOM      3  C2  UNL d   1       0.451  -1.080  -0.501  0.00  0.00    -0.080 A 
ATOM      4  C3  UNL d   1      -0.379  -0.029  -0.123  0.00  0.00     0.150 A 
ATOM      5  C4  UNL d   1      -0.026   1.290  -0.390  0.00  0.00    -0.007 A 
ATOM      6  C5  UNL d   1       1.176   1.565  -1.041  0.00  0.00     0.039 A 
ENDROOT
BRANCH   4   7
ATOM      7  O   UNL d   1      -1.561  -0.250   0.520  0.00  0.00    -0.526 OA
ATOM      8  H5  UNL d   1      -1.659  -1.206   0.663  0.00  0.00     0.418 HD
ENDBRANCH   4   7
TORSDOF 1
ENDMDL
