MODEL 1
REMARK minimizedAffinity 0.559025288
REMARK minimizedRMSD -1
REMARK  1 active torsions:
REMARK  status: ('A' for Active; 'I' for Inactive)
REMARK    1  A    between atoms: C3_4  and  O_7 
ROOT
ATOM      1  C   UNL d   1       4.703  -3.841   0.273  0.00  0.00    -0.033 A 
ATOM      2  C1  UNL d   1       4.988  -2.621  -0.343  0.00  0.00     0.039 A 
ATOM      3  C2  UNL d   1       3.954  -1.736  -0.657  0.00  0.00    -0.080 A 
ATOM      4  C3  UNL d   1       2.642  -2.083  -0.349  0.00  0.00     0.150 A 
ATOM      5  C4  UNL d   1       2.350  -3.295   0.269  0.00  0.00    -0.007 A 
ATOM      6  C5  UNL d   1       3.384  -4.177   0.580  0.00  0.00     0.039 A 
ENDROOT
BRANCH   4   7
ATOM      7  O   UNL d   1       1.599  -1.254  -0.640  0.00  0.00    -0.526 OA
ATOM      8  H5  UNL d   1       1.948  -0.467  -1.090  0.00  0.00     0.418 HD
ENDBRANCH   4   7
TORSDOF 1
ENDMDL
