MODEL 1
REMARK minimizedAffinity -3.10327578
REMARK minimizedRMSD -1
REMARK  1 active torsions:
REMARK  status: ('A' for Active; 'I' for Inactive)
REMARK    1  A    between atoms: C3_4  and  O_7 
ROOT
ATOM      1  C   UNL d   1       0.140  -1.893   2.734  0.00  0.00    -0.033 A 
ATOM      2  C1  UNL d   1       0.724  -3.145   2.941  0.00  0.00     0.039 A 
ATOM      3  C2  UNL d   1       1.497  -3.731   1.937  0.00  0.00    -0.080 A 
ATOM      4  C3  UNL d   1       1.679  -3.056   0.733  0.00  0.00     0.150 A 
ATOM      5  C4  UNL d   1       1.104  -1.807   0.522  0.00  0.00    -0.007 A 
ATOM      6  C5  UNL d   1       0.332  -1.224   1.525  0.00  0.00     0.039 A 
ENDROOT
BRANCH   4   7
ATOM      7  O   UNL d   1       2.422  -3.590  -0.278  0.00  0.00    -0.526 OA
ATOM      8  H5  UNL d   1       2.733  -4.468  -0.001  0.00  0.00     0.418 HD
ENDBRANCH   4   7
TORSDOF 1
ENDMDL
