MODEL 1
REMARK minimizedAffinity 0.22008796
REMARK minimizedRMSD -1
REMARK  1 active torsions:
REMARK  status: ('A' for Active; 'I' for Inactive)
REMARK    1  A    between atoms: C3_4  and  O_7 
ROOT
ATOM      1  C   UNL d   1      -1.025  -0.700   1.595  0.00  0.00    -0.033 A 
ATOM      2  C1  UNL d   1      -0.555  -1.696   2.452  0.00  0.00     0.039 A 
ATOM      3  C2  UNL d   1       0.509  -2.512   2.061  0.00  0.00    -0.080 A 
ATOM      4  C3  UNL d   1       1.093  -2.320   0.812  0.00  0.00     0.150 A 
ATOM      5  C4  UNL d   1       0.632  -1.327  -0.046  0.00  0.00    -0.007 A 
ATOM      6  C5  UNL d   1      -0.431  -0.515   0.346  0.00  0.00     0.039 A 
ENDROOT
BRANCH   4   7
ATOM      7  O   UNL d   1       2.130  -3.094   0.384  0.00  0.00    -0.526 OA
ATOM      8  H5  UNL d   1       2.323  -3.757   1.069  0.00  0.00     0.418 HD
ENDBRANCH   4   7
TORSDOF 1
ENDMDL
