MODEL 1
REMARK minimizedAffinity 4.06723261
REMARK minimizedRMSD -1
REMARK  1 active torsions:
REMARK  status: ('A' for Active; 'I' for Inactive)
REMARK    1  A    between atoms: C3_4  and  O_7 
ROOT
ATOM      1  C   UNL d   1      -1.541  -0.195  -0.699  0.00  0.00    -0.033 A 
ATOM      2  C1  UNL d   1      -0.212  -0.603  -0.563  0.00  0.00     0.039 A 
ATOM      3  C2  UNL d   1       0.267  -1.023   0.679  0.00  0.00    -0.080 A 
ATOM      4  C3  UNL d   1      -0.591  -1.031   1.776  0.00  0.00     0.150 A 
ATOM      5  C4  UNL d   1      -1.917  -0.629   1.646  0.00  0.00    -0.007 A 
ATOM      6  C5  UNL d   1      -2.393  -0.210   0.405  0.00  0.00     0.039 A 
ENDROOT
BRANCH   4   7
ATOM      7  O   UNL d   1      -0.168  -1.428   3.009  0.00  0.00    -0.526 OA
ATOM      8  H5  UNL d   1       0.777  -1.649   2.953  0.00  0.00     0.418 HD
ENDBRANCH   4   7
TORSDOF 1
ENDMDL
