MODEL 1
REMARK minimizedAffinity 7.41727495
REMARK minimizedRMSD -1
REMARK  2 active torsions:
REMARK  status: ('A' for Active; 'I' for Inactive)
REMARK    1  A    between atoms: C1_2  and  C2_3 
REMARK    2  A    between atoms: C2_3  and  C3_4 
ROOT
ATOM      1  C3  UNL d   1       0.772   4.385  -3.827  0.00  0.00    -0.075 A 
ATOM      2  C4  UNL d   1       1.490   4.908  -4.913  0.00  0.00     0.002 A 
ATOM      3  C5  UNL d   1       0.821   5.491  -5.989  0.00  0.00     0.002 A 
ATOM      4  C6  UNL d   1      -0.571   5.550  -6.000  0.00  0.00    -0.004 A 
ATOM      5  C7  UNL d   1      -1.294   5.018  -4.934  0.00  0.00     0.002 A 
ATOM      6  C8  UNL d   1      -0.628   4.438  -3.854  0.00  0.00     0.002 A 
ENDROOT
BRANCH   1   7
ATOM      7  C2  UNL d   1       1.491   3.779  -2.646  0.00  0.00     0.056 C 
BRANCH   7   8
ATOM      8  C1  UNL d   1       1.155   2.305  -2.400  0.00  0.00     0.007 C 
ATOM      9  C   UNL d   1       1.184   1.919  -0.927  0.00  0.00     0.009 C 
ENDBRANCH   7   8
ENDBRANCH   1   7
TORSDOF 2
ENDMDL
