MODEL 1
REMARK minimizedAffinity 4.10030794
REMARK minimizedRMSD -1
REMARK  2 active torsions:
REMARK  status: ('A' for Active; 'I' for Inactive)
REMARK    1  A    between atoms: C1_2  and  C2_3 
REMARK    2  A    between atoms: C2_3  and  C3_4 
ROOT
ATOM      1  C3  UNL d   1      -5.927   1.810  -3.015  0.00  0.00    -0.075 A 
ATOM      2  C4  UNL d   1      -5.903   2.467  -4.253  0.00  0.00     0.002 A 
ATOM      3  C5  UNL d   1      -5.939   1.738  -5.442  0.00  0.00     0.002 A 
ATOM      4  C6  UNL d   1      -5.990   0.346  -5.409  0.00  0.00    -0.004 A 
ATOM      5  C7  UNL d   1      -5.998  -0.318  -4.184  0.00  0.00     0.002 A 
ATOM      6  C8  UNL d   1      -5.966   0.409  -2.992  0.00  0.00     0.002 A 
ENDROOT
BRANCH   1   7
ATOM      7  C2  UNL d   1      -5.917   2.594  -1.724  0.00  0.00     0.056 C 
BRANCH   7   8
ATOM      8  C1  UNL d   1      -4.804   3.643  -1.640  0.00  0.00     0.007 C 
ATOM      9  C   UNL d   1      -4.434   4.014  -0.210  0.00  0.00     0.009 C 
ENDBRANCH   7   8
ENDBRANCH   1   7
TORSDOF 2
ENDMDL
