MODEL 1
REMARK minimizedAffinity 0.941609263
REMARK minimizedRMSD -1
REMARK  2 active torsions:
REMARK  status: ('A' for Active; 'I' for Inactive)
REMARK    1  A    between atoms: C1_2  and  C2_3 
REMARK    2  A    between atoms: C2_3  and  C3_4 
ROOT
ATOM      1  C3  UNL d   1      -5.972   0.935  -2.598  0.00  0.00    -0.075 A 
ATOM      2  C4  UNL d   1      -5.994  -0.467  -2.614  0.00  0.00     0.002 A 
ATOM      3  C5  UNL d   1      -5.943  -1.162  -3.823  0.00  0.00     0.002 A 
ATOM      4  C6  UNL d   1      -5.879  -0.466  -5.028  0.00  0.00    -0.004 A 
ATOM      5  C7  UNL d   1      -5.873   0.927  -5.024  0.00  0.00     0.002 A 
ATOM      6  C8  UNL d   1      -5.919   1.625  -3.816  0.00  0.00     0.002 A 
ENDROOT
BRANCH   1   7
ATOM      7  C2  UNL d   1      -5.997   1.692  -1.291  0.00  0.00     0.056 C 
BRANCH   7   8
ATOM      8  C1  UNL d   1      -5.999   0.794  -0.050  0.00  0.00     0.007 C 
ATOM      9  C   UNL d   1      -5.580   1.524   1.219  0.00  0.00     0.009 C 
ENDBRANCH   7   8
ENDBRANCH   1   7
TORSDOF 2
ENDMDL
