MODEL 1
REMARK minimizedAffinity -1.33646238
REMARK minimizedRMSD -1
REMARK  2 active torsions:
REMARK  status: ('A' for Active; 'I' for Inactive)
REMARK    1  A    between atoms: C1_2  and  C2_3 
REMARK    2  A    between atoms: C2_3  and  C3_4 
ROOT
ATOM      1  C3  UNL d   1       0.689   4.177  -3.800  0.00  0.00    -0.075 A 
ATOM      2  C4  UNL d   1       1.300   4.653  -4.969  0.00  0.00     0.002 A 
ATOM      3  C5  UNL d   1       0.532   5.201  -5.997  0.00  0.00     0.002 A 
ATOM      4  C6  UNL d   1      -0.854   5.270  -5.874  0.00  0.00    -0.004 A 
ATOM      5  C7  UNL d   1      -1.473   4.784  -4.724  0.00  0.00     0.002 A 
ATOM      6  C8  UNL d   1      -0.707   4.239  -3.693  0.00  0.00     0.002 A 
ENDROOT
BRANCH   1   7
ATOM      7  C2  UNL d   1       1.517   3.610  -2.672  0.00  0.00     0.056 C 
BRANCH   7   8
ATOM      8  C1  UNL d   1       1.004   2.270  -2.134  0.00  0.00     0.007 C 
ATOM      9  C   UNL d   1       1.511   1.952  -0.733  0.00  0.00     0.009 C 
ENDBRANCH   7   8
ENDBRANCH   1   7
TORSDOF 2
ENDMDL
