MODEL 1
REMARK minimizedAffinity 9.94350529
REMARK minimizedRMSD -1
REMARK  2 active torsions:
REMARK  status: ('A' for Active; 'I' for Inactive)
REMARK    1  A    between atoms: C1_2  and  C2_3 
REMARK    2  A    between atoms: C2_3  and  C3_4 
ROOT
ATOM      1  C3  UNL d   1      -0.716  -2.168   1.972  0.00  0.00    -0.075 A 
ATOM      2  C4  UNL d   1       0.538  -2.757   1.754  0.00  0.00     0.002 A 
ATOM      3  C5  UNL d   1       0.679  -3.805   0.844  0.00  0.00     0.002 A 
ATOM      4  C6  UNL d   1      -0.430  -4.283   0.149  0.00  0.00    -0.004 A 
ATOM      5  C7  UNL d   1      -1.683  -3.715   0.370  0.00  0.00     0.002 A 
ATOM      6  C8  UNL d   1      -1.827  -2.664   1.276  0.00  0.00     0.002 A 
ENDROOT
BRANCH   1   7
ATOM      7  C2  UNL d   1      -0.870  -1.014   2.933  0.00  0.00     0.056 C 
BRANCH   7   8
ATOM      8  C1  UNL d   1      -1.566   0.211   2.331  0.00  0.00     0.007 C 
ATOM      9  C   UNL d   1      -2.475   0.931   3.319  0.00  0.00     0.009 C 
ENDBRANCH   7   8
ENDBRANCH   1   7
TORSDOF 2
ENDMDL
