MODEL 1
REMARK minimizedAffinity 0.782390833
REMARK minimizedRMSD -1
REMARK  2 active torsions:
REMARK  status: ('A' for Active; 'I' for Inactive)
REMARK    1  A    between atoms: C1_2  and  C2_3 
REMARK    2  A    between atoms: C2_3  and  C3_4 
ROOT
ATOM      1  C3  UNL d   1       0.693   4.333  -3.839  0.00  0.00    -0.075 A 
ATOM      2  C4  UNL d   1       1.418   4.837  -4.929  0.00  0.00     0.002 A 
ATOM      3  C5  UNL d   1       0.759   5.446  -5.997  0.00  0.00     0.002 A 
ATOM      4  C6  UNL d   1      -0.631   5.550  -5.995  0.00  0.00    -0.004 A 
ATOM      5  C7  UNL d   1      -1.362   5.038  -4.925  0.00  0.00     0.002 A 
ATOM      6  C8  UNL d   1      -0.705   4.432  -3.853  0.00  0.00     0.002 A 
ENDROOT
BRANCH   1   7
ATOM      7  C2  UNL d   1       1.402   3.699  -2.667  0.00  0.00     0.056 C 
BRANCH   7   8
ATOM      8  C1  UNL d   1       0.835   2.336  -2.257  0.00  0.00     0.007 C 
ATOM      9  C   UNL d   1       1.394   1.825  -0.936  0.00  0.00     0.009 C 
ENDBRANCH   7   8
ENDBRANCH   1   7
TORSDOF 2
ENDMDL
