MODEL 1
REMARK minimizedAffinity 1.37769568
REMARK minimizedRMSD -1
REMARK  2 active torsions:
REMARK  status: ('A' for Active; 'I' for Inactive)
REMARK    1  A    between atoms: C1_2  and  C2_3 
REMARK    2  A    between atoms: C2_3  and  C3_4 
ROOT
ATOM      1  C3  UNL d   1       0.772   4.301  -3.802  0.00  0.00    -0.075 A 
ATOM      2  C4  UNL d   1      -0.395   5.074  -3.712  0.00  0.00     0.002 A 
ATOM      3  C5  UNL d   1      -0.771   5.913  -4.762  0.00  0.00     0.002 A 
ATOM      4  C6  UNL d   1       0.017   5.997  -5.907  0.00  0.00    -0.004 A 
ATOM      5  C7  UNL d   1       1.187   5.246  -6.000  0.00  0.00     0.002 A 
ATOM      6  C8  UNL d   1       1.564   4.403  -4.953  0.00  0.00     0.002 A 
ENDROOT
BRANCH   1   7
ATOM      7  C2  UNL d   1       1.169   3.369  -2.682  0.00  0.00     0.056 C 
BRANCH   7   8
ATOM      8  C1  UNL d   1       1.638   4.086  -1.411  0.00  0.00     0.007 C 
ATOM      9  C   UNL d   1       1.664   3.181  -0.187  0.00  0.00     0.009 C 
ENDBRANCH   7   8
ENDBRANCH   1   7
TORSDOF 2
ENDMDL
