MODEL 1
REMARK minimizedAffinity 5.27971745
REMARK minimizedRMSD -1
REMARK  2 active torsions:
REMARK  status: ('A' for Active; 'I' for Inactive)
REMARK    1  A    between atoms: C1_2  and  C2_3 
REMARK    2  A    between atoms: C2_3  and  C3_4 
ROOT
ATOM      1  C3  UNL d   1      -3.729  -0.642   2.352  0.00  0.00    -0.075 A 
ATOM      2  C4  UNL d   1      -4.421  -0.211   3.493  0.00  0.00     0.002 A 
ATOM      3  C5  UNL d   1      -3.731   0.095   4.666  0.00  0.00     0.002 A 
ATOM      4  C6  UNL d   1      -2.345  -0.035   4.717  0.00  0.00    -0.004 A 
ATOM      5  C7  UNL d   1      -1.649  -0.479   3.595  0.00  0.00     0.002 A 
ATOM      6  C8  UNL d   1      -2.336  -0.782   2.418  0.00  0.00     0.002 A 
ENDROOT
BRANCH   1   7
ATOM      7  C2  UNL d   1      -4.466  -0.947   1.070  0.00  0.00     0.056 C 
BRANCH   7   8
ATOM      8  C1  UNL d   1      -3.649  -1.757   0.058  0.00  0.00     0.007 C 
ATOM      9  C   UNL d   1      -3.585  -1.109  -1.319  0.00  0.00     0.009 C 
ENDBRANCH   7   8
ENDBRANCH   1   7
TORSDOF 2
ENDMDL
