MODEL 1
REMARK minimizedAffinity -2.37359262
REMARK minimizedRMSD -1
REMARK  2 active torsions:
REMARK  status: ('A' for Active; 'I' for Inactive)
REMARK    1  A    between atoms: C1_2  and  C2_3 
REMARK    2  A    between atoms: C2_3  and  C3_4 
ROOT
ATOM      1  C3  UNL d   1      -3.731  -0.885   1.871  0.00  0.00    -0.075 A 
ATOM      2  C4  UNL d   1      -2.973  -0.025   2.679  0.00  0.00     0.002 A 
ATOM      3  C5  UNL d   1      -1.673  -0.367   3.053  0.00  0.00     0.002 A 
ATOM      4  C6  UNL d   1      -1.120  -1.575   2.634  0.00  0.00    -0.004 A 
ATOM      5  C7  UNL d   1      -1.869  -2.445   1.845  0.00  0.00     0.002 A 
ATOM      6  C8  UNL d   1      -3.168  -2.103   1.465  0.00  0.00     0.002 A 
ENDROOT
BRANCH   1   7
ATOM      7  C2  UNL d   1      -5.127  -0.507   1.437  0.00  0.00     0.056 C 
BRANCH   7   8
ATOM      8  C1  UNL d   1      -5.680   0.741   2.134  0.00  0.00     0.007 C 
ATOM      9  C   UNL d   1      -6.000   1.875   1.169  0.00  0.00     0.009 C 
ENDBRANCH   7   8
ENDBRANCH   1   7
TORSDOF 2
ENDMDL
