MODEL 1
REMARK minimizedAffinity 3.61003041
REMARK minimizedRMSD -1
REMARK  2 active torsions:
REMARK  status: ('A' for Active; 'I' for Inactive)
REMARK    1  A    between atoms: C1_2  and  C2_3 
REMARK    2  A    between atoms: C2_3  and  C3_4 
ROOT
ATOM      1  C3  UNL d   1      -3.130  -0.885   2.378  0.00  0.00    -0.075 A 
ATOM      2  C4  UNL d   1      -3.140  -1.867   1.376  0.00  0.00     0.002 A 
ATOM      3  C5  UNL d   1      -4.199  -1.944   0.470  0.00  0.00     0.002 A 
ATOM      4  C6  UNL d   1      -5.264  -1.051   0.561  0.00  0.00    -0.004 A 
ATOM      5  C7  UNL d   1      -5.273  -0.083   1.563  0.00  0.00     0.002 A 
ATOM      6  C8  UNL d   1      -4.213   0.000   2.467  0.00  0.00     0.002 A 
ENDROOT
BRANCH   1   7
ATOM      7  C2  UNL d   1      -1.973  -0.777   3.342  0.00  0.00     0.056 C 
BRANCH   7   8
ATOM      8  C1  UNL d   1      -2.318  -0.059   4.651  0.00  0.00     0.007 C 
ATOM      9  C   UNL d   1      -3.284  -0.843   5.529  0.00  0.00     0.009 C 
ENDBRANCH   7   8
ENDBRANCH   1   7
TORSDOF 2
ENDMDL
