MODEL 1
REMARK minimizedAffinity 3.04545045
REMARK minimizedRMSD -1
REMARK  2 active torsions:
REMARK  status: ('A' for Active; 'I' for Inactive)
REMARK    1  A    between atoms: C1_2  and  C2_3 
REMARK    2  A    between atoms: C2_3  and  C3_4 
ROOT
ATOM      1  C3  UNL d   1      -0.014   3.888  -4.006  0.00  0.00    -0.075 A 
ATOM      2  C4  UNL d   1       1.176   4.559  -4.318  0.00  0.00     0.002 A 
ATOM      3  C5  UNL d   1       1.177   5.609  -5.238  0.00  0.00     0.002 A 
ATOM      4  C6  UNL d   1      -0.007   5.993  -5.862  0.00  0.00    -0.004 A 
ATOM      5  C7  UNL d   1      -1.193   5.321  -5.572  0.00  0.00     0.002 A 
ATOM      6  C8  UNL d   1      -1.198   4.274  -4.649  0.00  0.00     0.002 A 
ENDROOT
BRANCH   1   7
ATOM      7  C2  UNL d   1      -0.027   2.770  -2.990  0.00  0.00     0.056 C 
BRANCH   7   8
ATOM      8  C1  UNL d   1       1.310   2.566  -2.271  0.00  0.00     0.007 C 
ATOM      9  C   UNL d   1       1.179   1.788  -0.968  0.00  0.00     0.009 C 
ENDBRANCH   7   8
ENDBRANCH   1   7
TORSDOF 2
ENDMDL
