MODEL 1
REMARK minimizedAffinity 0.00149530068
REMARK minimizedRMSD -1
REMARK  2 active torsions:
REMARK  status: ('A' for Active; 'I' for Inactive)
REMARK    1  A    between atoms: C1_2  and  C2_3 
REMARK    2  A    between atoms: C2_3  and  C3_4 
ROOT
ATOM      1  C3  UNL d   1       1.550   3.599  -2.158  0.00  0.00    -0.075 A 
ATOM      2  C4  UNL d   1       1.519   4.056  -0.832  0.00  0.00     0.002 A 
ATOM      3  C5  UNL d   1       1.437   3.152   0.227  0.00  0.00     0.002 A 
ATOM      4  C6  UNL d   1       1.375   1.783  -0.024  0.00  0.00    -0.004 A 
ATOM      5  C7  UNL d   1       1.388   1.319  -1.337  0.00  0.00     0.002 A 
ATOM      6  C8  UNL d   1       1.474   2.221  -2.399  0.00  0.00     0.002 A 
ENDROOT
BRANCH   1   7
ATOM      7  C2  UNL d   1       1.668   4.570  -3.307  0.00  0.00     0.056 C 
BRANCH   7   8
ATOM      8  C1  UNL d   1       0.545   4.452  -4.343  0.00  0.00     0.007 C 
ATOM      9  C   UNL d   1       0.785   5.293  -5.589  0.00  0.00     0.009 C 
ENDBRANCH   7   8
ENDBRANCH   1   7
TORSDOF 2
ENDMDL
