MODEL 1
REMARK minimizedAffinity 6.04599714
REMARK minimizedRMSD -1
REMARK  2 active torsions:
REMARK  status: ('A' for Active; 'I' for Inactive)
REMARK    1  A    between atoms: C1_2  and  C2_3 
REMARK    2  A    between atoms: C2_3  and  C3_4 
ROOT
ATOM      1  C3  UNL d   1       1.224   4.392  -3.743  0.00  0.00    -0.075 A 
ATOM      2  C4  UNL d   1      -0.151   4.671  -3.749  0.00  0.00     0.002 A 
ATOM      3  C5  UNL d   1      -0.755   5.235  -4.873  0.00  0.00     0.002 A 
ATOM      4  C6  UNL d   1       0.007   5.535  -6.000  0.00  0.00    -0.004 A 
ATOM      5  C7  UNL d   1       1.376   5.278  -6.000  0.00  0.00     0.002 A 
ATOM      6  C8  UNL d   1       1.982   4.710  -4.878  0.00  0.00     0.002 A 
ENDROOT
BRANCH   1   7
ATOM      7  C2  UNL d   1       1.878   3.755  -2.541  0.00  0.00     0.056 C 
BRANCH   7   8
ATOM      8  C1  UNL d   1       1.385   2.336  -2.241  0.00  0.00     0.007 C 
ATOM      9  C   UNL d   1       2.262   1.595  -1.241  0.00  0.00     0.009 C 
ENDBRANCH   7   8
ENDBRANCH   1   7
TORSDOF 2
ENDMDL
