MODEL 1
REMARK minimizedAffinity 6.74226761
REMARK minimizedRMSD -1
REMARK  2 active torsions:
REMARK  status: ('A' for Active; 'I' for Inactive)
REMARK    1  A    between atoms: C1_2  and  C2_3 
REMARK    2  A    between atoms: C2_3  and  C3_4 
ROOT
ATOM      1  C3  UNL d   1       1.012   4.100  -4.010  0.00  0.00    -0.075 A 
ATOM      2  C4  UNL d   1      -0.384   3.961  -4.000  0.00  0.00     0.002 A 
ATOM      3  C5  UNL d   1      -1.163   4.565  -4.988  0.00  0.00     0.002 A 
ATOM      4  C6  UNL d   1      -0.559   5.321  -5.989  0.00  0.00    -0.004 A 
ATOM      5  C7  UNL d   1       0.825   5.480  -6.000  0.00  0.00     0.002 A 
ATOM      6  C8  UNL d   1       1.607   4.874  -5.015  0.00  0.00     0.002 A 
ENDROOT
BRANCH   1   7
ATOM      7  C2  UNL d   1       1.863   3.426  -2.961  0.00  0.00     0.056 C 
BRANCH   7   8
ATOM      8  C1  UNL d   1       1.422   1.997  -2.624  0.00  0.00     0.007 C 
ATOM      9  C   UNL d   1       2.471   1.212  -1.848  0.00  0.00     0.009 C 
ENDBRANCH   7   8
ENDBRANCH   1   7
TORSDOF 2
ENDMDL
