MODEL 1
REMARK minimizedAffinity 3.95064116
REMARK minimizedRMSD -1
REMARK  2 active torsions:
REMARK  status: ('A' for Active; 'I' for Inactive)
REMARK    1  A    between atoms: C1_2  and  C2_3 
REMARK    2  A    between atoms: C2_3  and  C3_4 
ROOT
ATOM      1  C3  UNL d   1       1.109   4.397  -3.808  0.00  0.00    -0.075 A 
ATOM      2  C4  UNL d   1      -0.104   5.101  -3.812  0.00  0.00     0.002 A 
ATOM      3  C5  UNL d   1      -0.461   5.892  -4.904  0.00  0.00     0.002 A 
ATOM      4  C6  UNL d   1       0.393   5.998  -6.000  0.00  0.00    -0.004 A 
ATOM      5  C7  UNL d   1       1.608   5.317  -6.000  0.00  0.00     0.002 A 
ATOM      6  C8  UNL d   1       1.966   4.521  -4.910  0.00  0.00     0.002 A 
ENDROOT
BRANCH   1   7
ATOM      7  C2  UNL d   1       1.487   3.516  -2.642  0.00  0.00     0.056 C 
BRANCH   7   8
ATOM      8  C1  UNL d   1       1.495   2.019  -2.968  0.00  0.00     0.007 C 
ATOM      9  C   UNL d   1       1.813   1.144  -1.763  0.00  0.00     0.009 C 
ENDBRANCH   7   8
ENDBRANCH   1   7
TORSDOF 2
ENDMDL
