MODEL 1
REMARK minimizedAffinity -3.5100224
REMARK minimizedRMSD -1
REMARK  0 active torsions:
REMARK  status: ('A' for Active; 'I' for Inactive)
ROOT
ATOM      1  C   UNL d   1      -2.762   0.959   1.138  0.00  0.00     0.172 C 
ATOM      2  N   UNL d   1      -1.348   0.677   1.047  0.00  0.00    -0.070 N 
ATOM      3  C1  UNL d   1      -0.648   0.473  -0.112  0.00  0.00    -0.004 A 
ATOM      4  C2  UNL d   1       0.667   0.235   0.226  0.00  0.00    -0.047 A 
ATOM      5  C3  UNL d   1       0.759   0.298   1.636  0.00  0.00    -0.047 A 
ATOM      6  C4  UNL d   1      -0.503   0.572   2.119  0.00  0.00    -0.004 A 
ENDROOT
TORSDOF 0
ENDMDL
