MODEL 1
REMARK minimizedAffinity -1.17116284
REMARK minimizedRMSD -1
REMARK  0 active torsions:
REMARK  status: ('A' for Active; 'I' for Inactive)
ROOT
ATOM      1  C   UNL d   1      -0.557   1.119  -1.942  0.00  0.00     0.172 C 
ATOM      2  N   UNL d   1       0.333   0.214  -2.631  0.00  0.00    -0.070 N 
ATOM      3  C1  UNL d   1      -0.008  -1.014  -3.133  0.00  0.00    -0.004 A 
ATOM      4  C2  UNL d   1       1.116  -1.559  -3.714  0.00  0.00    -0.047 A 
ATOM      5  C3  UNL d   1       2.169  -0.627  -3.556  0.00  0.00    -0.047 A 
ATOM      6  C4  UNL d   1       1.656   0.461  -2.882  0.00  0.00    -0.004 A 
ENDROOT
TORSDOF 0
ENDMDL
