MODEL 1
REMARK minimizedAffinity -1.6765821
REMARK minimizedRMSD -1
REMARK  0 active torsions:
REMARK  status: ('A' for Active; 'I' for Inactive)
ROOT
ATOM      1  C   UNL d   1      -0.519   0.880  -1.444  0.00  0.00     0.172 C 
ATOM      2  N   UNL d   1       0.114  -0.108  -2.286  0.00  0.00    -0.070 N 
ATOM      3  C1  UNL d   1       1.418  -0.085  -2.702  0.00  0.00    -0.004 A 
ATOM      4  C2  UNL d   1       1.631  -1.199  -3.485  0.00  0.00    -0.047 A 
ATOM      5  C3  UNL d   1       0.412  -1.915  -3.543  0.00  0.00    -0.047 A 
ATOM      6  C4  UNL d   1      -0.511  -1.217  -2.792  0.00  0.00    -0.004 A 
ENDROOT
TORSDOF 0
ENDMDL
