MODEL 1
REMARK minimizedAffinity -1.6973902
REMARK minimizedRMSD -1
REMARK  0 active torsions:
REMARK  status: ('A' for Active; 'I' for Inactive)
ROOT
ATOM      1  C   UNL d   1       0.152   0.458   2.781  0.00  0.00     0.172 C 
ATOM      2  N   UNL d   1       0.073   0.426   1.340  0.00  0.00    -0.070 N 
ATOM      3  C1  UNL d   1       1.099   0.706   0.478  0.00  0.00    -0.004 A 
ATOM      4  C2  UNL d   1       0.622   0.564  -0.807  0.00  0.00    -0.047 A 
ATOM      5  C3  UNL d   1      -0.739   0.186  -0.714  0.00  0.00    -0.047 A 
ATOM      6  C4  UNL d   1      -1.053   0.107   0.626  0.00  0.00    -0.004 A 
ENDROOT
TORSDOF 0
ENDMDL
