MODEL 1
REMARK minimizedAffinity -2.89023423
REMARK minimizedRMSD -1
REMARK  0 active torsions:
REMARK  status: ('A' for Active; 'I' for Inactive)
ROOT
ATOM      1  C   UNL d   1      -0.527   0.446   2.556  0.00  0.00     0.172 C 
ATOM      2  N   UNL d   1      -0.449   0.487   1.114  0.00  0.00    -0.070 N 
ATOM      3  C1  UNL d   1       0.694   0.355   0.373  0.00  0.00    -0.004 A 
ATOM      4  C2  UNL d   1       0.348   0.450  -0.958  0.00  0.00    -0.047 A 
ATOM      5  C3  UNL d   1      -1.052   0.646  -1.018  0.00  0.00    -0.047 A 
ATOM      6  C4  UNL d   1      -1.520   0.665   0.279  0.00  0.00    -0.004 A 
ENDROOT
TORSDOF 0
ENDMDL
