MODEL 1
REMARK minimizedAffinity -1.72701573
REMARK minimizedRMSD -1
REMARK  0 active torsions:
REMARK  status: ('A' for Active; 'I' for Inactive)
ROOT
ATOM      1  C   UNL d   1       1.058  -0.331  -3.001  0.00  0.00     0.172 C 
ATOM      2  N   UNL d   1       0.631  -0.020  -1.657  0.00  0.00    -0.070 N 
ATOM      3  C1  UNL d   1       1.398  -0.134  -0.529  0.00  0.00    -0.004 A 
ATOM      4  C2  UNL d   1       0.629   0.257   0.546  0.00  0.00    -0.047 A 
ATOM      5  C3  UNL d   1      -0.645   0.616   0.047  0.00  0.00    -0.047 A 
ATOM      6  C4  UNL d   1      -0.617   0.435  -1.320  0.00  0.00    -0.004 A 
ENDROOT
TORSDOF 0
ENDMDL
