MODEL 1
REMARK minimizedAffinity -1.20508218
REMARK minimizedRMSD -1
REMARK  0 active torsions:
REMARK  status: ('A' for Active; 'I' for Inactive)
ROOT
ATOM      1  C   UNL d   1      -0.007   0.461  -1.340  0.00  0.00     0.172 C 
ATOM      2  N   UNL d   1       0.636  -0.322  -2.369  0.00  0.00    -0.070 N 
ATOM      3  C1  UNL d   1       0.093  -1.410  -3.000  0.00  0.00    -0.004 A 
ATOM      4  C2  UNL d   1       1.017  -1.873  -3.912  0.00  0.00    -0.047 A 
ATOM      5  C3  UNL d   1       2.155  -1.035  -3.825  0.00  0.00    -0.047 A 
ATOM      6  C4  UNL d   1       1.891  -0.084  -2.862  0.00  0.00    -0.004 A 
ENDROOT
TORSDOF 0
ENDMDL
