MODEL 1
REMARK minimizedAffinity -1.30655622
REMARK minimizedRMSD -1
REMARK  0 active torsions:
REMARK  status: ('A' for Active; 'I' for Inactive)
ROOT
ATOM      1  C   UNL d   1       0.609   2.484   3.652  0.00  0.00     0.172 C 
ATOM      2  N   UNL d   1       0.712   1.470   2.629  0.00  0.00    -0.070 N 
ATOM      3  C1  UNL d   1       0.136   0.229   2.673  0.00  0.00    -0.004 A 
ATOM      4  C2  UNL d   1       0.469  -0.434   1.512  0.00  0.00    -0.047 A 
ATOM      5  C3  UNL d   1       1.275   0.439   0.743  0.00  0.00    -0.047 A 
ATOM      6  C4  UNL d   1       1.409   1.611   1.458  0.00  0.00    -0.004 A 
ENDROOT
TORSDOF 0
ENDMDL
