MODEL 1
REMARK minimizedAffinity -2.35380483
REMARK minimizedRMSD -1
REMARK  0 active torsions:
REMARK  status: ('A' for Active; 'I' for Inactive)
ROOT
ATOM      1  C   UNL d   1       0.499   0.163  -1.393  0.00  0.00     0.172 C 
ATOM      2  N   UNL d   1       0.048   0.306  -0.028  0.00  0.00    -0.070 N 
ATOM      3  C1  UNL d   1      -1.243   0.537   0.366  0.00  0.00    -0.004 A 
ATOM      4  C2  UNL d   1      -1.258   0.609   1.742  0.00  0.00    -0.047 A 
ATOM      5  C3  UNL d   1       0.070   0.416   2.190  0.00  0.00    -0.047 A 
ATOM      6  C4  UNL d   1       0.858   0.231   1.074  0.00  0.00    -0.004 A 
ENDROOT
TORSDOF 0
ENDMDL
