MODEL 1
REMARK minimizedAffinity -1.11238289
REMARK minimizedRMSD -1
REMARK  0 active torsions:
REMARK  status: ('A' for Active; 'I' for Inactive)
ROOT
ATOM      1  C   UNL d   1       0.407   0.172  -1.678  0.00  0.00     0.172 C 
ATOM      2  N   UNL d   1       0.510   0.145  -0.238  0.00  0.00    -0.070 N 
ATOM      3  C1  UNL d   1      -0.514  -0.125   0.631  0.00  0.00    -0.004 A 
ATOM      4  C2  UNL d   1      -0.011  -0.054   1.912  0.00  0.00    -0.047 A 
ATOM      5  C3  UNL d   1       1.362   0.271   1.810  0.00  0.00    -0.047 A 
ATOM      6  C4  UNL d   1       1.658   0.389   0.468  0.00  0.00    -0.004 A 
ENDROOT
TORSDOF 0
ENDMDL
