MODEL 1
REMARK minimizedAffinity -2.25104189
REMARK minimizedRMSD -1
REMARK  0 active torsions:
REMARK  status: ('A' for Active; 'I' for Inactive)
ROOT
ATOM      1  C   UNL d   1       0.373  -0.072   2.274  0.00  0.00     0.172 C 
ATOM      2  N   UNL d   1       0.336   0.187   0.854  0.00  0.00    -0.070 N 
ATOM      3  C1  UNL d   1      -0.754   0.021   0.040  0.00  0.00    -0.004 A 
ATOM      4  C2  UNL d   1      -0.382   0.374  -1.239  0.00  0.00    -0.047 A 
ATOM      5  C3  UNL d   1       0.977   0.764  -1.193  0.00  0.00    -0.047 A 
ATOM      6  C4  UNL d   1       1.396   0.639   0.114  0.00  0.00    -0.004 A 
ENDROOT
TORSDOF 0
ENDMDL
