MODEL 1
REMARK minimizedAffinity -2.14115858
REMARK minimizedRMSD -1
REMARK  0 active torsions:
REMARK  status: ('A' for Active; 'I' for Inactive)
ROOT
ATOM      1  C   UNL d   1      -2.859   0.531   0.563  0.00  0.00     0.172 C 
ATOM      2  N   UNL d   1      -1.436   0.460   0.798  0.00  0.00    -0.070 N 
ATOM      3  C1  UNL d   1      -0.473   0.339  -0.168  0.00  0.00    -0.004 A 
ATOM      4  C2  UNL d   1       0.753   0.305   0.460  0.00  0.00    -0.047 A 
ATOM      5  C3  UNL d   1       0.519   0.408   1.852  0.00  0.00    -0.047 A 
ATOM      6  C4  UNL d   1      -0.845   0.503   2.033  0.00  0.00    -0.004 A 
ENDROOT
TORSDOF 0
ENDMDL
