MODEL 1
REMARK minimizedAffinity -1.92374623
REMARK minimizedRMSD -1
REMARK  0 active torsions:
REMARK  status: ('A' for Active; 'I' for Inactive)
ROOT
ATOM      1  C   UNL d   1       1.402  -0.705  -2.665  0.00  0.00     0.172 C 
ATOM      2  N   UNL d   1       0.753  -0.378  -1.417  0.00  0.00    -0.070 N 
ATOM      3  C1  UNL d   1       1.376  -0.239  -0.206  0.00  0.00    -0.004 A 
ATOM      4  C2  UNL d   1       0.415   0.076   0.730  0.00  0.00    -0.047 A 
ATOM      5  C3  UNL d   1      -0.830   0.127   0.058  0.00  0.00    -0.047 A 
ATOM      6  C4  UNL d   1      -0.591  -0.158  -1.270  0.00  0.00    -0.004 A 
ENDROOT
TORSDOF 0
ENDMDL
