MODEL 1
REMARK minimizedAffinity -2.60251188
REMARK minimizedRMSD -1
REMARK  0 active torsions:
REMARK  status: ('A' for Active; 'I' for Inactive)
ROOT
ATOM      1  C   UNL d   1       0.153  -1.337  -2.573  0.00  0.00     0.172 C 
ATOM      2  N   UNL d   1       0.382  -0.667  -1.314  0.00  0.00    -0.070 N 
ATOM      3  C1  UNL d   1       0.417  -1.268  -0.085  0.00  0.00    -0.004 A 
ATOM      4  C2  UNL d   1       0.660  -0.291   0.856  0.00  0.00    -0.047 A 
ATOM      5  C3  UNL d   1       0.774   0.941   0.168  0.00  0.00    -0.047 A 
ATOM      6  C4  UNL d   1       0.597   0.679  -1.174  0.00  0.00    -0.004 A 
ENDROOT
TORSDOF 0
ENDMDL
