MODEL 1
REMARK minimizedAffinity -2.5361948
REMARK minimizedRMSD -1
REMARK  0 active torsions:
REMARK  status: ('A' for Active; 'I' for Inactive)
ROOT
ATOM      1  C   UNL d   1       0.384   0.306   2.430  0.00  0.00     0.172 C 
ATOM      2  N   UNL d   1       0.294   0.394   0.992  0.00  0.00    -0.070 N 
ATOM      3  C1  UNL d   1       1.347   0.568   0.135  0.00  0.00    -0.004 A 
ATOM      4  C2  UNL d   1       0.847   0.600  -1.149  0.00  0.00    -0.047 A 
ATOM      5  C3  UNL d   1      -0.557   0.440  -1.060  0.00  0.00    -0.047 A 
ATOM      6  C4  UNL d   1      -0.872   0.315   0.277  0.00  0.00    -0.004 A 
ENDROOT
TORSDOF 0
ENDMDL
