MODEL 1
REMARK minimizedAffinity -2.38983822
REMARK minimizedRMSD -1
REMARK  0 active torsions:
REMARK  status: ('A' for Active; 'I' for Inactive)
ROOT
ATOM      1  C   UNL d   1      -2.657  -0.451   2.507  0.00  0.00    -0.002 A 
ATOM      2  C1  UNL d   1      -2.523   0.813   1.949  0.00  0.00     0.010 A 
ATOM      3  C2  UNL d   1      -1.491   1.086   1.049  0.00  0.00     0.041 A 
ATOM      4  C3  UNL d   1      -0.588   0.058   0.715  0.00  0.00    -0.075 A 
ATOM      5  S   UNL d   1       0.752   0.161  -0.365  0.00  0.00     0.015 SA
ATOM      6  C4  UNL d   1       1.178  -1.469  -0.111  0.00  0.00     0.022 A 
ATOM      7  C5  UNL d   1       0.329  -2.093   0.773  0.00  0.00     0.026 A 
ATOM      8  C6  UNL d   1      -0.703  -1.223   1.263  0.00  0.00    -0.082 A 
ATOM      9  C7  UNL d   1      -1.760  -1.468   2.173  0.00  0.00     0.045 A 
ENDROOT
TORSDOF 0
ENDMDL
