MODEL 1
REMARK minimizedAffinity -1.62643456
REMARK minimizedRMSD -1
REMARK  0 active torsions:
REMARK  status: ('A' for Active; 'I' for Inactive)
ROOT
ATOM      1  C   UNL d   1       2.432   2.598  -2.849  0.00  0.00    -0.002 A 
ATOM      2  C1  UNL d   1       1.169   2.371  -3.377  0.00  0.00     0.010 A 
ATOM      3  C2  UNL d   1       0.217   1.649  -2.655  0.00  0.00     0.041 A 
ATOM      4  C3  UNL d   1       0.558   1.156  -1.380  0.00  0.00    -0.075 A 
ATOM      5  S   UNL d   1      -0.446   0.246  -0.314  0.00  0.00     0.015 SA
ATOM      6  C4  UNL d   1       0.777   0.139   0.868  0.00  0.00     0.022 A 
ATOM      7  C5  UNL d   1       1.931   0.775   0.475  0.00  0.00     0.026 A 
ATOM      8  C6  UNL d   1       1.823   1.373  -0.826  0.00  0.00    -0.082 A 
ATOM      9  C7  UNL d   1       2.767   2.107  -1.584  0.00  0.00     0.045 A 
ENDROOT
TORSDOF 0
ENDMDL
