MODEL 1
REMARK minimizedAffinity -0.698955834
REMARK minimizedRMSD -1
REMARK  0 active torsions:
REMARK  status: ('A' for Active; 'I' for Inactive)
ROOT
ATOM      1  C   UNL d   1       0.969  -2.509   0.449  0.00  0.00    -0.002 A 
ATOM      2  C1  UNL d   1       0.158  -2.203   1.532  0.00  0.00     0.010 A 
ATOM      3  C2  UNL d   1      -0.440  -0.946   1.638  0.00  0.00     0.041 A 
ATOM      4  C3  UNL d   1      -0.208   0.007   0.627  0.00  0.00    -0.075 A 
ATOM      5  S   UNL d   1      -0.836   1.611   0.545  0.00  0.00     0.015 SA
ATOM      6  C4  UNL d   1      -0.042   1.927  -0.929  0.00  0.00     0.022 A 
ATOM      7  C5  UNL d   1       0.689   0.846  -1.363  0.00  0.00     0.026 A 
ATOM      8  C6  UNL d   1       0.605  -0.278  -0.474  0.00  0.00    -0.082 A 
ATOM      9  C7  UNL d   1       1.197  -1.561  -0.553  0.00  0.00     0.045 A 
ENDROOT
TORSDOF 0
ENDMDL
