MODEL 1
REMARK minimizedAffinity 1.96684754
REMARK minimizedRMSD -1
REMARK  0 active torsions:
REMARK  status: ('A' for Active; 'I' for Inactive)
ROOT
ATOM      1  C   UNL d   1       1.832   2.431  -3.144  0.00  0.00    -0.002 A 
ATOM      2  C1  UNL d   1       0.480   2.680  -3.339  0.00  0.00     0.010 A 
ATOM      3  C2  UNL d   1      -0.470   2.178  -2.448  0.00  0.00     0.041 A 
ATOM      4  C3  UNL d   1      -0.035   1.415  -1.346  0.00  0.00    -0.075 A 
ATOM      5  S   UNL d   1      -1.019   0.699  -0.124  0.00  0.00     0.015 SA
ATOM      6  C4  UNL d   1       0.331   0.047   0.685  0.00  0.00     0.022 A 
ATOM      7  C5  UNL d   1       1.512   0.357   0.053  0.00  0.00     0.026 A 
ATOM      8  C6  UNL d   1       1.320   1.152  -1.128  0.00  0.00    -0.082 A 
ATOM      9  C7  UNL d   1       2.259   1.674  -2.050  0.00  0.00     0.045 A 
ENDROOT
TORSDOF 0
ENDMDL
