MODEL 1
REMARK minimizedAffinity -4.59338903
REMARK minimizedRMSD -1
REMARK  0 active torsions:
REMARK  status: ('A' for Active; 'I' for Inactive)
ROOT
ATOM      1  C   UNL d   1       1.474  -2.335   0.750  0.00  0.00    -0.002 A 
ATOM      2  C1  UNL d   1       1.945  -1.045   0.555  0.00  0.00     0.010 A 
ATOM      3  C2  UNL d   1       1.062   0.035   0.513  0.00  0.00     0.041 A 
ATOM      4  C3  UNL d   1      -0.317  -0.206   0.673  0.00  0.00    -0.075 A 
ATOM      5  S   UNL d   1      -1.585   0.963   0.658  0.00  0.00     0.015 SA
ATOM      6  C4  UNL d   1      -2.782  -0.224   0.911  0.00  0.00     0.022 A 
ATOM      7  C5  UNL d   1      -2.246  -1.486   1.006  0.00  0.00     0.026 A 
ATOM      8  C6  UNL d   1      -0.816  -1.496   0.871  0.00  0.00    -0.082 A 
ATOM      9  C7  UNL d   1       0.105  -2.570   0.908  0.00  0.00     0.045 A 
ENDROOT
TORSDOF 0
ENDMDL
