MODEL 1
REMARK minimizedAffinity -4.79353809
REMARK minimizedRMSD -1
REMARK  0 active torsions:
REMARK  status: ('A' for Active; 'I' for Inactive)
ROOT
ATOM      1  C   UNL d   1      -2.117  -2.164   1.720  0.00  0.00    -0.002 A 
ATOM      2  C1  UNL d   1      -2.888  -1.016   1.611  0.00  0.00     0.010 A 
ATOM      3  C2  UNL d   1      -2.330   0.174   1.140  0.00  0.00     0.041 A 
ATOM      4  C3  UNL d   1      -0.969   0.190   0.774  0.00  0.00    -0.075 A 
ATOM      5  S   UNL d   1      -0.071   1.531   0.170  0.00  0.00     0.015 SA
ATOM      6  C4  UNL d   1       1.358   0.612   0.041  0.00  0.00     0.022 A 
ATOM      7  C5  UNL d   1       1.173  -0.689   0.445  0.00  0.00     0.026 A 
ATOM      8  C6  UNL d   1      -0.172  -0.954   0.873  0.00  0.00    -0.082 A 
ATOM      9  C7  UNL d   1      -0.768  -2.144   1.356  0.00  0.00     0.045 A 
ENDROOT
TORSDOF 0
ENDMDL
