MODEL 1
REMARK minimizedAffinity -4.21060896
REMARK minimizedRMSD -1
REMARK  0 active torsions:
REMARK  status: ('A' for Active; 'I' for Inactive)
ROOT
ATOM      1  C   UNL d   1      -3.111  -2.134   1.976  0.00  0.00    -0.002 A 
ATOM      2  C1  UNL d   1      -3.336  -0.799   1.675  0.00  0.00     0.010 A 
ATOM      3  C2  UNL d   1      -2.314  -0.007   1.147  0.00  0.00     0.041 A 
ATOM      4  C3  UNL d   1      -1.050  -0.587   0.923  0.00  0.00    -0.075 A 
ATOM      5  S   UNL d   1       0.351   0.188   0.284  0.00  0.00     0.015 SA
ATOM      6  C4  UNL d   1       1.281  -1.236   0.395  0.00  0.00     0.022 A 
ATOM      7  C5  UNL d   1       0.557  -2.287   0.905  0.00  0.00     0.026 A 
ATOM      8  C6  UNL d   1      -0.799  -1.931   1.218  0.00  0.00    -0.082 A 
ATOM      9  C7  UNL d   1      -1.856  -2.706   1.753  0.00  0.00     0.045 A 
ENDROOT
TORSDOF 0
ENDMDL
