MODEL 1
REMARK minimizedAffinity -3.88693213
REMARK minimizedRMSD -1
REMARK  1 active torsions:
REMARK  status: ('A' for Active; 'I' for Inactive)
REMARK    1  A    between atoms: N_2  and  C1_3 
ROOT
ATOM      1  C1  UNL d   1       0.200  -0.155  -0.881  0.00  0.00     0.143 A 
ATOM      2  C2  UNL d   1       0.742  -0.053   0.405  0.00  0.00    -0.057 A 
ATOM      3  C3  UNL d   1      -0.065   0.225   1.514  0.00  0.00     0.033 A 
ATOM      4  C4  UNL d   1      -1.431   0.435   1.353  0.00  0.00    -0.042 A 
ATOM      5  C5  UNL d   1      -1.988   0.363   0.081  0.00  0.00     0.033 A 
ATOM      6  C6  UNL d   1      -1.177   0.079  -1.022  0.00  0.00    -0.057 A 
ENDROOT
BRANCH   1   7
ATOM      7  N   UNL d   1       0.964  -0.331  -2.036  0.00  0.00    -0.732 N 
ATOM      8  C   UNL d   1       0.398  -0.069  -3.342  0.00  0.00     0.284 C 
ATOM      9  H3  UNL d   1       1.920  -0.001  -1.924  0.00  0.00     0.395 HD
ENDBRANCH   1   7
TORSDOF 1
ENDMDL
