MODEL 1
REMARK minimizedAffinity -2.05864382
REMARK minimizedRMSD -1
REMARK  1 active torsions:
REMARK  status: ('A' for Active; 'I' for Inactive)
REMARK    1  A    between atoms: N_2  and  C1_3 
ROOT
ATOM      1  C1  UNL d   1      -0.337   0.909   1.174  0.00  0.00     0.143 A 
ATOM      2  C2  UNL d   1      -1.522   0.441   0.597  0.00  0.00    -0.057 A 
ATOM      3  C3  UNL d   1      -1.509  -0.581  -0.360  0.00  0.00     0.033 A 
ATOM      4  C4  UNL d   1      -0.304  -1.134  -0.780  0.00  0.00    -0.042 A 
ATOM      5  C5  UNL d   1       0.888  -0.668  -0.238  0.00  0.00     0.033 A 
ATOM      6  C6  UNL d   1       0.868   0.348   0.722  0.00  0.00    -0.057 A 
ENDROOT
BRANCH   1   7
ATOM      7  N   UNL d   1      -0.275   1.989   2.058  0.00  0.00    -0.732 N 
ATOM      8  C   UNL d   1      -0.815   1.879   3.396  0.00  0.00     0.284 C 
ATOM      9  H3  UNL d   1       0.613   2.482   2.007  0.00  0.00     0.395 HD
ENDBRANCH   1   7
TORSDOF 1
ENDMDL
