MODEL 1
REMARK minimizedAffinity -0.989973605
REMARK minimizedRMSD -1
REMARK  1 active torsions:
REMARK  status: ('A' for Active; 'I' for Inactive)
REMARK    1  A    between atoms: C1_2  and  C2_3 
ROOT
ATOM      1  C2  UNL d   1       1.408  -1.781   0.632  0.00  0.00    -0.076 A 
ATOM      2  C3  UNL d   1       1.194  -3.156   0.432  0.00  0.00     0.004 A 
ATOM      3  C4  UNL d   1       2.228  -3.988   0.005  0.00  0.00    -0.003 A 
ATOM      4  C5  UNL d   1       3.492  -3.459  -0.229  0.00  0.00     0.000 A 
ATOM      5  C6  UNL d   1       3.727  -2.100  -0.019  0.00  0.00     0.000 A 
ATOM      6  C7  UNL d   1       2.700  -1.251   0.427  0.00  0.00    -0.073 A 
ATOM      7  C8  UNL d   1       3.007   0.208   0.630  0.00  0.00     0.078 C 
ENDROOT
BRANCH   1   8
ATOM      8  C1  UNL d   1       0.242  -0.923   1.069  0.00  0.00     0.053 C 
ATOM      9  C   UNL d   1      -1.084  -1.412   0.508  0.00  0.00     0.018 C 
ENDBRANCH   1   8
TORSDOF 1
ENDMDL
