MODEL 1
REMARK minimizedAffinity -1.71724331
REMARK minimizedRMSD -1
REMARK  1 active torsions:
REMARK  status: ('A' for Active; 'I' for Inactive)
REMARK    1  A    between atoms: C1_2  and  C2_3 
ROOT
ATOM      1  C2  UNL d   1       1.766  -1.102   0.304  0.00  0.00    -0.076 A 
ATOM      2  C3  UNL d   1       2.837  -1.876  -0.173  0.00  0.00     0.004 A 
ATOM      3  C4  UNL d   1       2.675  -3.233  -0.450  0.00  0.00    -0.003 A 
ATOM      4  C5  UNL d   1       1.438  -3.837  -0.254  0.00  0.00     0.000 A 
ATOM      5  C6  UNL d   1       0.360  -3.081   0.203  0.00  0.00     0.000 A 
ATOM      6  C7  UNL d   1       0.502  -1.708   0.471  0.00  0.00    -0.073 A 
ATOM      7  C8  UNL d   1      -0.693  -0.942   0.967  0.00  0.00     0.078 C 
ENDROOT
BRANCH   1   8
ATOM      8  C1  UNL d   1       2.008   0.358   0.613  0.00  0.00     0.053 C 
ATOM      9  C   UNL d   1       2.179   0.618   2.102  0.00  0.00     0.018 C 
ENDBRANCH   1   8
TORSDOF 1
ENDMDL
