MODEL 1
REMARK minimizedAffinity -3.29824233
REMARK minimizedRMSD -1
REMARK  1 active torsions:
REMARK  status: ('A' for Active; 'I' for Inactive)
REMARK    1  A    between atoms: C1_2  and  C2_3 
ROOT
ATOM      1  C2  UNL d   1       1.435  -0.959   0.403  0.00  0.00    -0.076 A 
ATOM      2  C3  UNL d   1       0.187  -0.426   0.767  0.00  0.00     0.004 A 
ATOM      3  C4  UNL d   1      -0.923  -1.252   0.940  0.00  0.00    -0.003 A 
ATOM      4  C5  UNL d   1      -0.801  -2.624   0.754  0.00  0.00     0.000 A 
ATOM      5  C6  UNL d   1       0.434  -3.172   0.411  0.00  0.00     0.000 A 
ATOM      6  C7  UNL d   1       1.566  -2.356   0.248  0.00  0.00    -0.073 A 
ATOM      7  C8  UNL d   1       2.873  -2.999  -0.129  0.00  0.00     0.078 C 
ENDROOT
BRANCH   1   8
ATOM      8  C1  UNL d   1       2.597  -0.012   0.202  0.00  0.00     0.053 C 
ATOM      9  C   UNL d   1       2.828   0.890   1.405  0.00  0.00     0.018 C 
ENDBRANCH   1   8
TORSDOF 1
ENDMDL
