MODEL 1
REMARK minimizedAffinity -3.54130101
REMARK minimizedRMSD -1
REMARK  1 active torsions:
REMARK  status: ('A' for Active; 'I' for Inactive)
REMARK    1  A    between atoms: C1_2  and  C2_3 
ROOT
ATOM      1  C2  UNL d   1       1.099  -2.531   0.229  0.00  0.00    -0.076 A 
ATOM      2  C3  UNL d   1       1.971  -1.442   0.059  0.00  0.00     0.004 A 
ATOM      3  C4  UNL d   1       1.559  -0.141   0.343  0.00  0.00    -0.003 A 
ATOM      4  C5  UNL d   1       0.267   0.091   0.803  0.00  0.00     0.000 A 
ATOM      5  C6  UNL d   1      -0.606  -0.979   0.994  0.00  0.00     0.000 A 
ATOM      6  C7  UNL d   1      -0.200  -2.298   0.728  0.00  0.00    -0.073 A 
ATOM      7  C8  UNL d   1      -1.185  -3.414   0.946  0.00  0.00     0.078 C 
ENDROOT
BRANCH   1   8
ATOM      8  C1  UNL d   1       1.594  -3.916  -0.121  0.00  0.00     0.053 C 
ATOM      9  C   UNL d   1       3.096  -3.957  -0.353  0.00  0.00     0.018 C 
ENDBRANCH   1   8
TORSDOF 1
ENDMDL
