MODEL 1
REMARK minimizedAffinity 1.54361093
REMARK minimizedRMSD -1
REMARK  1 active torsions:
REMARK  status: ('A' for Active; 'I' for Inactive)
REMARK    1  A    between atoms: C1_2  and  C2_3 
ROOT
ATOM      1  C2  UNL d   1       0.772  -2.338  -0.357  0.00  0.00    -0.076 A 
ATOM      2  C3  UNL d   1      -0.559  -2.221   0.077  0.00  0.00     0.004 A 
ATOM      3  C4  UNL d   1      -0.927  -1.254   1.011  0.00  0.00    -0.003 A 
ATOM      4  C5  UNL d   1       0.031  -0.387   1.525  0.00  0.00     0.000 A 
ATOM      5  C6  UNL d   1       1.354  -0.478   1.093  0.00  0.00     0.000 A 
ATOM      6  C7  UNL d   1       1.738  -1.437   0.140  0.00  0.00    -0.073 A 
ATOM      7  C8  UNL d   1       3.179  -1.494  -0.287  0.00  0.00     0.078 C 
ENDROOT
BRANCH   1   8
ATOM      8  C1  UNL d   1       1.117  -3.424  -1.351  0.00  0.00     0.053 C 
ATOM      9  C   UNL d   1       0.516  -3.169  -2.725  0.00  0.00     0.018 C 
ENDBRANCH   1   8
TORSDOF 1
ENDMDL
