MODEL 1
REMARK minimizedAffinity 4.90338945
REMARK minimizedRMSD -1
REMARK  1 active torsions:
REMARK  status: ('A' for Active; 'I' for Inactive)
REMARK    1  A    between atoms: C1_2  and  C2_3 
ROOT
ATOM      1  C2  UNL d   1       2.239  -3.095  -0.023  0.00  0.00    -0.076 A 
ATOM      2  C3  UNL d   1       1.163  -3.929  -0.373  0.00  0.00     0.004 A 
ATOM      3  C4  UNL d   1      -0.154  -3.492  -0.242  0.00  0.00    -0.003 A 
ATOM      4  C5  UNL d   1      -0.416  -2.214   0.239  0.00  0.00     0.000 A 
ATOM      5  C6  UNL d   1       0.640  -1.368   0.574  0.00  0.00     0.000 A 
ATOM      6  C7  UNL d   1       1.974  -1.787   0.433  0.00  0.00    -0.073 A 
ATOM      7  C8  UNL d   1       3.074  -0.834   0.814  0.00  0.00     0.078 C 
ENDROOT
BRANCH   1   8
ATOM      8  C1  UNL d   1       3.646  -3.633  -0.161  0.00  0.00     0.053 C 
ATOM      9  C   UNL d   1       3.686  -5.153  -0.212  0.00  0.00     0.018 C 
ENDBRANCH   1   8
TORSDOF 1
ENDMDL
