MODEL 1
REMARK minimizedAffinity 3.3505969
REMARK minimizedRMSD -1
REMARK  1 active torsions:
REMARK  status: ('A' for Active; 'I' for Inactive)
REMARK    1  A    between atoms: C1_2  and  C2_3 
ROOT
ATOM      1  C2  UNL d   1       2.278  -3.404   0.212  0.00  0.00    -0.076 A 
ATOM      2  C3  UNL d   1       2.588  -4.763   0.028  0.00  0.00     0.004 A 
ATOM      3  C4  UNL d   1       3.905  -5.179  -0.163  0.00  0.00    -0.003 A 
ATOM      4  C5  UNL d   1       4.933  -4.242  -0.172  0.00  0.00     0.000 A 
ATOM      5  C6  UNL d   1       4.645  -2.892   0.027  0.00  0.00     0.000 A 
ATOM      6  C7  UNL d   1       3.325  -2.458   0.237  0.00  0.00    -0.073 A 
ATOM      7  C8  UNL d   1       3.071  -0.990   0.439  0.00  0.00     0.078 C 
ENDROOT
BRANCH   1   8
ATOM      8  C1  UNL d   1       0.829  -3.010   0.387  0.00  0.00     0.053 C 
ATOM      9  C   UNL d   1      -0.021  -3.361  -0.825  0.00  0.00     0.018 C 
ENDBRANCH   1   8
TORSDOF 1
ENDMDL
