MODEL 1
REMARK minimizedAffinity 14.797349
REMARK minimizedRMSD -1
REMARK  1 active torsions:
REMARK  status: ('A' for Active; 'I' for Inactive)
REMARK    1  A    between atoms: C1_2  and  C2_3 
ROOT
ATOM      1  C2  UNL d   1       3.467   0.395  -2.682  0.00  0.00    -0.076 A 
ATOM      2  C3  UNL d   1       3.707   0.093  -1.330  0.00  0.00     0.004 A 
ATOM      3  C4  UNL d   1       4.934  -0.422  -0.917  0.00  0.00    -0.003 A 
ATOM      4  C5  UNL d   1       5.942  -0.643  -1.850  0.00  0.00     0.000 A 
ATOM      5  C6  UNL d   1       5.727  -0.333  -3.192  0.00  0.00     0.000 A 
ATOM      6  C7  UNL d   1       4.501   0.202  -3.623  0.00  0.00    -0.073 A 
ATOM      7  C8  UNL d   1       4.322   0.513  -5.083  0.00  0.00     0.078 C 
ENDROOT
BRANCH   1   8
ATOM      8  C1  UNL d   1       2.106   0.926  -3.075  0.00  0.00     0.053 C 
ATOM      9  C   UNL d   1       1.233  -0.135  -3.728  0.00  0.00     0.018 C 
ENDBRANCH   1   8
TORSDOF 1
ENDMDL
