MODEL 1
REMARK minimizedAffinity -2.35985851
REMARK minimizedRMSD -1
REMARK  1 active torsions:
REMARK  status: ('A' for Active; 'I' for Inactive)
REMARK    1  A    between atoms: C1_2  and  C2_3 
ROOT
ATOM      1  C2  UNL d   1       1.464  -1.884   0.178  0.00  0.00    -0.076 A 
ATOM      2  C3  UNL d   1       2.771  -1.367   0.193  0.00  0.00     0.004 A 
ATOM      3  C4  UNL d   1       3.877  -2.210   0.112  0.00  0.00    -0.003 A 
ATOM      4  C5  UNL d   1       3.695  -3.585   0.013  0.00  0.00     0.000 A 
ATOM      5  C6  UNL d   1       2.406  -4.115  -0.022  0.00  0.00     0.000 A 
ATOM      6  C7  UNL d   1       1.279  -3.277   0.043  0.00  0.00    -0.073 A 
ATOM      7  C8  UNL d   1      -0.089  -3.903   0.008  0.00  0.00     0.078 C 
ENDROOT
BRANCH   1   8
ATOM      8  C1  UNL d   1       0.303  -0.923   0.296  0.00  0.00     0.053 C 
ATOM      9  C   UNL d   1       0.434   0.004   1.495  0.00  0.00     0.018 C 
ENDBRANCH   1   8
TORSDOF 1
ENDMDL
