MODEL 1
REMARK minimizedAffinity -0.725964367
REMARK minimizedRMSD -1
REMARK  1 active torsions:
REMARK  status: ('A' for Active; 'I' for Inactive)
REMARK    1  A    between atoms: C1_2  and  C2_3 
ROOT
ATOM      1  C2  UNL d   1       1.933  -1.451   0.719  0.00  0.00    -0.076 A 
ATOM      2  C3  UNL d   1       0.757  -0.815   1.154  0.00  0.00     0.004 A 
ATOM      3  C4  UNL d   1      -0.474  -1.467   1.099  0.00  0.00    -0.003 A 
ATOM      4  C5  UNL d   1      -0.549  -2.766   0.609  0.00  0.00     0.000 A 
ATOM      5  C6  UNL d   1       0.610  -3.419   0.189  0.00  0.00     0.000 A 
ATOM      6  C7  UNL d   1       1.861  -2.782   0.253  0.00  0.00    -0.073 A 
ATOM      7  C8  UNL d   1       3.077  -3.531  -0.219  0.00  0.00     0.078 C 
ENDROOT
BRANCH   1   8
ATOM      8  C1  UNL d   1       3.235  -0.685   0.776  0.00  0.00     0.053 C 
ATOM      9  C   UNL d   1       3.519  -0.123   2.161  0.00  0.00     0.018 C 
ENDBRANCH   1   8
TORSDOF 1
ENDMDL
