MODEL 1
REMARK minimizedAffinity 2.77728319
REMARK minimizedRMSD -1
REMARK  1 active torsions:
REMARK  status: ('A' for Active; 'I' for Inactive)
REMARK    1  A    between atoms: C1_2  and  C2_3 
ROOT
ATOM      1  C2  UNL d   1       3.050  -3.972   0.127  0.00  0.00    -0.076 A 
ATOM      2  C3  UNL d   1       1.921  -4.778  -0.103  0.00  0.00     0.004 A 
ATOM      3  C4  UNL d   1       0.634  -4.245  -0.041  0.00  0.00    -0.003 A 
ATOM      4  C5  UNL d   1       0.456  -2.897   0.251  0.00  0.00     0.000 A 
ATOM      5  C6  UNL d   1       1.565  -2.079   0.465  0.00  0.00     0.000 A 
ATOM      6  C7  UNL d   1       2.869  -2.597   0.390  0.00  0.00    -0.073 A 
ATOM      7  C8  UNL d   1       4.029  -1.671   0.635  0.00  0.00     0.078 C 
ENDROOT
BRANCH   1   8
ATOM      8  C1  UNL d   1       4.419  -4.611   0.073  0.00  0.00     0.053 C 
ATOM      9  C   UNL d   1       4.453  -5.973   0.750  0.00  0.00     0.018 C 
ENDBRANCH   1   8
TORSDOF 1
ENDMDL
