MODEL 1
REMARK minimizedAffinity 7.37814951
REMARK minimizedRMSD -1
REMARK  0 active torsions:
REMARK  status: ('A' for Active; 'I' for Inactive)
ROOT
ATOM      1  C   UNL d   1       2.321  -1.767   0.783  0.00  0.00     0.020 A 
ATOM      2  C1  UNL d   1       2.327  -3.086   1.234  0.00  0.00     0.020 A 
ATOM      3  C2  UNL d   1       1.325  -3.533   2.098  0.00  0.00     0.034 A 
ATOM      4  C3  UNL d   1       0.313  -2.660   2.514  0.00  0.00     0.017 A 
ATOM      5  C4  UNL d   1       0.308  -1.336   2.060  0.00  0.00     0.017 A 
ATOM      6  C5  UNL d   1       1.313  -0.894   1.195  0.00  0.00     0.034 A 
ATOM      7 Cl   UNL d   1      -0.908  -0.200   2.528  0.00  0.00    -0.070 Cl
ATOM      8 Cl1  UNL d   1      -0.894  -3.280   3.583  0.00  0.00    -0.070 Cl
ENDROOT
TORSDOF 0
ENDMDL
