MODEL 1
REMARK minimizedAffinity 1.1368885
REMARK minimizedRMSD -1
REMARK  0 active torsions:
REMARK  status: ('A' for Active; 'I' for Inactive)
ROOT
ATOM      1  C   UNL d   1       2.409  -2.818   1.295  0.00  0.00     0.020 A 
ATOM      2  C1  UNL d   1       2.070  -4.164   1.430  0.00  0.00     0.020 A 
ATOM      3  C2  UNL d   1       0.890  -4.523   2.086  0.00  0.00     0.034 A 
ATOM      4  C3  UNL d   1       0.047  -3.537   2.610  0.00  0.00     0.017 A 
ATOM      5  C4  UNL d   1       0.389  -2.186   2.473  0.00  0.00     0.017 A 
ATOM      6  C5  UNL d   1       1.571  -1.832   1.815  0.00  0.00     0.034 A 
ATOM      7 Cl   UNL d   1      -0.601  -0.912   3.093  0.00  0.00    -0.070 Cl
ATOM      8 Cl1  UNL d   1      -1.395  -4.054   3.409  0.00  0.00    -0.070 Cl
ENDROOT
TORSDOF 0
ENDMDL
