MODEL 1
REMARK minimizedAffinity 3.62503958
REMARK minimizedRMSD -1
REMARK  0 active torsions:
REMARK  status: ('A' for Active; 'I' for Inactive)
ROOT
ATOM      1  C   UNL d   1       1.987   2.059  -2.157  0.00  0.00     0.020 A 
ATOM      2  C1  UNL d   1       1.174   0.944  -2.354  0.00  0.00     0.020 A 
ATOM      3  C2  UNL d   1       1.353  -0.198  -1.570  0.00  0.00     0.034 A 
ATOM      4  C3  UNL d   1       2.347  -0.227  -0.586  0.00  0.00     0.017 A 
ATOM      5  C4  UNL d   1       3.163   0.893  -0.389  0.00  0.00     0.017 A 
ATOM      6  C5  UNL d   1       2.980   2.034  -1.177  0.00  0.00     0.034 A 
ATOM      7 Cl   UNL d   1       4.411   0.932   0.806  0.00  0.00    -0.070 Cl
ATOM      8 Cl1  UNL d   1       2.512  -1.672   0.347  0.00  0.00    -0.070 Cl
ENDROOT
TORSDOF 0
ENDMDL
