MODEL 1
REMARK minimizedAffinity -2.99746585
REMARK minimizedRMSD -1
REMARK  0 active torsions:
REMARK  status: ('A' for Active; 'I' for Inactive)
ROOT
ATOM      1  C   UNL d   1      -4.877   5.630   4.007  0.00  0.00     0.020 A 
ATOM      2  C1  UNL d   1      -5.686   4.500   4.123  0.00  0.00     0.020 A 
ATOM      3  C2  UNL d   1      -5.193   3.349   4.742  0.00  0.00     0.034 A 
ATOM      4  C3  UNL d   1      -3.888   3.326   5.247  0.00  0.00     0.017 A 
ATOM      5  C4  UNL d   1      -3.076   4.460   5.129  0.00  0.00     0.017 A 
ATOM      6  C5  UNL d   1      -3.575   5.610   4.509  0.00  0.00     0.034 A 
ATOM      7 Cl   UNL d   1      -1.456   4.506   5.728  0.00  0.00    -0.070 Cl
ATOM      8 Cl1  UNL d   1      -3.344   1.869   6.000  0.00  0.00    -0.070 Cl
ENDROOT
TORSDOF 0
ENDMDL
