MODEL 1
REMARK minimizedAffinity 4.01494837
REMARK minimizedRMSD -1
REMARK  0 active torsions:
REMARK  status: ('A' for Active; 'I' for Inactive)
ROOT
ATOM      1  C   UNL d   1       1.560  -0.959   3.073  0.00  0.00     0.020 A 
ATOM      2  C1  UNL d   1       0.493  -1.696   2.561  0.00  0.00     0.020 A 
ATOM      3  C2  UNL d   1       0.537  -2.169   1.248  0.00  0.00     0.034 A 
ATOM      4  C3  UNL d   1       1.651  -1.906   0.443  0.00  0.00     0.017 A 
ATOM      5  C4  UNL d   1       2.722  -1.166   0.957  0.00  0.00     0.017 A 
ATOM      6  C5  UNL d   1       2.672  -0.695   2.273  0.00  0.00     0.034 A 
ATOM      7 Cl   UNL d   1       4.130  -0.801   0.024  0.00  0.00    -0.070 Cl
ATOM      8 Cl1  UNL d   1       1.639  -2.523  -1.172  0.00  0.00    -0.070 Cl
ENDROOT
TORSDOF 0
ENDMDL
