MODEL 1
REMARK minimizedAffinity 13.0178547
REMARK minimizedRMSD -1
REMARK  0 active torsions:
REMARK  status: ('A' for Active; 'I' for Inactive)
ROOT
ATOM      1  C   UNL d   1       1.563  -1.906   1.527  0.00  0.00     0.020 A 
ATOM      2  C1  UNL d   1       1.794  -0.896   2.461  0.00  0.00     0.020 A 
ATOM      3  C2  UNL d   1       0.719  -0.208   3.026  0.00  0.00     0.034 A 
ATOM      4  C3  UNL d   1      -0.593  -0.529   2.658  0.00  0.00     0.017 A 
ATOM      5  C4  UNL d   1      -0.824  -1.543   1.721  0.00  0.00     0.017 A 
ATOM      6  C5  UNL d   1       0.257  -2.229   1.159  0.00  0.00     0.034 A 
ATOM      7 Cl   UNL d   1      -2.415  -1.995   1.218  0.00  0.00    -0.070 Cl
ATOM      8 Cl1  UNL d   1      -1.876   0.362   3.397  0.00  0.00    -0.070 Cl
ENDROOT
TORSDOF 0
ENDMDL
