MODEL 1
REMARK minimizedAffinity 10.9922085
REMARK minimizedRMSD -1
REMARK  0 active torsions:
REMARK  status: ('A' for Active; 'I' for Inactive)
ROOT
ATOM      1  C   UNL d   1       0.427  -0.884   2.429  0.00  0.00     0.020 A 
ATOM      2  C1  UNL d   1       1.527  -1.328   1.695  0.00  0.00     0.020 A 
ATOM      3  C2  UNL d   1       1.523  -2.608   1.137  0.00  0.00     0.034 A 
ATOM      4  C3  UNL d   1       0.417  -3.449   1.313  0.00  0.00     0.017 A 
ATOM      5  C4  UNL d   1      -0.686  -3.002   2.049  0.00  0.00     0.017 A 
ATOM      6  C5  UNL d   1      -0.676  -1.719   2.606  0.00  0.00     0.034 A 
ATOM      7 Cl   UNL d   1      -2.086  -3.982   2.308  0.00  0.00    -0.070 Cl
ATOM      8 Cl1  UNL d   1       0.480  -5.019   0.595  0.00  0.00    -0.070 Cl
ENDROOT
TORSDOF 0
ENDMDL
