MODEL 1
REMARK minimizedAffinity -2.61629486
REMARK minimizedRMSD -1
REMARK  1 active torsions:
REMARK  status: ('A' for Active; 'I' for Inactive)
REMARK    1  A    between atoms: C3_4  and  O_7 
ROOT
ATOM      1  C   UNL d   1       2.787   1.960   0.465  0.00  0.00    -0.033 A 
ATOM      2  C1  UNL d   1       2.244   1.088  -0.481  0.00  0.00     0.039 A 
ATOM      3  C2  UNL d   1       1.009   0.481  -0.245  0.00  0.00    -0.080 A 
ATOM      4  C3  UNL d   1       0.328   0.753   0.938  0.00  0.00     0.150 A 
ATOM      5  C4  UNL d   1       0.861   1.624   1.883  0.00  0.00    -0.007 A 
ATOM      6  C5  UNL d   1       2.095   2.229   1.646  0.00  0.00     0.039 A 
ENDROOT
BRANCH   4   7
ATOM      7  O   UNL d   1      -0.878   0.181   1.214  0.00  0.00    -0.526 OA
ATOM      8  H5  UNL d   1      -1.108  -0.419   0.485  0.00  0.00     0.418 HD
ENDBRANCH   4   7
TORSDOF 1
ENDMDL
