MODEL 1
REMARK minimizedAffinity -4.55950308
REMARK minimizedRMSD -1
REMARK  1 active torsions:
REMARK  status: ('A' for Active; 'I' for Inactive)
REMARK    1  A    between atoms: C3_4  and  O_7 
ROOT
ATOM      1  C   UNL d   1      -0.639  -0.544   0.403  0.00  0.00    -0.033 A 
ATOM      2  C1  UNL d   1       0.555  -0.186  -0.227  0.00  0.00     0.039 A 
ATOM      3  C2  UNL d   1       1.118   1.071   0.003  0.00  0.00    -0.080 A 
ATOM      4  C3  UNL d   1       0.479   1.959   0.863  0.00  0.00     0.150 A 
ATOM      5  C4  UNL d   1      -0.709   1.608   1.497  0.00  0.00    -0.007 A 
ATOM      6  C5  UNL d   1      -1.270   0.352   1.266  0.00  0.00     0.039 A 
ENDROOT
BRANCH   4   7
ATOM      7  O   UNL d   1       0.987   3.199   1.115  0.00  0.00    -0.526 OA
ATOM      8  H5  UNL d   1       1.795   3.313   0.586  0.00  0.00     0.418 HD
ENDBRANCH   4   7
TORSDOF 1
ENDMDL
