MODEL 1
REMARK minimizedAffinity -5.45566082
REMARK minimizedRMSD -1
REMARK  1 active torsions:
REMARK  status: ('A' for Active; 'I' for Inactive)
REMARK    1  A    between atoms: C3_4  and  O_7 
ROOT
ATOM      1  C   UNL d   1       0.918  -0.901  -0.456  0.00  0.00    -0.033 A 
ATOM      2  C1  UNL d   1       2.091  -0.146  -0.516  0.00  0.00     0.039 A 
ATOM      3  C2  UNL d   1       2.138   1.122   0.068  0.00  0.00    -0.080 A 
ATOM      4  C3  UNL d   1       1.008   1.621   0.709  0.00  0.00     0.150 A 
ATOM      5  C4  UNL d   1      -0.162   0.873   0.777  0.00  0.00    -0.007 A 
ATOM      6  C5  UNL d   1      -0.208  -0.392   0.192  0.00  0.00     0.039 A 
ENDROOT
BRANCH   4   7
ATOM      7  O   UNL d   1       1.005   2.855   1.290  0.00  0.00    -0.526 OA
ATOM      8  H5  UNL d   1       1.872   3.268   1.139  0.00  0.00     0.418 HD
ENDBRANCH   4   7
TORSDOF 1
ENDMDL
