MODEL 1
REMARK minimizedAffinity -4.96915007
REMARK minimizedRMSD -1
REMARK  1 active torsions:
REMARK  status: ('A' for Active; 'I' for Inactive)
REMARK    1  A    between atoms: C3_4  and  O_7 
ROOT
ATOM      1  C   UNL d   1      -0.025  -0.555   0.227  0.00  0.00    -0.033 A 
ATOM      2  C1  UNL d   1       0.920   0.146  -0.524  0.00  0.00     0.039 A 
ATOM      3  C2  UNL d   1       1.227   1.470  -0.203  0.00  0.00    -0.080 A 
ATOM      4  C3  UNL d   1       0.583   2.079   0.871  0.00  0.00     0.150 A 
ATOM      5  C4  UNL d   1      -0.357   1.385   1.625  0.00  0.00    -0.007 A 
ATOM      6  C5  UNL d   1      -0.662   0.064   1.303  0.00  0.00     0.039 A 
ENDROOT
BRANCH   4   7
ATOM      7  O   UNL d   1       0.846   3.371   1.219  0.00  0.00    -0.526 OA
ATOM      8  H5  UNL d   1       1.494   3.733   0.592  0.00  0.00     0.418 HD
ENDBRANCH   4   7
TORSDOF 1
ENDMDL
