MODEL 1
REMARK minimizedAffinity -3.16126084
REMARK minimizedRMSD -1
REMARK  1 active torsions:
REMARK  status: ('A' for Active; 'I' for Inactive)
REMARK    1  A    between atoms: C3_4  and  O_7 
ROOT
ATOM      1  C   UNL d   1      -0.358  -0.529  -0.074  0.00  0.00    -0.033 A 
ATOM      2  C1  UNL d   1       0.776   0.039  -0.658  0.00  0.00     0.039 A 
ATOM      3  C2  UNL d   1       1.282   1.246  -0.174  0.00  0.00    -0.080 A 
ATOM      4  C3  UNL d   1       0.648   1.874   0.894  0.00  0.00     0.150 A 
ATOM      5  C4  UNL d   1      -0.480   1.312   1.484  0.00  0.00    -0.007 A 
ATOM      6  C5  UNL d   1      -0.985   0.107   0.998  0.00  0.00     0.039 A 
ENDROOT
BRANCH   4   7
ATOM      7  O   UNL d   1       1.103   3.056   1.399  0.00  0.00    -0.526 OA
ATOM      8  H5  UNL d   1       1.870   3.339   0.874  0.00  0.00     0.418 HD
ENDBRANCH   4   7
TORSDOF 1
ENDMDL
