MODEL 1
REMARK minimizedAffinity -4.80970478
REMARK minimizedRMSD -1
REMARK  1 active torsions:
REMARK  status: ('A' for Active; 'I' for Inactive)
REMARK    1  A    between atoms: C3_4  and  O_7 
ROOT
ATOM      1  C   UNL d   1      -0.435  -1.041   0.605  0.00  0.00    -0.033 A 
ATOM      2  C1  UNL d   1      -0.782  -0.388   1.790  0.00  0.00     0.039 A 
ATOM      3  C2  UNL d   1      -0.338   0.914   2.027  0.00  0.00    -0.080 A 
ATOM      4  C3  UNL d   1       0.450   1.552   1.073  0.00  0.00     0.150 A 
ATOM      5  C4  UNL d   1       0.796   0.910  -0.111  0.00  0.00    -0.007 A 
ATOM      6  C5  UNL d   1       0.352  -0.391  -0.346  0.00  0.00     0.039 A 
ENDROOT
BRANCH   4   7
ATOM      7  O   UNL d   1       0.911   2.821   1.263  0.00  0.00    -0.526 OA
ATOM      8  H5  UNL d   1       0.618   3.128   2.137  0.00  0.00     0.418 HD
ENDBRANCH   4   7
TORSDOF 1
ENDMDL
