MODEL 1
REMARK minimizedAffinity -5.54858875
REMARK minimizedRMSD -1
REMARK  1 active torsions:
REMARK  status: ('A' for Active; 'I' for Inactive)
REMARK    1  A    between atoms: C3_4  and  O_7 
ROOT
ATOM      1  C   UNL d   1       0.633  -0.436  -0.364  0.00  0.00    -0.033 A 
ATOM      2  C1  UNL d   1      -0.198  -0.061   0.694  0.00  0.00     0.039 A 
ATOM      3  C2  UNL d   1      -0.028   1.180   1.311  0.00  0.00    -0.080 A 
ATOM      4  C3  UNL d   1       0.973   2.036   0.860  0.00  0.00     0.150 A 
ATOM      5  C4  UNL d   1       1.801   1.670  -0.197  0.00  0.00    -0.007 A 
ATOM      6  C5  UNL d   1       1.631   0.430  -0.810  0.00  0.00     0.039 A 
ENDROOT
BRANCH   4   7
ATOM      7  O   UNL d   1       1.180   3.255   1.433  0.00  0.00    -0.526 OA
ATOM      8  H5  UNL d   1       0.553   3.360   2.168  0.00  0.00     0.418 HD
ENDBRANCH   4   7
TORSDOF 1
ENDMDL
