MODEL 1
REMARK minimizedAffinity -4.89872456
REMARK minimizedRMSD -1
REMARK  1 active torsions:
REMARK  status: ('A' for Active; 'I' for Inactive)
REMARK    1  A    between atoms: C3_4  and  O_7 
ROOT
ATOM      1  C   UNL d   1      -0.192  -0.429   0.335  0.00  0.00    -0.033 A 
ATOM      2  C1  UNL d   1       0.749   0.212  -0.474  0.00  0.00     0.039 A 
ATOM      3  C2  UNL d   1       1.210   1.486  -0.136  0.00  0.00    -0.080 A 
ATOM      4  C3  UNL d   1       0.724   2.106   1.012  0.00  0.00     0.150 A 
ATOM      5  C4  UNL d   1      -0.210   1.472   1.824  0.00  0.00    -0.007 A 
ATOM      6  C5  UNL d   1      -0.670   0.200   1.485  0.00  0.00     0.039 A 
ENDROOT
BRANCH   4   7
ATOM      7  O   UNL d   1       1.141   3.351   1.380  0.00  0.00    -0.526 OA
ATOM      8  H5  UNL d   1       1.764   3.678   0.710  0.00  0.00     0.418 HD
ENDBRANCH   4   7
TORSDOF 1
ENDMDL
