MODEL 1
REMARK minimizedAffinity -4.34579134
REMARK minimizedRMSD -1
REMARK  1 active torsions:
REMARK  status: ('A' for Active; 'I' for Inactive)
REMARK    1  A    between atoms: C3_4  and  O_7 
ROOT
ATOM      1  C   UNL d   1      -0.048  -0.001  -0.014  0.00  0.00    -0.033 A 
ATOM      2  C1  UNL d   1      -0.409   0.392   1.276  0.00  0.00     0.039 A 
ATOM      3  C2  UNL d   1       0.247   1.460   1.891  0.00  0.00    -0.080 A 
ATOM      4  C3  UNL d   1       1.259   2.126   1.207  0.00  0.00     0.150 A 
ATOM      5  C4  UNL d   1       1.622   1.742  -0.080  0.00  0.00    -0.007 A 
ATOM      6  C5  UNL d   1       0.966   0.675  -0.693  0.00  0.00     0.039 A 
ENDROOT
BRANCH   4   7
ATOM      7  O   UNL d   1       1.931   3.171   1.768  0.00  0.00    -0.526 OA
ATOM      8  H5  UNL d   1       1.594   3.305   2.670  0.00  0.00     0.418 HD
ENDBRANCH   4   7
TORSDOF 1
ENDMDL
