MODEL 1
REMARK minimizedAffinity -5.33411217
REMARK minimizedRMSD -1
REMARK  1 active torsions:
REMARK  status: ('A' for Active; 'I' for Inactive)
REMARK    1  A    between atoms: C3_4  and  O_7 
ROOT
ATOM      1  C   UNL d   1      -0.407  -0.478   0.072  0.00  0.00    -0.033 A 
ATOM      2  C1  UNL d   1       0.631   0.112  -0.652  0.00  0.00     0.039 A 
ATOM      3  C2  UNL d   1       1.160   1.338  -0.246  0.00  0.00    -0.080 A 
ATOM      4  C3  UNL d   1       0.644   1.963   0.887  0.00  0.00     0.150 A 
ATOM      5  C4  UNL d   1      -0.387   1.379   1.616  0.00  0.00    -0.007 A 
ATOM      6  C5  UNL d   1      -0.914   0.155   1.207  0.00  0.00     0.039 A 
ENDROOT
BRANCH   4   7
ATOM      7  O   UNL d   1       1.125   3.163   1.320  0.00  0.00    -0.526 OA
ATOM      8  H5  UNL d   1       1.814   3.459   0.702  0.00  0.00     0.418 HD
ENDBRANCH   4   7
TORSDOF 1
ENDMDL
