MODEL 1
REMARK minimizedAffinity -5.1679163
REMARK minimizedRMSD -1
REMARK  1 active torsions:
REMARK  status: ('A' for Active; 'I' for Inactive)
REMARK    1  A    between atoms: C3_4  and  O_7 
ROOT
ATOM      1  C   UNL d   1       1.250   2.453   1.477  0.00  0.00    -0.033 A 
ATOM      2  C1  UNL d   1       1.987   1.828   0.469  0.00  0.00     0.039 A 
ATOM      3  C2  UNL d   1       1.419   0.791  -0.273  0.00  0.00    -0.080 A 
ATOM      4  C3  UNL d   1       0.114   0.390   0.001  0.00  0.00     0.150 A 
ATOM      5  C4  UNL d   1      -0.628   1.011   1.000  0.00  0.00    -0.007 A 
ATOM      6  C5  UNL d   1      -0.058   2.046   1.741  0.00  0.00     0.039 A 
ENDROOT
BRANCH   4   7
ATOM      7  O   UNL d   1      -0.482  -0.620  -0.694  0.00  0.00    -0.526 OA
ATOM      8  H5  UNL d   1       0.159  -0.974  -1.333  0.00  0.00     0.418 HD
ENDBRANCH   4   7
TORSDOF 1
ENDMDL
