MODEL 1
REMARK minimizedAffinity -3.15693736
REMARK minimizedRMSD -1
REMARK  1 active torsions:
REMARK  status: ('A' for Active; 'I' for Inactive)
REMARK    1  A    between atoms: C3_4  and  O_7 
ROOT
ATOM      1  C   UNL d   1       0.986   2.151   1.993  0.00  0.00    -0.033 A 
ATOM      2  C1  UNL d   1       1.899   1.501   1.161  0.00  0.00     0.039 A 
ATOM      3  C2  UNL d   1       1.462   0.510   0.280  0.00  0.00    -0.080 A 
ATOM      4  C3  UNL d   1       0.110   0.179   0.240  0.00  0.00     0.150 A 
ATOM      5  C4  UNL d   1      -0.806   0.826   1.064  0.00  0.00    -0.007 A 
ATOM      6  C5  UNL d   1      -0.367   1.814   1.944  0.00  0.00     0.039 A 
ENDROOT
BRANCH   4   7
ATOM      7  O   UNL d   1      -0.364  -0.784  -0.599  0.00  0.00    -0.526 OA
ATOM      8  H5  UNL d   1       0.386  -1.164  -1.087  0.00  0.00     0.418 HD
ENDBRANCH   4   7
TORSDOF 1
ENDMDL
