MODEL 1
REMARK minimizedAffinity -4.8947525
REMARK minimizedRMSD -1
REMARK  1 active torsions:
REMARK  status: ('A' for Active; 'I' for Inactive)
REMARK    1  A    between atoms: C3_4  and  O_7 
ROOT
ATOM      1  C   UNL d   1      -0.589  -0.560   0.414  0.00  0.00    -0.033 A 
ATOM      2  C1  UNL d   1       0.491  -0.077  -0.328  0.00  0.00     0.039 A 
ATOM      3  C2  UNL d   1       1.084   1.141   0.010  0.00  0.00    -0.080 A 
ATOM      4  C3  UNL d   1       0.590   1.864   1.092  0.00  0.00     0.150 A 
ATOM      5  C4  UNL d   1      -0.482   1.388   1.838  0.00  0.00    -0.007 A 
ATOM      6  C5  UNL d   1      -1.074   0.172   1.498  0.00  0.00     0.039 A 
ENDROOT
BRANCH   4   7
ATOM      7  O   UNL d   1       1.134   3.060   1.457  0.00  0.00    -0.526 OA
ATOM      8  H5  UNL d   1       1.847   3.277   0.834  0.00  0.00     0.418 HD
ENDBRANCH   4   7
TORSDOF 1
ENDMDL
