MODEL 1
REMARK minimizedAffinity 19.0399494
REMARK minimizedRMSD -1
REMARK  0 active torsions:
REMARK  status: ('A' for Active; 'I' for Inactive)
ROOT
ATOM      1  N1  IND d   1      -4.248  -5.952   1.478  0.00  0.00    -0.196 N 
ATOM      2  C2  IND d   1      -5.443  -5.998   2.139  0.00  0.00     0.054 A 
ATOM      3  C3  IND d   1      -5.975  -4.759   2.238  0.00  0.00    -0.031 A 
ATOM      4  C4  IND d   1      -5.105  -2.527   1.297  0.00  0.00     0.051 A 
ATOM      5  C5  IND d   1      -4.035  -1.974   0.651  0.00  0.00    -0.031 A 
ATOM      6  C6  IND d   1      -2.961  -2.735   0.236  0.00  0.00     0.015 A 
ATOM      7  C7  IND d   1      -2.922  -4.085   0.443  0.00  0.00    -0.016 A 
ATOM      8  C8  IND d   1      -4.003  -4.648   1.106  0.00  0.00    -0.047 A 
ATOM      9  C9  IND d   1      -5.076  -3.874   1.566  0.00  0.00    -0.096 A 
ATOM     10  HN1 IND d   1      -3.735  -6.624   1.320  0.00  0.00     0.298 HD
ENDROOT
TORSDOF 0
ENDMDL
