MODEL 1
REMARK minimizedAffinity 20.295372
REMARK minimizedRMSD -1
REMARK  0 active torsions:
REMARK  status: ('A' for Active; 'I' for Inactive)
ROOT
ATOM      1  N1  IND d   1       5.937  -4.820   6.000  0.00  0.00    -0.196 N 
ATOM      2  C2  IND d   1       5.996  -5.954   5.239  0.00  0.00     0.054 A 
ATOM      3  C3  IND d   1       5.913  -5.645   3.926  0.00  0.00    -0.031 A 
ATOM      4  C4  IND d   1       5.779  -3.336   2.795  0.00  0.00     0.051 A 
ATOM      5  C5  IND d   1       5.660  -2.004   3.076  0.00  0.00    -0.031 A 
ATOM      6  C6  IND d   1       5.630  -1.533   4.373  0.00  0.00     0.015 A 
ATOM      7  C7  IND d   1       5.729  -2.379   5.441  0.00  0.00    -0.016 A 
ATOM      8  C8  IND d   1       5.842  -3.733   5.159  0.00  0.00    -0.047 A 
ATOM      9  C9  IND d   1       5.831  -4.221   3.846  0.00  0.00    -0.096 A 
ATOM     10  HN1 IND d   1       5.956  -4.790   6.859  0.00  0.00     0.298 HD
ENDROOT
TORSDOF 0
ENDMDL
