MODEL 1
REMARK minimizedAffinity 14.9680004
REMARK minimizedRMSD -1
REMARK  0 active torsions:
REMARK  status: ('A' for Active; 'I' for Inactive)
ROOT
ATOM      1  N1  IND d   1      -4.442   1.735   1.881  0.00  0.00    -0.196 N 
ATOM      2  C2  IND d   1      -4.032   3.024   2.075  0.00  0.00     0.054 A 
ATOM      3  C3  IND d   1      -2.683   3.087   2.124  0.00  0.00    -0.031 A 
ATOM      4  C4  IND d   1      -0.946   1.212   1.809  0.00  0.00     0.051 A 
ATOM      5  C5  IND d   1      -0.839  -0.140   1.645  0.00  0.00    -0.031 A 
ATOM      6  C6  IND d   1      -1.950  -0.953   1.545  0.00  0.00     0.015 A 
ATOM      7  C7  IND d   1      -3.215  -0.440   1.596  0.00  0.00    -0.016 A 
ATOM      8  C8  IND d   1      -3.328   0.932   1.770  0.00  0.00    -0.047 A 
ATOM      9  C9  IND d   1      -2.204   1.757   1.914  0.00  0.00    -0.096 A 
ATOM     10  HN1 IND d   1      -5.259   1.469   1.836  0.00  0.00     0.298 HD
ENDROOT
TORSDOF 0
ENDMDL
