MODEL 1
REMARK minimizedAffinity 9.56056786
REMARK minimizedRMSD -1
REMARK  0 active torsions:
REMARK  status: ('A' for Active; 'I' for Inactive)
ROOT
ATOM      1  N1  IND d   1      -5.987  -2.389   1.660  0.00  0.00    -0.196 N 
ATOM      2  C2  IND d   1      -5.315  -1.649   0.727  0.00  0.00     0.054 A 
ATOM      3  C3  IND d   1      -4.370  -2.402   0.120  0.00  0.00    -0.031 A 
ATOM      4  C4  IND d   1      -3.822  -4.898   0.430  0.00  0.00     0.051 A 
ATOM      5  C5  IND d   1      -4.142  -5.985   1.194  0.00  0.00    -0.031 A 
ATOM      6  C6  IND d   1      -5.115  -5.928   2.171  0.00  0.00     0.015 A 
ATOM      7  C7  IND d   1      -5.815  -4.780   2.413  0.00  0.00    -0.016 A 
ATOM      8  C8  IND d   1      -5.488  -3.673   1.643  0.00  0.00    -0.047 A 
ATOM      9  C9  IND d   1      -4.472  -3.713   0.679  0.00  0.00    -0.096 A 
ATOM     10  HN1 IND d   1      -6.615  -2.101   2.171  0.00  0.00     0.298 HD
ENDROOT
TORSDOF 0
ENDMDL
