MODEL 1
REMARK minimizedAffinity 7.68793058
REMARK minimizedRMSD -1
REMARK  0 active torsions:
REMARK  status: ('A' for Active; 'I' for Inactive)
ROOT
ATOM      1  N1  IND d   1      -2.055  -4.117  -6.000  0.00  0.00    -0.196 N 
ATOM      2  C2  IND d   1      -1.501  -2.878  -5.838  0.00  0.00     0.054 A 
ATOM      3  C3  IND d   1      -2.468  -1.952  -5.651  0.00  0.00    -0.031 A 
ATOM      4  C4  IND d   1      -5.017  -2.261  -5.473  0.00  0.00     0.051 A 
ATOM      5  C5  IND d   1      -5.999  -3.204  -5.592  0.00  0.00    -0.031 A 
ATOM      6  C6  IND d   1      -5.710  -4.527  -5.855  0.00  0.00     0.015 A 
ATOM      7  C7  IND d   1      -4.423  -4.961  -6.000  0.00  0.00    -0.016 A 
ATOM      8  C8  IND d   1      -3.424  -4.004  -5.886  0.00  0.00    -0.047 A 
ATOM      9  C9  IND d   1      -3.713  -2.652  -5.661  0.00  0.00    -0.096 A 
ATOM     10  HN1 IND d   1      -1.622  -4.845  -6.148  0.00  0.00     0.298 HD
ENDROOT
TORSDOF 0
ENDMDL
