MODEL 1
REMARK minimizedAffinity 10.331933
REMARK minimizedRMSD -1
REMARK  0 active torsions:
REMARK  status: ('A' for Active; 'I' for Inactive)
ROOT
ATOM      1  N1  IND d   1       0.009  -3.266  -5.372  0.00  0.00    -0.196 N 
ATOM      2  C2  IND d   1      -1.195  -3.108  -5.999  0.00  0.00     0.054 A 
ATOM      3  C3  IND d   1      -1.616  -1.827  -5.895  0.00  0.00    -0.031 A 
ATOM      4  C4  IND d   1      -0.440   0.198  -4.826  0.00  0.00     0.051 A 
ATOM      5  C5  IND d   1       0.664   0.541  -4.096  0.00  0.00    -0.031 A 
ATOM      6  C6  IND d   1       1.626  -0.385  -3.750  0.00  0.00     0.015 A 
ATOM      7  C7  IND d   1       1.526  -1.693  -4.131  0.00  0.00    -0.016 A 
ATOM      8  C8  IND d   1       0.403  -2.047  -4.866  0.00  0.00    -0.047 A 
ATOM      9  C9  IND d   1      -0.598  -1.120  -5.185  0.00  0.00    -0.096 A 
ATOM     10  HN1 IND d   1       0.446  -4.003  -5.304  0.00  0.00     0.298 HD
ENDROOT
TORSDOF 0
ENDMDL
