MODEL 1
REMARK minimizedAffinity 10.0695057
REMARK minimizedRMSD -1
REMARK  0 active torsions:
REMARK  status: ('A' for Active; 'I' for Inactive)
ROOT
ATOM      1  N1  IND d   1      -2.969   3.390   1.581  0.00  0.00    -0.196 N 
ATOM      2  C2  IND d   1      -4.313   3.232   1.781  0.00  0.00     0.054 A 
ATOM      3  C3  IND d   1      -4.585   1.969   2.178  0.00  0.00    -0.031 A 
ATOM      4  C4  IND d   1      -2.970   0.024   2.665  0.00  0.00     0.051 A 
ATOM      5  C5  IND d   1      -1.650  -0.324   2.592  0.00  0.00    -0.031 A 
ATOM      6  C6  IND d   1      -0.683   0.566   2.172  0.00  0.00     0.015 A 
ATOM      7  C7  IND d   1      -1.000   1.848   1.820  0.00  0.00    -0.016 A 
ATOM      8  C8  IND d   1      -2.339   2.203   1.886  0.00  0.00    -0.047 A 
ATOM      9  C9  IND d   1      -3.331   1.291   2.270  0.00  0.00    -0.096 A 
ATOM     10  HN1 IND d   1      -2.583   4.109   1.311  0.00  0.00     0.298 HD
ENDROOT
TORSDOF 0
ENDMDL
