MODEL 1
REMARK minimizedAffinity 17.0584126
REMARK minimizedRMSD -1
REMARK  0 active torsions:
REMARK  status: ('A' for Active; 'I' for Inactive)
ROOT
ATOM      1  N1  IND d   1       3.019   5.999  -4.124  0.00  0.00    -0.196 N 
ATOM      2  C2  IND d   1       1.889   5.860  -4.880  0.00  0.00     0.054 A 
ATOM      3  C3  IND d   1       1.995   4.782  -5.689  0.00  0.00    -0.031 A 
ATOM      4  C4  IND d   1       3.890   3.048  -5.865  0.00  0.00     0.051 A 
ATOM      5  C5  IND d   1       5.146   2.775  -5.401  0.00  0.00    -0.031 A 
ATOM      6  C6  IND d   1       5.769   3.577  -4.467  0.00  0.00     0.015 A 
ATOM      7  C7  IND d   1       5.152   4.681  -3.951  0.00  0.00    -0.016 A 
ATOM      8  C8  IND d   1       3.879   4.966  -4.425  0.00  0.00    -0.047 A 
ATOM      9  C9  IND d   1       3.258   4.179  -5.404  0.00  0.00    -0.096 A 
ATOM     10  HN1 IND d   1       3.168   6.627  -3.555  0.00  0.00     0.298 HD
ENDROOT
TORSDOF 0
ENDMDL
