MODEL 1
REMARK minimizedAffinity 9.45570183
REMARK minimizedRMSD -1
REMARK  0 active torsions:
REMARK  status: ('A' for Active; 'I' for Inactive)
ROOT
ATOM      1  N1  IND d   1       5.388   2.394  -5.848  0.00  0.00    -0.196 N 
ATOM      2  C2  IND d   1       4.737   3.575  -5.620  0.00  0.00     0.054 A 
ATOM      3  C3  IND d   1       3.413   3.358  -5.457  0.00  0.00    -0.031 A 
ATOM      4  C4  IND d   1       2.110   1.138  -5.424  0.00  0.00     0.051 A 
ATOM      5  C5  IND d   1       2.266  -0.205  -5.623  0.00  0.00    -0.031 A 
ATOM      6  C6  IND d   1       3.496  -0.762  -5.911  0.00  0.00     0.015 A 
ATOM      7  C7  IND d   1       4.622   0.005  -5.998  0.00  0.00    -0.016 A 
ATOM      8  C8  IND d   1       4.467   1.371  -5.804  0.00  0.00    -0.047 A 
ATOM      9  C9  IND d   1       3.215   1.947  -5.554  0.00  0.00    -0.096 A 
ATOM     10  HN1 IND d   1       6.230   2.306  -5.994  0.00  0.00     0.298 HD
ENDROOT
TORSDOF 0
ENDMDL
