MODEL 1
REMARK minimizedAffinity 16.054575
REMARK minimizedRMSD -1
REMARK  0 active torsions:
REMARK  status: ('A' for Active; 'I' for Inactive)
ROOT
ATOM      1  N1  IND d   1      -2.261   2.258   1.454  0.00  0.00    -0.196 N 
ATOM      2  C2  IND d   1      -3.108   1.216   1.198  0.00  0.00     0.054 A 
ATOM      3  C3  IND d   1      -2.478   0.037   1.402  0.00  0.00    -0.031 A 
ATOM      4  C4  IND d   1      -0.091  -0.416   2.253  0.00  0.00     0.051 A 
ATOM      5  C5  IND d   1       1.073   0.219   2.587  0.00  0.00    -0.031 A 
ATOM      6  C6  IND d   1       1.186   1.594   2.562  0.00  0.00     0.015 A 
ATOM      7  C7  IND d   1       0.131   2.389   2.212  0.00  0.00    -0.016 A 
ATOM      8  C8  IND d   1      -1.049   1.748   1.866  0.00  0.00    -0.047 A 
ATOM      9  C9  IND d   1      -1.157   0.351   1.848  0.00  0.00    -0.096 A 
ATOM     10  HN1 IND d   1      -2.453   3.092   1.372  0.00  0.00     0.298 HD
ENDROOT
TORSDOF 0
ENDMDL
