MODEL 1
REMARK minimizedAffinity 12.5291319
REMARK minimizedRMSD -1
REMARK  0 active torsions:
REMARK  status: ('A' for Active; 'I' for Inactive)
ROOT
ATOM      1  N1  IND d   1      -2.885   3.206   1.640  0.00  0.00    -0.196 N 
ATOM      2  C2  IND d   1      -4.217   3.096   1.925  0.00  0.00     0.054 A 
ATOM      3  C3  IND d   1      -4.567   1.795   2.040  0.00  0.00    -0.031 A 
ATOM      4  C4  IND d   1      -3.096  -0.313   1.900  0.00  0.00     0.051 A 
ATOM      5  C5  IND d   1      -1.821  -0.721   1.621  0.00  0.00    -0.031 A 
ATOM      6  C6  IND d   1      -0.815   0.178   1.331  0.00  0.00     0.015 A 
ATOM      7  C7  IND d   1      -1.045   1.525   1.320  0.00  0.00    -0.016 A 
ATOM      8  C8  IND d   1      -2.339   1.942   1.596  0.00  0.00    -0.047 A 
ATOM      9  C9  IND d   1      -3.374   1.032   1.850  0.00  0.00    -0.096 A 
ATOM     10  HN1 IND d   1      -2.459   3.942   1.510  0.00  0.00     0.298 HD
ENDROOT
TORSDOF 0
ENDMDL
