MODEL 1
REMARK minimizedAffinity 8.53891563
REMARK minimizedRMSD -1
REMARK  0 active torsions:
REMARK  status: ('A' for Active; 'I' for Inactive)
ROOT
ATOM      1  N1  IND d   1       3.063   5.319  -3.951  0.00  0.00    -0.196 N 
ATOM      2  C2  IND d   1       3.833   4.899  -5.000  0.00  0.00     0.054 A 
ATOM      3  C3  IND d   1       3.892   3.549  -5.029  0.00  0.00    -0.031 A 
ATOM      4  C4  IND d   1       2.720   1.828  -3.515  0.00  0.00     0.051 A 
ATOM      5  C5  IND d   1       1.941   1.731  -2.396  0.00  0.00    -0.031 A 
ATOM      6  C6  IND d   1       1.485   2.848  -1.727  0.00  0.00     0.015 A 
ATOM      7  C7  IND d   1       1.783   4.109  -2.159  0.00  0.00    -0.016 A 
ATOM      8  C8  IND d   1       2.579   4.211  -3.291  0.00  0.00    -0.047 A 
ATOM      9  C9  IND d   1       3.080   3.081  -3.950  0.00  0.00    -0.096 A 
ATOM     10  HN1 IND d   1       2.908   6.138  -3.739  0.00  0.00     0.298 HD
ENDROOT
TORSDOF 0
ENDMDL
