MODEL 1
REMARK minimizedAffinity 20.1154995
REMARK minimizedRMSD -1
REMARK  0 active torsions:
REMARK  status: ('A' for Active; 'I' for Inactive)
ROOT
ATOM      1  N1  IND d   1      -4.754  -0.211   2.543  0.00  0.00    -0.196 N 
ATOM      2  C2  IND d   1      -4.804  -1.485   2.049  0.00  0.00     0.054 A 
ATOM      3  C3  IND d   1      -3.608  -1.832   1.524  0.00  0.00    -0.031 A 
ATOM      4  C4  IND d   1      -1.402  -0.506   1.459  0.00  0.00     0.051 A 
ATOM      5  C5  IND d   1      -0.873   0.719   1.753  0.00  0.00    -0.031 A 
ATOM      6  C6  IND d   1      -1.625   1.716   2.341  0.00  0.00     0.015 A 
ATOM      7  C7  IND d   1      -2.937   1.520   2.667  0.00  0.00    -0.016 A 
ATOM      8  C8  IND d   1      -3.480   0.280   2.363  0.00  0.00    -0.047 A 
ATOM      9  C9  IND d   1      -2.733  -0.721   1.728  0.00  0.00    -0.096 A 
ATOM     10  HN1 IND d   1      -5.409   0.213   2.905  0.00  0.00     0.298 HD
ENDROOT
TORSDOF 0
ENDMDL
