MODEL 1
REMARK minimizedAffinity 8.20921421
REMARK minimizedRMSD -1
REMARK  0 active torsions:
REMARK  status: ('A' for Active; 'I' for Inactive)
ROOT
ATOM      1  N1  IND d   1      -1.570   1.876   1.562  0.00  0.00    -0.196 N 
ATOM      2  C2  IND d   1      -2.637   1.081   1.880  0.00  0.00     0.054 A 
ATOM      3  C3  IND d   1      -2.227   0.005   2.588  0.00  0.00    -0.031 A 
ATOM      4  C4  IND d   1       0.131  -0.600   3.425  0.00  0.00     0.051 A 
ATOM      5  C5  IND d   1       1.436  -0.199   3.353  0.00  0.00    -0.031 A 
ATOM      6  C6  IND d   1       1.812   0.938   2.669  0.00  0.00     0.015 A 
ATOM      7  C7  IND d   1       0.893   1.727   2.038  0.00  0.00    -0.016 A 
ATOM      8  C8  IND d   1      -0.432   1.319   2.103  0.00  0.00    -0.047 A 
ATOM      9  C9  IND d   1      -0.815   0.143   2.760  0.00  0.00    -0.096 A 
ATOM     10  HN1 IND d   1      -1.605   2.601   1.101  0.00  0.00     0.298 HD
ENDROOT
TORSDOF 0
ENDMDL
