MODEL 1
REMARK minimizedAffinity 15.1289015
REMARK minimizedRMSD -1
REMARK  0 active torsions:
REMARK  status: ('A' for Active; 'I' for Inactive)
ROOT
ATOM      1  N1  IND d   1      -1.368   1.487   1.862  0.00  0.00    -0.196 N 
ATOM      2  C2  IND d   1      -0.812   0.240   1.936  0.00  0.00     0.054 A 
ATOM      3  C3  IND d   1      -1.779  -0.704   1.987  0.00  0.00    -0.031 A 
ATOM      4  C4  IND d   1      -4.336  -0.435   1.859  0.00  0.00     0.051 A 
ATOM      5  C5  IND d   1      -5.319   0.514   1.823  0.00  0.00    -0.031 A 
ATOM      6  C6  IND d   1      -5.029   1.863   1.794  0.00  0.00     0.015 A 
ATOM      7  C7  IND d   1      -3.740   2.315   1.790  0.00  0.00    -0.016 A 
ATOM      8  C8  IND d   1      -2.739   1.354   1.834  0.00  0.00    -0.047 A 
ATOM      9  C9  IND d   1      -3.028  -0.015   1.906  0.00  0.00    -0.096 A 
ATOM     10  HN1 IND d   1      -0.935   2.229   1.837  0.00  0.00     0.298 HD
ENDROOT
TORSDOF 0
ENDMDL
