MODEL 1
REMARK minimizedAffinity 6.77520895
REMARK minimizedRMSD -1
REMARK  0 active torsions:
REMARK  status: ('A' for Active; 'I' for Inactive)
ROOT
ATOM      1  N1  IND d   1       4.435   2.748  -5.994  0.00  0.00    -0.196 N 
ATOM      2  C2  IND d   1       4.120   3.739  -5.106  0.00  0.00     0.054 A 
ATOM      3  C3  IND d   1       3.477   3.224  -4.034  0.00  0.00    -0.031 A 
ATOM      4  C4  IND d   1       2.925   0.771  -3.481  0.00  0.00     0.051 A 
ATOM      5  C5  IND d   1       2.982  -0.490  -4.005  0.00  0.00    -0.031 A 
ATOM      6  C6  IND d   1       3.539  -0.742  -5.242  0.00  0.00     0.015 A 
ATOM      7  C7  IND d   1       4.073   0.261  -6.000  0.00  0.00    -0.016 A 
ATOM      8  C8  IND d   1       4.011   1.544  -5.475  0.00  0.00    -0.047 A 
ATOM      9  C9  IND d   1       3.409   1.812  -4.239  0.00  0.00    -0.096 A 
ATOM     10  HN1 IND d   1       4.830   2.858  -6.749  0.00  0.00     0.298 HD
ENDROOT
TORSDOF 0
ENDMDL
