MODEL 1
REMARK minimizedAffinity -1.24216926
REMARK minimizedRMSD -1
REMARK  0 active torsions:
REMARK  status: ('A' for Active; 'I' for Inactive)
ROOT
ATOM      1  C2' OXE d   1       0.633  -0.313  -2.790  0.00  0.00     0.078 C 
ATOM      2  C1' OXE d   1       0.240  -2.829  -1.608  0.00  0.00     0.078 C 
ATOM      3  C1  OXE d   1      -0.010  -1.607  -0.760  0.00  0.00    -0.078 A 
ATOM      4  C2  OXE d   1       0.230  -0.381  -1.332  0.00  0.00    -0.078 A 
ATOM      5  C3  OXE d   1      -0.037   0.780  -0.612  0.00  0.00     0.003 A 
ATOM      6  C4  OXE d   1      -0.400   0.709   0.738  0.00  0.00    -0.002 A 
ATOM      7  C5  OXE d   1      -0.612  -0.530   1.352  0.00  0.00    -0.002 A 
ATOM      8  C6  OXE d   1      -0.462  -1.694   0.606  0.00  0.00     0.003 A 
ENDROOT
TORSDOF 0
ENDMDL
