MODEL 1
REMARK minimizedAffinity -3.14043617
REMARK minimizedRMSD -1
REMARK  0 active torsions:
REMARK  status: ('A' for Active; 'I' for Inactive)
ROOT
ATOM      1  C2' OXE d   1       0.250   0.755   3.361  0.00  0.00     0.078 C 
ATOM      2  C1' OXE d   1      -0.648  -0.690   1.128  0.00  0.00     0.078 C 
ATOM      3  C1  OXE d   1      -1.668   0.095   1.914  0.00  0.00    -0.078 A 
ATOM      4  C2  OXE d   1      -1.228   0.761   3.033  0.00  0.00    -0.078 A 
ATOM      5  C3  OXE d   1      -2.117   1.544   3.763  0.00  0.00     0.003 A 
ATOM      6  C4  OXE d   1      -3.484   1.536   3.459  0.00  0.00    -0.002 A 
ATOM      7  C5  OXE d   1      -3.959   0.833   2.348  0.00  0.00    -0.002 A 
ATOM      8  C6  OXE d   1      -3.060   0.143   1.542  0.00  0.00     0.003 A 
ENDROOT
TORSDOF 0
ENDMDL
