MODEL 1
REMARK minimizedAffinity 0.0527101941
REMARK minimizedRMSD -1
REMARK  0 active torsions:
REMARK  status: ('A' for Active; 'I' for Inactive)
ROOT
ATOM      1  C2' OXE d   1      -2.568   1.926  -5.415  0.00  0.00     0.078 C 
ATOM      2  C1' OXE d   1      -1.549   4.511  -5.814  0.00  0.00     0.078 C 
ATOM      3  C1  OXE d   1      -3.047   4.340  -5.800  0.00  0.00    -0.078 A 
ATOM      4  C2  OXE d   1      -3.537   3.064  -5.651  0.00  0.00    -0.078 A 
ATOM      5  C3  OXE d   1      -4.911   2.858  -5.577  0.00  0.00     0.003 A 
ATOM      6  C4  OXE d   1      -5.800   3.914  -5.806  0.00  0.00    -0.002 A 
ATOM      7  C5  OXE d   1      -5.323   5.215  -6.000  0.00  0.00    -0.002 A 
ATOM      8  C6  OXE d   1      -3.953   5.451  -5.957  0.00  0.00     0.003 A 
ENDROOT
TORSDOF 0
ENDMDL
