MODEL 1
REMARK minimizedAffinity -3.49579096
REMARK minimizedRMSD -1
REMARK  0 active torsions:
REMARK  status: ('A' for Active; 'I' for Inactive)
ROOT
ATOM      1  C2' OXE d   1      -0.469  -0.876   1.159  0.00  0.00     0.078 C 
ATOM      2  C1' OXE d   1       0.386   0.838   3.211  0.00  0.00     0.078 C 
ATOM      3  C1  OXE d   1      -1.090   0.788   2.906  0.00  0.00    -0.078 A 
ATOM      4  C2  OXE d   1      -1.494  -0.019   1.869  0.00  0.00    -0.078 A 
ATOM      5  C3  OXE d   1      -2.850  -0.144   1.581  0.00  0.00     0.003 A 
ATOM      6  C4  OXE d   1      -3.791   0.661   2.236  0.00  0.00    -0.002 A 
ATOM      7  C5  OXE d   1      -3.396   1.518   3.268  0.00  0.00    -0.002 A 
ATOM      8  C6  OXE d   1      -2.058   1.562   3.643  0.00  0.00     0.003 A 
ENDROOT
TORSDOF 0
ENDMDL
