MODEL 1
REMARK minimizedAffinity -2.2739985
REMARK minimizedRMSD -1
REMARK  0 active torsions:
REMARK  status: ('A' for Active; 'I' for Inactive)
ROOT
ATOM      1  C2' OXE d   1       0.812   2.013  -0.655  0.00  0.00     0.078 C 
ATOM      2  C1' OXE d   1       1.456   0.122  -2.627  0.00  0.00     0.078 C 
ATOM      3  C1  OXE d   1       0.817  -0.378  -1.356  0.00  0.00    -0.078 A 
ATOM      4  C2  OXE d   1       0.548   0.549  -0.377  0.00  0.00    -0.078 A 
ATOM      5  C3  OXE d   1      -0.092   0.150   0.793  0.00  0.00     0.003 A 
ATOM      6  C4  OXE d   1      -0.324  -1.208   1.046  0.00  0.00    -0.002 A 
ATOM      7  C5  OXE d   1      -0.021  -2.172   0.079  0.00  0.00    -0.002 A 
ATOM      8  C6  OXE d   1       0.509  -1.770  -1.142  0.00  0.00     0.003 A 
ENDROOT
TORSDOF 0
ENDMDL
