MODEL 1
REMARK minimizedAffinity 0.835153162
REMARK minimizedRMSD -1
REMARK  0 active torsions:
REMARK  status: ('A' for Active; 'I' for Inactive)
ROOT
ATOM      1  C2' OXE d   1      -0.615  -1.102   0.238  0.00  0.00     0.078 C 
ATOM      2  C1' OXE d   1       0.131   1.081   1.837  0.00  0.00     0.078 C 
ATOM      3  C1  OXE d   1       0.745   0.973   0.464  0.00  0.00    -0.078 A 
ATOM      4  C2  OXE d   1       0.410  -0.124  -0.294  0.00  0.00    -0.078 A 
ATOM      5  C3  OXE d   1       0.906  -0.244  -1.589  0.00  0.00     0.003 A 
ATOM      6  C4  OXE d   1       1.861   0.660  -2.069  0.00  0.00    -0.002 A 
ATOM      7  C5  OXE d   1       2.246   1.762  -1.298  0.00  0.00    -0.002 A 
ATOM      8  C6  OXE d   1       1.667   1.956  -0.049  0.00  0.00     0.003 A 
ENDROOT
TORSDOF 0
ENDMDL
