MODEL 1
REMARK minimizedAffinity -4.50431013
REMARK minimizedRMSD -1
REMARK  0 active torsions:
REMARK  status: ('A' for Active; 'I' for Inactive)
ROOT
ATOM      1  C2' OXE d   1      -0.460  -0.957   0.897  0.00  0.00     0.078 C 
ATOM      2  C1' OXE d   1       0.543   0.522   3.062  0.00  0.00     0.078 C 
ATOM      3  C1  OXE d   1      -0.910   0.702   2.701  0.00  0.00    -0.078 A 
ATOM      4  C2  OXE d   1      -1.381   0.009   1.611  0.00  0.00    -0.078 A 
ATOM      5  C3  OXE d   1      -2.727   0.097   1.268  0.00  0.00     0.003 A 
ATOM      6  C4  OXE d   1      -3.569   1.000   1.928  0.00  0.00    -0.002 A 
ATOM      7  C5  OXE d   1      -3.100   1.745   3.015  0.00  0.00    -0.002 A 
ATOM      8  C6  OXE d   1      -1.787   1.576   3.440  0.00  0.00     0.003 A 
ENDROOT
TORSDOF 0
ENDMDL
