MODEL 1
REMARK minimizedAffinity -4.262218
REMARK minimizedRMSD -1
REMARK  0 active torsions:
REMARK  status: ('A' for Active; 'I' for Inactive)
ROOT
ATOM      1  C2' OXE d   1       1.224   2.122   0.438  0.00  0.00     0.078 C 
ATOM      2  C1' OXE d   1      -0.574   0.056   1.052  0.00  0.00     0.078 C 
ATOM      3  C1  OXE d   1       0.171  -0.026  -0.257  0.00  0.00    -0.078 A 
ATOM      4  C2  OXE d   1       1.014   1.013  -0.570  0.00  0.00    -0.078 A 
ATOM      5  C3  OXE d   1       1.767   0.961  -1.740  0.00  0.00     0.003 A 
ATOM      6  C4  OXE d   1       1.560  -0.063  -2.671  0.00  0.00    -0.002 A 
ATOM      7  C5  OXE d   1       0.676  -1.110  -2.390  0.00  0.00    -0.002 A 
ATOM      8  C6  OXE d   1       0.007  -1.129  -1.171  0.00  0.00     0.003 A 
ENDROOT
TORSDOF 0
ENDMDL
