MODEL 1
REMARK minimizedAffinity -4.76853371
REMARK minimizedRMSD -1
REMARK  0 active torsions:
REMARK  status: ('A' for Active; 'I' for Inactive)
ROOT
ATOM      1  C2' OXE d   1       0.878   1.962  -0.847  0.00  0.00     0.078 C 
ATOM      2  C1' OXE d   1       1.740   0.104  -2.766  0.00  0.00     0.078 C 
ATOM      3  C1  OXE d   1       1.041  -0.425  -1.539  0.00  0.00    -0.078 A 
ATOM      4  C2  OXE d   1       0.664   0.487  -0.583  0.00  0.00    -0.078 A 
ATOM      5  C3  OXE d   1      -0.033   0.058   0.543  0.00  0.00     0.003 A 
ATOM      6  C4  OXE d   1      -0.217  -1.309   0.784  0.00  0.00    -0.002 A 
ATOM      7  C5  OXE d   1       0.194  -2.258  -0.158  0.00  0.00    -0.002 A 
ATOM      8  C6  OXE d   1       0.786  -1.831  -1.342  0.00  0.00     0.003 A 
ENDROOT
TORSDOF 0
ENDMDL
