MODEL 1
REMARK minimizedAffinity -4.43904972
REMARK minimizedRMSD -1
REMARK  0 active torsions:
REMARK  status: ('A' for Active; 'I' for Inactive)
ROOT
ATOM      1  C2' OXE d   1       0.235  -2.329   0.367  0.00  0.00     0.078 C 
ATOM      2  C1' OXE d   1      -1.154   0.105   0.541  0.00  0.00     0.078 C 
ATOM      3  C1  OXE d   1      -0.167  -0.063  -0.587  0.00  0.00    -0.078 A 
ATOM      4  C2  OXE d   1       0.542  -1.239  -0.637  0.00  0.00    -0.078 A 
ATOM      5  C3  OXE d   1       1.425  -1.467  -1.689  0.00  0.00     0.003 A 
ATOM      6  C4  OXE d   1       1.711  -0.451  -2.608  0.00  0.00    -0.002 A 
ATOM      7  C5  OXE d   1       1.029   0.769  -2.552  0.00  0.00    -0.002 A 
ATOM      8  C6  OXE d   1       0.058   0.963  -1.575  0.00  0.00     0.003 A 
ENDROOT
TORSDOF 0
ENDMDL
