MODEL 1
REMARK minimizedAffinity -0.386844724
REMARK minimizedRMSD -1
REMARK  0 active torsions:
REMARK  status: ('A' for Active; 'I' for Inactive)
ROOT
ATOM      1  C2' OXE d   1      -1.215   0.855  -0.624  0.00  0.00     0.078 C 
ATOM      2  C1' OXE d   1       0.879   0.829   1.245  0.00  0.00     0.078 C 
ATOM      3  C1  OXE d   1       1.238   0.716  -0.215  0.00  0.00    -0.078 A 
ATOM      4  C2  OXE d   1       0.205   0.683  -1.120  0.00  0.00    -0.078 A 
ATOM      5  C3  OXE d   1       0.482   0.635  -2.483  0.00  0.00     0.003 A 
ATOM      6  C4  OXE d   1       1.797   0.466  -2.933  0.00  0.00    -0.002 A 
ATOM      7  C5  OXE d   1       2.862   0.458  -2.026  0.00  0.00    -0.002 A 
ATOM      8  C6  OXE d   1       2.604   0.624  -0.670  0.00  0.00     0.003 A 
ENDROOT
TORSDOF 0
ENDMDL
