MODEL 1
REMARK minimizedAffinity -4.72400618
REMARK minimizedRMSD -1
REMARK  0 active torsions:
REMARK  status: ('A' for Active; 'I' for Inactive)
ROOT
ATOM      1  C2' OXE d   1      -0.523  -0.923   1.452  0.00  0.00     0.078 C 
ATOM      2  C1' OXE d   1       0.016   0.963   3.460  0.00  0.00     0.078 C 
ATOM      3  C1  OXE d   1      -1.370   0.945   2.866  0.00  0.00    -0.078 A 
ATOM      4  C2  OXE d   1      -1.612   0.050   1.852  0.00  0.00    -0.078 A 
ATOM      5  C3  OXE d   1      -2.889  -0.045   1.307  0.00  0.00     0.003 A 
ATOM      6  C4  OXE d   1      -3.887   0.865   1.675  0.00  0.00    -0.002 A 
ATOM      7  C5  OXE d   1      -3.650   1.811   2.678  0.00  0.00    -0.002 A 
ATOM      8  C6  OXE d   1      -2.413   1.836   3.313  0.00  0.00     0.003 A 
ENDROOT
TORSDOF 0
ENDMDL
