MODEL 1
REMARK minimizedAffinity -0.419359863
REMARK minimizedRMSD -1
REMARK  0 active torsions:
REMARK  status: ('A' for Active; 'I' for Inactive)
ROOT
ATOM      1  C2' OXE d   1      -5.679  -1.501  -5.962  0.00  0.00     0.078 C 
ATOM      2  C1' OXE d   1      -5.608  -1.533  -3.155  0.00  0.00     0.078 C 
ATOM      3  C1  OXE d   1      -4.585  -2.359  -3.894  0.00  0.00    -0.078 A 
ATOM      4  C2  OXE d   1      -4.657  -2.374  -5.267  0.00  0.00    -0.078 A 
ATOM      5  C3  OXE d   1      -3.704  -3.076  -5.999  0.00  0.00     0.003 A 
ATOM      6  C4  OXE d   1      -2.768  -3.889  -5.348  0.00  0.00    -0.002 A 
ATOM      7  C5  OXE d   1      -2.703  -3.919  -3.951  0.00  0.00    -0.002 A 
ATOM      8  C6  OXE d   1      -3.575  -3.129  -3.211  0.00  0.00     0.003 A 
ENDROOT
TORSDOF 0
ENDMDL
