MODEL 1
REMARK minimizedAffinity 0.528799891
REMARK minimizedRMSD -1
REMARK  0 active torsions:
REMARK  status: ('A' for Active; 'I' for Inactive)
ROOT
ATOM      1  C2' OXE d   1       0.371   0.054   3.820  0.00  0.00     0.078 C 
ATOM      2  C1' OXE d   1       0.121   0.896   1.154  0.00  0.00     0.078 C 
ATOM      3  C1  OXE d   1      -0.995   1.240   2.108  0.00  0.00    -0.078 A 
ATOM      4  C2  OXE d   1      -0.886   0.784   3.400  0.00  0.00    -0.078 A 
ATOM      5  C3  OXE d   1      -1.862   1.120   4.334  0.00  0.00     0.003 A 
ATOM      6  C4  OXE d   1      -3.027   1.786   3.934  0.00  0.00    -0.002 A 
ATOM      7  C5  OXE d   1      -3.176   2.225   2.614  0.00  0.00    -0.002 A 
ATOM      8  C6  OXE d   1      -2.153   1.998   1.701  0.00  0.00     0.003 A 
ENDROOT
TORSDOF 0
ENDMDL
