MODEL 1
REMARK minimizedAffinity 3.00818777
REMARK minimizedRMSD -1
REMARK  0 active torsions:
REMARK  status: ('A' for Active; 'I' for Inactive)
ROOT
ATOM      1  C2' OXE d   1      -1.653   3.815  -5.182  0.00  0.00     0.078 C 
ATOM      2  C1' OXE d   1      -3.236   5.995  -5.969  0.00  0.00     0.078 C 
ATOM      3  C1  OXE d   1      -3.915   4.659  -5.797  0.00  0.00    -0.078 A 
ATOM      4  C2  OXE d   1      -3.124   3.588  -5.457  0.00  0.00    -0.078 A 
ATOM      5  C3  OXE d   1      -3.708   2.344  -5.233  0.00  0.00     0.003 A 
ATOM      6  C4  OXE d   1      -5.067   2.140  -5.500  0.00  0.00    -0.002 A 
ATOM      7  C5  OXE d   1      -5.883   3.210  -5.886  0.00  0.00    -0.002 A 
ATOM      8  C6  OXE d   1      -5.332   4.481  -5.997  0.00  0.00     0.003 A 
ENDROOT
TORSDOF 0
ENDMDL
