MODEL 1
REMARK minimizedAffinity -3.48485422
REMARK minimizedRMSD -1
REMARK  0 active torsions:
REMARK  status: ('A' for Active; 'I' for Inactive)
ROOT
ATOM      1  C   UNL d   1       3.045   0.341   0.407  0.00  0.00     0.020 A 
ATOM      2  C1  UNL d   1       2.276   1.341  -0.187  0.00  0.00     0.020 A 
ATOM      3  C2  UNL d   1       0.894   1.182  -0.303  0.00  0.00     0.034 A 
ATOM      4  C3  UNL d   1       0.276   0.021   0.176  0.00  0.00     0.017 A 
ATOM      5  C4  UNL d   1       1.049  -0.982   0.773  0.00  0.00     0.017 A 
ATOM      6  C5  UNL d   1       2.433  -0.817   0.886  0.00  0.00     0.034 A 
ATOM      7 Cl   UNL d   1       0.358  -2.442   1.388  0.00  0.00    -0.070 Cl
ATOM      8 Cl1  UNL d   1      -1.438  -0.108   0.000  0.00  0.00    -0.070 Cl
ENDROOT
TORSDOF 0
ENDMDL
