MODEL 1
REMARK minimizedAffinity -4.71607828
REMARK minimizedRMSD -1
REMARK  0 active torsions:
REMARK  status: ('A' for Active; 'I' for Inactive)
ROOT
ATOM      1  C   UNL d   1       3.422  -0.163   1.127  0.00  0.00     0.020 A 
ATOM      2  C1  UNL d   1       2.767  -1.364   0.858  0.00  0.00     0.020 A 
ATOM      3  C2  UNL d   1       1.412  -1.360   0.520  0.00  0.00     0.034 A 
ATOM      4  C3  UNL d   1       0.708  -0.152   0.450  0.00  0.00     0.017 A 
ATOM      5  C4  UNL d   1       1.366   1.053   0.720  0.00  0.00     0.017 A 
ATOM      6  C5  UNL d   1       2.723   1.043   1.058  0.00  0.00     0.034 A 
ATOM      7 Cl   UNL d   1       0.564   2.583   0.654  0.00  0.00    -0.070 Cl
ATOM      8 Cl1  UNL d   1      -0.966  -0.221   0.025  0.00  0.00    -0.070 Cl
ENDROOT
TORSDOF 0
ENDMDL
