MODEL 1
REMARK minimizedAffinity -3.33086443
REMARK minimizedRMSD -1
REMARK  0 active torsions:
REMARK  status: ('A' for Active; 'I' for Inactive)
ROOT
ATOM      1  C   UNL d   1      -1.008   0.858   0.363  0.00  0.00     0.020 A 
ATOM      2  C1  UNL d   1      -0.665  -0.253  -0.406  0.00  0.00     0.020 A 
ATOM      3  C2  UNL d   1       0.637  -0.756  -0.364  0.00  0.00     0.034 A 
ATOM      4  C3  UNL d   1       1.601  -0.147   0.448  0.00  0.00     0.017 A 
ATOM      5  C4  UNL d   1       1.256   0.968   1.220  0.00  0.00     0.017 A 
ATOM      6  C5  UNL d   1      -0.050   1.468   1.174  0.00  0.00     0.034 A 
ATOM      7 Cl   UNL d   1       2.390   1.773   2.246  0.00  0.00    -0.070 Cl
ATOM      8 Cl1  UNL d   1       3.192  -0.822   0.452  0.00  0.00    -0.070 Cl
ENDROOT
TORSDOF 0
ENDMDL
