MODEL 1
REMARK minimizedAffinity -3.78736997
REMARK minimizedRMSD -1
REMARK  0 active torsions:
REMARK  status: ('A' for Active; 'I' for Inactive)
ROOT
ATOM      1  C   UNL d   1       2.854  -0.742   0.541  0.00  0.00     0.020 A 
ATOM      2  C1  UNL d   1       1.871  -1.694   0.274  0.00  0.00     0.020 A 
ATOM      3  C2  UNL d   1       0.552  -1.292   0.047  0.00  0.00     0.034 A 
ATOM      4  C3  UNL d   1       0.214   0.065   0.087  0.00  0.00     0.017 A 
ATOM      5  C4  UNL d   1       1.201   1.020   0.355  0.00  0.00     0.017 A 
ATOM      6  C5  UNL d   1       2.519   0.612   0.581  0.00  0.00     0.034 A 
ATOM      7 Cl   UNL d   1       0.860   2.713   0.421  0.00  0.00    -0.070 Cl
ATOM      8 Cl1  UNL d   1      -1.436   0.491  -0.202  0.00  0.00    -0.070 Cl
ENDROOT
TORSDOF 0
ENDMDL
