MODEL 1
REMARK minimizedAffinity -5.19857216
REMARK minimizedRMSD -1
REMARK  0 active torsions:
REMARK  status: ('A' for Active; 'I' for Inactive)
ROOT
ATOM      1  C   UNL d   1       3.554  -0.670   0.798  0.00  0.00     0.020 A 
ATOM      2  C1  UNL d   1       2.897   0.370   0.143  0.00  0.00     0.020 A 
ATOM      3  C2  UNL d   1       1.505   0.358   0.033  0.00  0.00     0.034 A 
ATOM      4  C3  UNL d   1       0.765  -0.697   0.579  0.00  0.00     0.017 A 
ATOM      5  C4  UNL d   1       1.425  -1.741   1.237  0.00  0.00     0.017 A 
ATOM      6  C5  UNL d   1       2.819  -1.724   1.344  0.00  0.00     0.034 A 
ATOM      7 Cl   UNL d   1       0.580  -3.076   1.937  0.00  0.00    -0.070 Cl
ATOM      8 Cl1  UNL d   1      -0.953  -0.646   0.406  0.00  0.00    -0.070 Cl
ENDROOT
TORSDOF 0
ENDMDL
