MODEL 1
REMARK minimizedAffinity -5.43565702
REMARK minimizedRMSD -1
REMARK  0 active torsions:
REMARK  status: ('A' for Active; 'I' for Inactive)
ROOT
ATOM      1  C   UNL d   1       2.548  -1.281   1.509  0.00  0.00     0.020 A 
ATOM      2  C1  UNL d   1       3.277  -0.093   1.529  0.00  0.00     0.020 A 
ATOM      3  C2  UNL d   1       2.731   1.070   0.981  0.00  0.00     0.034 A 
ATOM      4  C3  UNL d   1       1.453   1.047   0.410  0.00  0.00     0.017 A 
ATOM      5  C4  UNL d   1       0.722  -0.146   0.391  0.00  0.00     0.017 A 
ATOM      6  C5  UNL d   1       1.273  -1.307   0.941  0.00  0.00     0.034 A 
ATOM      7 Cl   UNL d   1      -0.860  -0.252  -0.296  0.00  0.00    -0.070 Cl
ATOM      8 Cl1  UNL d   1       0.841   2.523  -0.249  0.00  0.00    -0.070 Cl
ENDROOT
TORSDOF 0
ENDMDL
