MODEL 1
REMARK minimizedAffinity 1.77759564
REMARK minimizedRMSD -1
REMARK  0 active torsions:
REMARK  status: ('A' for Active; 'I' for Inactive)
ROOT
ATOM      1  C   UNL d   1      -0.210  -3.193   1.730  0.00  0.00     0.020 A 
ATOM      2  C1  UNL d   1      -1.175  -2.694   0.856  0.00  0.00     0.020 A 
ATOM      3  C2  UNL d   1      -0.990  -1.450   0.248  0.00  0.00     0.034 A 
ATOM      4  C3  UNL d   1       0.162  -0.701   0.515  0.00  0.00     0.017 A 
ATOM      5  C4  UNL d   1       1.130  -1.203   1.393  0.00  0.00     0.017 A 
ATOM      6  C5  UNL d   1       0.939  -2.449   1.998  0.00  0.00     0.034 A 
ATOM      7 Cl   UNL d   1       2.577  -0.337   1.770  0.00  0.00    -0.070 Cl
ATOM      8 Cl1  UNL d   1       0.326   0.828  -0.272  0.00  0.00    -0.070 Cl
ENDROOT
TORSDOF 0
ENDMDL
