MODEL 1
REMARK minimizedAffinity -4.23509216
REMARK minimizedRMSD -1
REMARK  0 active torsions:
REMARK  status: ('A' for Active; 'I' for Inactive)
ROOT
ATOM      1  C   UNL d   1       2.594   1.311   0.427  0.00  0.00     0.020 A 
ATOM      2  C1  UNL d   1       1.502   2.072   0.011  0.00  0.00     0.020 A 
ATOM      3  C2  UNL d   1       0.215   1.531   0.057  0.00  0.00     0.034 A 
ATOM      4  C3  UNL d   1       0.018   0.224   0.519  0.00  0.00     0.017 A 
ATOM      5  C4  UNL d   1       1.114  -0.539   0.936  0.00  0.00     0.017 A 
ATOM      6  C5  UNL d   1       2.400   0.008   0.888  0.00  0.00     0.034 A 
ATOM      7 Cl   UNL d   1       0.949  -2.158   1.519  0.00  0.00    -0.070 Cl
ATOM      8 Cl1  UNL d   1      -1.600  -0.381   0.549  0.00  0.00    -0.070 Cl
ENDROOT
TORSDOF 0
ENDMDL
