MODEL 1
REMARK minimizedAffinity -3.76365852
REMARK minimizedRMSD -1
REMARK  0 active torsions:
REMARK  status: ('A' for Active; 'I' for Inactive)
ROOT
ATOM      1  C   UNL d   1       2.914  -0.878   0.241  0.00  0.00     0.020 A 
ATOM      2  C1  UNL d   1       2.784   0.413  -0.268  0.00  0.00     0.020 A 
ATOM      3  C2  UNL d   1       1.517   0.986  -0.404  0.00  0.00     0.034 A 
ATOM      4  C3  UNL d   1       0.376   0.267  -0.031  0.00  0.00     0.017 A 
ATOM      5  C4  UNL d   1       0.507  -1.029   0.480  0.00  0.00     0.017 A 
ATOM      6  C5  UNL d   1       1.778  -1.598   0.614  0.00  0.00     0.034 A 
ATOM      7 Cl   UNL d   1      -0.854  -1.978   0.963  0.00  0.00    -0.070 Cl
ATOM      8 Cl1  UNL d   1      -1.158   1.037  -0.226  0.00  0.00    -0.070 Cl
ENDROOT
TORSDOF 0
ENDMDL
