MODEL 1
REMARK minimizedAffinity -4.9729805
REMARK minimizedRMSD -1
REMARK  0 active torsions:
REMARK  status: ('A' for Active; 'I' for Inactive)
ROOT
ATOM      1  C   UNL d   1       2.403  -1.524   1.399  0.00  0.00     0.020 A 
ATOM      2  C1  UNL d   1       3.285  -0.493   1.078  0.00  0.00     0.020 A 
ATOM      3  C2  UNL d   1       2.800   0.695   0.527  0.00  0.00     0.034 A 
ATOM      4  C3  UNL d   1       1.429   0.856   0.297  0.00  0.00     0.017 A 
ATOM      5  C4  UNL d   1       0.544  -0.179   0.620  0.00  0.00     0.017 A 
ATOM      6  C5  UNL d   1       1.035  -1.366   1.171  0.00  0.00     0.034 A 
ATOM      7 Cl   UNL d   1      -1.161  -0.053   0.365  0.00  0.00    -0.070 Cl
ATOM      8 Cl1  UNL d   1       0.900   2.353  -0.385  0.00  0.00    -0.070 Cl
ENDROOT
TORSDOF 0
ENDMDL
