MODEL 1
REMARK minimizedAffinity -6.00423956
REMARK minimizedRMSD -1
REMARK  0 active torsions:
REMARK  status: ('A' for Active; 'I' for Inactive)
ROOT
ATOM      1  C   UNL d   1       2.312  -0.945   0.497  0.00  0.00     0.020 A 
ATOM      2  C1  UNL d   1       2.984   0.219   0.868  0.00  0.00     0.020 A 
ATOM      3  C2  UNL d   1       2.311   1.442   0.874  0.00  0.00     0.034 A 
ATOM      4  C3  UNL d   1       0.961   1.505   0.509  0.00  0.00     0.017 A 
ATOM      5  C4  UNL d   1       0.287   0.336   0.137  0.00  0.00     0.017 A 
ATOM      6  C5  UNL d   1       0.966  -0.886   0.133  0.00  0.00     0.034 A 
ATOM      7 Cl   UNL d   1      -1.378   0.334  -0.326  0.00  0.00    -0.070 Cl
ATOM      8 Cl1  UNL d   1       0.191   3.051   0.540  0.00  0.00    -0.070 Cl
ENDROOT
TORSDOF 0
ENDMDL
