MODEL 1
REMARK minimizedAffinity 0.0372221284
REMARK minimizedRMSD -1
REMARK  0 active torsions:
REMARK  status: ('A' for Active; 'I' for Inactive)
ROOT
ATOM      1  C   UNL d   1       0.441   1.825   0.471  0.00  0.00     0.020 A 
ATOM      2  C1  UNL d   1       0.587   1.758  -0.914  0.00  0.00     0.020 A 
ATOM      3  C2  UNL d   1       0.391   0.546  -1.580  0.00  0.00     0.034 A 
ATOM      4  C3  UNL d   1       0.049  -0.604  -0.860  0.00  0.00     0.017 A 
ATOM      5  C4  UNL d   1      -0.098  -0.537   0.530  0.00  0.00     0.017 A 
ATOM      6  C5  UNL d   1       0.099   0.679   1.191  0.00  0.00     0.034 A 
ATOM      7 Cl   UNL d   1      -0.519  -1.914   1.486  0.00  0.00    -0.070 Cl
ATOM      8 Cl1  UNL d   1      -0.179  -2.069  -1.748  0.00  0.00    -0.070 Cl
ENDROOT
TORSDOF 0
ENDMDL
