MODEL 1
REMARK minimizedAffinity -0.904065013
REMARK minimizedRMSD -1
REMARK  0 active torsions:
REMARK  status: ('A' for Active; 'I' for Inactive)
ROOT
ATOM      1  O1  BZF d   1       0.214  -0.820  -0.703  0.00  0.00    -0.204 OA
ATOM      2  C2  BZF d   1       1.500  -1.047  -1.151  0.00  0.00     0.174 A 
ATOM      3  C3  BZF d   1       2.372  -1.053  -0.122  0.00  0.00    -0.012 A 
ATOM      4  C3A BZF d   1       1.567  -0.907   1.053  0.00  0.00    -0.107 A 
ATOM      5  C4  BZF d   1       1.854  -0.857   2.387  0.00  0.00     0.055 A 
ATOM      6  C5  BZF d   1       0.847  -0.634   3.271  0.00  0.00    -0.016 A 
ATOM      7  C6  BZF d   1      -0.456  -0.450   2.857  0.00  0.00     0.022 A 
ATOM      8  C7  BZF d   1      -0.790  -0.495   1.544  0.00  0.00     0.029 A 
ATOM      9  C7A BZF d   1       0.221  -0.754   0.650  0.00  0.00     0.058 A 
ENDROOT
TORSDOF 0
ENDMDL
