MODEL 1
REMARK minimizedAffinity -4.68678856
REMARK minimizedRMSD -1
REMARK  0 active torsions:
REMARK  status: ('A' for Active; 'I' for Inactive)
ROOT
ATOM      1  O1  BZF d   1      -0.107  -1.509   3.238  0.00  0.00    -0.204 OA
ATOM      2  C2  BZF d   1      -1.486  -1.562   3.176  0.00  0.00     0.174 A 
ATOM      3  C3  BZF d   1      -1.942  -0.906   2.090  0.00  0.00    -0.012 A 
ATOM      4  C3A BZF d   1      -0.770  -0.490   1.382  0.00  0.00    -0.107 A 
ATOM      5  C4  BZF d   1      -0.570   0.192   0.216  0.00  0.00     0.055 A 
ATOM      6  C5  BZF d   1       0.699   0.500  -0.160  0.00  0.00    -0.016 A 
ATOM      7  C6  BZF d   1       1.789   0.147   0.608  0.00  0.00     0.022 A 
ATOM      8  C7  BZF d   1       1.641  -0.535   1.770  0.00  0.00     0.029 A 
ATOM      9  C7A BZF d   1       0.362  -0.876   2.136  0.00  0.00     0.058 A 
ENDROOT
TORSDOF 0
ENDMDL
