MODEL 1
REMARK minimizedAffinity 0.185858473
REMARK minimizedRMSD -1
REMARK  0 active torsions:
REMARK  status: ('A' for Active; 'I' for Inactive)
ROOT
ATOM      1  O1  BZF d   1      -0.482   1.062  -2.106  0.00  0.00    -0.204 OA
ATOM      2  C2  BZF d   1      -0.908   2.280  -1.610  0.00  0.00     0.174 A 
ATOM      3  C3  BZF d   1      -0.442   2.477  -0.360  0.00  0.00    -0.012 A 
ATOM      4  C3A BZF d   1       0.400   1.352  -0.090  0.00  0.00    -0.107 A 
ATOM      5  C4  BZF d   1       1.160   0.984   0.983  0.00  0.00     0.055 A 
ATOM      6  C5  BZF d   1       1.804  -0.212   0.957  0.00  0.00    -0.016 A 
ATOM      7  C6  BZF d   1       1.707  -1.066  -0.123  0.00  0.00     0.022 A 
ATOM      8  C7  BZF d   1       0.969  -0.742  -1.212  0.00  0.00     0.029 A 
ATOM      9  C7A BZF d   1       0.343   0.480  -1.203  0.00  0.00     0.058 A 
ENDROOT
TORSDOF 0
ENDMDL
