MODEL 1
REMARK minimizedAffinity -2.35301661
REMARK minimizedRMSD -1
REMARK  0 active torsions:
REMARK  status: ('A' for Active; 'I' for Inactive)
ROOT
ATOM      1  O1  BZF d   1      -1.192  -0.528   0.767  0.00  0.00    -0.204 OA
ATOM      2  C2  BZF d   1      -0.826   0.020  -0.447  0.00  0.00     0.174 A 
ATOM      3  C3  BZF d   1       0.482   0.348  -0.449  0.00  0.00    -0.012 A 
ATOM      4  C3A BZF d   1       0.985  -0.104   0.812  0.00  0.00    -0.107 A 
ATOM      5  C4  BZF d   1       2.220  -0.078   1.394  0.00  0.00     0.055 A 
ATOM      6  C5  BZF d   1       2.361  -0.536   2.666  0.00  0.00    -0.016 A 
ATOM      7  C6  BZF d   1       1.288  -1.020   3.386  0.00  0.00     0.022 A 
ATOM      8  C7  BZF d   1       0.045  -1.070   2.850  0.00  0.00     0.029 A 
ATOM      9  C7A BZF d   1      -0.094  -0.639   1.553  0.00  0.00     0.058 A 
ENDROOT
TORSDOF 0
ENDMDL
