MODEL 1
REMARK minimizedAffinity 4.70116854
REMARK minimizedRMSD -1
REMARK  0 active torsions:
REMARK  status: ('A' for Active; 'I' for Inactive)
ROOT
ATOM      1  O1  BZF d   1       0.244   1.746  -5.161  0.00  0.00    -0.204 OA
ATOM      2  C2  BZF d   1       1.348   2.200  -5.856  0.00  0.00     0.174 A 
ATOM      3  C3  BZF d   1       1.857   3.306  -5.275  0.00  0.00    -0.012 A 
ATOM      4  C3A BZF d   1       1.075   3.504  -4.094  0.00  0.00    -0.107 A 
ATOM      5  C4  BZF d   1       1.107   4.431  -3.091  0.00  0.00     0.055 A 
ATOM      6  C5  BZF d   1       0.156   4.388  -2.121  0.00  0.00    -0.016 A 
ATOM      7  C6  BZF d   1      -0.843   3.436  -2.125  0.00  0.00     0.022 A 
ATOM      8  C7  BZF d   1      -0.913   2.493  -3.096  0.00  0.00     0.029 A 
ATOM      9  C7A BZF d   1       0.066   2.514  -4.059  0.00  0.00     0.058 A 
ENDROOT
TORSDOF 0
ENDMDL
