MODEL 1
REMARK minimizedAffinity -1.81771767
REMARK minimizedRMSD -1
REMARK  0 active torsions:
REMARK  status: ('A' for Active; 'I' for Inactive)
ROOT
ATOM      1  O1  BZF d   1      -3.025  -1.607  -1.728  0.00  0.00    -0.204 OA
ATOM      2  C2  BZF d   1      -4.107  -2.067  -1.003  0.00  0.00     0.174 A 
ATOM      3  C3  BZF d   1      -3.987  -1.736   0.299  0.00  0.00    -0.012 A 
ATOM      4  C3A BZF d   1      -2.796  -0.946   0.378  0.00  0.00    -0.107 A 
ATOM      5  C4  BZF d   1      -2.156  -0.313   1.405  0.00  0.00     0.055 A 
ATOM      6  C5  BZF d   1      -0.975   0.312   1.161  0.00  0.00    -0.016 A 
ATOM      7  C6  BZF d   1      -0.403   0.320  -0.095  0.00  0.00     0.022 A 
ATOM      8  C7  BZF d   1      -1.003  -0.290  -1.146  0.00  0.00     0.029 A 
ATOM      9  C7A BZF d   1      -2.214  -0.895  -0.910  0.00  0.00     0.058 A 
ENDROOT
TORSDOF 0
ENDMDL
