MODEL 1
REMARK minimizedAffinity -0.155306816
REMARK minimizedRMSD -1
REMARK  0 active torsions:
REMARK  status: ('A' for Active; 'I' for Inactive)
ROOT
ATOM      1  O1  BZF d   1      -0.332   0.431  -1.533  0.00  0.00    -0.204 OA
ATOM      2  C2  BZF d   1      -0.881   1.364  -0.675  0.00  0.00     0.174 A 
ATOM      3  C3  BZF d   1      -0.184   1.422   0.479  0.00  0.00    -0.012 A 
ATOM      4  C3A BZF d   1       0.921   0.531   0.296  0.00  0.00    -0.107 A 
ATOM      5  C4  BZF d   1       1.976   0.170   1.083  0.00  0.00     0.055 A 
ATOM      6  C5  BZF d   1       2.839  -0.780   0.637  0.00  0.00    -0.016 A 
ATOM      7  C6  BZF d   1       2.675  -1.392  -0.588  0.00  0.00     0.022 A 
ATOM      8  C7  BZF d   1       1.646  -1.064  -1.407  0.00  0.00     0.029 A 
ATOM      9  C7A BZF d   1       0.791  -0.080  -0.973  0.00  0.00     0.058 A 
ENDROOT
TORSDOF 0
ENDMDL
