MODEL 1
REMARK minimizedAffinity 1.43681622
REMARK minimizedRMSD -1
REMARK  0 active torsions:
REMARK  status: ('A' for Active; 'I' for Inactive)
ROOT
ATOM      1  O1  BZF d   1       0.400  -0.547  -1.085  0.00  0.00    -0.204 OA
ATOM      2  C2  BZF d   1      -0.790  -0.202  -0.474  0.00  0.00     0.174 A 
ATOM      3  C3  BZF d   1      -0.644  -0.152   0.865  0.00  0.00    -0.012 A 
ATOM      4  C3A BZF d   1       0.746  -0.396   1.102  0.00  0.00    -0.107 A 
ATOM      5  C4  BZF d   1       1.509  -0.458   2.232  0.00  0.00     0.055 A 
ATOM      6  C5  BZF d   1       2.823  -0.788   2.125  0.00  0.00    -0.016 A 
ATOM      7  C6  BZF d   1       3.404  -1.068   0.905  0.00  0.00     0.022 A 
ATOM      8  C7  BZF d   1       2.688  -1.015  -0.244  0.00  0.00     0.029 A 
ATOM      9  C7A BZF d   1       1.368  -0.649  -0.143  0.00  0.00     0.058 A 
ENDROOT
TORSDOF 0
ENDMDL
