MODEL 1
REMARK minimizedAffinity -0.256712288
REMARK minimizedRMSD -1
REMARK  0 active torsions:
REMARK  status: ('A' for Active; 'I' for Inactive)
ROOT
ATOM      1  O1  BZF d   1       0.576  -2.292   3.051  0.00  0.00    -0.204 OA
ATOM      2  C2  BZF d   1      -0.686  -2.727   3.409  0.00  0.00     0.174 A 
ATOM      3  C3  BZF d   1      -1.632  -2.104   2.678  0.00  0.00    -0.012 A 
ATOM      4  C3A BZF d   1      -0.913  -1.292   1.745  0.00  0.00    -0.107 A 
ATOM      5  C4  BZF d   1      -1.298  -0.449   0.742  0.00  0.00     0.055 A 
ATOM      6  C5  BZF d   1      -0.349   0.249   0.065  0.00  0.00    -0.016 A 
ATOM      7  C6  BZF d   1       0.992   0.132   0.367  0.00  0.00     0.022 A 
ATOM      8  C7  BZF d   1       1.423  -0.695   1.350  0.00  0.00     0.029 A 
ATOM      9  C7A BZF d   1       0.469  -1.427   2.015  0.00  0.00     0.058 A 
ENDROOT
TORSDOF 0
ENDMDL
