MODEL 1
REMARK minimizedAffinity 2.58786488
REMARK minimizedRMSD -1
REMARK  0 active torsions:
REMARK  status: ('A' for Active; 'I' for Inactive)
ROOT
ATOM      1  O1  BZF d   1      -0.776  -0.065   0.963  0.00  0.00    -0.204 OA
ATOM      2  C2  BZF d   1      -0.367  -0.348   2.252  0.00  0.00     0.174 A 
ATOM      3  C3  BZF d   1       0.867  -0.892   2.253  0.00  0.00    -0.012 A 
ATOM      4  C3A BZF d   1       1.291  -0.868   0.887  0.00  0.00    -0.107 A 
ATOM      5  C4  BZF d   1       2.435  -1.259   0.252  0.00  0.00     0.055 A 
ATOM      6  C5  BZF d   1       2.503  -1.167  -1.102  0.00  0.00    -0.016 A 
ATOM      7  C6  BZF d   1       1.445  -0.696  -1.852  0.00  0.00     0.022 A 
ATOM      8  C7  BZF d   1       0.292  -0.292  -1.266  0.00  0.00     0.029 A 
ATOM      9  C7A BZF d   1       0.232  -0.352   0.104  0.00  0.00     0.058 A 
ENDROOT
TORSDOF 0
ENDMDL
