MODEL 1
REMARK minimizedAffinity -1.70486176
REMARK minimizedRMSD -1
REMARK  0 active torsions:
REMARK  status: ('A' for Active; 'I' for Inactive)
ROOT
ATOM      1  O1  BZF d   1       0.201  -1.314  -1.901  0.00  0.00    -0.204 OA
ATOM      2  C2  BZF d   1      -1.030  -0.690  -1.975  0.00  0.00     0.174 A 
ATOM      3  C3  BZF d   1      -1.234   0.094  -0.897  0.00  0.00    -0.012 A 
ATOM      4  C3A BZF d   1      -0.019   0.024  -0.145  0.00  0.00    -0.107 A 
ATOM      5  C4  BZF d   1       0.398   0.600   1.021  0.00  0.00     0.055 A 
ATOM      6  C5  BZF d   1       1.616   0.267   1.524  0.00  0.00    -0.016 A 
ATOM      7  C6  BZF d   1       2.439  -0.641   0.891  0.00  0.00     0.022 A 
ATOM      8  C7  BZF d   1       2.070  -1.236  -0.270  0.00  0.00     0.029 A 
ATOM      9  C7A BZF d   1       0.854  -0.876  -0.798  0.00  0.00     0.058 A 
ENDROOT
TORSDOF 0
ENDMDL
