MODEL 1
REMARK minimizedAffinity 3.3219974
REMARK minimizedRMSD -1
REMARK  0 active torsions:
REMARK  status: ('A' for Active; 'I' for Inactive)
ROOT
ATOM      1  O1  BZF d   1      -0.636   4.065  -1.662  0.00  0.00    -0.204 OA
ATOM      2  C2  BZF d   1      -1.739   3.243  -1.788  0.00  0.00     0.174 A 
ATOM      3  C3  BZF d   1      -1.696   2.561  -2.951  0.00  0.00    -0.012 A 
ATOM      4  C3A BZF d   1      -0.445   2.915  -3.549  0.00  0.00    -0.107 A 
ATOM      5  C4  BZF d   1       0.178   2.549  -4.708  0.00  0.00     0.055 A 
ATOM      6  C5  BZF d   1       1.361   3.133  -5.034  0.00  0.00    -0.016 A 
ATOM      7  C6  BZF d   1       1.946   4.088  -4.229  0.00  0.00     0.022 A 
ATOM      8  C7  BZF d   1       1.368   4.479  -3.067  0.00  0.00     0.029 A 
ATOM      9  C7A BZF d   1       0.189   3.867  -2.718  0.00  0.00     0.058 A 
ENDROOT
TORSDOF 0
ENDMDL
