MODEL 1
REMARK minimizedAffinity -5.48995161
REMARK minimizedRMSD -1
REMARK  0 active torsions:
REMARK  status: ('A' for Active; 'I' for Inactive)
ROOT
ATOM      1  C2' OXE d   1       0.110   0.344  -1.346  0.00  0.00     0.078 C 
ATOM      2  C1' OXE d   1      -1.199   0.688   1.113  0.00  0.00     0.078 C 
ATOM      3  C1  OXE d   1       0.033  -0.181   1.088  0.00  0.00    -0.078 A 
ATOM      4  C2  OXE d   1       0.641  -0.382  -0.129  0.00  0.00    -0.078 A 
ATOM      5  C3  OXE d   1       1.812  -1.131  -0.199  0.00  0.00     0.003 A 
ATOM      6  C4  OXE d   1       2.290  -1.807   0.930  0.00  0.00    -0.002 A 
ATOM      7  C5  OXE d   1       1.664  -1.648   2.171  0.00  0.00    -0.002 A 
ATOM      8  C6  OXE d   1       0.562  -0.806   2.275  0.00  0.00     0.003 A 
ENDROOT
TORSDOF 0
ENDMDL
