MODEL 1
REMARK minimizedAffinity -3.1050036
REMARK minimizedRMSD -1
REMARK  0 active torsions:
REMARK  status: ('A' for Active; 'I' for Inactive)
ROOT
ATOM      1  C2' OXE d   1      -1.106  -0.414   3.148  0.00  0.00     0.078 C 
ATOM      2  C1' OXE d   1       1.691  -0.223   3.283  0.00  0.00     0.078 C 
ATOM      3  C1  OXE d   1       1.047  -0.169   1.920  0.00  0.00    -0.078 A 
ATOM      4  C2  OXE d   1      -0.318  -0.310   1.860  0.00  0.00    -0.078 A 
ATOM      5  C3  OXE d   1      -0.968  -0.212   0.632  0.00  0.00     0.003 A 
ATOM      6  C4  OXE d   1      -0.231  -0.126  -0.555  0.00  0.00    -0.002 A 
ATOM      7  C5  OXE d   1       1.164  -0.022  -0.519  0.00  0.00    -0.002 A 
ATOM      8  C6  OXE d   1       1.814   0.001   0.710  0.00  0.00     0.003 A 
ENDROOT
TORSDOF 0
ENDMDL
