MODEL 1
REMARK minimizedAffinity -2.21089983
REMARK minimizedRMSD -1
REMARK  0 active torsions:
REMARK  status: ('A' for Active; 'I' for Inactive)
ROOT
ATOM      1  C2' OXE d   1       0.008   0.390  -0.921  0.00  0.00     0.078 C 
ATOM      2  C1' OXE d   1       1.799  -0.627   0.987  0.00  0.00     0.078 C 
ATOM      3  C1  OXE d   1       0.324  -0.833   1.226  0.00  0.00    -0.078 A 
ATOM      4  C2  OXE d   1      -0.547  -0.292   0.311  0.00  0.00    -0.078 A 
ATOM      5  C3  OXE d   1      -1.916  -0.499   0.455  0.00  0.00     0.003 A 
ATOM      6  C4  OXE d   1      -2.421  -1.122   1.603  0.00  0.00    -0.002 A 
ATOM      7  C5  OXE d   1      -1.553  -1.646   2.567  0.00  0.00    -0.002 A 
ATOM      8  C6  OXE d   1      -0.180  -1.548   2.373  0.00  0.00     0.003 A 
ENDROOT
TORSDOF 0
ENDMDL
