MODEL 1
REMARK minimizedAffinity -5.31246519
REMARK minimizedRMSD -1
REMARK  0 active torsions:
REMARK  status: ('A' for Active; 'I' for Inactive)
ROOT
ATOM      1  C2' OXE d   1      -2.645  -0.476   1.113  0.00  0.00     0.078 C 
ATOM      2  C1' OXE d   1      -0.889   0.515  -0.840  0.00  0.00     0.078 C 
ATOM      3  C1  OXE d   1      -0.294   0.017   0.454  0.00  0.00    -0.078 A 
ATOM      4  C2  OXE d   1      -1.164  -0.422   1.422  0.00  0.00    -0.078 A 
ATOM      5  C3  OXE d   1      -0.665  -0.942   2.613  0.00  0.00     0.003 A 
ATOM      6  C4  OXE d   1       0.705  -0.879   2.894  0.00  0.00    -0.002 A 
ATOM      7  C5  OXE d   1       1.605  -0.399   1.938  0.00  0.00    -0.002 A 
ATOM      8  C6  OXE d   1       1.127   0.013   0.698  0.00  0.00     0.003 A 
ENDROOT
TORSDOF 0
ENDMDL
