MODEL 1
REMARK minimizedAffinity -4.21416569
REMARK minimizedRMSD -1
REMARK  0 active torsions:
REMARK  status: ('A' for Active; 'I' for Inactive)
ROOT
ATOM      1  C2' OXE d   1      -2.422  -0.372   1.442  0.00  0.00     0.078 C 
ATOM      2  C1' OXE d   1      -0.686   0.188  -0.691  0.00  0.00     0.078 C 
ATOM      3  C1  OXE d   1      -0.073  -0.198   0.632  0.00  0.00    -0.078 A 
ATOM      4  C2  OXE d   1      -0.929  -0.425   1.683  0.00  0.00    -0.078 A 
ATOM      5  C3  OXE d   1      -0.419  -0.837   2.910  0.00  0.00     0.003 A 
ATOM      6  C4  OXE d   1       0.964  -0.874   3.127  0.00  0.00    -0.002 A 
ATOM      7  C5  OXE d   1       1.854  -0.608   2.081  0.00  0.00    -0.002 A 
ATOM      8  C6  OXE d   1       1.352  -0.310   0.819  0.00  0.00     0.003 A 
ENDROOT
TORSDOF 0
ENDMDL
