MODEL 1
REMARK minimizedAffinity -3.75631905
REMARK minimizedRMSD -1
REMARK  0 active torsions:
REMARK  status: ('A' for Active; 'I' for Inactive)
ROOT
ATOM      1  C2' OXE d   1       1.250  -0.463   2.832  0.00  0.00     0.078 C 
ATOM      2  C1' OXE d   1       2.789  -0.719   0.499  0.00  0.00     0.078 C 
ATOM      3  C1  OXE d   1       1.339  -0.335   0.346  0.00  0.00    -0.078 A 
ATOM      4  C2  OXE d   1       0.582  -0.257   1.490  0.00  0.00    -0.078 A 
ATOM      5  C3  OXE d   1      -0.748   0.147   1.411  0.00  0.00     0.003 A 
ATOM      6  C4  OXE d   1      -1.361   0.326   0.165  0.00  0.00    -0.002 A 
ATOM      7  C5  OXE d   1      -0.618   0.213  -1.015  0.00  0.00    -0.002 A 
ATOM      8  C6  OXE d   1       0.740  -0.074  -0.940  0.00  0.00     0.003 A 
ENDROOT
TORSDOF 0
ENDMDL
