MODEL 1
REMARK minimizedAffinity -3.24426317
REMARK minimizedRMSD -1
REMARK  0 active torsions:
REMARK  status: ('A' for Active; 'I' for Inactive)
ROOT
ATOM      1  C2' OXE d   1       0.703  -0.465   2.888  0.00  0.00     0.078 C 
ATOM      2  C1' OXE d   1      -2.005  -0.077   2.257  0.00  0.00     0.078 C 
ATOM      3  C1  OXE d   1      -1.013  -0.095   1.120  0.00  0.00    -0.078 A 
ATOM      4  C2  OXE d   1       0.315  -0.239   1.442  0.00  0.00    -0.078 A 
ATOM      5  C3  OXE d   1       1.265  -0.317   0.429  0.00  0.00     0.003 A 
ATOM      6  C4  OXE d   1       0.899  -0.096  -0.905  0.00  0.00    -0.002 A 
ATOM      7  C5  OXE d   1      -0.443   0.092  -1.251  0.00  0.00    -0.002 A 
ATOM      8  C6  OXE d   1      -1.415   0.053  -0.257  0.00  0.00     0.003 A 
ENDROOT
TORSDOF 0
ENDMDL
