MODEL 1
REMARK minimizedAffinity -3.63142228
REMARK minimizedRMSD -1
REMARK  0 active torsions:
REMARK  status: ('A' for Active; 'I' for Inactive)
ROOT
ATOM      1  C2' OXE d   1       1.398  -0.473   2.779  0.00  0.00     0.078 C 
ATOM      2  C1' OXE d   1      -1.403  -0.587   2.918  0.00  0.00     0.078 C 
ATOM      3  C1  OXE d   1      -0.770  -0.498   1.552  0.00  0.00    -0.078 A 
ATOM      4  C2  OXE d   1       0.599  -0.396   1.495  0.00  0.00    -0.078 A 
ATOM      5  C3  OXE d   1       1.238  -0.366   0.259  0.00  0.00     0.003 A 
ATOM      6  C4  OXE d   1       0.491  -0.285  -0.923  0.00  0.00    -0.002 A 
ATOM      7  C5  OXE d   1      -0.906  -0.348  -0.885  0.00  0.00    -0.002 A 
ATOM      8  C6  OXE d   1      -1.549  -0.497   0.339  0.00  0.00     0.003 A 
ENDROOT
TORSDOF 0
ENDMDL
