MODEL 1
REMARK minimizedAffinity -5.16370869
REMARK minimizedRMSD -1
REMARK  0 active torsions:
REMARK  status: ('A' for Active; 'I' for Inactive)
ROOT
ATOM      1  C2' OXE d   1       0.770  -1.067  -1.150  0.00  0.00     0.078 C 
ATOM      2  C1' OXE d   1      -1.599  -1.218   0.349  0.00  0.00     0.078 C 
ATOM      3  C1  OXE d   1      -0.328  -0.855   1.076  0.00  0.00    -0.078 A 
ATOM      4  C2  OXE d   1       0.834  -0.829   0.344  0.00  0.00    -0.078 A 
ATOM      5  C3  OXE d   1       2.025  -0.447   0.954  0.00  0.00     0.003 A 
ATOM      6  C4  OXE d   1       2.078  -0.239   2.338  0.00  0.00    -0.002 A 
ATOM      7  C5  OXE d   1       0.912  -0.299   3.109  0.00  0.00    -0.002 A 
ATOM      8  C6  OXE d   1      -0.303  -0.563   2.488  0.00  0.00     0.003 A 
ENDROOT
TORSDOF 0
ENDMDL
