MODEL 1
REMARK minimizedAffinity -3.57223821
REMARK minimizedRMSD -1
REMARK  3 active torsions:
REMARK  status: ('A' for Active; 'I' for Inactive)
REMARK    1  A    between atoms: C3'_2  and  C2'_3 
REMARK    2  A    between atoms: C2'_3  and  C1'_4 
REMARK    3  A    between atoms: C1'_4  and  C1_5 
ROOT
ATOM      1  C1  N4B d   1      -1.339   2.791  -3.607  0.00  0.00    -0.075 A 
ATOM      2  C2  N4B d   1      -1.660   2.949  -2.241  0.00  0.00     0.002 A 
ATOM      3  C3  N4B d   1      -2.467   2.031  -1.615  0.00  0.00     0.002 A 
ATOM      4  C4  N4B d   1      -2.979   0.963  -2.336  0.00  0.00    -0.004 A 
ATOM      5  C5  N4B d   1      -2.644   0.804  -3.649  0.00  0.00     0.002 A 
ATOM      6  C6  N4B d   1      -1.830   1.716  -4.290  0.00  0.00     0.002 A 
ENDROOT
BRANCH   1   7
ATOM      7  C1' N4B d   1      -0.531   3.815  -4.356  0.00  0.00     0.057 C 
BRANCH   7   8
ATOM      8  C2' N4B d   1       0.114   4.772  -3.358  0.00  0.00     0.009 C 
BRANCH   8   9
ATOM      9  C3' N4B d   1       0.705   5.993  -4.042  0.00  0.00     0.004 C 
ATOM     10  C4' N4B d   1       2.204   5.997  -4.029  0.00  0.00     0.003 C 
ENDBRANCH   8   9
ENDBRANCH   7   8
ENDBRANCH   1   7
TORSDOF 3
ENDMDL
