MODEL 1
REMARK minimizedAffinity -4.17422485
REMARK minimizedRMSD -1
REMARK  3 active torsions:
REMARK  status: ('A' for Active; 'I' for Inactive)
REMARK    1  A    between atoms: C3'_2  and  C2'_3 
REMARK    2  A    between atoms: C2'_3  and  C1'_4 
REMARK    3  A    between atoms: C1'_4  and  C1_5 
ROOT
ATOM      1  C1  N4B d   1       0.100   0.479   0.539  0.00  0.00    -0.075 A 
ATOM      2  C2  N4B d   1      -0.632   0.029   1.659  0.00  0.00     0.002 A 
ATOM      3  C3  N4B d   1      -0.117  -0.957   2.464  0.00  0.00     0.002 A 
ATOM      4  C4  N4B d   1       1.113  -1.520   2.159  0.00  0.00    -0.004 A 
ATOM      5  C5  N4B d   1       1.825  -1.062   1.089  0.00  0.00     0.002 A 
ATOM      6  C6  N4B d   1       1.322  -0.068   0.274  0.00  0.00     0.002 A 
ENDROOT
BRANCH   1   7
ATOM      7  C1' N4B d   1      -0.459   1.495  -0.419  0.00  0.00     0.057 C 
BRANCH   7   8
ATOM      8  C2' N4B d   1      -1.067   0.772  -1.617  0.00  0.00     0.009 C 
BRANCH   8   9
ATOM      9  C3' N4B d   1      -1.927   1.696  -2.462  0.00  0.00     0.004 C 
ATOM     10  C4' N4B d   1      -2.417   1.044  -3.721  0.00  0.00     0.003 C 
ENDBRANCH   8   9
ENDBRANCH   7   8
ENDBRANCH   1   7
TORSDOF 3
ENDMDL
