MODEL 1
REMARK minimizedAffinity -5.14201355
REMARK minimizedRMSD -1
REMARK  3 active torsions:
REMARK  status: ('A' for Active; 'I' for Inactive)
REMARK    1  A    between atoms: C3'_2  and  C2'_3 
REMARK    2  A    between atoms: C2'_3  and  C1'_4 
REMARK    3  A    between atoms: C1'_4  and  C1_5 
ROOT
ATOM      1  C1  N4B d   1      -1.140   1.076   0.010  0.00  0.00    -0.075 A 
ATOM      2  C2  N4B d   1      -2.163   1.031   0.983  0.00  0.00     0.002 A 
ATOM      3  C3  N4B d   1      -2.109   0.103   1.994  0.00  0.00     0.002 A 
ATOM      4  C4  N4B d   1      -1.056  -0.799   2.041  0.00  0.00    -0.004 A 
ATOM      5  C5  N4B d   1      -0.059  -0.732   1.113  0.00  0.00     0.002 A 
ATOM      6  C6  N4B d   1      -0.098   0.198   0.094  0.00  0.00     0.002 A 
ENDROOT
BRANCH   1   7
ATOM      7  C1' N4B d   1      -1.200   2.016  -1.162  0.00  0.00     0.057 C 
BRANCH   7   8
ATOM      8  C2' N4B d   1      -2.561   1.885  -1.840  0.00  0.00     0.009 C 
BRANCH   8   9
ATOM      9  C3' N4B d   1      -2.537   2.401  -3.269  0.00  0.00     0.004 C 
ATOM     10  C4' N4B d   1      -1.262   3.117  -3.606  0.00  0.00     0.003 C 
ENDBRANCH   8   9
ENDBRANCH   7   8
ENDBRANCH   1   7
TORSDOF 3
ENDMDL
