MODEL 1
REMARK minimizedAffinity -1.05860472
REMARK minimizedRMSD -1
REMARK  3 active torsions:
REMARK  status: ('A' for Active; 'I' for Inactive)
REMARK    1  A    between atoms: C3'_2  and  C2'_3 
REMARK    2  A    between atoms: C2'_3  and  C1'_4 
REMARK    3  A    between atoms: C1'_4  and  C1_5 
ROOT
ATOM      1  C1  N4B d   1      -1.565   1.634  -1.135  0.00  0.00    -0.075 A 
ATOM      2  C2  N4B d   1      -0.846   2.308  -2.146  0.00  0.00     0.002 A 
ATOM      3  C3  N4B d   1      -1.407   2.482  -3.388  0.00  0.00     0.002 A 
ATOM      4  C4  N4B d   1      -2.672   1.976  -3.646  0.00  0.00    -0.004 A 
ATOM      5  C5  N4B d   1      -3.369   1.348  -2.656  0.00  0.00     0.002 A 
ATOM      6  C6  N4B d   1      -2.820   1.169  -1.403  0.00  0.00     0.002 A 
ENDROOT
BRANCH   1   7
ATOM      7  C1' N4B d   1      -0.959   1.344   0.211  0.00  0.00     0.057 C 
BRANCH   7   8
ATOM      8  C2' N4B d   1      -0.326  -0.044   0.187  0.00  0.00     0.009 C 
BRANCH   8   9
ATOM      9  C3' N4B d   1       1.190   0.025   0.116  0.00  0.00     0.004 C 
ATOM     10  C4' N4B d   1       1.856  -1.133   0.798  0.00  0.00     0.003 C 
ENDBRANCH   8   9
ENDBRANCH   7   8
ENDBRANCH   1   7
TORSDOF 3
ENDMDL
