MODEL 1
REMARK minimizedAffinity -4.1571331
REMARK minimizedRMSD -1
REMARK  3 active torsions:
REMARK  status: ('A' for Active; 'I' for Inactive)
REMARK    1  A    between atoms: C3'_2  and  C2'_3 
REMARK    2  A    between atoms: C2'_3  and  C1'_4 
REMARK    3  A    between atoms: C1'_4  and  C1_5 
ROOT
ATOM      1  C1  N4B d   1       0.565  -0.899   0.486  0.00  0.00    -0.075 A 
ATOM      2  C2  N4B d   1       1.576  -1.842   0.769  0.00  0.00     0.002 A 
ATOM      3  C3  N4B d   1       1.501  -2.610   1.905  0.00  0.00     0.002 A 
ATOM      4  C4  N4B d   1       0.437  -2.440   2.779  0.00  0.00    -0.004 A 
ATOM      5  C5  N4B d   1      -0.549  -1.544   2.485  0.00  0.00     0.002 A 
ATOM      6  C6  N4B d   1      -0.488  -0.769   1.345  0.00  0.00     0.002 A 
ENDROOT
BRANCH   1   7
ATOM      7  C1' N4B d   1       0.648   0.024  -0.699  0.00  0.00     0.057 C 
BRANCH   7   8
ATOM      8  C2' N4B d   1      -0.688   0.739  -0.873  0.00  0.00     0.009 C 
BRANCH   8   9
ATOM      9  C3' N4B d   1      -0.694   1.646  -2.091  0.00  0.00     0.004 C 
ATOM     10  C4' N4B d   1      -1.910   1.459  -2.949  0.00  0.00     0.003 C 
ENDBRANCH   8   9
ENDBRANCH   7   8
ENDBRANCH   1   7
TORSDOF 3
ENDMDL
