MODEL 1
REMARK minimizedAffinity -4.22026205
REMARK minimizedRMSD -1
REMARK  3 active torsions:
REMARK  status: ('A' for Active; 'I' for Inactive)
REMARK    1  A    between atoms: C3'_2  and  C2'_3 
REMARK    2  A    between atoms: C2'_3  and  C1'_4 
REMARK    3  A    between atoms: C1'_4  and  C1_5 
ROOT
ATOM      1  C1  N4B d   1      -1.016   2.790  -3.054  0.00  0.00    -0.075 A 
ATOM      2  C2  N4B d   1      -1.617   2.704  -1.779  0.00  0.00     0.002 A 
ATOM      3  C3  N4B d   1      -2.697   1.879  -1.583  0.00  0.00     0.002 A 
ATOM      4  C4  N4B d   1      -3.203   1.148  -2.646  0.00  0.00    -0.004 A 
ATOM      5  C5  N4B d   1      -2.602   1.217  -3.869  0.00  0.00     0.002 A 
ATOM      6  C6  N4B d   1      -1.513   2.038  -4.079  0.00  0.00     0.002 A 
ENDROOT
BRANCH   1   7
ATOM      7  C1' N4B d   1       0.113   3.743  -3.338  0.00  0.00     0.057 C 
BRANCH   7   8
ATOM      8  C2' N4B d   1      -0.164   4.470  -4.650  0.00  0.00     0.009 C 
BRANCH   8   9
ATOM      9  C3' N4B d   1       0.341   5.903  -4.622  0.00  0.00     0.004 C 
ATOM     10  C4' N4B d   1       1.834   5.994  -4.727  0.00  0.00     0.003 C 
ENDBRANCH   8   9
ENDBRANCH   7   8
ENDBRANCH   1   7
TORSDOF 3
ENDMDL
