MODEL 1
REMARK minimizedAffinity -3.82726121
REMARK minimizedRMSD -1
REMARK  0 active torsions:
REMARK  status: ('A' for Active; 'I' for Inactive)
ROOT
ATOM      1  C   UNL d   1       1.082   0.396  -0.992  0.00  0.00     0.172 C 
ATOM      2  N   UNL d   1       1.085   1.786  -0.602  0.00  0.00    -0.070 N 
ATOM      3  C1  UNL d   1       1.320   2.848  -1.434  0.00  0.00    -0.004 A 
ATOM      4  C2  UNL d   1       1.233   4.000  -0.682  0.00  0.00    -0.047 A 
ATOM      5  C3  UNL d   1       0.936   3.617   0.647  0.00  0.00    -0.047 A 
ATOM      6  C4  UNL d   1       0.849   2.241   0.668  0.00  0.00    -0.004 A 
ENDROOT
TORSDOF 0
ENDMDL
