MODEL 1
REMARK minimizedAffinity 1.78215218
REMARK minimizedRMSD -1
REMARK  0 active torsions:
REMARK  status: ('A' for Active; 'I' for Inactive)
ROOT
ATOM      1  C   UNL d   1       1.213   2.443  -2.066  0.00  0.00     0.172 C 
ATOM      2  N   UNL d   1       1.168   1.486  -0.986  0.00  0.00    -0.070 N 
ATOM      3  C1  UNL d   1       1.017   0.132  -1.124  0.00  0.00    -0.004 A 
ATOM      4  C2  UNL d   1       1.023  -0.425   0.136  0.00  0.00    -0.047 A 
ATOM      5  C3  UNL d   1       1.182   0.631   1.065  0.00  0.00    -0.047 A 
ATOM      6  C4  UNL d   1       1.269   1.803   0.343  0.00  0.00    -0.004 A 
ENDROOT
TORSDOF 0
ENDMDL
