MODEL 1
REMARK minimizedAffinity -1.61130738
REMARK minimizedRMSD -1
REMARK  0 active torsions:
REMARK  status: ('A' for Active; 'I' for Inactive)
ROOT
ATOM      1  C   UNL d   1       0.384   1.893   1.335  0.00  0.00     0.172 C 
ATOM      2  N   UNL d   1       0.684   2.087  -0.064  0.00  0.00    -0.070 N 
ATOM      3  C1  UNL d   1       1.153   3.244  -0.627  0.00  0.00    -0.004 A 
ATOM      4  C2  UNL d   1       1.311   3.022  -1.978  0.00  0.00    -0.047 A 
ATOM      5  C3  UNL d   1       0.922   1.686  -2.236  0.00  0.00    -0.047 A 
ATOM      6  C4  UNL d   1       0.539   1.130  -1.034  0.00  0.00    -0.004 A 
ENDROOT
TORSDOF 0
ENDMDL
