MODEL 1
REMARK minimizedAffinity 2.35502982
REMARK minimizedRMSD -1
REMARK  0 active torsions:
REMARK  status: ('A' for Active; 'I' for Inactive)
ROOT
ATOM      1  C   UNL d   1       1.042   2.905   1.322  0.00  0.00     0.172 C 
ATOM      2  N   UNL d   1       1.031   1.684   0.551  0.00  0.00    -0.070 N 
ATOM      3  C1  UNL d   1       0.652   1.571  -0.760  0.00  0.00    -0.004 A 
ATOM      4  C2  UNL d   1       0.784   0.248  -1.125  0.00  0.00    -0.047 A 
ATOM      5  C3  UNL d   1       1.257  -0.458   0.006  0.00  0.00    -0.047 A 
ATOM      6  C4  UNL d   1       1.401   0.455   1.030  0.00  0.00    -0.004 A 
ENDROOT
TORSDOF 0
ENDMDL
