MODEL 1
REMARK minimizedAffinity -2.22426128
REMARK minimizedRMSD -1
REMARK  0 active torsions:
REMARK  status: ('A' for Active; 'I' for Inactive)
ROOT
ATOM      1  C   UNL d   1       1.733   4.898  -0.992  0.00  0.00     0.172 C 
ATOM      2  N   UNL d   1       1.391   3.509  -0.796  0.00  0.00    -0.070 N 
ATOM      3  C1  UNL d   1       1.103   2.919   0.406  0.00  0.00    -0.004 A 
ATOM      4  C2  UNL d   1       0.829   1.590   0.170  0.00  0.00    -0.047 A 
ATOM      5  C3  UNL d   1       0.956   1.372  -1.223  0.00  0.00    -0.047 A 
ATOM      6  C4  UNL d   1       1.305   2.577  -1.797  0.00  0.00    -0.004 A 
ENDROOT
TORSDOF 0
ENDMDL
