MODEL 1
REMARK minimizedAffinity -1.1573267
REMARK minimizedRMSD -1
REMARK  0 active torsions:
REMARK  status: ('A' for Active; 'I' for Inactive)
ROOT
ATOM      1  C   UNL d   1       1.286  -0.240  -0.783  0.00  0.00     0.172 C 
ATOM      2  N   UNL d   1       1.188   1.091  -0.232  0.00  0.00    -0.070 N 
ATOM      3  C1  UNL d   1       1.113   1.400   1.100  0.00  0.00    -0.004 A 
ATOM      4  C2  UNL d   1       1.032   2.771   1.211  0.00  0.00    -0.047 A 
ATOM      5  C3  UNL d   1       1.059   3.305  -0.099  0.00  0.00    -0.047 A 
ATOM      6  C4  UNL d   1       1.155   2.242  -0.973  0.00  0.00    -0.004 A 
ENDROOT
TORSDOF 0
ENDMDL
