MODEL 1
REMARK minimizedAffinity -1.62295747
REMARK minimizedRMSD -1
REMARK  0 active torsions:
REMARK  status: ('A' for Active; 'I' for Inactive)
ROOT
ATOM      1  C   UNL d   1       1.890   3.766  -1.511  0.00  0.00     0.172 C 
ATOM      2  N   UNL d   1       1.413   2.455  -1.139  0.00  0.00    -0.070 N 
ATOM      3  C1  UNL d   1       0.893   1.522  -1.995  0.00  0.00    -0.004 A 
ATOM      4  C2  UNL d   1       0.558   0.409  -1.254  0.00  0.00    -0.047 A 
ATOM      5  C3  UNL d   1       0.888   0.683   0.094  0.00  0.00    -0.047 A 
ATOM      6  C4  UNL d   1       1.415   1.956   0.137  0.00  0.00    -0.004 A 
ENDROOT
TORSDOF 0
ENDMDL
