MODEL 1
REMARK minimizedAffinity -2.73264313
REMARK minimizedRMSD -1
REMARK  0 active torsions:
REMARK  status: ('A' for Active; 'I' for Inactive)
ROOT
ATOM      1  C   UNL d   1       1.801   3.378  -1.848  0.00  0.00     0.172 C 
ATOM      2  N   UNL d   1       1.498   2.073  -1.310  0.00  0.00    -0.070 N 
ATOM      3  C1  UNL d   1       1.245   1.791   0.006  0.00  0.00    -0.004 A 
ATOM      4  C2  UNL d   1       1.002   0.439   0.110  0.00  0.00    -0.047 A 
ATOM      5  C3  UNL d   1       1.115  -0.112  -1.189  0.00  0.00    -0.047 A 
ATOM      6  C4  UNL d   1       1.423   0.922  -2.048  0.00  0.00    -0.004 A 
ENDROOT
TORSDOF 0
ENDMDL
