MODEL 1
REMARK minimizedAffinity -0.892223537
REMARK minimizedRMSD -1
REMARK  0 active torsions:
REMARK  status: ('A' for Active; 'I' for Inactive)
ROOT
ATOM      1  C   UNL d   1       2.158   5.578  -1.165  0.00  0.00     0.172 C 
ATOM      2  N   UNL d   1       1.854   4.200  -0.857  0.00  0.00    -0.070 N 
ATOM      3  C1  UNL d   1       1.770   3.179  -1.765  0.00  0.00    -0.004 A 
ATOM      4  C2  UNL d   1       1.462   2.026  -1.076  0.00  0.00    -0.047 A 
ATOM      5  C3  UNL d   1       1.357   2.366   0.294  0.00  0.00    -0.047 A 
ATOM      6  C4  UNL d   1       1.604   3.718   0.401  0.00  0.00    -0.004 A 
ENDROOT
TORSDOF 0
ENDMDL
