MODEL 1
REMARK minimizedAffinity -1.43802524
REMARK minimizedRMSD -1
REMARK  0 active torsions:
REMARK  status: ('A' for Active; 'I' for Inactive)
ROOT
ATOM      1  C   UNL d   1       2.408   3.353  -1.597  0.00  0.00     0.172 C 
ATOM      2  N   UNL d   1       1.857   2.183  -0.955  0.00  0.00    -0.070 N 
ATOM      3  C1  UNL d   1       1.758   1.986   0.397  0.00  0.00    -0.004 A 
ATOM      4  C2  UNL d   1       1.179   0.753   0.602  0.00  0.00    -0.047 A 
ATOM      5  C3  UNL d   1       0.922   0.188  -0.670  0.00  0.00    -0.047 A 
ATOM      6  C4  UNL d   1       1.351   1.095  -1.616  0.00  0.00    -0.004 A 
ENDROOT
TORSDOF 0
ENDMDL
