MODEL 1
REMARK minimizedAffinity -3.25632405
REMARK minimizedRMSD -1
REMARK  0 active torsions:
REMARK  status: ('A' for Active; 'I' for Inactive)
ROOT
ATOM      1  C   UNL d   1       1.413  -0.340  -1.510  0.00  0.00     0.172 C 
ATOM      2  N   UNL d   1       1.131   0.852  -0.745  0.00  0.00    -0.070 N 
ATOM      3  C1  UNL d   1       0.839   0.892   0.592  0.00  0.00    -0.004 A 
ATOM      4  C2  UNL d   1       0.636   2.210   0.941  0.00  0.00    -0.047 A 
ATOM      5  C3  UNL d   1       0.810   2.989  -0.228  0.00  0.00    -0.047 A 
ATOM      6  C4  UNL d   1       1.116   2.123  -1.256  0.00  0.00    -0.004 A 
ENDROOT
TORSDOF 0
ENDMDL
