MODEL 1
REMARK minimizedAffinity -2.08715725
REMARK minimizedRMSD -1
REMARK  0 active torsions:
REMARK  status: ('A' for Active; 'I' for Inactive)
ROOT
ATOM      1  C   UNL d   1       1.725   4.447  -1.523  0.00  0.00     0.172 C 
ATOM      2  N   UNL d   1       1.395   3.115  -1.071  0.00  0.00    -0.070 N 
ATOM      3  C1  UNL d   1       1.165   2.747   0.227  0.00  0.00    -0.004 A 
ATOM      4  C2  UNL d   1       0.883   1.398   0.240  0.00  0.00    -0.047 A 
ATOM      5  C3  UNL d   1       0.946   0.940  -1.098  0.00  0.00    -0.047 A 
ATOM      6  C4  UNL d   1       1.265   2.024  -1.888  0.00  0.00    -0.004 A 
ENDROOT
TORSDOF 0
ENDMDL
