MODEL 1
REMARK minimizedAffinity -3.32699299
REMARK minimizedRMSD -1
REMARK  0 active torsions:
REMARK  status: ('A' for Active; 'I' for Inactive)
ROOT
ATOM      1  C   UNL d   1       1.308   4.208  -0.696  0.00  0.00     0.172 C 
ATOM      2  N   UNL d   1       1.150   2.802  -0.407  0.00  0.00    -0.070 N 
ATOM      3  C1  UNL d   1       1.315   1.779  -1.302  0.00  0.00    -0.004 A 
ATOM      4  C2  UNL d   1       1.076   0.595  -0.639  0.00  0.00    -0.047 A 
ATOM      5  C3  UNL d   1       0.755   0.918   0.701  0.00  0.00    -0.047 A 
ATOM      6  C4  UNL d   1       0.808   2.291   0.817  0.00  0.00    -0.004 A 
ENDROOT
TORSDOF 0
ENDMDL
