MODEL 1
REMARK minimizedAffinity 1.33466649
REMARK minimizedRMSD -1
REMARK  0 active torsions:
REMARK  status: ('A' for Active; 'I' for Inactive)
ROOT
ATOM      1  C   UNL d   1       0.708  -0.929   1.477  0.00  0.00     0.020 A 
ATOM      2  C1  UNL d   1       1.863  -1.702   1.367  0.00  0.00     0.020 A 
ATOM      3  C2  UNL d   1       2.712  -1.537   0.270  0.00  0.00     0.034 A 
ATOM      4  C3  UNL d   1       2.406  -0.597  -0.721  0.00  0.00     0.017 A 
ATOM      5  C4  UNL d   1       1.247   0.179  -0.610  0.00  0.00     0.017 A 
ATOM      6  C5  UNL d   1       0.401   0.010   0.491  0.00  0.00     0.034 A 
ATOM      7 Cl   UNL d   1       0.804   1.359  -1.792  0.00  0.00    -0.070 Cl
ATOM      8 Cl1  UNL d   1       3.501  -0.447  -2.050  0.00  0.00    -0.070 Cl
ENDROOT
TORSDOF 0
ENDMDL
