MODEL 1
REMARK minimizedAffinity 1.33894074
REMARK minimizedRMSD -1
REMARK  0 active torsions:
REMARK  status: ('A' for Active; 'I' for Inactive)
ROOT
ATOM      1  C   UNL d   1       1.132  -1.619  -0.613  0.00  0.00     0.020 A 
ATOM      2  C1  UNL d   1       2.229  -0.775  -0.781  0.00  0.00     0.020 A 
ATOM      3  C2  UNL d   1       2.470   0.247   0.139  0.00  0.00     0.034 A 
ATOM      4  C3  UNL d   1       1.614   0.428   1.231  0.00  0.00     0.017 A 
ATOM      5  C4  UNL d   1       0.513  -0.420   1.399  0.00  0.00     0.017 A 
ATOM      6  C5  UNL d   1       0.276  -1.442   0.475  0.00  0.00     0.034 A 
ATOM      7 Cl   UNL d   1      -0.588  -0.258   2.722  0.00  0.00    -0.070 Cl
ATOM      8 Cl1  UNL d   1       1.973   1.713   2.330  0.00  0.00    -0.070 Cl
ENDROOT
TORSDOF 0
ENDMDL
