MODEL 1
REMARK minimizedAffinity 3.01286101
REMARK minimizedRMSD -1
REMARK  0 active torsions:
REMARK  status: ('A' for Active; 'I' for Inactive)
ROOT
ATOM      1  C   UNL d   1       0.525   0.122   0.792  0.00  0.00     0.020 A 
ATOM      2  C1  UNL d   1       0.844  -1.221   0.594  0.00  0.00     0.020 A 
ATOM      3  C2  UNL d   1       2.028  -1.569  -0.059  0.00  0.00     0.034 A 
ATOM      4  C3  UNL d   1       2.898  -0.573  -0.517  0.00  0.00     0.017 A 
ATOM      5  C4  UNL d   1       2.577   0.775  -0.318  0.00  0.00     0.017 A 
ATOM      6  C5  UNL d   1       1.390   1.117   0.336  0.00  0.00     0.034 A 
ATOM      7 Cl   UNL d   1       3.601   2.060  -0.855  0.00  0.00    -0.070 Cl
ATOM      8 Cl1  UNL d   1       4.345  -1.076  -1.316  0.00  0.00    -0.070 Cl
ENDROOT
TORSDOF 0
ENDMDL
