MODEL 1
REMARK minimizedAffinity 0.988901258
REMARK minimizedRMSD -1
REMARK  0 active torsions:
REMARK  status: ('A' for Active; 'I' for Inactive)
ROOT
ATOM      1  C   UNL d   1       1.666  -1.394   0.017  0.00  0.00     0.020 A 
ATOM      2  C1  UNL d   1       1.173  -0.097   0.150  0.00  0.00     0.020 A 
ATOM      3  C2  UNL d   1       1.836   0.968  -0.463  0.00  0.00     0.034 A 
ATOM      4  C3  UNL d   1       2.997   0.738  -1.211  0.00  0.00     0.017 A 
ATOM      5  C4  UNL d   1       3.491  -0.565  -1.344  0.00  0.00     0.017 A 
ATOM      6  C5  UNL d   1       2.823  -1.628  -0.728  0.00  0.00     0.034 A 
ATOM      7 Cl   UNL d   1       4.916  -0.927  -2.251  0.00  0.00    -0.070 Cl
ATOM      8 Cl1  UNL d   1       3.765   2.102  -1.942  0.00  0.00    -0.070 Cl
ENDROOT
TORSDOF 0
ENDMDL
