MODEL 1
REMARK minimizedAffinity 3.90565729
REMARK minimizedRMSD -1
REMARK  0 active torsions:
REMARK  status: ('A' for Active; 'I' for Inactive)
ROOT
ATOM      1  C   UNL d   1       0.842  -0.678   0.464  0.00  0.00     0.020 A 
ATOM      2  C1  UNL d   1       0.978   0.709   0.501  0.00  0.00     0.020 A 
ATOM      3  C2  UNL d   1       1.929   1.339  -0.305  0.00  0.00     0.034 A 
ATOM      4  C3  UNL d   1       2.747   0.582  -1.151  0.00  0.00     0.017 A 
ATOM      5  C4  UNL d   1       2.609  -0.810  -1.188  0.00  0.00     0.017 A 
ATOM      6  C5  UNL d   1       1.656  -1.436  -0.379  0.00  0.00     0.034 A 
ATOM      7 Cl   UNL d   1       3.582  -1.811  -2.207  0.00  0.00    -0.070 Cl
ATOM      8 Cl1  UNL d   1       3.901   1.427  -2.121  0.00  0.00    -0.070 Cl
ENDROOT
TORSDOF 0
ENDMDL
