MODEL 1
REMARK minimizedAffinity 0.970234454
REMARK minimizedRMSD -1
REMARK  0 active torsions:
REMARK  status: ('A' for Active; 'I' for Inactive)
ROOT
ATOM      1  C   UNL d   1       2.402  -1.560  -0.700  0.00  0.00     0.020 A 
ATOM      2  C1  UNL d   1       1.780  -0.342  -0.426  0.00  0.00     0.020 A 
ATOM      3  C2  UNL d   1       2.405   0.856  -0.779  0.00  0.00     0.034 A 
ATOM      4  C3  UNL d   1       3.655   0.839  -1.408  0.00  0.00     0.017 A 
ATOM      5  C4  UNL d   1       4.278  -0.383  -1.684  0.00  0.00     0.017 A 
ATOM      6  C5  UNL d   1       3.648  -1.580  -1.328  0.00  0.00     0.034 A 
ATOM      7 Cl   UNL d   1       5.820  -0.484  -2.458  0.00  0.00    -0.070 Cl
ATOM      8 Cl1  UNL d   1       4.369   2.359  -1.817  0.00  0.00    -0.070 Cl
ENDROOT
TORSDOF 0
ENDMDL
