MODEL 1
REMARK minimizedAffinity 1.83685529
REMARK minimizedRMSD -1
REMARK  0 active torsions:
REMARK  status: ('A' for Active; 'I' for Inactive)
ROOT
ATOM      1  C   UNL d   1       0.791  -0.735   1.081  0.00  0.00     0.020 A 
ATOM      2  C1  UNL d   1       1.165   0.608   1.101  0.00  0.00     0.020 A 
ATOM      3  C2  UNL d   1       2.144   1.074   0.221  0.00  0.00     0.034 A 
ATOM      4  C3  UNL d   1       2.753   0.196  -0.683  0.00  0.00     0.017 A 
ATOM      5  C4  UNL d   1       2.376  -1.152  -0.703  0.00  0.00     0.017 A 
ATOM      6  C5  UNL d   1       1.395  -1.613   0.181  0.00  0.00     0.034 A 
ATOM      7 Cl   UNL d   1       3.082  -2.296  -1.790  0.00  0.00    -0.070 Cl
ATOM      8 Cl1  UNL d   1       3.956   0.840  -1.743  0.00  0.00    -0.070 Cl
ENDROOT
TORSDOF 0
ENDMDL
