MODEL 1
REMARK minimizedAffinity 1.24538732
REMARK minimizedRMSD -1
REMARK  0 active torsions:
REMARK  status: ('A' for Active; 'I' for Inactive)
ROOT
ATOM      1  C   UNL d   1       1.492  -0.077  -0.647  0.00  0.00     0.020 A 
ATOM      2  C1  UNL d   1       2.034  -1.317  -0.985  0.00  0.00     0.020 A 
ATOM      3  C2  UNL d   1       3.236  -1.383  -1.693  0.00  0.00     0.034 A 
ATOM      4  C3  UNL d   1       3.901  -0.209  -2.064  0.00  0.00     0.017 A 
ATOM      5  C4  UNL d   1       3.356   1.035  -1.724  0.00  0.00     0.017 A 
ATOM      6  C5  UNL d   1       2.152   1.096  -1.016  0.00  0.00     0.034 A 
ATOM      7 Cl   UNL d   1       4.118   2.527  -2.147  0.00  0.00    -0.070 Cl
ATOM      8 Cl1  UNL d   1       5.384  -0.366  -2.937  0.00  0.00    -0.070 Cl
ENDROOT
TORSDOF 0
ENDMDL
