MODEL 1
REMARK minimizedAffinity -1.14827955
REMARK minimizedRMSD -1
REMARK  0 active torsions:
REMARK  status: ('A' for Active; 'I' for Inactive)
ROOT
ATOM      1  C   UNL d   1       1.675  -1.482   0.105  0.00  0.00     0.020 A 
ATOM      2  C1  UNL d   1       1.277  -0.218   0.536  0.00  0.00     0.020 A 
ATOM      3  C2  UNL d   1       1.871   0.924  -0.005  0.00  0.00     0.034 A 
ATOM      4  C3  UNL d   1       2.868   0.804  -0.980  0.00  0.00     0.017 A 
ATOM      5  C4  UNL d   1       3.268  -0.466  -1.412  0.00  0.00     0.017 A 
ATOM      6  C5  UNL d   1       2.669  -1.606  -0.867  0.00  0.00     0.034 A 
ATOM      7 Cl   UNL d   1       4.491  -0.694  -2.611  0.00  0.00    -0.070 Cl
ATOM      8 Cl1  UNL d   1       3.560   2.258  -1.605  0.00  0.00    -0.070 Cl
ENDROOT
TORSDOF 0
ENDMDL
