MODEL 1
REMARK minimizedAffinity 1.07802618
REMARK minimizedRMSD -1
REMARK  0 active torsions:
REMARK  status: ('A' for Active; 'I' for Inactive)
ROOT
ATOM      1  C   UNL d   1      -0.647  -0.494   2.000  0.00  0.00     0.020 A 
ATOM      2  C1  UNL d   1      -0.061  -1.758   1.969  0.00  0.00     0.020 A 
ATOM      3  C2  UNL d   1       1.139  -1.955   1.282  0.00  0.00     0.034 A 
ATOM      4  C3  UNL d   1       1.756  -0.885   0.624  0.00  0.00     0.017 A 
ATOM      5  C4  UNL d   1       1.167   0.384   0.656  0.00  0.00     0.017 A 
ATOM      6  C5  UNL d   1      -0.034   0.575   1.346  0.00  0.00     0.034 A 
ATOM      7 Cl   UNL d   1       1.870   1.753  -0.132  0.00  0.00    -0.070 Cl
ATOM      8 Cl1  UNL d   1       3.239  -1.199  -0.206  0.00  0.00    -0.070 Cl
ENDROOT
TORSDOF 0
ENDMDL
