MODEL 1
REMARK minimizedAffinity -0.0873969644
REMARK minimizedRMSD -1
REMARK  0 active torsions:
REMARK  status: ('A' for Active; 'I' for Inactive)
ROOT
ATOM      1  C   UNL d   1       3.835  -0.988  -1.407  0.00  0.00     0.020 A 
ATOM      2  C1  UNL d   1       4.045   0.345  -1.761  0.00  0.00     0.020 A 
ATOM      3  C2  UNL d   1       3.262   1.351  -1.190  0.00  0.00     0.034 A 
ATOM      4  C3  UNL d   1       2.267   1.026  -0.262  0.00  0.00     0.017 A 
ATOM      5  C4  UNL d   1       2.057  -0.311   0.093  0.00  0.00     0.017 A 
ATOM      6  C5  UNL d   1       2.843  -1.315  -0.482  0.00  0.00     0.034 A 
ATOM      7 Cl   UNL d   1       0.847  -0.789   1.232  0.00  0.00    -0.070 Cl
ATOM      8 Cl1  UNL d   1       1.337   2.321   0.405  0.00  0.00    -0.070 Cl
ENDROOT
TORSDOF 0
ENDMDL
