MODEL 1
REMARK minimizedAffinity 0.440110654
REMARK minimizedRMSD -1
REMARK  0 active torsions:
REMARK  status: ('A' for Active; 'I' for Inactive)
ROOT
ATOM      1  C   UNL d   1      -0.066  -0.752   1.559  0.00  0.00     0.020 A 
ATOM      2  C1  UNL d   1       0.558  -1.997   1.478  0.00  0.00     0.020 A 
ATOM      3  C2  UNL d   1       1.741  -2.138   0.750  0.00  0.00     0.034 A 
ATOM      4  C3  UNL d   1       2.304  -1.034   0.100  0.00  0.00     0.017 A 
ATOM      5  C4  UNL d   1       1.677   0.215   0.182  0.00  0.00     0.017 A 
ATOM      6  C5  UNL d   1       0.492   0.351   0.912  0.00  0.00     0.034 A 
ATOM      7 Cl   UNL d   1       2.311   1.624  -0.593  0.00  0.00    -0.070 Cl
ATOM      8 Cl1  UNL d   1       3.769  -1.281  -0.783  0.00  0.00    -0.070 Cl
ENDROOT
TORSDOF 0
ENDMDL
