MODEL 1
REMARK minimizedAffinity 1.74524808
REMARK minimizedRMSD -1
REMARK  0 active torsions:
REMARK  status: ('A' for Active; 'I' for Inactive)
ROOT
ATOM      1  C   UNL d   1       1.907  -1.887  -0.309  0.00  0.00     0.020 A 
ATOM      2  C1  UNL d   1       1.143  -0.824   0.171  0.00  0.00     0.020 A 
ATOM      3  C2  UNL d   1       1.493   0.489  -0.151  0.00  0.00     0.034 A 
ATOM      4  C3  UNL d   1       2.610   0.742  -0.956  0.00  0.00     0.017 A 
ATOM      5  C4  UNL d   1       3.376  -0.326  -1.437  0.00  0.00     0.017 A 
ATOM      6  C5  UNL d   1       3.021  -1.638  -1.111  0.00  0.00     0.034 A 
ATOM      7 Cl   UNL d   1       4.768  -0.092  -2.435  0.00  0.00    -0.070 Cl
ATOM      8 Cl1  UNL d   1       2.985   2.390  -1.315  0.00  0.00    -0.070 Cl
ENDROOT
TORSDOF 0
ENDMDL
