MODEL 1
REMARK minimizedAffinity -0.172344625
REMARK minimizedRMSD -1
REMARK  0 active torsions:
REMARK  status: ('A' for Active; 'I' for Inactive)
ROOT
ATOM      1  C   UNL d   1       0.511  -2.141   1.193  0.00  0.00     0.020 A 
ATOM      2  C1  UNL d   1      -0.078  -0.931   1.558  0.00  0.00     0.020 A 
ATOM      3  C2  UNL d   1       0.533   0.276   1.210  0.00  0.00     0.034 A 
ATOM      4  C3  UNL d   1       1.736   0.275   0.494  0.00  0.00     0.017 A 
ATOM      5  C4  UNL d   1       2.326  -0.940   0.128  0.00  0.00     0.017 A 
ATOM      6  C5  UNL d   1       1.711  -2.145   0.479  0.00  0.00     0.034 A 
ATOM      7 Cl   UNL d   1       3.810  -1.021  -0.755  0.00  0.00    -0.070 Cl
ATOM      8 Cl1  UNL d   1       2.435   1.805   0.097  0.00  0.00    -0.070 Cl
ENDROOT
TORSDOF 0
ENDMDL
