MODEL 1
REMARK minimizedAffinity 8.30488873
REMARK minimizedRMSD -1
REMARK  0 active torsions:
REMARK  status: ('A' for Active; 'I' for Inactive)
ROOT
ATOM      1  C   UNL d   1      -1.317   5.218  -2.146  0.00  0.00     0.020 A 
ATOM      2  C1  UNL d   1      -2.216   4.174  -2.357  0.00  0.00     0.020 A 
ATOM      3  C2  UNL d   1      -1.796   3.011  -3.007  0.00  0.00     0.034 A 
ATOM      4  C3  UNL d   1      -0.474   2.890  -3.448  0.00  0.00     0.017 A 
ATOM      5  C4  UNL d   1       0.429   3.939  -3.236  0.00  0.00     0.017 A 
ATOM      6  C5  UNL d   1       0.003   5.101  -2.585  0.00  0.00     0.034 A 
ATOM      7 Cl   UNL d   1       2.076   3.862  -3.752  0.00  0.00    -0.070 Cl
ATOM      8 Cl1  UNL d   1      -0.024   1.424  -4.244  0.00  0.00    -0.070 Cl
ENDROOT
TORSDOF 0
ENDMDL
