MODEL 1
REMARK minimizedAffinity -0.767990708
REMARK minimizedRMSD -1
REMARK  0 active torsions:
REMARK  status: ('A' for Active; 'I' for Inactive)
ROOT
ATOM      1  C   UNL d   1       1.231  -1.352   0.817  0.00  0.00     0.020 A 
ATOM      2  C1  UNL d   1       0.774  -0.043   0.967  0.00  0.00     0.020 A 
ATOM      3  C2  UNL d   1       1.246   0.963   0.122  0.00  0.00     0.034 A 
ATOM      4  C3  UNL d   1       2.179   0.663  -0.877  0.00  0.00     0.017 A 
ATOM      5  C4  UNL d   1       2.637  -0.651  -1.028  0.00  0.00     0.017 A 
ATOM      6  C5  UNL d   1       2.161  -1.655  -0.179  0.00  0.00     0.034 A 
ATOM      7 Cl   UNL d   1       3.787  -1.098  -2.238  0.00  0.00    -0.070 Cl
ATOM      8 Cl1  UNL d   1       2.719   1.957  -1.887  0.00  0.00    -0.070 Cl
ENDROOT
TORSDOF 0
ENDMDL
