MODEL 1
REMARK minimizedAffinity 4.08200216
REMARK minimizedRMSD -1
REMARK  0 active torsions:
REMARK  status: ('A' for Active; 'I' for Inactive)
ROOT
ATOM      1  C   UNL d   1      -0.943  -0.611   2.209  0.00  0.00     0.020 A 
ATOM      2  C1  UNL d   1      -0.735  -1.784   1.484  0.00  0.00     0.020 A 
ATOM      3  C2  UNL d   1       0.417  -1.931   0.710  0.00  0.00     0.034 A 
ATOM      4  C3  UNL d   1       1.366  -0.903   0.658  0.00  0.00     0.017 A 
ATOM      5  C4  UNL d   1       1.157   0.274   1.386  0.00  0.00     0.017 A 
ATOM      6  C5  UNL d   1       0.001   0.416   2.160  0.00  0.00     0.034 A 
ATOM      7 Cl   UNL d   1       2.282   1.585   1.372  0.00  0.00    -0.070 Cl
ATOM      8 Cl1  UNL d   1       2.769  -1.153  -0.320  0.00  0.00    -0.070 Cl
ENDROOT
TORSDOF 0
ENDMDL
