MODEL 1
REMARK minimizedAffinity -1.41772139
REMARK minimizedRMSD -1
REMARK  0 active torsions:
REMARK  status: ('A' for Active; 'I' for Inactive)
ROOT
ATOM      1  C   UNL d   1      -3.000  -1.514   1.492  0.00  0.00     0.020 A 
ATOM      2  C1  UNL d   1      -2.656  -0.251   1.973  0.00  0.00     0.020 A 
ATOM      3  C2  UNL d   1      -1.320   0.051   2.245  0.00  0.00     0.034 A 
ATOM      4  C3  UNL d   1      -0.324  -0.909   2.037  0.00  0.00     0.017 A 
ATOM      5  C4  UNL d   1      -0.671  -2.176   1.554  0.00  0.00     0.017 A 
ATOM      6  C5  UNL d   1      -2.010  -2.474   1.283  0.00  0.00     0.034 A 
ATOM      7 Cl   UNL d   1       0.502  -3.414   1.271  0.00  0.00    -0.070 Cl
ATOM      8 Cl1  UNL d   1       1.307  -0.466   2.394  0.00  0.00    -0.070 Cl
ENDROOT
TORSDOF 0
ENDMDL
