MODEL 1
REMARK minimizedAffinity -3.44712162
REMARK minimizedRMSD -1
REMARK  0 active torsions:
REMARK  status: ('A' for Active; 'I' for Inactive)
ROOT
ATOM      1  C   UNL d   1       0.996   0.009   0.443  0.00  0.00     0.020 A 
ATOM      2  C1  UNL d   1       1.558   1.215   0.025  0.00  0.00     0.020 A 
ATOM      3  C2  UNL d   1       2.587   1.215  -0.920  0.00  0.00     0.034 A 
ATOM      4  C3  UNL d   1       3.057   0.008  -1.449  0.00  0.00     0.017 A 
ATOM      5  C4  UNL d   1       2.492  -1.202  -1.029  0.00  0.00     0.017 A 
ATOM      6  C5  UNL d   1       1.462  -1.196  -0.083  0.00  0.00     0.034 A 
ATOM      7 Cl   UNL d   1       3.019  -2.732  -1.637  0.00  0.00    -0.070 Cl
ATOM      8 Cl1  UNL d   1       4.332   0.083  -2.613  0.00  0.00    -0.070 Cl
ENDROOT
TORSDOF 0
ENDMDL
