MODEL 1
REMARK minimizedAffinity 4.45497894
REMARK minimizedRMSD -1
REMARK  0 active torsions:
REMARK  status: ('A' for Active; 'I' for Inactive)
ROOT
ATOM      1  C   UNL d   1      -3.745   2.245  -2.299  0.00  0.00     0.172 C 
ATOM      2  N   UNL d   1      -4.551   2.507  -3.468  0.00  0.00    -0.070 N 
ATOM      3  C1  UNL d   1      -5.263   3.652  -3.707  0.00  0.00    -0.004 A 
ATOM      4  C2  UNL d   1      -5.893   3.512  -4.924  0.00  0.00    -0.047 A 
ATOM      5  C3  UNL d   1      -5.549   2.237  -5.435  0.00  0.00    -0.047 A 
ATOM      6  C4  UNL d   1      -4.717   1.637  -4.513  0.00  0.00    -0.004 A 
ENDROOT
TORSDOF 0
ENDMDL
