MODEL 1
REMARK minimizedAffinity 7.52311134
REMARK minimizedRMSD -1
REMARK  0 active torsions:
REMARK  status: ('A' for Active; 'I' for Inactive)
ROOT
ATOM      1  C   UNL d   1      -2.537  -2.318  -1.605  0.00  0.00     0.172 C 
ATOM      2  N   UNL d   1      -1.410  -1.714  -0.934  0.00  0.00    -0.070 N 
ATOM      3  C1  UNL d   1      -1.472  -0.669  -0.051  0.00  0.00    -0.004 A 
ATOM      4  C2  UNL d   1      -0.188  -0.391   0.364  0.00  0.00    -0.047 A 
ATOM      5  C3  UNL d   1       0.676  -1.299  -0.293  0.00  0.00    -0.047 A 
ATOM      6  C4  UNL d   1      -0.107  -2.107  -1.090  0.00  0.00    -0.004 A 
ENDROOT
TORSDOF 0
ENDMDL
