MODEL 1
REMARK minimizedAffinity 6.65635777
REMARK minimizedRMSD -1
REMARK  0 active torsions:
REMARK  status: ('A' for Active; 'I' for Inactive)
ROOT
ATOM      1  C   UNL d   1      -2.370   3.117   1.047  0.00  0.00     0.172 C 
ATOM      2  N   UNL d   1      -3.752   3.125   1.464  0.00  0.00    -0.070 N 
ATOM      3  C1  UNL d   1      -4.837   3.014   0.635  0.00  0.00    -0.004 A 
ATOM      4  C2  UNL d   1      -5.971   3.065   1.415  0.00  0.00    -0.047 A 
ATOM      5  C3  UNL d   1      -5.555   3.213   2.759  0.00  0.00    -0.047 A 
ATOM      6  C4  UNL d   1      -4.176   3.247   2.761  0.00  0.00    -0.004 A 
ENDROOT
TORSDOF 0
ENDMDL
