MODEL 1
REMARK minimizedAffinity 2.15682745
REMARK minimizedRMSD -1
REMARK  0 active torsions:
REMARK  status: ('A' for Active; 'I' for Inactive)
ROOT
ATOM      1  C   UNL d   1       1.778  -3.132   4.609  0.00  0.00     0.172 C 
ATOM      2  N   UNL d   1       1.929  -1.857   3.949  0.00  0.00    -0.070 N 
ATOM      3  C1  UNL d   1       2.021  -0.641   4.572  0.00  0.00    -0.004 A 
ATOM      4  C2  UNL d   1       2.157   0.324   3.598  0.00  0.00    -0.047 A 
ATOM      5  C3  UNL d   1       2.145  -0.335   2.345  0.00  0.00    -0.047 A 
ATOM      6  C4  UNL d   1       2.003  -1.684   2.592  0.00  0.00    -0.004 A 
ENDROOT
TORSDOF 0
ENDMDL
