MODEL 1
REMARK minimizedAffinity -2.48084068
REMARK minimizedRMSD -1
REMARK  0 active torsions:
REMARK  status: ('A' for Active; 'I' for Inactive)
ROOT
ATOM      1  C   UNL d   1       3.231  -0.001  -4.125  0.00  0.00     0.172 C 
ATOM      2  N   UNL d   1       4.204   0.825  -4.802  0.00  0.00    -0.070 N 
ATOM      3  C1  UNL d   1       5.344   0.376  -5.413  0.00  0.00    -0.004 A 
ATOM      4  C2  UNL d   1       5.999   1.469  -5.938  0.00  0.00    -0.047 A 
ATOM      5  C3  UNL d   1       5.226   2.614  -5.631  0.00  0.00    -0.047 A 
ATOM      6  C4  UNL d   1       4.120   2.186  -4.927  0.00  0.00    -0.004 A 
ENDROOT
TORSDOF 0
ENDMDL
