MODEL 1
REMARK minimizedAffinity 4.41778421
REMARK minimizedRMSD -1
REMARK  0 active torsions:
REMARK  status: ('A' for Active; 'I' for Inactive)
ROOT
ATOM      1  C   UNL d   1       0.639  -0.765   1.143  0.00  0.00     0.172 C 
ATOM      2  N   UNL d   1       1.551  -1.108   2.209  0.00  0.00    -0.070 N 
ATOM      3  C1  UNL d   1       2.695  -0.428   2.530  0.00  0.00    -0.004 A 
ATOM      4  C2  UNL d   1       3.280  -1.069   3.600  0.00  0.00    -0.047 A 
ATOM      5  C3  UNL d   1       2.460  -2.173   3.933  0.00  0.00    -0.047 A 
ATOM      6  C4  UNL d   1       1.396  -2.173   3.056  0.00  0.00    -0.004 A 
ENDROOT
TORSDOF 0
ENDMDL
