MODEL 1
REMARK minimizedAffinity 6.55339193
REMARK minimizedRMSD -1
REMARK  0 active torsions:
REMARK  status: ('A' for Active; 'I' for Inactive)
ROOT
ATOM      1  C   UNL d   1      -2.522   2.724   1.077  0.00  0.00     0.172 C 
ATOM      2  N   UNL d   1      -3.885   3.017   1.453  0.00  0.00    -0.070 N 
ATOM      3  C1  UNL d   1      -4.755   3.807   0.750  0.00  0.00    -0.004 A 
ATOM      4  C2  UNL d   1      -5.950   3.834   1.436  0.00  0.00    -0.047 A 
ATOM      5  C3  UNL d   1      -5.792   3.033   2.592  0.00  0.00    -0.047 A 
ATOM      6  C4  UNL d   1      -4.505   2.539   2.577  0.00  0.00    -0.004 A 
ENDROOT
TORSDOF 0
ENDMDL
