MODEL 1
REMARK minimizedAffinity -2.81075859
REMARK minimizedRMSD -1
REMARK  0 active torsions:
REMARK  status: ('A' for Active; 'I' for Inactive)
ROOT
ATOM      1  C   UNL d   1      -2.504   5.945  -4.392  0.00  0.00     0.023 A 
ATOM      2  C1  UNL d   1      -2.542   4.868  -5.279  0.00  0.00     0.003 A 
ATOM      3  C2  UNL d   1      -2.604   3.562  -4.791  0.00  0.00     0.048 A 
ATOM      4  C3  UNL d   1      -2.629   3.338  -3.415  0.00  0.00     0.023 A 
ATOM      5  C4  UNL d   1      -2.592   4.412  -2.524  0.00  0.00     0.048 A 
ATOM      6  C5  UNL d   1      -2.529   5.717  -3.017  0.00  0.00     0.003 A 
ATOM      7  I   UNL d   1      -2.721   1.394  -2.686  0.00  0.00    -0.146 I 
ENDROOT
TORSDOF 0
ENDMDL
