MODEL 1
REMARK minimizedAffinity -3.91742659
REMARK minimizedRMSD -1
REMARK  0 active torsions:
REMARK  status: ('A' for Active; 'I' for Inactive)
ROOT
ATOM      1  C   UNL d   1      -2.984  -0.254   2.335  0.00  0.00     0.023 A 
ATOM      2  C1  UNL d   1      -1.972  -0.240   3.294  0.00  0.00     0.003 A 
ATOM      3  C2  UNL d   1      -0.725  -0.798   3.004  0.00  0.00     0.048 A 
ATOM      4  C3  UNL d   1      -0.497  -1.366   1.751  0.00  0.00     0.023 A 
ATOM      5  C4  UNL d   1      -1.506  -1.381   0.787  0.00  0.00     0.048 A 
ATOM      6  C5  UNL d   1      -2.752  -0.824   1.083  0.00  0.00     0.003 A 
ATOM      7  I   UNL d   1       1.359  -2.196   1.316  0.00  0.00    -0.146 I 
ENDROOT
TORSDOF 0
ENDMDL
