MODEL 1
REMARK minimizedAffinity 0.263278097
REMARK minimizedRMSD -1
REMARK  0 active torsions:
REMARK  status: ('A' for Active; 'I' for Inactive)
ROOT
ATOM      1  C   UNL d   1      -3.132   1.730  -1.975  0.00  0.00     0.023 A 
ATOM      2  C1  UNL d   1      -3.093   2.918  -1.245  0.00  0.00     0.003 A 
ATOM      3  C2  UNL d   1      -3.007   4.144  -1.908  0.00  0.00     0.048 A 
ATOM      4  C3  UNL d   1      -2.960   4.175  -3.301  0.00  0.00     0.023 A 
ATOM      5  C4  UNL d   1      -2.999   2.989  -4.036  0.00  0.00     0.048 A 
ATOM      6  C5  UNL d   1      -3.085   1.765  -3.369  0.00  0.00     0.003 A 
ATOM      7  I   UNL d   1      -2.831   5.998  -4.291  0.00  0.00    -0.146 I 
ENDROOT
TORSDOF 0
ENDMDL
