MODEL 1
REMARK minimizedAffinity 8.48670578
REMARK minimizedRMSD -1
REMARK  0 active torsions:
REMARK  status: ('A' for Active; 'I' for Inactive)
ROOT
ATOM      1  C   UNL d   1      -2.514   5.257  -4.196  0.00  0.00     0.023 A 
ATOM      2  C1  UNL d   1      -2.683   5.973  -3.010  0.00  0.00     0.003 A 
ATOM      3  C2  UNL d   1      -3.415   5.419  -1.958  0.00  0.00     0.048 A 
ATOM      4  C3  UNL d   1      -3.974   4.149  -2.097  0.00  0.00     0.023 A 
ATOM      5  C4  UNL d   1      -3.807   3.430  -3.281  0.00  0.00     0.048 A 
ATOM      6  C5  UNL d   1      -3.076   3.987  -4.331  0.00  0.00     0.003 A 
ATOM      7  I   UNL d   1      -5.064   3.323  -0.532  0.00  0.00    -0.146 I 
ENDROOT
TORSDOF 0
ENDMDL
