MODEL 1
REMARK minimizedAffinity -1.17537189
REMARK minimizedRMSD -1
REMARK  0 active torsions:
REMARK  status: ('A' for Active; 'I' for Inactive)
ROOT
ATOM      1  C   UNL d   1      -3.470   3.248  -1.145  0.00  0.00     0.023 A 
ATOM      2  C1  UNL d   1      -3.700   4.583  -1.477  0.00  0.00     0.003 A 
ATOM      3  C2  UNL d   1      -3.176   5.110  -2.660  0.00  0.00     0.048 A 
ATOM      4  C3  UNL d   1      -2.424   4.296  -3.506  0.00  0.00     0.023 A 
ATOM      5  C4  UNL d   1      -2.193   2.959  -3.178  0.00  0.00     0.048 A 
ATOM      6  C5  UNL d   1      -2.717   2.437  -1.994  0.00  0.00     0.003 A 
ATOM      7  I   UNL d   1      -1.644   5.077  -5.267  0.00  0.00    -0.146 I 
ENDROOT
TORSDOF 0
ENDMDL
