MODEL 1
REMARK minimizedAffinity 4.20022011
REMARK minimizedRMSD -1
REMARK  0 active torsions:
REMARK  status: ('A' for Active; 'I' for Inactive)
ROOT
ATOM      1  C   UNL d   1      -2.676   4.372  -4.930  0.00  0.00     0.023 A 
ATOM      2  C1  UNL d   1      -2.855   5.290  -3.894  0.00  0.00     0.003 A 
ATOM      3  C2  UNL d   1      -3.492   4.898  -2.715  0.00  0.00     0.048 A 
ATOM      4  C3  UNL d   1      -3.946   3.587  -2.577  0.00  0.00     0.023 A 
ATOM      5  C4  UNL d   1      -3.769   2.665  -3.610  0.00  0.00     0.048 A 
ATOM      6  C5  UNL d   1      -3.132   3.062  -4.787  0.00  0.00     0.003 A 
ATOM      7  I   UNL d   1      -4.894   3.002  -0.822  0.00  0.00    -0.146 I 
ENDROOT
TORSDOF 0
ENDMDL
