MODEL 1
REMARK minimizedAffinity 3.36459637
REMARK minimizedRMSD -1
REMARK  0 active torsions:
REMARK  status: ('A' for Active; 'I' for Inactive)
ROOT
ATOM      1  C   UNL d   1       0.344  -1.955   1.723  0.00  0.00     0.023 A 
ATOM      2  C1  UNL d   1       1.495  -2.341   1.037  0.00  0.00     0.003 A 
ATOM      3  C2  UNL d   1       1.515  -2.329  -0.359  0.00  0.00     0.048 A 
ATOM      4  C3  UNL d   1       0.380  -1.928  -1.063  0.00  0.00     0.023 A 
ATOM      5  C4  UNL d   1      -0.774  -1.539  -0.381  0.00  0.00     0.048 A 
ATOM      6  C5  UNL d   1      -0.789  -1.554   1.015  0.00  0.00     0.003 A 
ATOM      7  I   UNL d   1       0.408  -1.908  -3.141  0.00  0.00    -0.146 I 
ENDROOT
TORSDOF 0
ENDMDL
