MODEL 1
REMARK minimizedAffinity 5.81145525
REMARK minimizedRMSD -1
REMARK  0 active torsions:
REMARK  status: ('A' for Active; 'I' for Inactive)
ROOT
ATOM      1  C   UNL d   1      -3.381   2.328  -1.225  0.00  0.00     0.023 A 
ATOM      2  C1  UNL d   1      -3.371   3.633  -0.733  0.00  0.00     0.003 A 
ATOM      3  C2  UNL d   1      -2.974   4.688  -1.557  0.00  0.00     0.048 A 
ATOM      4  C3  UNL d   1      -2.590   4.431  -2.873  0.00  0.00     0.023 A 
ATOM      5  C4  UNL d   1      -2.600   3.127  -3.370  0.00  0.00     0.048 A 
ATOM      6  C5  UNL d   1      -2.996   2.075  -2.542  0.00  0.00     0.003 A 
ATOM      7  I   UNL d   1      -2.000   6.000  -4.102  0.00  0.00    -0.146 I 
ENDROOT
TORSDOF 0
ENDMDL
