MODEL 1
REMARK minimizedAffinity 5.79492998
REMARK minimizedRMSD -1
REMARK  0 active torsions:
REMARK  status: ('A' for Active; 'I' for Inactive)
ROOT
ATOM      1  C   UNL d   1      -2.096  -0.232   2.071  0.00  0.00     0.023 A 
ATOM      2  C1  UNL d   1      -1.860  -0.759   0.801  0.00  0.00     0.003 A 
ATOM      3  C2  UNL d   1      -0.695  -1.487   0.551  0.00  0.00     0.048 A 
ATOM      4  C3  UNL d   1       0.230  -1.685   1.576  0.00  0.00     0.023 A 
ATOM      5  C4  UNL d   1      -0.003  -1.160   2.848  0.00  0.00     0.048 A 
ATOM      6  C5  UNL d   1      -1.168  -0.432   3.093  0.00  0.00     0.003 A 
ATOM      7  I   UNL d   1       1.964  -2.768   1.206  0.00  0.00    -0.146 I 
ENDROOT
TORSDOF 0
ENDMDL
