MODEL 1
REMARK minimizedAffinity 1.40700507
REMARK minimizedRMSD -1
REMARK  0 active torsions:
REMARK  status: ('A' for Active; 'I' for Inactive)
ROOT
ATOM      1  C   UNL d   1      -0.821  -1.583   1.996  0.00  0.00     0.023 A 
ATOM      2  C1  UNL d   1      -0.578  -1.365   3.352  0.00  0.00     0.003 A 
ATOM      3  C2  UNL d   1      -1.561  -0.782   4.155  0.00  0.00     0.048 A 
ATOM      4  C3  UNL d   1      -2.786  -0.421   3.595  0.00  0.00     0.023 A 
ATOM      5  C4  UNL d   1      -3.034  -0.638   2.239  0.00  0.00     0.048 A 
ATOM      6  C5  UNL d   1      -2.048  -1.220   1.440  0.00  0.00     0.003 A 
ATOM      7  I   UNL d   1      -4.251   0.446   4.788  0.00  0.00    -0.146 I 
ENDROOT
TORSDOF 0
ENDMDL
