MODEL 1
REMARK minimizedAffinity -1.29576063
REMARK minimizedRMSD -1
REMARK  0 active torsions:
REMARK  status: ('A' for Active; 'I' for Inactive)
ROOT
ATOM      1  C   UNL d   1      -2.869   4.573  -3.693  0.00  0.00     0.023 A 
ATOM      2  C1  UNL d   1      -3.731   3.498  -3.472  0.00  0.00     0.003 A 
ATOM      3  C2  UNL d   1      -3.223   2.269  -3.048  0.00  0.00     0.048 A 
ATOM      4  C3  UNL d   1      -1.851   2.121  -2.845  0.00  0.00     0.023 A 
ATOM      5  C4  UNL d   1      -0.985   3.194  -3.064  0.00  0.00     0.048 A 
ATOM      6  C5  UNL d   1      -1.498   4.420  -3.489  0.00  0.00     0.003 A 
ATOM      7  I   UNL d   1      -1.091   0.293  -2.213  0.00  0.00    -0.146 I 
ENDROOT
TORSDOF 0
ENDMDL
