MODEL 1
REMARK minimizedAffinity -2.07705164
REMARK minimizedRMSD -1
REMARK  0 active torsions:
REMARK  status: ('A' for Active; 'I' for Inactive)
ROOT
ATOM      1  C   UNL d   1      -3.330   4.011  -2.430  0.00  0.00     0.023 A 
ATOM      2  C1  UNL d   1      -2.436   2.997  -2.774  0.00  0.00     0.003 A 
ATOM      3  C2  UNL d   1      -1.476   3.218  -3.764  0.00  0.00     0.048 A 
ATOM      4  C3  UNL d   1      -1.414   4.455  -4.404  0.00  0.00     0.023 A 
ATOM      5  C4  UNL d   1      -2.306   5.473  -4.062  0.00  0.00     0.048 A 
ATOM      6  C5  UNL d   1      -3.265   5.247  -3.073  0.00  0.00     0.003 A 
ATOM      7  I   UNL d   1       0.015   4.786  -5.876  0.00  0.00    -0.146 I 
ENDROOT
TORSDOF 0
ENDMDL
