MODEL 1
REMARK minimizedAffinity 16.1256371
REMARK minimizedRMSD -1
REMARK  0 active torsions:
REMARK  status: ('A' for Active; 'I' for Inactive)
ROOT
ATOM      1  C   UNL d   1       0.846  -0.663  -1.286  0.00  0.00     0.124 A 
ATOM      2  C1  UNL d   1       0.023   0.421  -1.560  0.00  0.00     0.062 A 
ATOM      3  C2  UNL d   1       0.240   1.641  -0.926  0.00  0.00     0.162 A 
ATOM      4  C3  UNL d   1       1.285   1.784  -0.013  0.00  0.00    -0.034 A 
ATOM      5  C4  UNL d   1       2.108   0.689   0.257  0.00  0.00     0.162 A 
ATOM      6  C5  UNL d   1       1.887  -0.529  -0.379  0.00  0.00     0.062 A 
ATOM      7  F   UNL d   1       2.682  -1.575  -0.114  0.00  0.00    -0.097 F 
ATOM      8  F1  UNL d   1       3.122   0.792   1.129  0.00  0.00    -0.096 F 
ATOM      9  I   UNL d   1       1.613   3.607   0.936  0.00  0.00    -0.060 I 
ATOM     10  F2  UNL d   1      -0.570   2.672  -1.209  0.00  0.00    -0.096 F 
ATOM     11  F3  UNL d   1      -0.984   0.293  -2.435  0.00  0.00    -0.097 F 
ATOM     12  F4  UNL d   1       0.634  -1.836  -1.897  0.00  0.00    -0.092 F 
ENDROOT
TORSDOF 0
ENDMDL
