MODEL 1
REMARK minimizedAffinity 27.7486954
REMARK minimizedRMSD -1
REMARK  0 active torsions:
REMARK  status: ('A' for Active; 'I' for Inactive)
ROOT
ATOM      1  C   UNL d   1       4.252   1.466  -1.281  0.00  0.00     0.124 A 
ATOM      2  C1  UNL d   1       4.944   2.245  -2.198  0.00  0.00     0.062 A 
ATOM      3  C2  UNL d   1       5.332   3.540  -1.866  0.00  0.00     0.162 A 
ATOM      4  C3  UNL d   1       5.029   4.064  -0.609  0.00  0.00    -0.034 A 
ATOM      5  C4  UNL d   1       4.332   3.275   0.308  0.00  0.00     0.162 A 
ATOM      6  C5  UNL d   1       3.947   1.982  -0.030  0.00  0.00     0.062 A 
ATOM      7  F   UNL d   1       3.278   1.231   0.858  0.00  0.00    -0.097 F 
ATOM      8  F1  UNL d   1       4.024   3.748   1.525  0.00  0.00    -0.096 F 
ATOM      9  I   UNL d   1       5.606   6.000  -0.108  0.00  0.00    -0.060 I 
ATOM     10  F2  UNL d   1       5.999   4.270  -2.771  0.00  0.00    -0.096 F 
ATOM     11  F3  UNL d   1       5.240   1.750  -3.409  0.00  0.00    -0.097 F 
ATOM     12  F4  UNL d   1       3.880   0.221  -1.604  0.00  0.00    -0.092 F 
ENDROOT
TORSDOF 0
ENDMDL
