MODEL 1
REMARK minimizedAffinity 11.5842924
REMARK minimizedRMSD -1
REMARK  0 active torsions:
REMARK  status: ('A' for Active; 'I' for Inactive)
ROOT
ATOM      1  C   UNL d   1       2.821  -0.802  -1.311  0.00  0.00     0.124 A 
ATOM      2  C1  UNL d   1       3.306   0.495  -1.407  0.00  0.00     0.062 A 
ATOM      3  C2  UNL d   1       2.989   1.435  -0.431  0.00  0.00     0.162 A 
ATOM      4  C3  UNL d   1       2.183   1.082   0.651  0.00  0.00    -0.034 A 
ATOM      5  C4  UNL d   1       1.697  -0.224   0.740  0.00  0.00     0.162 A 
ATOM      6  C5  UNL d   1       2.017  -1.160  -0.238  0.00  0.00     0.062 A 
ATOM      7  F   UNL d   1       1.547  -2.412  -0.144  0.00  0.00    -0.097 F 
ATOM      8  F1  UNL d   1       0.920  -0.598   1.767  0.00  0.00    -0.096 F 
ATOM      9  I   UNL d   1       1.707   2.485   2.113  0.00  0.00    -0.060 I 
ATOM     10  F2  UNL d   1       3.472   2.681  -0.549  0.00  0.00    -0.096 F 
ATOM     11  F3  UNL d   1       4.082   0.844  -2.443  0.00  0.00    -0.097 F 
ATOM     12  F4  UNL d   1       3.126  -1.704  -2.252  0.00  0.00    -0.092 F 
ENDROOT
TORSDOF 0
ENDMDL
