MODEL 1
REMARK minimizedAffinity 0.280506223
REMARK minimizedRMSD -1
REMARK  0 active torsions:
REMARK  status: ('A' for Active; 'I' for Inactive)
ROOT
ATOM      1  C   UNL d   1       3.162  -1.719   0.675  0.00  0.00     0.124 A 
ATOM      2  C1  UNL d   1       2.303  -0.827   0.048  0.00  0.00     0.062 A 
ATOM      3  C2  UNL d   1       2.685   0.497  -0.142  0.00  0.00     0.162 A 
ATOM      4  C3  UNL d   1       3.933   0.939   0.295  0.00  0.00    -0.034 A 
ATOM      5  C4  UNL d   1       4.792   0.037   0.926  0.00  0.00     0.162 A 
ATOM      6  C5  UNL d   1       4.406  -1.286   1.113  0.00  0.00     0.062 A 
ATOM      7  F   UNL d   1       5.237  -2.145   1.719  0.00  0.00    -0.097 F 
ATOM      8  F1  UNL d   1       6.000   0.429   1.358  0.00  0.00    -0.096 F 
ATOM      9  I   UNL d   1       4.509   2.920   0.013  0.00  0.00    -0.060 I 
ATOM     10  F2  UNL d   1       1.834   1.337  -0.751  0.00  0.00    -0.096 F 
ATOM     11  F3  UNL d   1       1.100  -1.243  -0.375  0.00  0.00    -0.097 F 
ATOM     12  F4  UNL d   1       2.791  -2.993   0.858  0.00  0.00    -0.092 F 
ENDROOT
TORSDOF 0
ENDMDL
