MODEL 1
REMARK minimizedAffinity 16.4601803
REMARK minimizedRMSD -1
REMARK  0 active torsions:
REMARK  status: ('A' for Active; 'I' for Inactive)
ROOT
ATOM      1  C   UNL d   1       4.496   3.340   2.657  0.00  0.00     0.124 A 
ATOM      2  C1  UNL d   1       3.543   2.575   1.999  0.00  0.00     0.062 A 
ATOM      3  C2  UNL d   1       2.430   2.101   2.688  0.00  0.00     0.162 A 
ATOM      4  C3  UNL d   1       2.264   2.391   4.042  0.00  0.00    -0.034 A 
ATOM      5  C4  UNL d   1       3.227   3.160   4.696  0.00  0.00     0.162 A 
ATOM      6  C5  UNL d   1       4.338   3.632   4.004  0.00  0.00     0.062 A 
ATOM      7  F   UNL d   1       5.258   4.370   4.641  0.00  0.00    -0.097 F 
ATOM      8  F1  UNL d   1       3.099   3.458   5.998  0.00  0.00    -0.096 F 
ATOM      9  I   UNL d   1       0.601   1.684   5.075  0.00  0.00    -0.060 I 
ATOM     10  F2  UNL d   1       1.524   1.364   2.027  0.00  0.00    -0.096 F 
ATOM     11  F3  UNL d   1       3.694   2.291   0.698  0.00  0.00    -0.097 F 
ATOM     12  F4  UNL d   1       5.567   3.794   1.992  0.00  0.00    -0.092 F 
ENDROOT
TORSDOF 0
ENDMDL
