MODEL 1
REMARK minimizedAffinity 25.0021687
REMARK minimizedRMSD -1
REMARK  0 active torsions:
REMARK  status: ('A' for Active; 'I' for Inactive)
ROOT
ATOM      1  C   UNL d   1       4.308   1.715  -1.242  0.00  0.00     0.124 A 
ATOM      2  C1  UNL d   1       3.432   0.992  -0.443  0.00  0.00     0.062 A 
ATOM      3  C2  UNL d   1       3.234   1.355   0.886  0.00  0.00     0.162 A 
ATOM      4  C3  UNL d   1       3.913   2.448   1.425  0.00  0.00    -0.034 A 
ATOM      5  C4  UNL d   1       4.792   3.170   0.616  0.00  0.00     0.162 A 
ATOM      6  C5  UNL d   1       4.987   2.803  -0.712  0.00  0.00     0.062 A 
ATOM      7  F   UNL d   1       5.833   3.502  -1.482  0.00  0.00    -0.097 F 
ATOM      8  F1  UNL d   1       5.461   4.226   1.102  0.00  0.00    -0.096 F 
ATOM      9  I   UNL d   1       3.620   2.995   3.411  0.00  0.00    -0.060 I 
ATOM     10  F2  UNL d   1       2.382   0.639   1.634  0.00  0.00    -0.096 F 
ATOM     11  F3  UNL d   1       2.776  -0.060  -0.953  0.00  0.00    -0.097 F 
ATOM     12  F4  UNL d   1       4.497   1.362  -2.520  0.00  0.00    -0.092 F 
ENDROOT
TORSDOF 0
ENDMDL
