MODEL 1
REMARK minimizedAffinity 13.6520252
REMARK minimizedRMSD -1
REMARK  0 active torsions:
REMARK  status: ('A' for Active; 'I' for Inactive)
ROOT
ATOM      1  C   UNL d   1       3.420   1.119  -1.224  0.00  0.00     0.124 A 
ATOM      2  C1  UNL d   1       3.679   0.174  -2.207  0.00  0.00     0.062 A 
ATOM      3  C2  UNL d   1       3.255  -1.142  -2.042  0.00  0.00     0.162 A 
ATOM      4  C3  UNL d   1       2.567  -1.520  -0.889  0.00  0.00    -0.034 A 
ATOM      5  C4  UNL d   1       2.312  -0.564   0.096  0.00  0.00     0.162 A 
ATOM      6  C5  UNL d   1       2.737   0.749  -0.074  0.00  0.00     0.062 A 
ATOM      7  F   UNL d   1       2.487   1.661   0.877  0.00  0.00    -0.097 F 
ATOM      8  F1  UNL d   1       1.653  -0.894   1.217  0.00  0.00    -0.096 F 
ATOM      9  I   UNL d   1       1.932  -3.486  -0.639  0.00  0.00    -0.060 I 
ATOM     10  F2  UNL d   1       3.519  -2.034  -3.008  0.00  0.00    -0.096 F 
ATOM     11  F3  UNL d   1       4.339   0.528  -3.318  0.00  0.00    -0.097 F 
ATOM     12  F4  UNL d   1       3.830   2.384  -1.385  0.00  0.00    -0.092 F 
ENDROOT
TORSDOF 0
ENDMDL
