MODEL 1
REMARK minimizedAffinity 24.3034859
REMARK minimizedRMSD -1
REMARK  0 active torsions:
REMARK  status: ('A' for Active; 'I' for Inactive)
ROOT
ATOM      1  C   UNL d   1       4.015   1.810  -1.091  0.00  0.00     0.124 A 
ATOM      2  C1  UNL d   1       3.002   1.414  -0.228  0.00  0.00     0.062 A 
ATOM      3  C2  UNL d   1       2.993   1.858   1.091  0.00  0.00     0.162 A 
ATOM      4  C3  UNL d   1       4.000   2.704   1.556  0.00  0.00    -0.034 A 
ATOM      5  C4  UNL d   1       5.016   3.097   0.683  0.00  0.00     0.162 A 
ATOM      6  C5  UNL d   1       5.020   2.651  -0.635  0.00  0.00     0.062 A 
ATOM      7  F   UNL d   1       6.000   3.034  -1.467  0.00  0.00    -0.097 F 
ATOM      8  F1  UNL d   1       6.000   3.909   1.096  0.00  0.00    -0.096 F 
ATOM      9  I   UNL d   1       3.991   3.369   3.528  0.00  0.00    -0.060 I 
ATOM     10  F2  UNL d   1       2.002   1.460   1.903  0.00  0.00    -0.096 F 
ATOM     11  F3  UNL d   1       2.030   0.602  -0.666  0.00  0.00    -0.097 F 
ATOM     12  F4  UNL d   1       4.021   1.381  -2.360  0.00  0.00    -0.092 F 
ENDROOT
TORSDOF 0
ENDMDL
