MODEL 1
REMARK minimizedAffinity 12.8114023
REMARK minimizedRMSD -1
REMARK  0 active torsions:
REMARK  status: ('A' for Active; 'I' for Inactive)
ROOT
ATOM      1  C   UNL d   1       3.548   1.388   0.208  0.00  0.00     0.020 A 
ATOM      2  C1  UNL d   1       2.646   0.903   1.154  0.00  0.00     0.020 A 
ATOM      3  C2  UNL d   1       1.441   0.330   0.741  0.00  0.00     0.034 A 
ATOM      4  C3  UNL d   1       1.134   0.242  -0.622  0.00  0.00     0.017 A 
ATOM      5  C4  UNL d   1       2.040   0.729  -1.571  0.00  0.00     0.017 A 
ATOM      6  C5  UNL d   1       3.245   1.301  -1.152  0.00  0.00     0.034 A 
ATOM      7 Cl   UNL d   1       1.732   0.654  -3.270  0.00  0.00    -0.070 Cl
ATOM      8 Cl1  UNL d   1      -0.374  -0.479  -1.061  0.00  0.00    -0.070 Cl
ENDROOT
TORSDOF 0
ENDMDL
