MODEL 1
REMARK minimizedAffinity 3.93774056
REMARK minimizedRMSD -1
REMARK  0 active torsions:
REMARK  status: ('A' for Active; 'I' for Inactive)
ROOT
ATOM      1  C   UNL d   1      -2.083  -1.820   3.800  0.00  0.00     0.020 A 
ATOM      2  C1  UNL d   1      -0.955  -1.115   4.219  0.00  0.00     0.020 A 
ATOM      3  C2  UNL d   1      -0.657   0.126   3.652  0.00  0.00     0.034 A 
ATOM      4  C3  UNL d   1      -1.488   0.666   2.664  0.00  0.00     0.017 A 
ATOM      5  C4  UNL d   1      -2.620  -0.042   2.244  0.00  0.00     0.017 A 
ATOM      6  C5  UNL d   1      -2.914  -1.284   2.815  0.00  0.00     0.034 A 
ATOM      7 Cl   UNL d   1      -3.692   0.560   1.030  0.00  0.00    -0.070 Cl
ATOM      8 Cl1  UNL d   1      -1.059   2.206   2.007  0.00  0.00    -0.070 Cl
ENDROOT
TORSDOF 0
ENDMDL
