MODEL 1
REMARK minimizedAffinity 4.19327688
REMARK minimizedRMSD -1
REMARK  0 active torsions:
REMARK  status: ('A' for Active; 'I' for Inactive)
ROOT
ATOM      1  C   UNL d   1      -2.224   0.846   0.752  0.00  0.00     0.020 A 
ATOM      2  C1  UNL d   1      -2.571   0.583   2.077  0.00  0.00     0.020 A 
ATOM      3  C2  UNL d   1      -1.636   0.016   2.945  0.00  0.00     0.034 A 
ATOM      4  C3  UNL d   1      -0.348  -0.290   2.490  0.00  0.00     0.017 A 
ATOM      5  C4  UNL d   1      -0.000  -0.026   1.160  0.00  0.00     0.017 A 
ATOM      6  C5  UNL d   1      -0.941   0.542   0.295  0.00  0.00     0.034 A 
ATOM      7 Cl   UNL d   1       1.569  -0.376   0.525  0.00  0.00    -0.070 Cl
ATOM      8 Cl1  UNL d   1       0.758  -0.989   3.618  0.00  0.00    -0.070 Cl
ENDROOT
TORSDOF 0
ENDMDL
