MODEL 1
REMARK minimizedAffinity 5.21115637
REMARK minimizedRMSD -1
REMARK  0 active torsions:
REMARK  status: ('A' for Active; 'I' for Inactive)
ROOT
ATOM      1  C   UNL d   1      -3.090   0.506   0.886  0.00  0.00     0.020 A 
ATOM      2  C1  UNL d   1      -2.220   0.685   1.961  0.00  0.00     0.020 A 
ATOM      3  C2  UNL d   1      -0.869   0.358   1.826  0.00  0.00     0.034 A 
ATOM      4  C3  UNL d   1      -0.384  -0.149   0.615  0.00  0.00     0.017 A 
ATOM      5  C4  UNL d   1      -1.259  -0.329  -0.463  0.00  0.00     0.017 A 
ATOM      6  C5  UNL d   1      -2.611   0.000  -0.323  0.00  0.00     0.034 A 
ATOM      7 Cl   UNL d   1      -0.735  -0.950  -1.988  0.00  0.00    -0.070 Cl
ATOM      8 Cl1  UNL d   1       1.298  -0.532   0.520  0.00  0.00    -0.070 Cl
ENDROOT
TORSDOF 0
ENDMDL
