MODEL 1
REMARK minimizedAffinity 4.55107832
REMARK minimizedRMSD -1
REMARK  0 active torsions:
REMARK  status: ('A' for Active; 'I' for Inactive)
ROOT
ATOM      1  C   UNL d   1       0.514  -0.127   0.934  0.00  0.00     0.020 A 
ATOM      2  C1  UNL d   1       1.510  -0.752   0.184  0.00  0.00     0.020 A 
ATOM      3  C2  UNL d   1       1.173  -1.461  -0.971  0.00  0.00     0.034 A 
ATOM      4  C3  UNL d   1      -0.163  -1.547  -1.380  0.00  0.00     0.017 A 
ATOM      5  C4  UNL d   1      -1.162  -0.919  -0.627  0.00  0.00     0.017 A 
ATOM      6  C5  UNL d   1      -0.819  -0.210   0.529  0.00  0.00     0.034 A 
ATOM      7 Cl   UNL d   1      -2.832  -0.980  -1.068  0.00  0.00    -0.070 Cl
ATOM      8 Cl1  UNL d   1      -0.508  -2.440  -2.818  0.00  0.00    -0.070 Cl
ENDROOT
TORSDOF 0
ENDMDL
