MODEL 1
REMARK minimizedAffinity 2.89162946
REMARK minimizedRMSD -1
REMARK  0 active torsions:
REMARK  status: ('A' for Active; 'I' for Inactive)
ROOT
ATOM      1  C   UNL d   1      -2.835  -0.012   1.675  0.00  0.00     0.020 A 
ATOM      2  C1  UNL d   1      -2.336   0.029   0.374  0.00  0.00     0.020 A 
ATOM      3  C2  UNL d   1      -0.998  -0.287   0.129  0.00  0.00     0.034 A 
ATOM      4  C3  UNL d   1      -0.154  -0.645   1.187  0.00  0.00     0.017 A 
ATOM      5  C4  UNL d   1      -0.656  -0.686   2.493  0.00  0.00     0.017 A 
ATOM      6  C5  UNL d   1      -1.997  -0.369   2.732  0.00  0.00     0.034 A 
ATOM      7 Cl   UNL d   1       0.323  -1.118   3.850  0.00  0.00    -0.070 Cl
ATOM      8 Cl1  UNL d   1       1.489  -1.023   0.812  0.00  0.00    -0.070 Cl
ENDROOT
TORSDOF 0
ENDMDL
