MODEL 1
REMARK minimizedAffinity -1.61145449
REMARK minimizedRMSD -1
REMARK  0 active torsions:
REMARK  status: ('A' for Active; 'I' for Inactive)
ROOT
ATOM      1  C   UNL d   1      -1.123   0.353   3.223  0.00  0.00     0.020 A 
ATOM      2  C1  UNL d   1      -0.523   1.518   2.747  0.00  0.00     0.020 A 
ATOM      3  C2  UNL d   1      -0.479   1.770   1.374  0.00  0.00     0.034 A 
ATOM      4  C3  UNL d   1      -1.036   0.855   0.472  0.00  0.00     0.017 A 
ATOM      5  C4  UNL d   1      -1.638  -0.314   0.951  0.00  0.00     0.017 A 
ATOM      6  C5  UNL d   1      -1.680  -0.561   2.327  0.00  0.00     0.034 A 
ATOM      7 Cl   UNL d   1      -2.347  -1.488  -0.099  0.00  0.00    -0.070 Cl
ATOM      8 Cl1  UNL d   1      -0.946   1.231  -1.212  0.00  0.00    -0.070 Cl
ENDROOT
TORSDOF 0
ENDMDL
