MODEL 1
REMARK minimizedAffinity 4.10220432
REMARK minimizedRMSD -1
REMARK  0 active torsions:
REMARK  status: ('A' for Active; 'I' for Inactive)
ROOT
ATOM      1  C   UNL d   1      -2.336  -0.687  -1.323  0.00  0.00     0.020 A 
ATOM      2  C1  UNL d   1      -3.334  -0.635  -0.350  0.00  0.00     0.020 A 
ATOM      3  C2  UNL d   1      -2.997  -0.390   0.983  0.00  0.00     0.034 A 
ATOM      4  C3  UNL d   1      -1.660  -0.197   1.347  0.00  0.00     0.017 A 
ATOM      5  C4  UNL d   1      -0.659  -0.250   0.370  0.00  0.00     0.017 A 
ATOM      6  C5  UNL d   1      -1.002  -0.495  -0.963  0.00  0.00     0.034 A 
ATOM      7 Cl   UNL d   1       1.013  -0.022   0.743  0.00  0.00    -0.070 Cl
ATOM      8 Cl1  UNL d   1      -1.316   0.102   3.014  0.00  0.00    -0.070 Cl
ENDROOT
TORSDOF 0
ENDMDL
