MODEL 1
REMARK minimizedAffinity 9.77929783
REMARK minimizedRMSD -1
REMARK  0 active torsions:
REMARK  status: ('A' for Active; 'I' for Inactive)
ROOT
ATOM      1  C   UNL d   1      -3.059   0.166   0.439  0.00  0.00     0.020 A 
ATOM      2  C1  UNL d   1      -2.532   0.690   1.619  0.00  0.00     0.020 A 
ATOM      3  C2  UNL d   1      -1.163   0.593   1.875  0.00  0.00     0.034 A 
ATOM      4  C3  UNL d   1      -0.316  -0.028   0.951  0.00  0.00     0.017 A 
ATOM      5  C4  UNL d   1      -0.845  -0.553  -0.233  0.00  0.00     0.017 A 
ATOM      6  C5  UNL d   1      -2.217  -0.454  -0.485  0.00  0.00     0.034 A 
ATOM      7 Cl   UNL d   1       0.137  -1.334  -1.422  0.00  0.00    -0.070 Cl
ATOM      8 Cl1  UNL d   1       1.367  -0.112   1.333  0.00  0.00    -0.070 Cl
ENDROOT
TORSDOF 0
ENDMDL
