MODEL 1
REMARK minimizedAffinity 0.741089702
REMARK minimizedRMSD -1
REMARK  0 active torsions:
REMARK  status: ('A' for Active; 'I' for Inactive)
ROOT
ATOM      1  C   UNL d   1       0.612  -0.518   2.927  0.00  0.00     0.020 A 
ATOM      2  C1  UNL d   1      -0.611  -0.217   3.526  0.00  0.00     0.020 A 
ATOM      3  C2  UNL d   1      -1.710   0.126   2.735  0.00  0.00     0.034 A 
ATOM      4  C3  UNL d   1      -1.588   0.169   1.341  0.00  0.00     0.017 A 
ATOM      5  C4  UNL d   1      -0.360  -0.133   0.741  0.00  0.00     0.017 A 
ATOM      6  C5  UNL d   1       0.737  -0.476   1.538  0.00  0.00     0.034 A 
ATOM      7 Cl   UNL d   1      -0.133  -0.101  -0.972  0.00  0.00    -0.070 Cl
ATOM      8 Cl1  UNL d   1      -2.988   0.601   0.426  0.00  0.00    -0.070 Cl
ENDROOT
TORSDOF 0
ENDMDL
