MODEL 1
REMARK minimizedAffinity 8.53874397
REMARK minimizedRMSD -1
REMARK  0 active torsions:
REMARK  status: ('A' for Active; 'I' for Inactive)
ROOT
ATOM      1  C   UNL d   1      -2.163  -0.776  -1.009  0.00  0.00     0.020 A 
ATOM      2  C1  UNL d   1      -0.848  -1.116  -1.323  0.00  0.00     0.020 A 
ATOM      3  C2  UNL d   1       0.185  -0.804  -0.436  0.00  0.00     0.034 A 
ATOM      4  C3  UNL d   1      -0.096  -0.151   0.769  0.00  0.00     0.017 A 
ATOM      5  C4  UNL d   1      -1.417   0.189   1.084  0.00  0.00     0.017 A 
ATOM      6  C5  UNL d   1      -2.447  -0.125   0.192  0.00  0.00     0.034 A 
ATOM      7 Cl   UNL d   1      -1.841   0.995   2.553  0.00  0.00    -0.070 Cl
ATOM      8 Cl1  UNL d   1       1.230   0.203   1.819  0.00  0.00    -0.070 Cl
ENDROOT
TORSDOF 0
ENDMDL
