MODEL 1
REMARK minimizedAffinity 7.40729809
REMARK minimizedRMSD -1
REMARK  2 active torsions:
REMARK  status: ('A' for Active; 'I' for Inactive)
REMARK    1  A    between atoms: C1_2  and  C2_3 
REMARK    2  A    between atoms: C2_3  and  C3_4 
ROOT
ATOM      1  C3  UNL d   1       1.647   1.618   1.142  0.00  0.00    -0.075 A 
ATOM      2  C4  UNL d   1       0.329   1.161   1.284  0.00  0.00     0.002 A 
ATOM      3  C5  UNL d   1      -0.454   1.580   2.360  0.00  0.00     0.002 A 
ATOM      4  C6  UNL d   1       0.072   2.452   3.311  0.00  0.00    -0.004 A 
ATOM      5  C7  UNL d   1       1.386   2.900   3.188  0.00  0.00     0.002 A 
ATOM      6  C8  UNL d   1       2.170   2.486   2.111  0.00  0.00     0.002 A 
ENDROOT
BRANCH   1   7
ATOM      7  C2  UNL d   1       2.491   1.192  -0.036  0.00  0.00     0.056 C 
BRANCH   7   8
ATOM      8  C1  UNL d   1       3.537   0.124   0.301  0.00  0.00     0.007 C 
ATOM      9  C   UNL d   1       2.987  -1.295   0.243  0.00  0.00     0.009 C 
ENDBRANCH   7   8
ENDBRANCH   1   7
TORSDOF 2
ENDMDL
