MODEL 1
REMARK minimizedAffinity -1.20796978
REMARK minimizedRMSD -1
REMARK  2 active torsions:
REMARK  status: ('A' for Active; 'I' for Inactive)
REMARK    1  A    between atoms: C1_2  and  C2_3 
REMARK    2  A    between atoms: C2_3  and  C3_4 
ROOT
ATOM      1  C3  UNL d   1       1.608   1.600   0.865  0.00  0.00    -0.075 A 
ATOM      2  C4  UNL d   1       1.585   1.355   2.245  0.00  0.00     0.002 A 
ATOM      3  C5  UNL d   1       0.374   1.301   2.935  0.00  0.00     0.002 A 
ATOM      4  C6  UNL d   1      -0.827   1.501   2.257  0.00  0.00    -0.004 A 
ATOM      5  C7  UNL d   1      -0.815   1.762   0.889  0.00  0.00     0.002 A 
ATOM      6  C8  UNL d   1       0.396   1.812   0.195  0.00  0.00     0.002 A 
ENDROOT
BRANCH   1   7
ATOM      7  C2  UNL d   1       2.914   1.630   0.107  0.00  0.00     0.056 C 
BRANCH   7   8
ATOM      8  C1  UNL d   1       3.646   0.284   0.072  0.00  0.00     0.007 C 
ATOM      9  C   UNL d   1       2.767  -0.865  -0.403  0.00  0.00     0.009 C 
ENDBRANCH   7   8
ENDBRANCH   1   7
TORSDOF 2
ENDMDL
