MODEL 1
REMARK minimizedAffinity -0.251080126
REMARK minimizedRMSD -1
REMARK  2 active torsions:
REMARK  status: ('A' for Active; 'I' for Inactive)
REMARK    1  A    between atoms: C1_2  and  C2_3 
REMARK    2  A    between atoms: C2_3  and  C3_4 
ROOT
ATOM      1  C3  UNL d   1       1.958   0.414  -0.479  0.00  0.00    -0.075 A 
ATOM      2  C4  UNL d   1       2.458  -0.894  -0.402  0.00  0.00     0.002 A 
ATOM      3  C5  UNL d   1       1.614  -1.988  -0.592  0.00  0.00     0.002 A 
ATOM      4  C6  UNL d   1       0.259  -1.789  -0.852  0.00  0.00    -0.004 A 
ATOM      5  C7  UNL d   1      -0.252  -0.495  -0.914  0.00  0.00     0.002 A 
ATOM      6  C8  UNL d   1       0.592   0.602  -0.728  0.00  0.00     0.002 A 
ENDROOT
BRANCH   1   7
ATOM      7  C2  UNL d   1       2.873   1.603  -0.303  0.00  0.00     0.056 C 
BRANCH   7   8
ATOM      8  C1  UNL d   1       4.169   1.518  -1.115  0.00  0.00     0.007 C 
ATOM      9  C   UNL d   1       5.208   2.549  -0.696  0.00  0.00     0.009 C 
ENDBRANCH   7   8
ENDBRANCH   1   7
TORSDOF 2
ENDMDL
