MODEL 1
REMARK minimizedAffinity 1.01838553
REMARK minimizedRMSD -1
REMARK  2 active torsions:
REMARK  status: ('A' for Active; 'I' for Inactive)
REMARK    1  A    between atoms: C1_2  and  C2_3 
REMARK    2  A    between atoms: C2_3  and  C3_4 
ROOT
ATOM      1  C3  UNL d   1       1.362  -0.048  -0.142  0.00  0.00    -0.075 A 
ATOM      2  C4  UNL d   1       2.234  -1.141  -0.034  0.00  0.00     0.002 A 
ATOM      3  C5  UNL d   1       1.807  -2.424  -0.376  0.00  0.00     0.002 A 
ATOM      4  C6  UNL d   1       0.503  -2.632  -0.820  0.00  0.00    -0.004 A 
ATOM      5  C7  UNL d   1      -0.377  -1.556  -0.916  0.00  0.00     0.002 A 
ATOM      6  C8  UNL d   1       0.049  -0.271  -0.578  0.00  0.00     0.002 A 
ENDROOT
BRANCH   1   7
ATOM      7  C2  UNL d   1       1.827   1.348   0.199  0.00  0.00     0.056 C 
BRANCH   7   8
ATOM      8  C1  UNL d   1       3.194   1.712  -0.390  0.00  0.00     0.007 C 
ATOM      9  C   UNL d   1       3.870   2.869   0.333  0.00  0.00     0.009 C 
ENDBRANCH   7   8
ENDBRANCH   1   7
TORSDOF 2
ENDMDL
