MODEL 1
REMARK minimizedAffinity -0.525218964
REMARK minimizedRMSD -1
REMARK  2 active torsions:
REMARK  status: ('A' for Active; 'I' for Inactive)
REMARK    1  A    between atoms: C1_2  and  C2_3 
REMARK    2  A    between atoms: C2_3  and  C3_4 
ROOT
ATOM      1  C3  UNL d   1       2.827   1.553  -0.210  0.00  0.00    -0.075 A 
ATOM      2  C4  UNL d   1       3.301   0.488  -0.990  0.00  0.00     0.002 A 
ATOM      3  C5  UNL d   1       4.523   0.588  -1.656  0.00  0.00     0.002 A 
ATOM      4  C6  UNL d   1       5.280   1.753  -1.560  0.00  0.00    -0.004 A 
ATOM      5  C7  UNL d   1       4.810   2.824  -0.802  0.00  0.00     0.002 A 
ATOM      6  C8  UNL d   1       3.590   2.726  -0.130  0.00  0.00     0.002 A 
ENDROOT
BRANCH   1   7
ATOM      7  C2  UNL d   1       1.520   1.441   0.537  0.00  0.00     0.056 C 
BRANCH   7   8
ATOM      8  C1  UNL d   1       0.289   1.345  -0.370  0.00  0.00     0.007 C 
ATOM      9  C   UNL d   1      -0.162  -0.088  -0.621  0.00  0.00     0.009 C 
ENDBRANCH   7   8
ENDBRANCH   1   7
TORSDOF 2
ENDMDL
