MODEL 1
REMARK minimizedAffinity 0.290800422
REMARK minimizedRMSD -1
REMARK  2 active torsions:
REMARK  status: ('A' for Active; 'I' for Inactive)
REMARK    1  A    between atoms: C1_2  and  C2_3 
REMARK    2  A    between atoms: C2_3  and  C3_4 
ROOT
ATOM      1  C3  UNL d   1       3.251  -1.577  -1.043  0.00  0.00    -0.075 A 
ATOM      2  C4  UNL d   1       3.913  -0.406  -0.646  0.00  0.00     0.002 A 
ATOM      3  C5  UNL d   1       4.739   0.278  -1.539  0.00  0.00     0.002 A 
ATOM      4  C6  UNL d   1       4.922  -0.204  -2.833  0.00  0.00    -0.004 A 
ATOM      5  C7  UNL d   1       4.283  -1.376  -3.232  0.00  0.00     0.002 A 
ATOM      6  C8  UNL d   1       3.452  -2.060  -2.343  0.00  0.00     0.002 A 
ENDROOT
BRANCH   1   7
ATOM      7  C2  UNL d   1       2.332  -2.305  -0.091  0.00  0.00     0.056 C 
BRANCH   7   8
ATOM      8  C1  UNL d   1       0.892  -2.443  -0.597  0.00  0.00     0.007 C 
ATOM      9  C   UNL d   1       0.185  -1.104  -0.765  0.00  0.00     0.009 C 
ENDBRANCH   7   8
ENDBRANCH   1   7
TORSDOF 2
ENDMDL
