MODEL 1
REMARK minimizedAffinity -4.32845831
REMARK minimizedRMSD -1
REMARK  1 active torsions:
REMARK  status: ('A' for Active; 'I' for Inactive)
REMARK    1  A    between atoms: C3_4  and  O_7 
ROOT
ATOM      1  C   UNL d   1       1.261  -2.016   2.011  0.00  0.00    -0.033 A 
ATOM      2  C1  UNL d   1       1.867  -1.713   0.790  0.00  0.00     0.039 A 
ATOM      3  C2  UNL d   1       1.254  -0.823  -0.094  0.00  0.00    -0.080 A 
ATOM      4  C3  UNL d   1       0.038  -0.243   0.254  0.00  0.00     0.150 A 
ATOM      5  C4  UNL d   1      -0.570  -0.537   1.470  0.00  0.00    -0.007 A 
ATOM      6  C5  UNL d   1       0.043  -1.427   2.352  0.00  0.00     0.039 A 
ENDROOT
BRANCH   4   7
ATOM      7  O   UNL d   1      -0.601   0.628  -0.578  0.00  0.00    -0.526 OA
ATOM      8  H5  UNL d   1      -0.078   0.714  -1.393  0.00  0.00     0.418 HD
ENDBRANCH   4   7
TORSDOF 1
ENDMDL
