MODEL 1
REMARK minimizedAffinity -4.50765944
REMARK minimizedRMSD -1
REMARK  1 active torsions:
REMARK  status: ('A' for Active; 'I' for Inactive)
REMARK    1  A    between atoms: C3_4  and  O_7 
ROOT
ATOM      1  C   UNL d   1       1.654  -2.081   1.829  0.00  0.00    -0.033 A 
ATOM      2  C1  UNL d   1       0.335  -1.791   2.183  0.00  0.00     0.039 A 
ATOM      3  C2  UNL d   1      -0.430  -0.933   1.392  0.00  0.00    -0.080 A 
ATOM      4  C3  UNL d   1       0.134  -0.372   0.249  0.00  0.00     0.150 A 
ATOM      5  C4  UNL d   1       1.446  -0.659  -0.112  0.00  0.00    -0.007 A 
ATOM      6  C5  UNL d   1       2.209  -1.516   0.680  0.00  0.00     0.039 A 
ENDROOT
BRANCH   4   7
ATOM      7  O   UNL d   1      -0.572   0.475  -0.552  0.00  0.00    -0.526 OA
ATOM      8  H5  UNL d   1      -1.453   0.604  -0.163  0.00  0.00     0.418 HD
ENDBRANCH   4   7
TORSDOF 1
ENDMDL
