MODEL 1
REMARK minimizedAffinity -3.00125599
REMARK minimizedRMSD -1
REMARK  1 active torsions:
REMARK  status: ('A' for Active; 'I' for Inactive)
REMARK    1  A    between atoms: C3_4  and  O_7 
ROOT
ATOM      1  C   UNL d   1       2.250  -1.182   0.592  0.00  0.00    -0.033 A 
ATOM      2  C1  UNL d   1       1.082  -1.261   1.353  0.00  0.00     0.039 A 
ATOM      3  C2  UNL d   1      -0.016  -0.459   1.034  0.00  0.00    -0.080 A 
ATOM      4  C3  UNL d   1       0.067   0.415  -0.046  0.00  0.00     0.150 A 
ATOM      5  C4  UNL d   1       1.227   0.496  -0.810  0.00  0.00    -0.007 A 
ATOM      6  C5  UNL d   1       2.322  -0.305  -0.490  0.00  0.00     0.039 A 
ENDROOT
BRANCH   4   7
ATOM      7  O   UNL d   1      -0.976   1.221  -0.393  0.00  0.00    -0.526 OA
ATOM      8  H5  UNL d   1      -1.699   1.078   0.241  0.00  0.00     0.418 HD
ENDBRANCH   4   7
TORSDOF 1
ENDMDL
