MODEL 1
REMARK minimizedAffinity -4.00567007
REMARK minimizedRMSD -1
REMARK  1 active torsions:
REMARK  status: ('A' for Active; 'I' for Inactive)
REMARK    1  A    between atoms: C3_4  and  O_7 
ROOT
ATOM      1  C   UNL d   1      -2.172   0.926  -3.718  0.00  0.00    -0.033 A 
ATOM      2  C1  UNL d   1      -2.013   2.231  -3.246  0.00  0.00     0.039 A 
ATOM      3  C2  UNL d   1      -1.646   2.455  -1.918  0.00  0.00    -0.080 A 
ATOM      4  C3  UNL d   1      -1.440   1.367  -1.073  0.00  0.00     0.150 A 
ATOM      5  C4  UNL d   1      -1.592   0.065  -1.538  0.00  0.00    -0.007 A 
ATOM      6  C5  UNL d   1      -1.960  -0.157  -2.864  0.00  0.00     0.039 A 
ENDROOT
BRANCH   4   7
ATOM      7  O   UNL d   1      -1.085   1.536   0.232  0.00  0.00    -0.526 OA
ATOM      8  H5  UNL d   1      -1.045   2.488   0.420  0.00  0.00     0.418 HD
ENDBRANCH   4   7
TORSDOF 1
ENDMDL
