MODEL 1
REMARK minimizedAffinity -2.06432486
REMARK minimizedRMSD -1
REMARK  1 active torsions:
REMARK  status: ('A' for Active; 'I' for Inactive)
REMARK    1  A    between atoms: C3_4  and  O_7 
ROOT
ATOM      1  C   UNL d   1      -2.962   2.031  -3.270  0.00  0.00    -0.033 A 
ATOM      2  C1  UNL d   1      -1.763   2.745  -3.227  0.00  0.00     0.039 A 
ATOM      3  C2  UNL d   1      -0.910   2.614  -2.129  0.00  0.00    -0.080 A 
ATOM      4  C3  UNL d   1      -1.267   1.767  -1.083  0.00  0.00     0.150 A 
ATOM      5  C4  UNL d   1      -2.459   1.050  -1.122  0.00  0.00    -0.007 A 
ATOM      6  C5  UNL d   1      -3.310   1.183  -2.218  0.00  0.00     0.039 A 
ENDROOT
BRANCH   4   7
ATOM      7  O   UNL d   1      -0.469   1.610   0.011  0.00  0.00    -0.526 OA
ATOM      8  H5  UNL d   1       0.305   2.189  -0.088  0.00  0.00     0.418 HD
ENDBRANCH   4   7
TORSDOF 1
ENDMDL
