MODEL 1
REMARK minimizedAffinity -3.28718328
REMARK minimizedRMSD -1
REMARK  1 active torsions:
REMARK  status: ('A' for Active; 'I' for Inactive)
REMARK    1  A    between atoms: C3_4  and  O_7 
ROOT
ATOM      1  C   UNL d   1      -0.953   0.573   0.522  0.00  0.00    -0.033 A 
ATOM      2  C1  UNL d   1       0.039   0.466  -0.455  0.00  0.00     0.039 A 
ATOM      3  C2  UNL d   1       1.051  -0.487  -0.323  0.00  0.00    -0.080 A 
ATOM      4  C3  UNL d   1       1.060  -1.325   0.788  0.00  0.00     0.150 A 
ATOM      5  C4  UNL d   1       0.072  -1.227   1.763  0.00  0.00    -0.007 A 
ATOM      6  C5  UNL d   1      -0.937  -0.275   1.630  0.00  0.00     0.039 A 
ENDROOT
BRANCH   4   7
ATOM      7  O   UNL d   1       2.030  -2.267   0.963  0.00  0.00    -0.526 OA
ATOM      8  H5  UNL d   1       2.660  -2.200   0.226  0.00  0.00     0.418 HD
ENDBRANCH   4   7
TORSDOF 1
ENDMDL
