MODEL 1
REMARK minimizedAffinity -1.11122692
REMARK minimizedRMSD -1
REMARK  1 active torsions:
REMARK  status: ('A' for Active; 'I' for Inactive)
REMARK    1  A    between atoms: C3_4  and  O_7 
ROOT
ATOM      1  C   UNL d   1      -2.286   1.703  -3.830  0.00  0.00    -0.033 A 
ATOM      2  C1  UNL d   1      -1.095   2.365  -3.524  0.00  0.00     0.039 A 
ATOM      3  C2  UNL d   1      -0.539   2.250  -2.248  0.00  0.00    -0.080 A 
ATOM      4  C3  UNL d   1      -1.181   1.471  -1.290  0.00  0.00     0.150 A 
ATOM      5  C4  UNL d   1      -2.365   0.805  -1.590  0.00  0.00    -0.007 A 
ATOM      6  C5  UNL d   1      -2.920   0.922  -2.864  0.00  0.00     0.039 A 
ENDROOT
BRANCH   4   7
ATOM      7  O   UNL d   1      -0.679   1.332  -0.031  0.00  0.00    -0.526 OA
ATOM      8  H5  UNL d   1       0.127   1.871   0.040  0.00  0.00     0.418 HD
ENDBRANCH   4   7
TORSDOF 1
ENDMDL
