MODEL 1
REMARK minimizedAffinity -1.98502553
REMARK minimizedRMSD -1
REMARK  1 active torsions:
REMARK  status: ('A' for Active; 'I' for Inactive)
REMARK    1  A    between atoms: C3_4  and  O_7 
ROOT
ATOM      1  C   UNL d   1      -1.968   1.374  -4.178  0.00  0.00    -0.033 A 
ATOM      2  C1  UNL d   1      -0.892   2.041  -3.590  0.00  0.00     0.039 A 
ATOM      3  C2  UNL d   1      -0.837   2.197  -2.204  0.00  0.00    -0.080 A 
ATOM      4  C3  UNL d   1      -1.863   1.681  -1.417  0.00  0.00     0.150 A 
ATOM      5  C4  UNL d   1      -2.937   1.012  -1.995  0.00  0.00    -0.007 A 
ATOM      6  C5  UNL d   1      -2.990   0.858  -3.380  0.00  0.00     0.039 A 
ENDROOT
BRANCH   4   7
ATOM      7  O   UNL d   1      -1.856   1.813  -0.060  0.00  0.00    -0.526 OA
ATOM      8  H5  UNL d   1      -1.068   2.322   0.195  0.00  0.00     0.418 HD
ENDBRANCH   4   7
TORSDOF 1
ENDMDL
