MODEL 1
REMARK minimizedAffinity -2.16559172
REMARK minimizedRMSD -1
REMARK  1 active torsions:
REMARK  status: ('A' for Active; 'I' for Inactive)
REMARK    1  A    between atoms: C3_4  and  O_7 
ROOT
ATOM      1  C   UNL d   1      -2.430   2.390  -3.385  0.00  0.00    -0.033 A 
ATOM      2  C1  UNL d   1      -3.339   1.501  -2.809  0.00  0.00     0.039 A 
ATOM      3  C2  UNL d   1      -3.124   1.019  -1.516  0.00  0.00    -0.080 A 
ATOM      4  C3  UNL d   1      -1.997   1.434  -0.811  0.00  0.00     0.150 A 
ATOM      5  C4  UNL d   1      -1.089   2.322  -1.377  0.00  0.00    -0.007 A 
ATOM      6  C5  UNL d   1      -1.306   2.802  -2.668  0.00  0.00     0.039 A 
ENDROOT
BRANCH   4   7
ATOM      7  O   UNL d   1      -1.742   0.987   0.451  0.00  0.00    -0.526 OA
ATOM      8  H5  UNL d   1      -2.439   0.357   0.702  0.00  0.00     0.418 HD
ENDBRANCH   4   7
TORSDOF 1
ENDMDL
