MODEL 1
REMARK minimizedAffinity -5.13100719
REMARK minimizedRMSD -1
REMARK  1 active torsions:
REMARK  status: ('A' for Active; 'I' for Inactive)
REMARK    1  A    between atoms: C3_4  and  O_7 
ROOT
ATOM      1  C   UNL d   1       0.001  -1.840   2.945  0.00  0.00    -0.033 A 
ATOM      2  C1  UNL d   1       1.276  -2.138   2.460  0.00  0.00     0.039 A 
ATOM      3  C2  UNL d   1       1.678  -1.662   1.211  0.00  0.00    -0.080 A 
ATOM      4  C3  UNL d   1       0.799  -0.889   0.459  0.00  0.00     0.150 A 
ATOM      5  C4  UNL d   1      -0.471  -0.584   0.937  0.00  0.00    -0.007 A 
ATOM      6  C5  UNL d   1      -0.872  -1.061   2.185  0.00  0.00     0.039 A 
ENDROOT
BRANCH   4   7
ATOM      7  O   UNL d   1       1.145  -0.405  -0.768  0.00  0.00    -0.526 OA
ATOM      8  H5  UNL d   1       2.040  -0.719  -0.981  0.00  0.00     0.418 HD
ENDBRANCH   4   7
TORSDOF 1
ENDMDL
