MODEL 1
REMARK minimizedAffinity 0.222761497
REMARK minimizedRMSD -1
REMARK  1 active torsions:
REMARK  status: ('A' for Active; 'I' for Inactive)
REMARK    1  A    between atoms: C3_4  and  O_7 
ROOT
ATOM      1  C   UNL d   1      -1.806   1.747  -3.744  0.00  0.00    -0.033 A 
ATOM      2  C1  UNL d   1      -2.727   1.083  -2.932  0.00  0.00     0.039 A 
ATOM      3  C2  UNL d   1      -2.511   0.997  -1.555  0.00  0.00    -0.080 A 
ATOM      4  C3  UNL d   1      -1.373   1.579  -1.004  0.00  0.00     0.150 A 
ATOM      5  C4  UNL d   1      -0.453   2.246  -1.807  0.00  0.00    -0.007 A 
ATOM      6  C5  UNL d   1      -0.670   2.330  -3.181  0.00  0.00     0.039 A 
ENDROOT
BRANCH   4   7
ATOM      7  O   UNL d   1      -1.117   1.517   0.334  0.00  0.00    -0.526 OA
ATOM      8  H5  UNL d   1      -1.823   1.002   0.759  0.00  0.00     0.418 HD
ENDBRANCH   4   7
TORSDOF 1
ENDMDL
