MODEL 1
REMARK minimizedAffinity -5.30498219
REMARK minimizedRMSD -1
REMARK  1 active torsions:
REMARK  status: ('A' for Active; 'I' for Inactive)
REMARK    1  A    between atoms: C3_4  and  O_7 
ROOT
ATOM      1  C   UNL d   1       0.262   0.695   0.024  0.00  0.00    -0.033 A 
ATOM      2  C1  UNL d   1      -0.617  -0.184   0.660  0.00  0.00     0.039 A 
ATOM      3  C2  UNL d   1      -0.221  -1.495   0.932  0.00  0.00    -0.080 A 
ATOM      4  C3  UNL d   1       1.055  -1.914   0.565  0.00  0.00     0.150 A 
ATOM      5  C4  UNL d   1       1.937  -1.042  -0.065  0.00  0.00    -0.007 A 
ATOM      6  C5  UNL d   1       1.539   0.266  -0.337  0.00  0.00     0.039 A 
ENDROOT
BRANCH   4   7
ATOM      7  O   UNL d   1       1.484  -3.185   0.805  0.00  0.00    -0.526 OA
ATOM      8  H5  UNL d   1       0.759  -3.682   1.220  0.00  0.00     0.418 HD
ENDBRANCH   4   7
TORSDOF 1
ENDMDL
