MODEL 1
REMARK minimizedAffinity -4.40676403
REMARK minimizedRMSD -1
REMARK  1 active torsions:
REMARK  status: ('A' for Active; 'I' for Inactive)
REMARK    1  A    between atoms: C3_4  and  O_7 
ROOT
ATOM      1  C   UNL d   1      -0.117   1.146  -0.309  0.00  0.00    -0.033 A 
ATOM      2  C1  UNL d   1      -0.516   0.048   0.457  0.00  0.00     0.039 A 
ATOM      3  C2  UNL d   1       0.358  -1.023   0.651  0.00  0.00    -0.080 A 
ATOM      4  C3  UNL d   1       1.625  -0.985   0.076  0.00  0.00     0.150 A 
ATOM      5  C4  UNL d   1       2.030   0.107  -0.685  0.00  0.00    -0.007 A 
ATOM      6  C5  UNL d   1       1.156   1.176  -0.879  0.00  0.00     0.039 A 
ENDROOT
BRANCH   4   7
ATOM      7  O   UNL d   1       2.510  -2.010   0.233  0.00  0.00    -0.526 OA
ATOM      8  H5  UNL d   1       2.083  -2.708   0.758  0.00  0.00     0.418 HD
ENDBRANCH   4   7
TORSDOF 1
ENDMDL
