MODEL 1
REMARK minimizedAffinity -3.98220849
REMARK minimizedRMSD -1
REMARK  1 active torsions:
REMARK  status: ('A' for Active; 'I' for Inactive)
REMARK    1  A    between atoms: C3_4  and  O_7 
ROOT
ATOM      1  C   UNL d   1      -2.519   1.640  -2.817  0.00  0.00    -0.033 A 
ATOM      2  C1  UNL d   1      -2.508   0.261  -2.600  0.00  0.00     0.039 A 
ATOM      3  C2  UNL d   1      -1.737  -0.279  -1.568  0.00  0.00    -0.080 A 
ATOM      4  C3  UNL d   1      -0.984   0.570  -0.762  0.00  0.00     0.150 A 
ATOM      5  C4  UNL d   1      -0.994   1.945  -0.970  0.00  0.00    -0.007 A 
ATOM      6  C5  UNL d   1      -1.763   2.482  -2.001  0.00  0.00     0.039 A 
ENDROOT
BRANCH   4   7
ATOM      7  O   UNL d   1      -0.212   0.089   0.254  0.00  0.00    -0.526 OA
ATOM      8  H5  UNL d   1      -0.282  -0.880   0.261  0.00  0.00     0.418 HD
ENDBRANCH   4   7
TORSDOF 1
ENDMDL
