MODEL 1
REMARK minimizedAffinity -1.68762457
REMARK minimizedRMSD -1
REMARK  1 active torsions:
REMARK  status: ('A' for Active; 'I' for Inactive)
REMARK    1  A    between atoms: C3_4  and  O_7 
ROOT
ATOM      1  C   UNL d   1      -2.181   2.222  -2.845  0.00  0.00    -0.033 A 
ATOM      2  C1  UNL d   1      -1.087   2.753  -2.159  0.00  0.00     0.039 A 
ATOM      3  C2  UNL d   1      -0.532   2.059  -1.082  0.00  0.00    -0.080 A 
ATOM      4  C3  UNL d   1      -1.079   0.836  -0.703  0.00  0.00     0.150 A 
ATOM      5  C4  UNL d   1      -2.166   0.299  -1.384  0.00  0.00    -0.007 A 
ATOM      6  C5  UNL d   1      -2.720   0.995  -2.458  0.00  0.00     0.039 A 
ENDROOT
BRANCH   4   7
ATOM      7  O   UNL d   1      -0.574   0.123   0.344  0.00  0.00    -0.526 OA
ATOM      8  H5  UNL d   1       0.156   0.630   0.737  0.00  0.00     0.418 HD
ENDBRANCH   4   7
TORSDOF 1
ENDMDL
