MODEL 1
REMARK minimizedAffinity 34.5237045
REMARK minimizedRMSD -1
REMARK  0 active torsions:
REMARK  status: ('A' for Active; 'I' for Inactive)
ROOT
ATOM      1  C   UNL d   1       4.536  -1.706   1.935  0.00  0.00     0.124 A 
ATOM      2  C1  UNL d   1       4.165  -2.590   2.940  0.00  0.00     0.062 A 
ATOM      3  C2  UNL d   1       3.178  -3.543   2.705  0.00  0.00     0.162 A 
ATOM      4  C3  UNL d   1       2.555  -3.619   1.459  0.00  0.00    -0.034 A 
ATOM      5  C4  UNL d   1       2.933  -2.727   0.454  0.00  0.00     0.162 A 
ATOM      6  C5  UNL d   1       3.919  -1.776   0.694  0.00  0.00     0.062 A 
ATOM      7  F   UNL d   1       4.276  -0.923  -0.278  0.00  0.00    -0.097 F 
ATOM      8  F1  UNL d   1       2.354  -2.772  -0.755  0.00  0.00    -0.096 F 
ATOM      9  I   UNL d   1       1.079  -5.043   1.104  0.00  0.00    -0.060 I 
ATOM     10  F2  UNL d   1       2.840  -4.383   3.694  0.00  0.00    -0.096 F 
ATOM     11  F3  UNL d   1       4.758  -2.524   4.141  0.00  0.00    -0.097 F 
ATOM     12  F4  UNL d   1       5.485  -0.790   2.164  0.00  0.00    -0.092 F 
ENDROOT
TORSDOF 0
ENDMDL
