MODEL 1
REMARK minimizedAffinity 5.33186102
REMARK minimizedRMSD -1
REMARK  0 active torsions:
REMARK  status: ('A' for Active; 'I' for Inactive)
ROOT
ATOM      1  C   UNL d   1       3.014   1.952  -4.327  0.00  0.00     0.124 A 
ATOM      2  C1  UNL d   1       1.716   1.765  -4.781  0.00  0.00     0.062 A 
ATOM      3  C2  UNL d   1       0.778   1.126  -3.976  0.00  0.00     0.162 A 
ATOM      4  C3  UNL d   1       1.134   0.670  -2.707  0.00  0.00    -0.034 A 
ATOM      5  C4  UNL d   1       2.441   0.860  -2.257  0.00  0.00     0.162 A 
ATOM      6  C5  UNL d   1       3.376   1.499  -3.066  0.00  0.00     0.062 A 
ATOM      7  F   UNL d   1       4.629   1.679  -2.625  0.00  0.00    -0.097 F 
ATOM      8  F1  UNL d   1       2.818   0.434  -1.042  0.00  0.00    -0.096 F 
ATOM      9  I   UNL d   1      -0.266  -0.286  -1.500  0.00  0.00    -0.060 I 
ATOM     10  F2  UNL d   1      -0.470   0.959  -4.441  0.00  0.00    -0.096 F 
ATOM     11  F3  UNL d   1       1.364   2.200  -6.000  0.00  0.00    -0.097 F 
ATOM     12  F4  UNL d   1       3.915   2.566  -5.105  0.00  0.00    -0.092 F 
ENDROOT
TORSDOF 0
ENDMDL
