MODEL 1
REMARK minimizedAffinity 17.4846592
REMARK minimizedRMSD -1
REMARK  0 active torsions:
REMARK  status: ('A' for Active; 'I' for Inactive)
ROOT
ATOM      1  C   UNL d   1       3.540   2.276  -4.396  0.00  0.00     0.124 A 
ATOM      2  C1  UNL d   1       3.867   1.616  -3.219  0.00  0.00     0.062 A 
ATOM      3  C2  UNL d   1       2.890   0.925  -2.509  0.00  0.00     0.162 A 
ATOM      4  C3  UNL d   1       1.575   0.889  -2.974  0.00  0.00    -0.034 A 
ATOM      5  C4  UNL d   1       1.253   1.556  -4.157  0.00  0.00     0.162 A 
ATOM      6  C5  UNL d   1       2.234   2.245  -4.863  0.00  0.00     0.062 A 
ATOM      7  F   UNL d   1       1.915   2.882  -6.000  0.00  0.00    -0.097 F 
ATOM      8  F1  UNL d   1      -0.001   1.542  -4.632  0.00  0.00    -0.096 F 
ATOM      9  I   UNL d   1       0.111  -0.143  -1.914  0.00  0.00    -0.060 I 
ATOM     10  F2  UNL d   1       3.235   0.296  -1.375  0.00  0.00    -0.096 F 
ATOM     11  F3  UNL d   1       5.128   1.645  -2.765  0.00  0.00    -0.097 F 
ATOM     12  F4  UNL d   1       4.482   2.941  -5.077  0.00  0.00    -0.092 F 
ENDROOT
TORSDOF 0
ENDMDL
