MODEL 1
REMARK minimizedAffinity 3.54298282
REMARK minimizedRMSD -1
REMARK  0 active torsions:
REMARK  status: ('A' for Active; 'I' for Inactive)
ROOT
ATOM      1  C   UNL d   1       1.505   2.186  -3.482  0.00  0.00     0.124 A 
ATOM      2  C1  UNL d   1       2.802   1.699  -3.579  0.00  0.00     0.062 A 
ATOM      3  C2  UNL d   1       3.177   0.563  -2.870  0.00  0.00     0.162 A 
ATOM      4  C3  UNL d   1       2.255  -0.097  -2.057  0.00  0.00    -0.034 A 
ATOM      5  C4  UNL d   1       0.953   0.399  -1.964  0.00  0.00     0.162 A 
ATOM      6  C5  UNL d   1       0.583   1.536  -2.675  0.00  0.00     0.062 A 
ATOM      7  F   UNL d   1      -0.670   2.005  -2.580  0.00  0.00    -0.097 F 
ATOM      8  F1  UNL d   1       0.041  -0.210  -1.192  0.00  0.00    -0.096 F 
ATOM      9  I   UNL d   1       2.813  -1.797  -0.995  0.00  0.00    -0.060 I 
ATOM     10  F2  UNL d   1       4.437   0.115  -2.982  0.00  0.00    -0.096 F 
ATOM     11  F3  UNL d   1       3.695   2.326  -4.358  0.00  0.00    -0.097 F 
ATOM     12  F4  UNL d   1       1.147   3.281  -4.165  0.00  0.00    -0.092 F 
ENDROOT
TORSDOF 0
ENDMDL
