MODEL 1
REMARK minimizedAffinity 13.3261967
REMARK minimizedRMSD -1
REMARK  0 active torsions:
REMARK  status: ('A' for Active; 'I' for Inactive)
ROOT
ATOM      1  C   UNL d   1       3.142   2.040  -4.333  0.00  0.00     0.124 A 
ATOM      2  C1  UNL d   1       1.834   2.098  -4.795  0.00  0.00     0.062 A 
ATOM      3  C2  UNL d   1       0.793   1.609  -4.012  0.00  0.00     0.162 A 
ATOM      4  C3  UNL d   1       1.054   1.058  -2.758  0.00  0.00    -0.034 A 
ATOM      5  C4  UNL d   1       2.371   1.002  -2.300  0.00  0.00     0.162 A 
ATOM      6  C5  UNL d   1       3.409   1.492  -3.086  0.00  0.00     0.062 A 
ATOM      7  F   UNL d   1       4.672   1.434  -2.638  0.00  0.00    -0.097 F 
ATOM      8  F1  UNL d   1       2.658   0.478  -1.099  0.00  0.00    -0.096 F 
ATOM      9  I   UNL d   1      -0.501   0.326  -1.584  0.00  0.00    -0.060 I 
ATOM     10  F2  UNL d   1      -0.461   1.678  -4.484  0.00  0.00    -0.096 F 
ATOM     11  F3  UNL d   1       1.574   2.626  -6.000  0.00  0.00    -0.097 F 
ATOM     12  F4  UNL d   1       4.142   2.510  -5.089  0.00  0.00    -0.092 F 
ENDROOT
TORSDOF 0
ENDMDL
