MODEL 1
REMARK minimizedAffinity 7.00254583
REMARK minimizedRMSD -1
REMARK  0 active torsions:
REMARK  status: ('A' for Active; 'I' for Inactive)
ROOT
ATOM      1  C   UNL d   1       2.798   1.592  -4.519  0.00  0.00     0.124 A 
ATOM      2  C1  UNL d   1       3.273   1.237  -3.264  0.00  0.00     0.062 A 
ATOM      3  C2  UNL d   1       2.391   0.809  -2.277  0.00  0.00     0.162 A 
ATOM      4  C3  UNL d   1       1.023   0.733  -2.540  0.00  0.00    -0.034 A 
ATOM      5  C4  UNL d   1       0.553   1.092  -3.805  0.00  0.00     0.162 A 
ATOM      6  C5  UNL d   1       1.439   1.520  -4.788  0.00  0.00     0.062 A 
ATOM      7  F   UNL d   1       0.978   1.862  -6.000  0.00  0.00    -0.097 F 
ATOM      8  F1  UNL d   1      -0.756   1.031  -4.092  0.00  0.00    -0.096 F 
ATOM      9  I   UNL d   1      -0.300   0.093  -1.067  0.00  0.00    -0.060 I 
ATOM     10  F2  UNL d   1       2.878   0.472  -1.073  0.00  0.00    -0.096 F 
ATOM     11  F3  UNL d   1       4.586   1.307  -3.002  0.00  0.00    -0.097 F 
ATOM     12  F4  UNL d   1       3.650   2.005  -5.467  0.00  0.00    -0.092 F 
ENDROOT
TORSDOF 0
ENDMDL
