MODEL 1
REMARK minimizedAffinity 15.8460398
REMARK minimizedRMSD -1
REMARK  0 active torsions:
REMARK  status: ('A' for Active; 'I' for Inactive)
ROOT
ATOM      1  C   UNL d   1      -3.749   2.207   2.923  0.00  0.00     0.124 A 
ATOM      2  C1  UNL d   1      -2.601   1.523   3.297  0.00  0.00     0.062 A 
ATOM      3  C2  UNL d   1      -2.588   0.131   3.307  0.00  0.00     0.162 A 
ATOM      4  C3  UNL d   1      -3.727  -0.586   2.941  0.00  0.00    -0.034 A 
ATOM      5  C4  UNL d   1      -4.878   0.109   2.567  0.00  0.00     0.162 A 
ATOM      6  C5  UNL d   1      -4.886   1.500   2.558  0.00  0.00     0.062 A 
ATOM      7  F   UNL d   1      -5.997   2.159   2.197  0.00  0.00    -0.097 F 
ATOM      8  F1  UNL d   1      -5.990  -0.550   2.209  0.00  0.00    -0.096 F 
ATOM      9  I   UNL d   1      -3.711  -2.667   2.955  0.00  0.00    -0.060 I 
ATOM     10  F2  UNL d   1      -1.464  -0.504   3.673  0.00  0.00    -0.096 F 
ATOM     11  F3  UNL d   1      -1.502   2.204   3.650  0.00  0.00    -0.097 F 
ATOM     12  F4  UNL d   1      -3.760   3.546   2.914  0.00  0.00    -0.092 F 
ENDROOT
TORSDOF 0
ENDMDL
