MODEL 1
REMARK minimizedAffinity 11.0372381
REMARK minimizedRMSD -1
REMARK  0 active torsions:
REMARK  status: ('A' for Active; 'I' for Inactive)
ROOT
ATOM      1  C   UNL d   1      -0.151  -2.043  -1.258  0.00  0.00     0.124 A 
ATOM      2  C1  UNL d   1      -0.823  -0.833  -1.358  0.00  0.00     0.062 A 
ATOM      3  C2  UNL d   1      -0.136   0.321  -1.725  0.00  0.00     0.162 A 
ATOM      4  C3  UNL d   1       1.231   0.270  -1.995  0.00  0.00    -0.034 A 
ATOM      5  C4  UNL d   1       1.900  -0.951  -1.891  0.00  0.00     0.162 A 
ATOM      6  C5  UNL d   1       1.209  -2.101  -1.525  0.00  0.00     0.062 A 
ATOM      7  F   UNL d   1       1.860  -3.270  -1.429  0.00  0.00    -0.097 F 
ATOM      8  F1  UNL d   1       3.215  -1.036  -2.144  0.00  0.00    -0.096 F 
ATOM      9  I   UNL d   1       2.262   1.993  -2.543  0.00  0.00    -0.060 I 
ATOM     10  F2  UNL d   1      -0.811   1.477  -1.813  0.00  0.00    -0.096 F 
ATOM     11  F3  UNL d   1      -2.138  -0.774  -1.100  0.00  0.00    -0.097 F 
ATOM     12  F4  UNL d   1      -0.815  -3.151  -0.904  0.00  0.00    -0.092 F 
ENDROOT
TORSDOF 0
ENDMDL
