MODEL 1
REMARK minimizedAffinity 20.5169868
REMARK minimizedRMSD -1
REMARK  0 active torsions:
REMARK  status: ('A' for Active; 'I' for Inactive)
ROOT
ATOM      1  C   UNL d   1       2.377   5.697   0.123  0.00  0.00     0.124 A 
ATOM      2  C1  UNL d   1       2.089   5.430   1.454  0.00  0.00     0.062 A 
ATOM      3  C2  UNL d   1       3.120   5.205   2.362  0.00  0.00     0.162 A 
ATOM      4  C3  UNL d   1       4.449   5.248   1.942  0.00  0.00    -0.034 A 
ATOM      5  C4  UNL d   1       4.731   5.516   0.601  0.00  0.00     0.162 A 
ATOM      6  C5  UNL d   1       3.697   5.740  -0.302  0.00  0.00     0.062 A 
ATOM      7  F   UNL d   1       3.978   5.997  -1.588  0.00  0.00    -0.097 F 
ATOM      8  F1  UNL d   1       5.998   5.564   0.163  0.00  0.00    -0.096 F 
ATOM      9  I   UNL d   1       5.993   4.913   3.296  0.00  0.00    -0.060 I 
ATOM     10  F2  UNL d   1       2.812   4.950   3.642  0.00  0.00    -0.096 F 
ATOM     11  F3  UNL d   1       0.814   5.387   1.867  0.00  0.00    -0.097 F 
ATOM     12  F4  UNL d   1       1.383   5.912  -0.749  0.00  0.00    -0.092 F 
ENDROOT
TORSDOF 0
ENDMDL
