MODEL 1
REMARK minimizedAffinity 4.36885214
REMARK minimizedRMSD -1
REMARK  0 active torsions:
REMARK  status: ('A' for Active; 'I' for Inactive)
ROOT
ATOM      1  C   UNL d   1       3.311   2.468  -4.464  0.00  0.00     0.124 A 
ATOM      2  C1  UNL d   1       2.000   2.342  -4.902  0.00  0.00     0.062 A 
ATOM      3  C2  UNL d   1       1.105   1.534  -4.208  0.00  0.00     0.162 A 
ATOM      4  C3  UNL d   1       1.517   0.844  -3.068  0.00  0.00    -0.034 A 
ATOM      5  C4  UNL d   1       2.838   0.975  -2.634  0.00  0.00     0.162 A 
ATOM      6  C5  UNL d   1       3.729   1.784  -3.331  0.00  0.00     0.062 A 
ATOM      7  F   UNL d   1       4.995   1.904  -2.907  0.00  0.00    -0.097 F 
ATOM      8  F1  UNL d   1       3.267   0.326  -1.542  0.00  0.00    -0.096 F 
ATOM      9  I   UNL d   1       0.181  -0.366  -2.027  0.00  0.00    -0.060 I 
ATOM     10  F2  UNL d   1      -0.156   1.431  -4.654  0.00  0.00    -0.096 F 
ATOM     11  F3  UNL d   1       1.595   3.001  -5.997  0.00  0.00    -0.097 F 
ATOM     12  F4  UNL d   1       4.171   3.246  -5.134  0.00  0.00    -0.092 F 
ENDROOT
TORSDOF 0
ENDMDL
