MODEL 1
REMARK minimizedAffinity 6.66805315
REMARK minimizedRMSD -1
REMARK  0 active torsions:
REMARK  status: ('A' for Active; 'I' for Inactive)
ROOT
ATOM      1  C   UNL d   1       3.490   1.963  -4.525  0.00  0.00     0.124 A 
ATOM      2  C1  UNL d   1       3.760   1.267  -3.355  0.00  0.00     0.062 A 
ATOM      3  C2  UNL d   1       2.718   0.855  -2.529  0.00  0.00     0.162 A 
ATOM      4  C3  UNL d   1       1.396   1.137  -2.871  0.00  0.00    -0.034 A 
ATOM      5  C4  UNL d   1       1.132   1.839  -4.048  0.00  0.00     0.162 A 
ATOM      6  C5  UNL d   1       2.177   2.249  -4.870  0.00  0.00     0.062 A 
ATOM      7  F   UNL d   1       1.914   2.922  -6.000  0.00  0.00    -0.097 F 
ATOM      8  F1  UNL d   1      -0.128   2.128  -4.407  0.00  0.00    -0.096 F 
ATOM      9  I   UNL d   1      -0.165   0.523  -1.638  0.00  0.00    -0.060 I 
ATOM     10  F2  UNL d   1       3.009   0.183  -1.405  0.00  0.00    -0.096 F 
ATOM     11  F3  UNL d   1       5.028   0.990  -3.019  0.00  0.00    -0.097 F 
ATOM     12  F4  UNL d   1       4.494   2.359  -5.317  0.00  0.00    -0.092 F 
ENDROOT
TORSDOF 0
ENDMDL
