MODEL 1
REMARK minimizedAffinity 18.2215633
REMARK minimizedRMSD -1
REMARK  0 active torsions:
REMARK  status: ('A' for Active; 'I' for Inactive)
ROOT
ATOM      1  C   UNL d   1       2.405   5.558   0.509  0.00  0.00     0.124 A 
ATOM      2  C1  UNL d   1       3.735   5.337   0.180  0.00  0.00     0.062 A 
ATOM      3  C2  UNL d   1       4.711   5.338   1.172  0.00  0.00     0.162 A 
ATOM      4  C3  UNL d   1       4.361   5.560   2.504  0.00  0.00    -0.034 A 
ATOM      5  C4  UNL d   1       3.021   5.782   2.827  0.00  0.00     0.162 A 
ATOM      6  C5  UNL d   1       2.049   5.780   1.832  0.00  0.00     0.062 A 
ATOM      7  F   UNL d   1       0.765   5.994   2.152  0.00  0.00    -0.097 F 
ATOM      8  F1  UNL d   1       2.650   5.999   4.098  0.00  0.00    -0.096 F 
ATOM      9  I   UNL d   1       5.818   5.562   3.990  0.00  0.00    -0.060 I 
ATOM     10  F2  UNL d   1       5.989   5.121   0.824  0.00  0.00    -0.096 F 
ATOM     11  F3  UNL d   1       4.081   5.122  -1.098  0.00  0.00    -0.097 F 
ATOM     12  F4  UNL d   1       1.467   5.557  -0.447  0.00  0.00    -0.092 F 
ENDROOT
TORSDOF 0
ENDMDL
