MODEL 1
REMARK minimizedAffinity 13.0233698
REMARK minimizedRMSD -1
REMARK  0 active torsions:
REMARK  status: ('A' for Active; 'I' for Inactive)
ROOT
ATOM      1  C   UNL d   1       3.567   2.041  -4.183  0.00  0.00     0.124 A 
ATOM      2  C1  UNL d   1       3.737   1.499  -2.917  0.00  0.00     0.062 A 
ATOM      3  C2  UNL d   1       2.653   0.948  -2.240  0.00  0.00     0.162 A 
ATOM      4  C3  UNL d   1       1.389   0.934  -2.829  0.00  0.00    -0.034 A 
ATOM      5  C4  UNL d   1       1.225   1.481  -4.103  0.00  0.00     0.162 A 
ATOM      6  C5  UNL d   1       2.312   2.031  -4.775  0.00  0.00     0.062 A 
ATOM      7  F   UNL d   1       2.145   2.553  -5.999  0.00  0.00    -0.097 F 
ATOM      8  F1  UNL d   1       0.024   1.483  -4.698  0.00  0.00    -0.096 F 
ATOM      9  I   UNL d   1      -0.234   0.110  -1.820  0.00  0.00    -0.060 I 
ATOM     10  F2  UNL d   1       2.847   0.432  -1.017  0.00  0.00    -0.096 F 
ATOM     11  F3  UNL d   1       4.949   1.509  -2.342  0.00  0.00    -0.097 F 
ATOM     12  F4  UNL d   1       4.611   2.572  -4.832  0.00  0.00    -0.092 F 
ENDROOT
TORSDOF 0
ENDMDL
