MODEL 1
REMARK minimizedAffinity -4.65199137
REMARK minimizedRMSD -1
REMARK  0 active torsions:
REMARK  status: ('A' for Active; 'I' for Inactive)
ROOT
ATOM      1  C   UNL d   1       1.151  -1.828  -0.828  0.00  0.00     0.124 A 
ATOM      2  C1  UNL d   1      -0.024  -1.639  -0.114  0.00  0.00     0.062 A 
ATOM      3  C2  UNL d   1      -0.466  -0.351   0.179  0.00  0.00     0.162 A 
ATOM      4  C3  UNL d   1       0.269   0.757  -0.243  0.00  0.00    -0.034 A 
ATOM      5  C4  UNL d   1       1.450   0.558  -0.960  0.00  0.00     0.162 A 
ATOM      6  C5  UNL d   1       1.887  -0.730  -1.250  0.00  0.00     0.062 A 
ATOM      7  F   UNL d   1       3.022  -0.911  -1.940  0.00  0.00    -0.097 F 
ATOM      8  F1  UNL d   1       2.180   1.602  -1.380  0.00  0.00    -0.096 F 
ATOM      9  I   UNL d   1      -0.387   2.683   0.193  0.00  0.00    -0.060 I 
ATOM     10  F2  UNL d   1      -1.605  -0.198   0.870  0.00  0.00    -0.096 F 
ATOM     11  F3  UNL d   1      -0.737  -2.698   0.295  0.00  0.00    -0.097 F 
ATOM     12  F4  UNL d   1       1.573  -3.068  -1.108  0.00  0.00    -0.092 F 
ENDROOT
TORSDOF 0
ENDMDL
