MODEL 1
REMARK minimizedAffinity -5.54196072
REMARK minimizedRMSD -1
REMARK  0 active torsions:
REMARK  status: ('A' for Active; 'I' for Inactive)
ROOT
ATOM      1  C   UNL d   1       1.450  -1.345   2.377  0.00  0.00     0.023 A 
ATOM      2  C1  UNL d   1       2.037  -1.527   1.125  0.00  0.00     0.003 A 
ATOM      3  C2  UNL d   1       1.493  -0.904  -0.000  0.00  0.00     0.048 A 
ATOM      4  C3  UNL d   1       0.361  -0.101   0.134  0.00  0.00     0.023 A 
ATOM      5  C4  UNL d   1      -0.230   0.085   1.385  0.00  0.00     0.048 A 
ATOM      6  C5  UNL d   1       0.318  -0.540   2.507  0.00  0.00     0.003 A 
ATOM      7  I   UNL d   1      -0.452   0.826  -1.539  0.00  0.00    -0.146 I 
ENDROOT
TORSDOF 0
ENDMDL
