MODEL 1
REMARK minimizedAffinity 2.61346292
REMARK minimizedRMSD -1
REMARK  0 active torsions:
REMARK  status: ('A' for Active; 'I' for Inactive)
ROOT
ATOM      1  C   UNL d   1       0.611  -1.387   2.517  0.00  0.00     0.023 A 
ATOM      2  C1  UNL d   1       1.279  -1.630   1.317  0.00  0.00     0.003 A 
ATOM      3  C2  UNL d   1       0.989  -0.863   0.187  0.00  0.00     0.048 A 
ATOM      4  C3  UNL d   1       0.031   0.147   0.264  0.00  0.00     0.023 A 
ATOM      5  C4  UNL d   1      -0.639   0.395   1.463  0.00  0.00     0.048 A 
ATOM      6  C5  UNL d   1      -0.346  -0.375   2.590  0.00  0.00     0.003 A 
ATOM      7  I   UNL d   1      -0.403   1.291  -1.416  0.00  0.00    -0.146 I 
ENDROOT
TORSDOF 0
ENDMDL
