MODEL 1
REMARK minimizedAffinity -2.92711759
REMARK minimizedRMSD -1
REMARK  0 active torsions:
REMARK  status: ('A' for Active; 'I' for Inactive)
ROOT
ATOM      1  C   UNL d   1      -0.347   3.444  -2.346  0.00  0.00     0.023 A 
ATOM      2  C1  UNL d   1      -0.015   3.613  -1.002  0.00  0.00     0.003 A 
ATOM      3  C2  UNL d   1      -0.134   2.544  -0.112  0.00  0.00     0.048 A 
ATOM      4  C3  UNL d   1      -0.585   1.308  -0.573  0.00  0.00     0.023 A 
ATOM      5  C4  UNL d   1      -0.918   1.134  -1.917  0.00  0.00     0.048 A 
ATOM      6  C5  UNL d   1      -0.798   2.206  -2.803  0.00  0.00     0.003 A 
ATOM      7  I   UNL d   1      -0.764  -0.286   0.749  0.00  0.00    -0.146 I 
ENDROOT
TORSDOF 0
ENDMDL
