MODEL 1
REMARK minimizedAffinity -2.36162376
REMARK minimizedRMSD -1
REMARK  0 active torsions:
REMARK  status: ('A' for Active; 'I' for Inactive)
ROOT
ATOM      1  C   UNL d   1      -0.434   1.070  -1.541  0.00  0.00     0.023 A 
ATOM      2  C1  UNL d   1       0.194  -0.174  -1.612  0.00  0.00     0.003 A 
ATOM      3  C2  UNL d   1       0.561  -0.841  -0.441  0.00  0.00     0.048 A 
ATOM      4  C3  UNL d   1       0.296  -0.259   0.798  0.00  0.00     0.023 A 
ATOM      5  C4  UNL d   1      -0.333   0.985   0.874  0.00  0.00     0.048 A 
ATOM      6  C5  UNL d   1      -0.697   1.648  -0.299  0.00  0.00     0.003 A 
ATOM      7  I   UNL d   1       0.841  -1.249   2.542  0.00  0.00    -0.146 I 
ENDROOT
TORSDOF 0
ENDMDL
