MODEL 1
REMARK minimizedAffinity 0.750657618
REMARK minimizedRMSD -1
REMARK  0 active torsions:
REMARK  status: ('A' for Active; 'I' for Inactive)
ROOT
ATOM      1  C   UNL d   1      -0.229  -0.590   0.291  0.00  0.00     0.023 A 
ATOM      2  C1  UNL d   1       0.811   0.319   0.099  0.00  0.00     0.003 A 
ATOM      3  C2  UNL d   1       0.698   1.319  -0.870  0.00  0.00     0.048 A 
ATOM      4  C3  UNL d   1      -0.460   1.404  -1.643  0.00  0.00     0.023 A 
ATOM      5  C4  UNL d   1      -1.504   0.497  -1.454  0.00  0.00     0.048 A 
ATOM      6  C5  UNL d   1      -1.385  -0.501  -0.485  0.00  0.00     0.003 A 
ATOM      7  I   UNL d   1      -0.632   2.891  -3.085  0.00  0.00    -0.146 I 
ENDROOT
TORSDOF 0
ENDMDL
