MODEL 1
REMARK minimizedAffinity -1.64538383
REMARK minimizedRMSD -1
REMARK  0 active torsions:
REMARK  status: ('A' for Active; 'I' for Inactive)
ROOT
ATOM      1  C   UNL d   1       0.095  -1.168   1.450  0.00  0.00     0.023 A 
ATOM      2  C1  UNL d   1      -0.639  -0.002   1.664  0.00  0.00     0.003 A 
ATOM      3  C2  UNL d   1      -0.986   0.815   0.586  0.00  0.00     0.048 A 
ATOM      4  C3  UNL d   1      -0.595   0.459  -0.704  0.00  0.00     0.023 A 
ATOM      5  C4  UNL d   1       0.139  -0.708  -0.924  0.00  0.00     0.048 A 
ATOM      6  C5  UNL d   1       0.483  -1.521   0.157  0.00  0.00     0.003 A 
ATOM      7  I   UNL d   1      -1.110   1.673  -2.311  0.00  0.00    -0.146 I 
ENDROOT
TORSDOF 0
ENDMDL
