MODEL 1
REMARK minimizedAffinity -4.049788
REMARK minimizedRMSD -1
REMARK  0 active torsions:
REMARK  status: ('A' for Active; 'I' for Inactive)
ROOT
ATOM      1  C   UNL d   1       1.162  -0.733   2.482  0.00  0.00     0.023 A 
ATOM      2  C1  UNL d   1      -0.168  -0.392   2.236  0.00  0.00     0.003 A 
ATOM      3  C2  UNL d   1      -0.503   0.339   1.094  0.00  0.00     0.048 A 
ATOM      4  C3  UNL d   1       0.497   0.723   0.201  0.00  0.00     0.023 A 
ATOM      5  C4  UNL d   1       1.829   0.383   0.442  0.00  0.00     0.048 A 
ATOM      6  C5  UNL d   1       2.159  -0.347   1.586  0.00  0.00     0.003 A 
ATOM      7  I   UNL d   1       0.001   1.810  -1.500  0.00  0.00    -0.146 I 
ENDROOT
TORSDOF 0
ENDMDL
