MODEL 1
REMARK minimizedAffinity -1.55757391
REMARK minimizedRMSD -1
REMARK  0 active torsions:
REMARK  status: ('A' for Active; 'I' for Inactive)
ROOT
ATOM      1  C   UNL d   1      -0.377  -0.245   1.604  0.00  0.00     0.023 A 
ATOM      2  C1  UNL d   1      -0.461   1.146   1.658  0.00  0.00     0.003 A 
ATOM      3  C2  UNL d   1      -0.563   1.887   0.479  0.00  0.00     0.048 A 
ATOM      4  C3  UNL d   1      -0.581   1.230  -0.751  0.00  0.00     0.023 A 
ATOM      5  C4  UNL d   1      -0.498  -0.162  -0.810  0.00  0.00     0.048 A 
ATOM      6  C5  UNL d   1      -0.396  -0.898   0.372  0.00  0.00     0.003 A 
ATOM      7  I   UNL d   1      -0.733   2.331  -2.507  0.00  0.00    -0.146 I 
ENDROOT
TORSDOF 0
ENDMDL
