MODEL 1
REMARK minimizedAffinity -4.03035593
REMARK minimizedRMSD -1
REMARK  0 active torsions:
REMARK  status: ('A' for Active; 'I' for Inactive)
ROOT
ATOM      1  C   UNL d   1      -0.175   1.494  -1.463  0.00  0.00     0.023 A 
ATOM      2  C1  UNL d   1      -0.052   2.057  -0.193  0.00  0.00     0.003 A 
ATOM      3  C2  UNL d   1       0.180   1.240   0.915  0.00  0.00     0.048 A 
ATOM      4  C3  UNL d   1       0.290  -0.140   0.745  0.00  0.00     0.023 A 
ATOM      5  C4  UNL d   1       0.169  -0.708  -0.524  0.00  0.00     0.048 A 
ATOM      6  C5  UNL d   1      -0.065   0.114  -1.629  0.00  0.00     0.003 A 
ATOM      7  I   UNL d   1       0.637  -1.359   2.392  0.00  0.00    -0.146 I 
ENDROOT
TORSDOF 0
ENDMDL
