MODEL 1
REMARK minimizedAffinity -4.94274616
REMARK minimizedRMSD -1
REMARK  0 active torsions:
REMARK  status: ('A' for Active; 'I' for Inactive)
ROOT
ATOM      1  C   UNL d   1      -0.745  -0.330   2.152  0.00  0.00     0.023 A 
ATOM      2  C1  UNL d   1      -0.656  -0.093   0.781  0.00  0.00     0.003 A 
ATOM      3  C2  UNL d   1       0.383  -0.660   0.039  0.00  0.00     0.048 A 
ATOM      4  C3  UNL d   1       1.328  -1.464   0.675  0.00  0.00     0.023 A 
ATOM      5  C4  UNL d   1       1.242  -1.704   2.047  0.00  0.00     0.048 A 
ATOM      6  C5  UNL d   1       0.203  -1.135   2.785  0.00  0.00     0.003 A 
ATOM      7  I   UNL d   1       2.874  -2.309  -0.427  0.00  0.00    -0.146 I 
ENDROOT
TORSDOF 0
ENDMDL
