MODEL 1
REMARK minimizedAffinity -3.21259332
REMARK minimizedRMSD -1
REMARK  0 active torsions:
REMARK  status: ('A' for Active; 'I' for Inactive)
ROOT
ATOM      1  C   UNL d   1       2.433  -1.535   2.190  0.00  0.00     0.023 A 
ATOM      2  C1  UNL d   1       1.157  -1.682   2.735  0.00  0.00     0.003 A 
ATOM      3  C2  UNL d   1       0.060  -1.077   2.119  0.00  0.00     0.048 A 
ATOM      4  C3  UNL d   1       0.245  -0.327   0.958  0.00  0.00     0.023 A 
ATOM      5  C4  UNL d   1       1.520  -0.178   0.409  0.00  0.00     0.048 A 
ATOM      6  C5  UNL d   1       2.614  -0.784   1.029  0.00  0.00     0.003 A 
ATOM      7  I   UNL d   1      -1.386   0.575   0.039  0.00  0.00    -0.146 I 
ENDROOT
TORSDOF 0
ENDMDL
