MODEL 1
REMARK minimizedAffinity 14.3052673
REMARK minimizedRMSD -1
REMARK  1 active torsions:
REMARK  status: ('A' for Active; 'I' for Inactive)
REMARK    1  A    between atoms: C1_2  and  C2_3 
ROOT
ATOM      1  C2  UNL d   1       0.085  -3.092  -1.663  0.00  0.00    -0.076 A 
ATOM      2  C3  UNL d   1       0.482  -1.767  -1.416  0.00  0.00     0.004 A 
ATOM      3  C4  UNL d   1       1.539  -1.484  -0.552  0.00  0.00    -0.003 A 
ATOM      4  C5  UNL d   1       2.216  -2.522   0.077  0.00  0.00     0.000 A 
ATOM      5  C6  UNL d   1       1.848  -3.844  -0.170  0.00  0.00     0.000 A 
ATOM      6  C7  UNL d   1       0.795  -4.147  -1.051  0.00  0.00    -0.073 A 
ATOM      7  C8  UNL d   1       0.435  -5.590  -1.276  0.00  0.00     0.078 C 
ENDROOT
BRANCH   1   8
ATOM      8  C1  UNL d   1      -1.086  -3.337  -2.588  0.00  0.00     0.053 C 
ATOM      9  C   UNL d   1      -0.803  -2.897  -4.016  0.00  0.00     0.018 C 
ENDBRANCH   1   8
TORSDOF 1
ENDMDL
