MODEL 1
REMARK minimizedAffinity 12.3607855
REMARK minimizedRMSD -1
REMARK  1 active torsions:
REMARK  status: ('A' for Active; 'I' for Inactive)
REMARK    1  A    between atoms: C1_2  and  C2_3 
ROOT
ATOM      1  C2  UNL d   1       1.843  -0.569   3.685  0.00  0.00    -0.076 A 
ATOM      2  C3  UNL d   1       1.521  -0.057   4.954  0.00  0.00     0.004 A 
ATOM      3  C4  UNL d   1       1.159  -0.905   6.000  0.00  0.00    -0.003 A 
ATOM      4  C5  UNL d   1       1.114  -2.279   5.793  0.00  0.00     0.000 A 
ATOM      5  C6  UNL d   1       1.447  -2.806   4.546  0.00  0.00     0.000 A 
ATOM      6  C7  UNL d   1       1.830  -1.966   3.486  0.00  0.00    -0.073 A 
ATOM      7  C8  UNL d   1       2.173  -2.588   2.160  0.00  0.00     0.078 C 
ENDROOT
BRANCH   1   8
ATOM      8  C1  UNL d   1       2.201   0.401   2.583  0.00  0.00     0.053 C 
ATOM      9  C   UNL d   1       3.005   1.589   3.089  0.00  0.00     0.018 C 
ENDBRANCH   1   8
TORSDOF 1
ENDMDL
