MODEL 1
REMARK minimizedAffinity 3.9154346
REMARK minimizedRMSD -1
REMARK  1 active torsions:
REMARK  status: ('A' for Active; 'I' for Inactive)
REMARK    1  A    between atoms: C1_2  and  C2_3 
ROOT
ATOM      1  C2  UNL d   1      -0.274   4.364  -0.782  0.00  0.00    -0.076 A 
ATOM      2  C3  UNL d   1       0.002   3.903  -2.081  0.00  0.00     0.004 A 
ATOM      3  C4  UNL d   1      -0.616   4.474  -3.192  0.00  0.00    -0.003 A 
ATOM      4  C5  UNL d   1      -1.521   5.516  -3.023  0.00  0.00     0.000 A 
ATOM      5  C6  UNL d   1      -1.793   5.999  -1.743  0.00  0.00     0.000 A 
ATOM      6  C7  UNL d   1      -1.167   5.445  -0.613  0.00  0.00    -0.073 A 
ATOM      7  C8  UNL d   1      -1.503   6.000   0.744  0.00  0.00     0.078 C 
ENDROOT
BRANCH   1   8
ATOM      8  C1  UNL d   1       0.406   3.688   0.386  0.00  0.00     0.053 C 
ATOM      9  C   UNL d   1      -0.465   2.618   1.027  0.00  0.00     0.018 C 
ENDBRANCH   1   8
TORSDOF 1
ENDMDL
