MODEL 1
REMARK minimizedAffinity 3.79860282
REMARK minimizedRMSD -1
REMARK  1 active torsions:
REMARK  status: ('A' for Active; 'I' for Inactive)
REMARK    1  A    between atoms: C1_2  and  C2_3 
ROOT
ATOM      1  C2  UNL d   1       2.843  -3.925  -0.602  0.00  0.00    -0.076 A 
ATOM      2  C3  UNL d   1       2.813  -2.547  -0.328  0.00  0.00     0.004 A 
ATOM      3  C4  UNL d   1       3.980  -1.785  -0.348  0.00  0.00    -0.003 A 
ATOM      4  C5  UNL d   1       5.197  -2.390  -0.644  0.00  0.00     0.000 A 
ATOM      5  C6  UNL d   1       5.243  -3.753  -0.935  0.00  0.00     0.000 A 
ATOM      6  C7  UNL d   1       4.073  -4.532  -0.935  0.00  0.00    -0.073 A 
ATOM      7  C8  UNL d   1       4.182  -5.998  -1.251  0.00  0.00     0.078 C 
ENDROOT
BRANCH   1   8
ATOM      8  C1  UNL d   1       1.549  -4.705  -0.538  0.00  0.00     0.053 C 
ATOM      9  C   UNL d   1       0.374  -3.933  -1.118  0.00  0.00     0.018 C 
ENDBRANCH   1   8
TORSDOF 1
ENDMDL
