MODEL 1
REMARK minimizedAffinity 10.6305523
REMARK minimizedRMSD -1
REMARK  1 active torsions:
REMARK  status: ('A' for Active; 'I' for Inactive)
REMARK    1  A    between atoms: C1_2  and  C2_3 
ROOT
ATOM      1  C2  UNL d   1       0.279   2.660   1.416  0.00  0.00    -0.076 A 
ATOM      2  C3  UNL d   1      -1.065   2.249   1.375  0.00  0.00     0.004 A 
ATOM      3  C4  UNL d   1      -1.608   1.467   2.393  0.00  0.00    -0.003 A 
ATOM      4  C5  UNL d   1      -0.816   1.085   3.470  0.00  0.00     0.000 A 
ATOM      5  C6  UNL d   1       0.514   1.499   3.537  0.00  0.00     0.000 A 
ATOM      6  C7  UNL d   1       1.072   2.300   2.526  0.00  0.00    -0.073 A 
ATOM      7  C8  UNL d   1       2.514   2.713   2.646  0.00  0.00     0.078 C 
ENDROOT
BRANCH   1   8
ATOM      8  C1  UNL d   1       0.820   3.484   0.270  0.00  0.00     0.053 C 
ATOM      9  C   UNL d   1      -0.211   3.705  -0.826  0.00  0.00     0.018 C 
ENDBRANCH   1   8
TORSDOF 1
ENDMDL
