MODEL 1
REMARK minimizedAffinity 1.37254345
REMARK minimizedRMSD -1
REMARK  1 active torsions:
REMARK  status: ('A' for Active; 'I' for Inactive)
REMARK    1  A    between atoms: C1_2  and  C2_3 
ROOT
ATOM      1  C2  UNL d   1      -0.790   4.219  -0.211  0.00  0.00    -0.076 A 
ATOM      2  C3  UNL d   1      -0.513   3.829  -1.532  0.00  0.00     0.004 A 
ATOM      3  C4  UNL d   1      -1.074   4.506  -2.613  0.00  0.00    -0.003 A 
ATOM      4  C5  UNL d   1      -1.922   5.586  -2.390  0.00  0.00     0.000 A 
ATOM      5  C6  UNL d   1      -2.194   5.998  -1.086  0.00  0.00     0.000 A 
ATOM      6  C7  UNL d   1      -1.623   5.336   0.014  0.00  0.00    -0.073 A 
ATOM      7  C8  UNL d   1      -1.955   5.819   1.399  0.00  0.00     0.078 C 
ENDROOT
BRANCH   1   8
ATOM      8  C1  UNL d   1      -0.174   3.430   0.922  0.00  0.00     0.053 C 
ATOM      9  C   UNL d   1       0.792   2.362   0.431  0.00  0.00     0.018 C 
ENDBRANCH   1   8
TORSDOF 1
ENDMDL
