MODEL 1
REMARK minimizedAffinity 14.3376265
REMARK minimizedRMSD -1
REMARK  1 active torsions:
REMARK  status: ('A' for Active; 'I' for Inactive)
REMARK    1  A    between atoms: C1_2  and  C2_3 
ROOT
ATOM      1  C2  UNL d   1      -1.374  -4.124  -3.873  0.00  0.00    -0.076 A 
ATOM      2  C3  UNL d   1      -2.498  -4.857  -3.453  0.00  0.00     0.004 A 
ATOM      3  C4  UNL d   1      -3.104  -5.786  -4.296  0.00  0.00    -0.003 A 
ATOM      4  C5  UNL d   1      -2.595  -5.999  -5.573  0.00  0.00     0.000 A 
ATOM      5  C6  UNL d   1      -1.470  -5.294  -5.999  0.00  0.00     0.000 A 
ATOM      6  C7  UNL d   1      -0.838  -4.365  -5.156  0.00  0.00    -0.073 A 
ATOM      7  C8  UNL d   1       0.369  -3.628  -5.670  0.00  0.00     0.078 C 
ENDROOT
BRANCH   1   8
ATOM      8  C1  UNL d   1      -0.776  -3.109  -2.925  0.00  0.00     0.053 C 
ATOM      9  C   UNL d   1      -0.219  -3.749  -1.662  0.00  0.00     0.018 C 
ENDBRANCH   1   8
TORSDOF 1
ENDMDL
