MODEL 1
REMARK minimizedAffinity -0.550832033
REMARK minimizedRMSD -1
REMARK  1 active torsions:
REMARK  status: ('A' for Active; 'I' for Inactive)
REMARK    1  A    between atoms: C1_2  and  C2_3 
ROOT
ATOM      1  C2  UNL d   1       1.718   3.394   2.126  0.00  0.00    -0.076 A 
ATOM      2  C3  UNL d   1       2.236   4.020   0.978  0.00  0.00     0.004 A 
ATOM      3  C4  UNL d   1       1.407   4.357  -0.091  0.00  0.00    -0.003 A 
ATOM      4  C5  UNL d   1       0.047   4.075  -0.029  0.00  0.00     0.000 A 
ATOM      5  C6  UNL d   1      -0.487   3.471   1.109  0.00  0.00     0.000 A 
ATOM      6  C7  UNL d   1       0.332   3.139   2.202  0.00  0.00    -0.073 A 
ATOM      7  C8  UNL d   1      -0.296   2.483   3.401  0.00  0.00     0.078 C 
ENDROOT
BRANCH   1   8
ATOM      8  C1  UNL d   1       2.669   3.027   3.242  0.00  0.00     0.053 C 
ATOM      9  C   UNL d   1       3.190   1.604   3.120  0.00  0.00     0.018 C 
ENDBRANCH   1   8
TORSDOF 1
ENDMDL
