MODEL 1
REMARK minimizedAffinity -3.20348907
REMARK minimizedRMSD -1
REMARK  0 active torsions:
REMARK  status: ('A' for Active; 'I' for Inactive)
ROOT
ATOM      1  C1  DEN d   1       0.605  -1.985  -0.409  0.00  0.00     0.130 A 
ATOM      2  C2  DEN d   1       1.835  -2.448   0.229  0.00  0.00    -0.031 A 
ATOM      3  C3  DEN d   1       2.529  -1.272   0.790  0.00  0.00     0.027 A 
ATOM      4  C4  DEN d   1       1.822   1.208   0.737  0.00  0.00     0.027 A 
ATOM      5  C5  DEN d   1       0.862   2.092   0.298  0.00  0.00    -0.003 A 
ATOM      6  C6  DEN d   1      -0.225   1.688  -0.430  0.00  0.00     0.001 A 
ATOM      7  C7  DEN d   1      -0.402   0.357  -0.703  0.00  0.00     0.017 A 
ATOM      8  C8  DEN d   1       0.566  -0.540  -0.270  0.00  0.00    -0.094 A 
ATOM      9  C9  DEN d   1       1.652  -0.112   0.475  0.00  0.00    -0.072 A 
ENDROOT
TORSDOF 0
ENDMDL
