MODEL 1
REMARK minimizedAffinity -5.78214979
REMARK minimizedRMSD -1
REMARK  0 active torsions:
REMARK  status: ('A' for Active; 'I' for Inactive)
ROOT
ATOM      1  C1  DEN d   1       1.987  -1.803   0.258  0.00  0.00     0.130 A 
ATOM      2  C2  DEN d   1       2.765  -0.809   0.992  0.00  0.00    -0.031 A 
ATOM      3  C3  DEN d   1       1.989   0.448   1.019  0.00  0.00     0.027 A 
ATOM      4  C4  DEN d   1      -0.330   0.945   0.005  0.00  0.00     0.027 A 
ATOM      5  C5  DEN d   1      -1.374   0.417  -0.721  0.00  0.00    -0.003 A 
ATOM      6  C6  DEN d   1      -1.357  -0.867  -1.197  0.00  0.00     0.001 A 
ATOM      7  C7  DEN d   1      -0.292  -1.681  -0.914  0.00  0.00     0.017 A 
ATOM      8  C8  DEN d   1       0.768  -1.154  -0.188  0.00  0.00    -0.094 A 
ATOM      9  C9  DEN d   1       0.726   0.143   0.295  0.00  0.00    -0.072 A 
ENDROOT
TORSDOF 0
ENDMDL
