MODEL 1
REMARK minimizedAffinity -2.15280437
REMARK minimizedRMSD -1
REMARK  0 active torsions:
REMARK  status: ('A' for Active; 'I' for Inactive)
ROOT
ATOM      1  C1  DEN d   1      -1.093  -1.241  -0.324  0.00  0.00     0.130 A 
ATOM      2  C2  DEN d   1      -1.847   0.005  -0.219  0.00  0.00    -0.031 A 
ATOM      3  C3  DEN d   1      -0.887   1.125  -0.256  0.00  0.00     0.027 A 
ATOM      4  C4  DEN d   1       1.683   1.053  -0.470  0.00  0.00     0.027 A 
ATOM      5  C5  DEN d   1       2.777   0.224  -0.577  0.00  0.00    -0.003 A 
ATOM      6  C6  DEN d   1       2.663  -1.141  -0.573  0.00  0.00     0.001 A 
ATOM      7  C7  DEN d   1       1.422  -1.718  -0.505  0.00  0.00     0.017 A 
ATOM      8  C8  DEN d   1       0.314  -0.888  -0.390  0.00  0.00    -0.094 A 
ATOM      9  C9  DEN d   1       0.450   0.489  -0.408  0.00  0.00    -0.072 A 
ENDROOT
TORSDOF 0
ENDMDL
