MODEL 1
REMARK minimizedAffinity -5.93476677
REMARK minimizedRMSD -1
REMARK  0 active torsions:
REMARK  status: ('A' for Active; 'I' for Inactive)
ROOT
ATOM      1  C1  DEN d   1       1.691   1.864   0.345  0.00  0.00     0.130 A 
ATOM      2  C2  DEN d   1       0.414   2.197  -0.280  0.00  0.00    -0.031 A 
ATOM      3  C3  DEN d   1      -0.293   0.935  -0.575  0.00  0.00     0.027 A 
ATOM      4  C4  DEN d   1       0.461  -1.491  -0.124  0.00  0.00     0.027 A 
ATOM      5  C5  DEN d   1       1.475  -2.276   0.378  0.00  0.00    -0.003 A 
ATOM      6  C6  DEN d   1       2.637  -1.742   0.869  0.00  0.00     0.001 A 
ATOM      7  C7  DEN d   1       2.795  -0.382   0.910  0.00  0.00     0.017 A 
ATOM      8  C8  DEN d   1       1.780   0.416   0.399  0.00  0.00    -0.094 A 
ATOM      9  C9  DEN d   1       0.608  -0.142  -0.082  0.00  0.00    -0.072 A 
ENDROOT
TORSDOF 0
ENDMDL
