MODEL 1
REMARK minimizedAffinity -3.38912392
REMARK minimizedRMSD -1
REMARK  0 active torsions:
REMARK  status: ('A' for Active; 'I' for Inactive)
ROOT
ATOM      1  C1  DEN d   1       2.624   1.525   0.825  0.00  0.00     0.130 A 
ATOM      2  C2  DEN d   1       1.712   2.643   0.601  0.00  0.00    -0.031 A 
ATOM      3  C3  DEN d   1       0.422   2.095   0.137  0.00  0.00     0.027 A 
ATOM      4  C4  DEN d   1      -0.250  -0.365  -0.250  0.00  0.00     0.027 A 
ATOM      5  C5  DEN d   1       0.191  -1.670  -0.206  0.00  0.00    -0.003 A 
ATOM      6  C6  DEN d   1       1.474  -1.995   0.149  0.00  0.00     0.001 A 
ATOM      7  C7  DEN d   1       2.348  -1.007   0.518  0.00  0.00     0.017 A 
ATOM      8  C8  DEN d   1       1.913   0.311   0.469  0.00  0.00    -0.094 A 
ATOM      9  C9  DEN d   1       0.609   0.619   0.119  0.00  0.00    -0.072 A 
ENDROOT
TORSDOF 0
ENDMDL
