MODEL 1
REMARK minimizedAffinity -3.75275445
REMARK minimizedRMSD -1
REMARK  0 active torsions:
REMARK  status: ('A' for Active; 'I' for Inactive)
ROOT
ATOM      1  C1  DEN d   1       0.759  -2.130  -0.174  0.00  0.00     0.130 A 
ATOM      2  C2  DEN d   1       2.098  -2.385   0.348  0.00  0.00    -0.031 A 
ATOM      3  C3  DEN d   1       2.737  -1.082   0.623  0.00  0.00     0.027 A 
ATOM      4  C4  DEN d   1       1.785   1.293   0.297  0.00  0.00     0.027 A 
ATOM      5  C5  DEN d   1       0.693   2.015  -0.131  0.00  0.00    -0.003 A 
ATOM      6  C6  DEN d   1      -0.431   1.413  -0.630  0.00  0.00     0.001 A 
ATOM      7  C7  DEN d   1      -0.507   0.046  -0.673  0.00  0.00     0.017 A 
ATOM      8  C8  DEN d   1       0.593  -0.689  -0.250  0.00  0.00    -0.094 A 
ATOM      9  C9  DEN d   1       1.715  -0.062   0.263  0.00  0.00    -0.072 A 
ENDROOT
TORSDOF 0
ENDMDL
