MODEL 1
REMARK minimizedAffinity 3.88583827
REMARK minimizedRMSD -1
REMARK  0 active torsions:
REMARK  status: ('A' for Active; 'I' for Inactive)
ROOT
ATOM      1  C4' PXY d   1       3.985   0.192  -0.254  0.00  0.00     0.077 C 
ATOM      2  C1' PXY d   1       0.395  -4.266  -1.061  0.00  0.00     0.077 C 
ATOM      3  C1  PXY d   1       1.335  -3.098  -0.836  0.00  0.00    -0.082 A 
ATOM      4  C2  PXY d   1       1.537  -2.225  -1.809  0.00  0.00     0.003 A 
ATOM      5  C3  PXY d   1       2.408  -1.180  -1.634  0.00  0.00     0.003 A 
ATOM      6  C4  PXY d   1       3.038  -0.998  -0.433  0.00  0.00    -0.082 A 
ATOM      7  C5  PXY d   1       2.829  -1.878   0.569  0.00  0.00     0.003 A 
ATOM      8  C6  PXY d   1       1.972  -2.955   0.357  0.00  0.00     0.003 A 
ENDROOT
TORSDOF 0
ENDMDL
