MODEL 1
REMARK minimizedAffinity 5.29878044
REMARK minimizedRMSD -1
REMARK  0 active torsions:
REMARK  status: ('A' for Active; 'I' for Inactive)
ROOT
ATOM      1  C4' PXY d   1      -6.000   0.025  -5.065  0.00  0.00     0.077 C 
ATOM      2  C1' PXY d   1      -0.752   0.649  -2.722  0.00  0.00     0.077 C 
ATOM      3  C1  PXY d   1      -2.128   0.497  -3.342  0.00  0.00    -0.082 A 
ATOM      4  C2  PXY d   1      -3.000  -0.338  -2.801  0.00  0.00     0.003 A 
ATOM      5  C3  PXY d   1      -4.237  -0.511  -3.367  0.00  0.00     0.003 A 
ATOM      6  C4  PXY d   1      -4.603   0.217  -4.467  0.00  0.00    -0.082 A 
ATOM      7  C5  PXY d   1      -3.723   1.079  -5.018  0.00  0.00     0.003 A 
ATOM      8  C6  PXY d   1      -2.458   1.210  -4.452  0.00  0.00     0.003 A 
ENDROOT
TORSDOF 0
ENDMDL
