MODEL 1
REMARK minimizedAffinity 4.78299046
REMARK minimizedRMSD -1
REMARK  0 active torsions:
REMARK  status: ('A' for Active; 'I' for Inactive)
ROOT
ATOM      1  C4' PXY d   1      -0.968   0.941  -2.248  0.00  0.00     0.077 C 
ATOM      2  C1' PXY d   1      -5.683  -0.837  -5.079  0.00  0.00     0.077 C 
ATOM      3  C1  PXY d   1      -4.442  -0.366  -4.348  0.00  0.00    -0.082 A 
ATOM      4  C2  PXY d   1      -4.090  -0.950  -3.214  0.00  0.00     0.003 A 
ATOM      5  C3  PXY d   1      -2.988  -0.515  -2.523  0.00  0.00     0.003 A 
ATOM      6  C4  PXY d   1      -2.208   0.492  -3.025  0.00  0.00    -0.082 A 
ATOM      7  C5  PXY d   1      -2.554   1.085  -4.187  0.00  0.00     0.003 A 
ATOM      8  C6  PXY d   1      -3.700   0.657  -4.852  0.00  0.00     0.003 A 
ENDROOT
TORSDOF 0
ENDMDL
