MODEL 1
REMARK minimizedAffinity -0.664167881
REMARK minimizedRMSD -1
REMARK  0 active torsions:
REMARK  status: ('A' for Active; 'I' for Inactive)
ROOT
ATOM      1  C4' PXY d   1       5.999   5.680  -0.432  0.00  0.00     0.077 C 
ATOM      2  C1' PXY d   1       4.286   0.160  -0.371  0.00  0.00     0.077 C 
ATOM      3  C1  PXY d   1       4.738   1.607  -0.374  0.00  0.00    -0.082 A 
ATOM      4  C2  PXY d   1       4.305   2.425  -1.319  0.00  0.00     0.003 A 
ATOM      5  C3  PXY d   1       4.728   3.729  -1.356  0.00  0.00     0.003 A 
ATOM      6  C4  PXY d   1       5.562   4.214  -0.384  0.00  0.00    -0.082 A 
ATOM      7  C5  PXY d   1       6.000   3.388   0.590  0.00  0.00     0.003 A 
ATOM      8  C6  PXY d   1       5.591   2.058   0.586  0.00  0.00     0.003 A 
ENDROOT
TORSDOF 0
ENDMDL
