MODEL 1
REMARK minimizedAffinity 7.5180192
REMARK minimizedRMSD -1
REMARK  0 active torsions:
REMARK  status: ('A' for Active; 'I' for Inactive)
ROOT
ATOM      1  C4' PXY d   1       3.088  -2.520   1.189  0.00  0.00     0.077 C 
ATOM      2  C1' PXY d   1       4.983   1.952  -1.945  0.00  0.00     0.077 C 
ATOM      3  C1  PXY d   1       4.498   0.778  -1.117  0.00  0.00    -0.082 A 
ATOM      4  C2  PXY d   1       3.489   0.043  -1.554  0.00  0.00     0.003 A 
ATOM      5  C3  PXY d   1       3.016  -1.003  -0.803  0.00  0.00     0.003 A 
ATOM      6  C4  PXY d   1       3.617  -1.332   0.382  0.00  0.00    -0.082 A 
ATOM      7  C5  PXY d   1       4.654  -0.592   0.830  0.00  0.00     0.003 A 
ATOM      8  C6  PXY d   1       5.092   0.490   0.073  0.00  0.00     0.003 A 
ENDROOT
TORSDOF 0
ENDMDL
