MODEL 1
REMARK minimizedAffinity 8.82468414
REMARK minimizedRMSD -1
REMARK  0 active torsions:
REMARK  status: ('A' for Active; 'I' for Inactive)
ROOT
ATOM      1  C4' PXY d   1       1.720   0.138   2.130  0.00  0.00     0.077 C 
ATOM      2  C1' PXY d   1       5.589   1.615  -1.902  0.00  0.00     0.077 C 
ATOM      3  C1  PXY d   1       4.583   1.228  -0.836  0.00  0.00    -0.082 A 
ATOM      4  C2  PXY d   1       3.486   0.573  -1.178  0.00  0.00     0.003 A 
ATOM      5  C3  PXY d   1       2.551   0.243  -0.231  0.00  0.00     0.003 A 
ATOM      6  C4  PXY d   1       2.767   0.541   1.088  0.00  0.00    -0.082 A 
ATOM      7  C5  PXY d   1       3.889   1.200   1.447  0.00  0.00     0.003 A 
ATOM      8  C6  PXY d   1       4.806   1.562   0.464  0.00  0.00     0.003 A 
ENDROOT
TORSDOF 0
ENDMDL
