MODEL 1
REMARK minimizedAffinity 5.33225822
REMARK minimizedRMSD -1
REMARK  0 active torsions:
REMARK  status: ('A' for Active; 'I' for Inactive)
ROOT
ATOM      1  C4' PXY d   1       5.995   2.250  -1.499  0.00  0.00     0.077 C 
ATOM      2  C1' PXY d   1       3.292  -2.500   0.383  0.00  0.00     0.077 C 
ATOM      3  C1  PXY d   1       4.009  -1.255  -0.101  0.00  0.00    -0.082 A 
ATOM      4  C2  PXY d   1       3.356  -0.366  -0.831  0.00  0.00     0.003 A 
ATOM      5  C3  PXY d   1       3.998   0.750  -1.304  0.00  0.00     0.003 A 
ATOM      6  C4  PXY d   1       5.308   0.984  -0.981  0.00  0.00    -0.082 A 
ATOM      7  C5  PXY d   1       5.978   0.086  -0.228  0.00  0.00     0.003 A 
ATOM      8  C6  PXY d   1       5.320  -1.060   0.208  0.00  0.00     0.003 A 
ENDROOT
TORSDOF 0
ENDMDL
