MODEL 1
REMARK minimizedAffinity 13.9568138
REMARK minimizedRMSD -1
REMARK  0 active torsions:
REMARK  status: ('A' for Active; 'I' for Inactive)
ROOT
ATOM      1  C4' PXY d   1       2.000  -3.546  -0.654  0.00  0.00     0.077 C 
ATOM      2  C1' PXY d   1      -2.371  -5.621  -3.816  0.00  0.00     0.077 C 
ATOM      3  C1  PXY d   1      -1.230  -5.083  -2.976  0.00  0.00    -0.082 A 
ATOM      4  C2  PXY d   1      -0.587  -3.994  -3.367  0.00  0.00     0.003 A 
ATOM      5  C3  PXY d   1       0.468  -3.512  -2.636  0.00  0.00     0.003 A 
ATOM      6  C4  PXY d   1       0.835  -4.120  -1.465  0.00  0.00    -0.082 A 
ATOM      7  C5  PXY d   1       0.177  -5.225  -1.055  0.00  0.00     0.003 A 
ATOM      8  C6  PXY d   1      -0.865  -5.722  -1.832  0.00  0.00     0.003 A 
ENDROOT
TORSDOF 0
ENDMDL
