MODEL 1
REMARK minimizedAffinity 9.58356762
REMARK minimizedRMSD -1
REMARK  0 active torsions:
REMARK  status: ('A' for Active; 'I' for Inactive)
ROOT
ATOM      1  C4' PXY d   1       1.107   4.876   3.046  0.00  0.00     0.077 C 
ATOM      2  C1' PXY d   1      -1.907   0.791   0.282  0.00  0.00     0.077 C 
ATOM      3  C1  PXY d   1      -1.113   1.853   1.016  0.00  0.00    -0.082 A 
ATOM      4  C2  PXY d   1      -1.427   3.129   0.860  0.00  0.00     0.003 A 
ATOM      5  C3  PXY d   1      -0.700   4.105   1.491  0.00  0.00     0.003 A 
ATOM      6  C4  PXY d   1       0.327   3.769   2.332  0.00  0.00    -0.082 A 
ATOM      7  C5  PXY d   1       0.647   2.469   2.505  0.00  0.00     0.003 A 
ATOM      8  C6  PXY d   1      -0.077   1.496   1.823  0.00  0.00     0.003 A 
ENDROOT
TORSDOF 0
ENDMDL
