MODEL 1
REMARK minimizedAffinity 4.69492722
REMARK minimizedRMSD -1
REMARK  0 active torsions:
REMARK  status: ('A' for Active; 'I' for Inactive)
ROOT
ATOM      1  C4' PXY d   1       2.861  -2.472  -1.689  0.00  0.00     0.077 C 
ATOM      2  C1' PXY d   1       5.153   2.679  -0.414  0.00  0.00     0.077 C 
ATOM      3  C1  PXY d   1       4.547   1.328  -0.737  0.00  0.00    -0.082 A 
ATOM      4  C2  PXY d   1       5.093   0.573  -1.676  0.00  0.00     0.003 A 
ATOM      5  C3  PXY d   1       4.538  -0.638  -2.003  0.00  0.00     0.003 A 
ATOM      6  C4  PXY d   1       3.445  -1.105  -1.324  0.00  0.00    -0.082 A 
ATOM      7  C5  PXY d   1       2.888  -0.345  -0.357  0.00  0.00     0.003 A 
ATOM      8  C6  PXY d   1       3.441   0.899  -0.069  0.00  0.00     0.003 A 
ENDROOT
TORSDOF 0
ENDMDL
