MODEL 1
REMARK minimizedAffinity 11.5864859
REMARK minimizedRMSD -1
REMARK  0 active torsions:
REMARK  status: ('A' for Active; 'I' for Inactive)
ROOT
ATOM      1  C4' PXY d   1       3.498  -0.205   0.030  0.00  0.00     0.077 C 
ATOM      2  C1' PXY d   1      -1.786   1.815   1.216  0.00  0.00     0.077 C 
ATOM      3  C1  PXY d   1      -0.405   1.281   0.894  0.00  0.00    -0.082 A 
ATOM      4  C2  PXY d   1       0.447   1.035   1.876  0.00  0.00     0.003 A 
ATOM      5  C3  PXY d   1       1.712   0.582   1.600  0.00  0.00     0.003 A 
ATOM      6  C4  PXY d   1       2.090   0.327   0.309  0.00  0.00    -0.082 A 
ATOM      7  C5  PXY d   1       1.223   0.564  -0.698  0.00  0.00     0.003 A 
ATOM      8  C6  PXY d   1      -0.042   1.064  -0.400  0.00  0.00     0.003 A 
ENDROOT
TORSDOF 0
ENDMDL
