MODEL 1
REMARK minimizedAffinity 12.5251217
REMARK minimizedRMSD -1
REMARK  0 active torsions:
REMARK  status: ('A' for Active; 'I' for Inactive)
ROOT
ATOM      1  C4' PXY d   1       0.451   4.732   1.704  0.00  0.00     0.077 C 
ATOM      2  C1' PXY d   1      -3.377   0.433   1.183  0.00  0.00     0.077 C 
ATOM      3  C1  PXY d   1      -2.364   1.552   1.321  0.00  0.00    -0.082 A 
ATOM      4  C2  PXY d   1      -2.759   2.746   1.732  0.00  0.00     0.003 A 
ATOM      5  C3  PXY d   1      -1.861   3.777   1.832  0.00  0.00     0.003 A 
ATOM      6  C4  PXY d   1      -0.536   3.571   1.559  0.00  0.00    -0.082 A 
ATOM      7  C5  PXY d   1      -0.123   2.353   1.149  0.00  0.00     0.003 A 
ATOM      8  C6  PXY d   1      -1.057   1.330   1.015  0.00  0.00     0.003 A 
ENDROOT
TORSDOF 0
ENDMDL
