MODEL 1
REMARK minimizedAffinity 9.2461853
REMARK minimizedRMSD -1
REMARK  0 active torsions:
REMARK  status: ('A' for Active; 'I' for Inactive)
ROOT
ATOM      1  C4' PXY d   1       0.961  -0.344  -0.292  0.00  0.00     0.077 C 
ATOM      2  C1' PXY d   1      -1.514  -5.349  -1.788  0.00  0.00     0.077 C 
ATOM      3  C1  PXY d   1      -0.854  -4.043  -1.391  0.00  0.00    -0.082 A 
ATOM      4  C2  PXY d   1      -1.603  -2.981  -1.143  0.00  0.00     0.003 A 
ATOM      5  C3  PXY d   1      -1.022  -1.783  -0.814  0.00  0.00     0.003 A 
ATOM      6  C4  PXY d   1       0.338  -1.685  -0.686  0.00  0.00    -0.082 A 
ATOM      7  C5  PXY d   1       1.108  -2.767  -0.928  0.00  0.00     0.003 A 
ATOM      8  C6  PXY d   1       0.501  -3.963  -1.301  0.00  0.00     0.003 A 
ENDROOT
TORSDOF 0
ENDMDL
