MODEL 1
REMARK minimizedAffinity -1.74097991
REMARK minimizedRMSD -1
REMARK  1 active torsions:
REMARK  status: ('A' for Active; 'I' for Inactive)
REMARK    1  A    between atoms: N_2  and  C1_3 
ROOT
ATOM      1  C1  UNL d   1      -0.943  -0.438   0.345  0.00  0.00     0.143 A 
ATOM      2  C2  UNL d   1      -1.764  -1.485   0.778  0.00  0.00    -0.057 A 
ATOM      3  C3  UNL d   1      -1.816  -1.856   2.127  0.00  0.00     0.033 A 
ATOM      4  C4  UNL d   1      -1.022  -1.204   3.065  0.00  0.00    -0.042 A 
ATOM      5  C5  UNL d   1      -0.180  -0.177   2.653  0.00  0.00     0.033 A 
ATOM      6  C6  UNL d   1      -0.138   0.193   1.306  0.00  0.00    -0.057 A 
ENDROOT
BRANCH   1   7
ATOM      7  N   UNL d   1      -0.773  -0.087  -0.997  0.00  0.00    -0.732 N 
ATOM      8  C   UNL d   1       0.528   0.296  -1.500  0.00  0.00     0.284 C 
ATOM      9  H3  UNL d   1      -1.301  -0.688  -1.625  0.00  0.00     0.395 HD
ENDBRANCH   1   7
TORSDOF 1
ENDMDL
