MODEL 1
REMARK minimizedAffinity -4.19654274
REMARK minimizedRMSD -1
REMARK  1 active torsions:
REMARK  status: ('A' for Active; 'I' for Inactive)
REMARK    1  A    between atoms: N_2  and  C1_3 
ROOT
ATOM      1  C1  UNL d   1      -0.132  -0.045   1.056  0.00  0.00     0.143 A 
ATOM      2  C2  UNL d   1      -1.451  -0.072   0.592  0.00  0.00    -0.057 A 
ATOM      3  C3  UNL d   1      -1.765   0.281  -0.726  0.00  0.00     0.033 A 
ATOM      4  C4  UNL d   1      -0.764   0.696  -1.599  0.00  0.00    -0.042 A 
ATOM      5  C5  UNL d   1       0.551   0.754  -1.152  0.00  0.00     0.033 A 
ATOM      6  C6  UNL d   1       0.859   0.394   0.163  0.00  0.00    -0.057 A 
ENDROOT
BRANCH   1   7
ATOM      7  N   UNL d   1       0.231  -0.290   2.382  0.00  0.00    -0.732 N 
ATOM      8  C   UNL d   1      -0.635  -1.052   3.255  0.00  0.00     0.284 C 
ATOM      9  H3  UNL d   1       1.220  -0.511   2.480  0.00  0.00     0.395 HD
ENDBRANCH   1   7
TORSDOF 1
ENDMDL
