MODEL 1
REMARK minimizedAffinity -3.1118052
REMARK minimizedRMSD -1
REMARK  1 active torsions:
REMARK  status: ('A' for Active; 'I' for Inactive)
REMARK    1  A    between atoms: N_2  and  C1_3 
ROOT
ATOM      1  C1  UNL d   1      -0.275  -0.390   0.263  0.00  0.00     0.143 A 
ATOM      2  C2  UNL d   1       0.850   0.084   0.947  0.00  0.00    -0.057 A 
ATOM      3  C3  UNL d   1       0.869   0.164   2.345  0.00  0.00     0.033 A 
ATOM      4  C4  UNL d   1      -0.251  -0.203   3.084  0.00  0.00    -0.042 A 
ATOM      5  C5  UNL d   1      -1.388  -0.654   2.424  0.00  0.00     0.033 A 
ATOM      6  C6  UNL d   1      -1.399  -0.737   1.029  0.00  0.00    -0.057 A 
ENDROOT
BRANCH   1   7
ATOM      7  N   UNL d   1      -0.391  -0.400  -1.129  0.00  0.00    -0.732 N 
ATOM      8  C   UNL d   1       0.730  -0.028  -1.965  0.00  0.00     0.284 C 
ATOM      9  H3  UNL d   1      -0.914  -1.204  -1.469  0.00  0.00     0.395 HD
ENDBRANCH   1   7
TORSDOF 1
ENDMDL
