MODEL 1
REMARK minimizedAffinity -2.94195032
REMARK minimizedRMSD -1
REMARK  1 active torsions:
REMARK  status: ('A' for Active; 'I' for Inactive)
REMARK    1  A    between atoms: N_2  and  C1_3 
ROOT
ATOM      1  C1  UNL d   1       0.500  -1.623  -1.264  0.00  0.00     0.143 A 
ATOM      2  C2  UNL d   1      -0.255  -0.447  -1.205  0.00  0.00    -0.057 A 
ATOM      3  C3  UNL d   1      -0.394   0.268  -0.009  0.00  0.00     0.033 A 
ATOM      4  C4  UNL d   1       0.199  -0.198   1.160  0.00  0.00    -0.042 A 
ATOM      5  C5  UNL d   1       0.934  -1.378   1.130  0.00  0.00     0.033 A 
ATOM      6  C6  UNL d   1       1.074  -2.084  -0.069  0.00  0.00    -0.057 A 
ENDROOT
BRANCH   1   7
ATOM      7  N   UNL d   1       0.594  -2.431  -2.400  0.00  0.00    -0.732 N 
ATOM      8  C   UNL d   1       1.747  -2.349  -3.269  0.00  0.00     0.284 C 
ATOM      9  H3  UNL d   1       0.268  -3.380  -2.229  0.00  0.00     0.395 HD
ENDBRANCH   1   7
TORSDOF 1
ENDMDL
