MODEL 1
REMARK minimizedAffinity -4.09956646
REMARK minimizedRMSD -1
REMARK  1 active torsions:
REMARK  status: ('A' for Active; 'I' for Inactive)
REMARK    1  A    between atoms: N_2  and  C1_3 
ROOT
ATOM      1  C1  UNL d   1       0.072   0.137  -0.055  0.00  0.00     0.143 A 
ATOM      2  C2  UNL d   1       0.974   0.679   0.868  0.00  0.00    -0.057 A 
ATOM      3  C3  UNL d   1       0.849   0.425   2.240  0.00  0.00     0.033 A 
ATOM      4  C4  UNL d   1      -0.199  -0.355   2.716  0.00  0.00    -0.042 A 
ATOM      5  C5  UNL d   1      -1.122  -0.883   1.820  0.00  0.00     0.033 A 
ATOM      6  C6  UNL d   1      -0.988  -0.631   0.451  0.00  0.00    -0.057 A 
ENDROOT
BRANCH   1   7
ATOM      7  N   UNL d   1       0.085   0.433  -1.420  0.00  0.00    -0.732 N 
ATOM      8  C   UNL d   1       0.203  -0.623  -2.402  0.00  0.00     0.284 C 
ATOM      9  H3  UNL d   1      -0.587   1.157  -1.666  0.00  0.00     0.395 HD
ENDBRANCH   1   7
TORSDOF 1
ENDMDL
