MODEL 1
REMARK minimizedAffinity -2.8194952
REMARK minimizedRMSD -1
REMARK  1 active torsions:
REMARK  status: ('A' for Active; 'I' for Inactive)
REMARK    1  A    between atoms: N_2  and  C1_3 
ROOT
ATOM      1  C1  UNL d   1       0.545  -0.096  -0.010  0.00  0.00     0.143 A 
ATOM      2  C2  UNL d   1      -0.791  -0.370   0.303  0.00  0.00    -0.057 A 
ATOM      3  C3  UNL d   1      -1.226  -0.431   1.633  0.00  0.00     0.033 A 
ATOM      4  C4  UNL d   1      -0.324  -0.248   2.676  0.00  0.00    -0.042 A 
ATOM      5  C5  UNL d   1       1.013   0.000   2.388  0.00  0.00     0.033 A 
ATOM      6  C6  UNL d   1       1.441   0.067   1.058  0.00  0.00    -0.057 A 
ENDROOT
BRANCH   1   7
ATOM      7  N   UNL d   1       1.060  -0.119  -1.309  0.00  0.00    -0.732 N 
ATOM      8  C   UNL d   1       0.203  -0.423  -2.436  0.00  0.00     0.284 C 
ATOM      9  H3  UNL d   1       1.718   0.637  -1.479  0.00  0.00     0.395 HD
ENDBRANCH   1   7
TORSDOF 1
ENDMDL
