MODEL 1
REMARK minimizedAffinity -4.15411758
REMARK minimizedRMSD -1
REMARK  1 active torsions:
REMARK  status: ('A' for Active; 'I' for Inactive)
REMARK    1  A    between atoms: N_2  and  C1_3 
ROOT
ATOM      1  C1  UNL d   1      -0.052   0.065   0.185  0.00  0.00     0.143 A 
ATOM      2  C2  UNL d   1       0.723   0.625   1.206  0.00  0.00    -0.057 A 
ATOM      3  C3  UNL d   1       0.455   0.353   2.553  0.00  0.00     0.033 A 
ATOM      4  C4  UNL d   1      -0.615  -0.464   2.905  0.00  0.00    -0.042 A 
ATOM      5  C5  UNL d   1      -1.414  -1.011   1.907  0.00  0.00     0.033 A 
ATOM      6  C6  UNL d   1      -1.137  -0.741   0.563  0.00  0.00    -0.057 A 
ENDROOT
BRANCH   1   7
ATOM      7  N   UNL d   1       0.103   0.376  -1.168  0.00  0.00    -0.732 N 
ATOM      8  C   UNL d   1       0.226  -0.674  -2.156  0.00  0.00     0.284 C 
ATOM      9  H3  UNL d   1      -0.487   1.153  -1.458  0.00  0.00     0.395 HD
ENDBRANCH   1   7
TORSDOF 1
ENDMDL
