MODEL 1
REMARK minimizedAffinity -4.34101057
REMARK minimizedRMSD -1
REMARK  1 active torsions:
REMARK  status: ('A' for Active; 'I' for Inactive)
REMARK    1  A    between atoms: N_2  and  C1_3 
ROOT
ATOM      1  C1  UNL d   1      -0.223  -0.071   0.174  0.00  0.00     0.143 A 
ATOM      2  C2  UNL d   1       0.707  -0.204   1.210  0.00  0.00    -0.057 A 
ATOM      3  C3  UNL d   1       0.298  -0.453   2.526  0.00  0.00     0.033 A 
ATOM      4  C4  UNL d   1      -1.055  -0.546   2.833  0.00  0.00    -0.042 A 
ATOM      5  C5  UNL d   1      -1.999  -0.392   1.824  0.00  0.00     0.033 A 
ATOM      6  C6  UNL d   1      -1.583  -0.150   0.511  0.00  0.00    -0.057 A 
ENDROOT
BRANCH   1   7
ATOM      7  N   UNL d   1       0.117   0.276  -1.136  0.00  0.00    -0.732 N 
ATOM      8  C   UNL d   1       0.397  -0.748  -2.120  0.00  0.00     0.284 C 
ATOM      9  H3  UNL d   1      -0.440   1.051  -1.490  0.00  0.00     0.395 HD
ENDBRANCH   1   7
TORSDOF 1
ENDMDL
