MODEL 1
REMARK minimizedAffinity -4.03221846
REMARK minimizedRMSD -1
REMARK  1 active torsions:
REMARK  status: ('A' for Active; 'I' for Inactive)
REMARK    1  A    between atoms: N_2  and  C1_3 
ROOT
ATOM      1  C1  UNL d   1       0.077   0.098  -0.050  0.00  0.00     0.143 A 
ATOM      2  C2  UNL d   1      -1.099  -0.470   0.453  0.00  0.00    -0.057 A 
ATOM      3  C3  UNL d   1      -1.256  -0.722   1.821  0.00  0.00     0.033 A 
ATOM      4  C4  UNL d   1      -0.225  -0.436   2.710  0.00  0.00    -0.042 A 
ATOM      5  C5  UNL d   1       0.962   0.106   2.230  0.00  0.00     0.033 A 
ATOM      6  C6  UNL d   1       1.110   0.361   0.864  0.00  0.00    -0.057 A 
ENDROOT
BRANCH   1   7
ATOM      7  N   UNL d   1       0.332   0.282  -1.411  0.00  0.00    -0.732 N 
ATOM      8  C   UNL d   1       0.757  -0.828  -2.237  0.00  0.00     0.284 C 
ATOM      9  H3  UNL d   1      -0.348   0.894  -1.855  0.00  0.00     0.395 HD
ENDBRANCH   1   7
TORSDOF 1
ENDMDL
