MODEL 1
REMARK minimizedAffinity -4.66517448
REMARK minimizedRMSD -1
REMARK  1 active torsions:
REMARK  status: ('A' for Active; 'I' for Inactive)
REMARK    1  A    between atoms: N_2  and  C1_3 
ROOT
ATOM      1  C1  UNL d   1       0.128  -0.042  -1.101  0.00  0.00     0.143 A 
ATOM      2  C2  UNL d   1      -0.448  -0.877  -0.138  0.00  0.00    -0.057 A 
ATOM      3  C3  UNL d   1      -0.232  -0.665   1.229  0.00  0.00     0.033 A 
ATOM      4  C4  UNL d   1       0.591   0.372   1.657  0.00  0.00    -0.042 A 
ATOM      5  C5  UNL d   1       1.194   1.199   0.716  0.00  0.00     0.033 A 
ATOM      6  C6  UNL d   1       0.969   0.986  -0.647  0.00  0.00    -0.057 A 
ENDROOT
BRANCH   1   7
ATOM      7  N   UNL d   1       0.030  -0.260  -2.478  0.00  0.00    -0.732 N 
ATOM      8  C   UNL d   1       0.339  -1.556  -3.042  0.00  0.00     0.284 C 
ATOM      9  H3  UNL d   1      -0.789   0.187  -2.884  0.00  0.00     0.395 HD
ENDBRANCH   1   7
TORSDOF 1
ENDMDL
