MODEL 1
REMARK minimizedAffinity -3.32453346
REMARK minimizedRMSD -1
REMARK  1 active torsions:
REMARK  status: ('A' for Active; 'I' for Inactive)
REMARK    1  A    between atoms: N_2  and  C1_3 
ROOT
ATOM      1  C1  UNL d   1      -0.096   0.011   0.164  0.00  0.00     0.143 A 
ATOM      2  C2  UNL d   1       0.842   0.484   1.088  0.00  0.00    -0.057 A 
ATOM      3  C3  UNL d   1       0.718   0.206   2.455  0.00  0.00     0.033 A 
ATOM      4  C4  UNL d   1      -0.365  -0.529   2.926  0.00  0.00    -0.042 A 
ATOM      5  C5  UNL d   1      -1.322  -0.988   2.029  0.00  0.00     0.033 A 
ATOM      6  C6  UNL d   1      -1.190  -0.712   0.664  0.00  0.00    -0.057 A 
ENDROOT
BRANCH   1   7
ATOM      7  N   UNL d   1      -0.082   0.337  -1.195  0.00  0.00    -0.732 N 
ATOM      8  C   UNL d   1       0.613  -0.503  -2.147  0.00  0.00     0.284 C 
ATOM      9  H3  UNL d   1      -0.982   0.679  -1.521  0.00  0.00     0.395 HD
ENDBRANCH   1   7
TORSDOF 1
ENDMDL
