MODEL 1
REMARK minimizedAffinity -3.70648503
REMARK minimizedRMSD -1
REMARK  1 active torsions:
REMARK  status: ('A' for Active; 'I' for Inactive)
REMARK    1  A    between atoms: N_2  and  C1_3 
ROOT
ATOM      1  C1  UNL d   1       0.423  -0.053   0.494  0.00  0.00     0.143 A 
ATOM      2  C2  UNL d   1       0.635   0.774   1.603  0.00  0.00    -0.057 A 
ATOM      3  C3  UNL d   1       0.137   0.435   2.867  0.00  0.00     0.033 A 
ATOM      4  C4  UNL d   1      -0.609  -0.727   3.038  0.00  0.00    -0.042 A 
ATOM      5  C5  UNL d   1      -0.853  -1.550   1.945  0.00  0.00     0.033 A 
ATOM      6  C6  UNL d   1      -0.348  -1.210   0.687  0.00  0.00    -0.057 A 
ENDROOT
BRANCH   1   7
ATOM      7  N   UNL d   1       0.808   0.278  -0.808  0.00  0.00    -0.732 N 
ATOM      8  C   UNL d   1       0.820  -0.725  -1.851  0.00  0.00     0.284 C 
ATOM      9  H3  UNL d   1       0.443   1.181  -1.103  0.00  0.00     0.395 HD
ENDBRANCH   1   7
TORSDOF 1
ENDMDL
