MODEL 1
REMARK minimizedAffinity -3.47162318
REMARK minimizedRMSD -1
REMARK  1 active torsions:
REMARK  status: ('A' for Active; 'I' for Inactive)
REMARK    1  A    between atoms: N_2  and  C1_3 
ROOT
ATOM      1  C1  UNL d   1       0.121  -0.179  -0.568  0.00  0.00     0.143 A 
ATOM      2  C2  UNL d   1       0.952   0.679   0.161  0.00  0.00    -0.057 A 
ATOM      3  C3  UNL d   1       0.907   0.720   1.560  0.00  0.00     0.033 A 
ATOM      4  C4  UNL d   1       0.007  -0.080   2.256  0.00  0.00    -0.042 A 
ATOM      5  C5  UNL d   1      -0.846  -0.923   1.552  0.00  0.00     0.033 A 
ATOM      6  C6  UNL d   1      -0.792  -0.963   0.155  0.00  0.00    -0.057 A 
ENDROOT
BRANCH   1   7
ATOM      7  N   UNL d   1       0.050  -0.193  -1.963  0.00  0.00    -0.732 N 
ATOM      8  C   UNL d   1       0.526  -1.335  -2.713  0.00  0.00     0.284 C 
ATOM      9  H3  UNL d   1      -0.822   0.199  -2.311  0.00  0.00     0.395 HD
ENDBRANCH   1   7
TORSDOF 1
ENDMDL
