MODEL 1
REMARK minimizedAffinity -0.530044973
REMARK minimizedRMSD -1
REMARK  1 active torsions:
REMARK  status: ('A' for Active; 'I' for Inactive)
REMARK    1  A    between atoms: N_2  and  C1_3 
ROOT
ATOM      1  C1  UNL d   1      -0.603   0.210   1.699  0.00  0.00     0.143 A 
ATOM      2  C2  UNL d   1      -1.809   0.507   1.055  0.00  0.00    -0.057 A 
ATOM      3  C3  UNL d   1      -1.943   0.376  -0.333  0.00  0.00     0.033 A 
ATOM      4  C4  UNL d   1      -0.860  -0.028  -1.107  0.00  0.00    -0.042 A 
ATOM      5  C5  UNL d   1       0.355  -0.304  -0.491  0.00  0.00     0.033 A 
ATOM      6  C6  UNL d   1       0.481  -0.178   0.895  0.00  0.00    -0.057 A 
ENDROOT
BRANCH   1   7
ATOM      7  N   UNL d   1      -0.378   0.415   3.062  0.00  0.00    -0.732 N 
ATOM      8  C   UNL d   1       0.066   1.703   3.551  0.00  0.00     0.284 C 
ATOM      9  H3  UNL d   1      -1.086  -0.028   3.643  0.00  0.00     0.395 HD
ENDBRANCH   1   7
TORSDOF 1
ENDMDL
