MODEL 1
REMARK minimizedAffinity 2.45732665
REMARK minimizedRMSD -1
REMARK  0 active torsions:
REMARK  status: ('A' for Active; 'I' for Inactive)
ROOT
ATOM      1  C   UNL d   1       1.665  -4.036  -4.234  0.00  0.00     0.172 C 
ATOM      2  N   UNL d   1       1.624  -4.094  -2.791  0.00  0.00    -0.070 N 
ATOM      3  C1  UNL d   1       2.704  -3.980  -1.957  0.00  0.00    -0.004 A 
ATOM      4  C2  UNL d   1       2.249  -4.087  -0.661  0.00  0.00    -0.047 A 
ATOM      5  C3  UNL d   1       0.847  -4.273  -0.718  0.00  0.00    -0.047 A 
ATOM      6  C4  UNL d   1       0.487  -4.273  -2.049  0.00  0.00    -0.004 A 
ENDROOT
TORSDOF 0
ENDMDL
