MODEL 1
REMARK minimizedAffinity 10.7967081
REMARK minimizedRMSD -1
REMARK  0 active torsions:
REMARK  status: ('A' for Active; 'I' for Inactive)
ROOT
ATOM      1  C   UNL d   1       0.215   0.420   3.776  0.00  0.00     0.172 C 
ATOM      2  N   UNL d   1       0.781  -0.846   4.179  0.00  0.00    -0.070 N 
ATOM      3  C1  UNL d   1       0.390  -1.587   5.263  0.00  0.00    -0.004 A 
ATOM      4  C2  UNL d   1       1.171  -2.721   5.303  0.00  0.00    -0.047 A 
ATOM      5  C3  UNL d   1       2.063  -2.660   4.206  0.00  0.00    -0.047 A 
ATOM      6  C4  UNL d   1       1.800  -1.489   3.528  0.00  0.00    -0.004 A 
ENDROOT
TORSDOF 0
ENDMDL
