MODEL 1
REMARK minimizedAffinity 7.15442753
REMARK minimizedRMSD -1
REMARK  0 active torsions:
REMARK  status: ('A' for Active; 'I' for Inactive)
ROOT
ATOM      1  C   UNL d   1       3.943   6.000  -0.751  0.00  0.00     0.172 C 
ATOM      2  N   UNL d   1       3.017   5.113  -1.416  0.00  0.00    -0.070 N 
ATOM      3  C1  UNL d   1       2.717   5.129  -2.752  0.00  0.00    -0.004 A 
ATOM      4  C2  UNL d   1       1.797   4.131  -2.989  0.00  0.00    -0.047 A 
ATOM      5  C3  UNL d   1       1.534   3.494  -1.753  0.00  0.00    -0.047 A 
ATOM      6  C4  UNL d   1       2.303   4.122  -0.796  0.00  0.00    -0.004 A 
ENDROOT
TORSDOF 0
ENDMDL
