MODEL 1
REMARK minimizedAffinity 7.99679995
REMARK minimizedRMSD -1
REMARK  0 active torsions:
REMARK  status: ('A' for Active; 'I' for Inactive)
ROOT
ATOM      1  C   UNL d   1       1.679   4.282  -1.796  0.00  0.00     0.172 C 
ATOM      2  N   UNL d   1       0.802   3.533  -0.927  0.00  0.00    -0.070 N 
ATOM      3  C1  UNL d   1      -0.566   3.514  -0.998  0.00  0.00    -0.004 A 
ATOM      4  C2  UNL d   1      -1.028   2.683  -0.000  0.00  0.00    -0.047 A 
ATOM      5  C3  UNL d   1       0.100   2.186   0.694  0.00  0.00    -0.047 A 
ATOM      6  C4  UNL d   1       1.220   2.728   0.099  0.00  0.00    -0.004 A 
ENDROOT
TORSDOF 0
ENDMDL
