MODEL 1
REMARK minimizedAffinity 4.15601683
REMARK minimizedRMSD -1
REMARK  0 active torsions:
REMARK  status: ('A' for Active; 'I' for Inactive)
ROOT
ATOM      1  C   UNL d   1       0.260   1.363   3.042  0.00  0.00     0.172 C 
ATOM      2  N   UNL d   1      -0.060   2.077   1.828  0.00  0.00    -0.070 N 
ATOM      3  C1  UNL d   1      -1.311   2.484   1.447  0.00  0.00    -0.004 A 
ATOM      4  C2  UNL d   1      -1.194   3.128   0.235  0.00  0.00    -0.047 A 
ATOM      5  C3  UNL d   1       0.174   3.107  -0.126  0.00  0.00    -0.047 A 
ATOM      6  C4  UNL d   1       0.854   2.450   0.878  0.00  0.00    -0.004 A 
ENDROOT
TORSDOF 0
ENDMDL
