MODEL 1
REMARK minimizedAffinity 14.9617748
REMARK minimizedRMSD -1
REMARK  0 active torsions:
REMARK  status: ('A' for Active; 'I' for Inactive)
ROOT
ATOM      1  C   UNL d   1      -2.542  -3.042   6.000  0.00  0.00     0.172 C 
ATOM      2  N   UNL d   1      -1.553  -2.151   5.441  0.00  0.00    -0.070 N 
ATOM      3  C1  UNL d   1      -0.337  -1.856   5.999  0.00  0.00    -0.004 A 
ATOM      4  C2  UNL d   1       0.308  -0.972   5.162  0.00  0.00    -0.047 A 
ATOM      5  C3  UNL d   1      -0.549  -0.726   4.063  0.00  0.00    -0.047 A 
ATOM      6  C4  UNL d   1      -1.694  -1.469   4.262  0.00  0.00    -0.004 A 
ENDROOT
TORSDOF 0
ENDMDL
