MODEL 1
REMARK minimizedAffinity 7.38843918
REMARK minimizedRMSD -1
REMARK  0 active torsions:
REMARK  status: ('A' for Active; 'I' for Inactive)
ROOT
ATOM      1  C   UNL d   1       1.971   5.997  -3.918  0.00  0.00     0.172 C 
ATOM      2  N   UNL d   1       1.869   4.924  -2.957  0.00  0.00    -0.070 N 
ATOM      3  C1  UNL d   1       1.144   3.774  -3.118  0.00  0.00    -0.004 A 
ATOM      4  C2  UNL d   1       1.305   3.010  -1.982  0.00  0.00    -0.047 A 
ATOM      5  C3  UNL d   1       2.155   3.728  -1.107  0.00  0.00    -0.047 A 
ATOM      6  C4  UNL d   1       2.489   4.909  -1.735  0.00  0.00    -0.004 A 
ENDROOT
TORSDOF 0
ENDMDL
