MODEL 1
REMARK minimizedAffinity 10.1885281
REMARK minimizedRMSD -1
REMARK  0 active torsions:
REMARK  status: ('A' for Active; 'I' for Inactive)
ROOT
ATOM      1  C   UNL d   1      -1.666  -4.267  -4.204  0.00  0.00     0.172 C 
ATOM      2  N   UNL d   1      -2.899  -4.446  -4.934  0.00  0.00    -0.070 N 
ATOM      3  C1  UNL d   1      -3.424  -5.646  -5.333  0.00  0.00    -0.004 A 
ATOM      4  C2  UNL d   1      -4.604  -5.391  -5.998  0.00  0.00    -0.047 A 
ATOM      5  C3  UNL d   1      -4.794  -3.989  -6.000  0.00  0.00    -0.047 A 
ATOM      6  C4  UNL d   1      -3.724  -3.428  -5.335  0.00  0.00    -0.004 A 
ENDROOT
TORSDOF 0
ENDMDL
