MODEL 1
REMARK minimizedAffinity 3.4470222
REMARK minimizedRMSD -1
REMARK  1 active torsions:
REMARK  status: ('A' for Active; 'I' for Inactive)
REMARK    1  A    between atoms: C1_2  and  C2_3 
ROOT
ATOM      1  C2  UNL d   1       1.868  -0.174   2.647  0.00  0.00    -0.073 A 
ATOM      2  C3  UNL d   1       3.108   0.288   2.189  0.00  0.00    -0.002 A 
ATOM      3  C4  UNL d   1       3.352   1.657   2.078  0.00  0.00     0.004 A 
ATOM      4  C5  UNL d   1       2.364   2.578   2.428  0.00  0.00    -0.004 A 
ATOM      5  C6  UNL d   1       1.124   2.136   2.899  0.00  0.00    -0.075 A 
ATOM      6  C7  UNL d   1       0.050   3.113   3.278  0.00  0.00     0.076 C 
ATOM      7  C8  UNL d   1       0.885   0.759   3.005  0.00  0.00     0.001 A 
ENDROOT
BRANCH   1   8
ATOM      8  C1  UNL d   1       1.602  -1.652   2.775  0.00  0.00     0.053 C 
ATOM      9  C   UNL d   1       2.119  -2.212   4.091  0.00  0.00     0.018 C 
ENDBRANCH   1   8
TORSDOF 1
ENDMDL
