MODEL 1
REMARK minimizedAffinity 10.9474497
REMARK minimizedRMSD -1
REMARK  1 active torsions:
REMARK  status: ('A' for Active; 'I' for Inactive)
REMARK    1  A    between atoms: C1_2  and  C2_3 
ROOT
ATOM      1  C2  UNL d   1      -2.866   5.005  -0.618  0.00  0.00    -0.073 A 
ATOM      2  C3  UNL d   1      -3.244   3.755  -0.115  0.00  0.00    -0.002 A 
ATOM      3  C4  UNL d   1      -4.511   3.238  -0.390  0.00  0.00     0.004 A 
ATOM      4  C5  UNL d   1      -5.408   3.962  -1.175  0.00  0.00    -0.004 A 
ATOM      5  C6  UNL d   1      -5.045   5.207  -1.696  0.00  0.00    -0.075 A 
ATOM      6  C7  UNL d   1      -6.000   5.999  -2.541  0.00  0.00     0.076 C 
ATOM      7  C8  UNL d   1      -3.772   5.720  -1.414  0.00  0.00     0.001 A 
ENDROOT
BRANCH   1   8
ATOM      8  C1  UNL d   1      -1.496   5.564  -0.330  0.00  0.00     0.053 C 
ATOM      9  C   UNL d   1      -0.990   5.151   1.044  0.00  0.00     0.018 C 
ENDBRANCH   1   8
TORSDOF 1
ENDMDL
