MODEL 1
REMARK minimizedAffinity 4.93737459
REMARK minimizedRMSD -1
REMARK  1 active torsions:
REMARK  status: ('A' for Active; 'I' for Inactive)
REMARK    1  A    between atoms: C1_2  and  C2_3 
ROOT
ATOM      1  C2  UNL d   1       1.093  -0.849   3.921  0.00  0.00    -0.073 A 
ATOM      2  C3  UNL d   1       1.124  -1.981   4.744  0.00  0.00    -0.002 A 
ATOM      3  C4  UNL d   1       2.078  -2.090   5.756  0.00  0.00     0.004 A 
ATOM      4  C5  UNL d   1       3.005  -1.068   5.961  0.00  0.00    -0.004 A 
ATOM      5  C6  UNL d   1       2.982   0.076   5.157  0.00  0.00    -0.075 A 
ATOM      6  C7  UNL d   1       3.974   1.183   5.363  0.00  0.00     0.076 C 
ATOM      7  C8  UNL d   1       2.023   0.177   4.140  0.00  0.00     0.001 A 
ENDROOT
BRANCH   1   8
ATOM      8  C1  UNL d   1       0.061  -0.724   2.830  0.00  0.00     0.053 C 
ATOM      9  C   UNL d   1      -0.416   0.710   2.658  0.00  0.00     0.018 C 
ENDBRANCH   1   8
TORSDOF 1
ENDMDL
