MODEL 1
REMARK minimizedAffinity 15.5790586
REMARK minimizedRMSD -1
REMARK  1 active torsions:
REMARK  status: ('A' for Active; 'I' for Inactive)
REMARK    1  A    between atoms: C1_2  and  C2_3 
ROOT
ATOM      1  C2  UNL d   1       1.911  -1.296   3.379  0.00  0.00    -0.073 A 
ATOM      2  C3  UNL d   1       1.610  -0.011   3.844  0.00  0.00    -0.002 A 
ATOM      3  C4  UNL d   1       0.816   0.846   3.081  0.00  0.00     0.004 A 
ATOM      4  C5  UNL d   1       0.309   0.426   1.851  0.00  0.00    -0.004 A 
ATOM      5  C6  UNL d   1       0.589  -0.859   1.375  0.00  0.00    -0.075 A 
ATOM      6  C7  UNL d   1       0.054  -1.326   0.054  0.00  0.00     0.076 C 
ATOM      7  C8  UNL d   1       1.390  -1.713   2.146  0.00  0.00     0.001 A 
ENDROOT
BRANCH   1   8
ATOM      8  C1  UNL d   1       2.763  -2.228   4.202  0.00  0.00     0.053 C 
ATOM      9  C   UNL d   1       1.931  -3.280   4.916  0.00  0.00     0.018 C 
ENDBRANCH   1   8
TORSDOF 1
ENDMDL
