MODEL 1
REMARK minimizedAffinity 17.9630013
REMARK minimizedRMSD -1
REMARK  1 active torsions:
REMARK  status: ('A' for Active; 'I' for Inactive)
REMARK    1  A    between atoms: C1_2  and  C2_3 
ROOT
ATOM      1  C2  UNL d   1      -0.531  -1.224   2.127  0.00  0.00    -0.073 A 
ATOM      2  C3  UNL d   1      -0.314   0.109   2.495  0.00  0.00    -0.002 A 
ATOM      3  C4  UNL d   1       0.730   0.440   3.360  0.00  0.00     0.004 A 
ATOM      4  C5  UNL d   1       1.570  -0.555   3.859  0.00  0.00    -0.004 A 
ATOM      5  C6  UNL d   1       1.377  -1.891   3.493  0.00  0.00    -0.075 A 
ATOM      6  C7  UNL d   1       2.271  -2.973   4.023  0.00  0.00     0.076 C 
ATOM      7  C8  UNL d   1       0.324  -2.216   2.627  0.00  0.00     0.001 A 
ENDROOT
BRANCH   1   8
ATOM      8  C1  UNL d   1      -1.653  -1.586   1.188  0.00  0.00     0.053 C 
ATOM      9  C   UNL d   1      -2.689  -2.477   1.855  0.00  0.00     0.018 C 
ENDBRANCH   1   8
TORSDOF 1
ENDMDL
