MODEL 1
REMARK minimizedAffinity 22.7317104
REMARK minimizedRMSD -1
REMARK  1 active torsions:
REMARK  status: ('A' for Active; 'I' for Inactive)
REMARK    1  A    between atoms: C1_2  and  C2_3 
ROOT
ATOM      1  C2  UNL d   1      -1.096  -0.343   2.074  0.00  0.00    -0.073 A 
ATOM      2  C3  UNL d   1      -2.295  -0.761   2.664  0.00  0.00    -0.002 A 
ATOM      3  C4  UNL d   1      -3.151  -1.627   1.984  0.00  0.00     0.004 A 
ATOM      4  C5  UNL d   1      -2.815  -2.090   0.711  0.00  0.00    -0.004 A 
ATOM      5  C6  UNL d   1      -1.617  -1.693   0.110  0.00  0.00    -0.075 A 
ATOM      6  C7  UNL d   1      -1.242  -2.180  -1.259  0.00  0.00     0.076 C 
ATOM      7  C8  UNL d   1      -0.763  -0.821   0.799  0.00  0.00     0.001 A 
ENDROOT
BRANCH   1   8
ATOM      8  C1  UNL d   1      -0.165   0.587   2.808  0.00  0.00     0.053 C 
ATOM      9  C   UNL d   1       1.080   0.905   1.996  0.00  0.00     0.018 C 
ENDBRANCH   1   8
TORSDOF 1
ENDMDL
