MODEL 1
REMARK minimizedAffinity -1.87171614
REMARK minimizedRMSD -1
REMARK  0 active torsions:
REMARK  status: ('A' for Active; 'I' for Inactive)
ROOT
ATOM      1  C1  DEN d   1       1.780  -4.184   0.501  0.00  0.00     0.130 A 
ATOM      2  C2  DEN d   1       0.660  -4.874   1.136  0.00  0.00    -0.031 A 
ATOM      3  C3  DEN d   1      -0.555  -4.060   0.927  0.00  0.00     0.027 A 
ATOM      4  C4  DEN d   1      -0.809  -1.814  -0.316  0.00  0.00     0.027 A 
ATOM      5  C5  DEN d   1      -0.137  -0.833  -1.010  0.00  0.00    -0.003 A 
ATOM      6  C6  DEN d   1       1.216  -0.883  -1.219  0.00  0.00     0.001 A 
ATOM      7  C7  DEN d   1       1.933  -1.959  -0.766  0.00  0.00     0.017 A 
ATOM      8  C8  DEN d   1       1.264  -2.948  -0.059  0.00  0.00    -0.094 A 
ATOM      9  C9  DEN d   1      -0.107  -2.886   0.131  0.00  0.00    -0.072 A 
ENDROOT
TORSDOF 0
ENDMDL
