MODEL 1
REMARK minimizedAffinity -3.31366372
REMARK minimizedRMSD -1
REMARK  0 active torsions:
REMARK  status: ('A' for Active; 'I' for Inactive)
ROOT
ATOM      1  C1  DEN d   1       2.620  -1.594  -0.753  0.00  0.00     0.130 A 
ATOM      2  C2  DEN d   1       1.880  -0.576  -1.494  0.00  0.00    -0.031 A 
ATOM      3  C3  DEN d   1       0.453  -0.955  -1.490  0.00  0.00     0.027 A 
ATOM      4  C4  DEN d   1      -0.678  -3.007  -0.411  0.00  0.00     0.027 A 
ATOM      5  C5  DEN d   1      -0.459  -4.157   0.314  0.00  0.00    -0.003 A 
ATOM      6  C6  DEN d   1       0.795  -4.548   0.702  0.00  0.00     0.001 A 
ATOM      7  C7  DEN d   1       1.874  -3.759   0.406  0.00  0.00     0.017 A 
ATOM      8  C8  DEN d   1       1.663  -2.601  -0.332  0.00  0.00    -0.094 A 
ATOM      9  C9  DEN d   1       0.386  -2.217  -0.704  0.00  0.00    -0.072 A 
ENDROOT
TORSDOF 0
ENDMDL
