MODEL 1
REMARK minimizedAffinity 3.03668785
REMARK minimizedRMSD -1
REMARK  0 active torsions:
REMARK  status: ('A' for Active; 'I' for Inactive)
ROOT
ATOM      1  C1  DEN d   1       0.223   0.644  -3.778  0.00  0.00     0.130 A 
ATOM      2  C2  DEN d   1      -0.293  -0.342  -4.723  0.00  0.00    -0.031 A 
ATOM      3  C3  DEN d   1      -0.294  -1.659  -4.053  0.00  0.00     0.027 A 
ATOM      4  C4  DEN d   1       0.445  -2.260  -1.656  0.00  0.00     0.027 A 
ATOM      5  C5  DEN d   1       0.966  -1.760  -0.483  0.00  0.00    -0.003 A 
ATOM      6  C6  DEN d   1       1.304  -0.441  -0.339  0.00  0.00     0.001 A 
ATOM      7  C7  DEN d   1       1.084   0.434  -1.370  0.00  0.00     0.017 A 
ATOM      8  C8  DEN d   1       0.566  -0.065  -2.559  0.00  0.00    -0.094 A 
ATOM      9  C9  DEN d   1       0.219  -1.399  -2.681  0.00  0.00    -0.072 A 
ENDROOT
TORSDOF 0
ENDMDL
