MODEL 1
REMARK minimizedAffinity -2.46764541
REMARK minimizedRMSD -1
REMARK  0 active torsions:
REMARK  status: ('A' for Active; 'I' for Inactive)
ROOT
ATOM      1  C1  DEN d   1      -0.396  -3.956   1.153  0.00  0.00     0.130 A 
ATOM      2  C2  DEN d   1       0.684  -4.934   1.248  0.00  0.00    -0.031 A 
ATOM      3  C3  DEN d   1       1.824  -4.435   0.453  0.00  0.00     0.027 A 
ATOM      4  C4  DEN d   1       2.021  -2.251  -0.905  0.00  0.00     0.027 A 
ATOM      5  C5  DEN d   1       1.359  -1.108  -1.295  0.00  0.00    -0.003 A 
ATOM      6  C6  DEN d   1       0.065  -0.852  -0.927  0.00  0.00     0.001 A 
ATOM      7  C7  DEN d   1      -0.594  -1.731  -0.108  0.00  0.00     0.017 A 
ATOM      8  C8  DEN d   1       0.064  -2.889   0.283  0.00  0.00    -0.094 A 
ATOM      9  C9  DEN d   1       1.377  -3.124  -0.090  0.00  0.00    -0.072 A 
ENDROOT
TORSDOF 0
ENDMDL
