MODEL 1
REMARK minimizedAffinity 6.07012653
REMARK minimizedRMSD -1
REMARK  0 active torsions:
REMARK  status: ('A' for Active; 'I' for Inactive)
ROOT
ATOM      1  C1  DEN d   1       1.388  -0.290  -1.488  0.00  0.00     0.130 A 
ATOM      2  C2  DEN d   1      -0.003   0.123  -1.649  0.00  0.00    -0.031 A 
ATOM      3  C3  DEN d   1      -0.860  -0.913  -1.039  0.00  0.00     0.027 A 
ATOM      4  C4  DEN d   1      -0.171  -3.102   0.138  0.00  0.00     0.027 A 
ATOM      5  C5  DEN d   1       0.896  -3.890   0.509  0.00  0.00    -0.003 A 
ATOM      6  C6  DEN d   1       2.190  -3.552   0.212  0.00  0.00     0.001 A 
ATOM      7  C7  DEN d   1       2.453  -2.373  -0.435  0.00  0.00     0.017 A 
ATOM      8  C8  DEN d   1       1.381  -1.578  -0.819  0.00  0.00    -0.094 A 
ATOM      9  C9  DEN d   1       0.081  -1.931  -0.499  0.00  0.00    -0.072 A 
ENDROOT
TORSDOF 0
ENDMDL
