MODEL 1
REMARK minimizedAffinity 11.4621048
REMARK minimizedRMSD -1
REMARK  0 active torsions:
REMARK  status: ('A' for Active; 'I' for Inactive)
ROOT
ATOM      1  C1  DEN d   1       3.072  -3.153   0.709  0.00  0.00     0.130 A 
ATOM      2  C2  DEN d   1       2.615  -1.948   0.022  0.00  0.00    -0.031 A 
ATOM      3  C3  DEN d   1       1.185  -2.122  -0.302  0.00  0.00     0.027 A 
ATOM      4  C4  DEN d   1      -0.359  -4.128   0.195  0.00  0.00     0.027 A 
ATOM      5  C5  DEN d   1      -0.419  -5.388   0.749  0.00  0.00    -0.003 A 
ATOM      6  C6  DEN d   1       0.679  -6.000   1.293  0.00  0.00     0.001 A 
ATOM      7  C7  DEN d   1       1.875  -5.334   1.336  0.00  0.00     0.017 A 
ATOM      8  C8  DEN d   1       1.946  -4.066   0.773  0.00  0.00    -0.094 A 
ATOM      9  C9  DEN d   1       0.822  -3.460   0.239  0.00  0.00    -0.072 A 
ENDROOT
TORSDOF 0
ENDMDL
