MODEL 1
REMARK minimizedAffinity -6.74232769
REMARK minimizedRMSD -1
REMARK  0 active torsions:
REMARK  status: ('A' for Active; 'I' for Inactive)
ROOT
ATOM      1  C1  DEN d   1       1.976  -4.133   0.233  0.00  0.00     0.130 A 
ATOM      2  C2  DEN d   1       0.855  -4.994   0.599  0.00  0.00    -0.031 A 
ATOM      3  C3  DEN d   1      -0.384  -4.197   0.502  0.00  0.00     0.027 A 
ATOM      4  C4  DEN d   1      -0.675  -1.727  -0.181  0.00  0.00     0.027 A 
ATOM      5  C5  DEN d   1      -0.011  -0.584  -0.568  0.00  0.00    -0.003 A 
ATOM      6  C6  DEN d   1       1.353  -0.534  -0.681  0.00  0.00     0.001 A 
ATOM      7  C7  DEN d   1       2.095  -1.662  -0.448  0.00  0.00     0.017 A 
ATOM      8  C8  DEN d   1       1.433  -2.817  -0.050  0.00  0.00    -0.094 A 
ATOM      9  C9  DEN d   1       0.053  -2.850   0.046  0.00  0.00    -0.072 A 
ENDROOT
TORSDOF 0
ENDMDL
