MODEL 1
REMARK minimizedAffinity 1.90416765
REMARK minimizedRMSD -1
REMARK  0 active torsions:
REMARK  status: ('A' for Active; 'I' for Inactive)
ROOT
ATOM      1  C1  DEN d   1      -0.582  -1.219  -0.654  0.00  0.00     0.130 A 
ATOM      2  C2  DEN d   1       0.281  -0.251  -1.325  0.00  0.00    -0.031 A 
ATOM      3  C3  DEN d   1       1.676  -0.719  -1.199  0.00  0.00     0.027 A 
ATOM      4  C4  DEN d   1       2.578  -2.839  -0.040  0.00  0.00     0.027 A 
ATOM      5  C5  DEN d   1       2.227  -3.960   0.679  0.00  0.00    -0.003 A 
ATOM      6  C6  DEN d   1       0.931  -4.227   1.031  0.00  0.00     0.001 A 
ATOM      7  C7  DEN d   1      -0.070  -3.384   0.624  0.00  0.00     0.017 A 
ATOM      8  C8  DEN d   1       0.276  -2.247  -0.095  0.00  0.00    -0.094 A 
ATOM      9  C9  DEN d   1       1.592  -2.002  -0.451  0.00  0.00    -0.072 A 
ENDROOT
TORSDOF 0
ENDMDL
