MODEL 1
REMARK minimizedAffinity -2.21838474
REMARK minimizedRMSD -1
REMARK  0 active torsions:
REMARK  status: ('A' for Active; 'I' for Inactive)
ROOT
ATOM      1  C1  DEN d   1       1.491  -3.954   0.625  0.00  0.00     0.130 A 
ATOM      2  C2  DEN d   1       0.296  -4.793   0.652  0.00  0.00    -0.031 A 
ATOM      3  C3  DEN d   1      -0.835  -3.994   0.139  0.00  0.00     0.027 A 
ATOM      4  C4  DEN d   1      -0.851  -1.554  -0.694  0.00  0.00     0.027 A 
ATOM      5  C5  DEN d   1      -0.079  -0.431  -0.895  0.00  0.00    -0.003 A 
ATOM      6  C6  DEN d   1       1.252  -0.393  -0.575  0.00  0.00     0.001 A 
ATOM      7  C7  DEN d   1       1.863  -1.514  -0.077  0.00  0.00     0.017 A 
ATOM      8  C8  DEN d   1       1.089  -2.648   0.135  0.00  0.00    -0.094 A 
ATOM      9  C9  DEN d   1      -0.253  -2.670  -0.206  0.00  0.00    -0.072 A 
ENDROOT
TORSDOF 0
ENDMDL
