MODEL 1
REMARK minimizedAffinity 5.73404694
REMARK minimizedRMSD -1
REMARK  0 active torsions:
REMARK  status: ('A' for Active; 'I' for Inactive)
ROOT
ATOM      1  C1  DEN d   1       3.024  -1.754  -0.352  0.00  0.00     0.130 A 
ATOM      2  C2  DEN d   1       2.912  -3.156   0.041  0.00  0.00    -0.031 A 
ATOM      3  C3  DEN d   1       1.491  -3.545  -0.058  0.00  0.00     0.027 A 
ATOM      4  C4  DEN d   1      -0.535  -2.122  -0.783  0.00  0.00     0.027 A 
ATOM      5  C5  DEN d   1      -0.937  -0.872  -1.197  0.00  0.00    -0.003 A 
ATOM      6  C6  DEN d   1      -0.060   0.172  -1.325  0.00  0.00     0.001 A 
ATOM      7  C7  DEN d   1       1.272  -0.027  -1.079  0.00  0.00     0.017 A 
ATOM      8  C8  DEN d   1       1.685  -1.282  -0.654  0.00  0.00    -0.094 A 
ATOM      9  C9  DEN d   1       0.785  -2.329  -0.542  0.00  0.00    -0.072 A 
ENDROOT
TORSDOF 0
ENDMDL
