MODEL 1
REMARK minimizedAffinity -1.78575075
REMARK minimizedRMSD -1
REMARK  0 active torsions:
REMARK  status: ('A' for Active; 'I' for Inactive)
ROOT
ATOM      1  C1  DEN d   1       1.605  -3.971   0.654  0.00  0.00     0.130 A 
ATOM      2  C2  DEN d   1       0.424  -4.759   0.995  0.00  0.00    -0.031 A 
ATOM      3  C3  DEN d   1      -0.771  -3.986   0.602  0.00  0.00     0.027 A 
ATOM      4  C4  DEN d   1      -0.905  -1.658  -0.502  0.00  0.00     0.027 A 
ATOM      5  C5  DEN d   1      -0.167  -0.594  -0.972  0.00  0.00    -0.003 A 
ATOM      6  C6  DEN d   1       1.200  -0.567  -0.903  0.00  0.00     0.001 A 
ATOM      7  C7  DEN d   1       1.876  -1.644  -0.391  0.00  0.00     0.017 A 
ATOM      8  C8  DEN d   1       1.138  -2.717   0.091  0.00  0.00    -0.094 A 
ATOM      9  C9  DEN d   1      -0.243  -2.731   0.001  0.00  0.00    -0.072 A 
ENDROOT
TORSDOF 0
ENDMDL
