MODEL 1
REMARK minimizedAffinity -2.88692045
REMARK minimizedRMSD -1
REMARK  0 active torsions:
REMARK  status: ('A' for Active; 'I' for Inactive)
ROOT
ATOM      1  C1  DEN d   1      -0.370  -4.348   0.972  0.00  0.00     0.130 A 
ATOM      2  C2  DEN d   1       0.627  -5.390   1.205  0.00  0.00    -0.031 A 
ATOM      3  C3  DEN d   1       1.929  -4.893   0.719  0.00  0.00     0.027 A 
ATOM      4  C4  DEN d   1       2.498  -2.621  -0.363  0.00  0.00     0.027 A 
ATOM      5  C5  DEN d   1       1.979  -1.415  -0.780  0.00  0.00    -0.003 A 
ATOM      6  C6  DEN d   1       0.646  -1.118  -0.674  0.00  0.00     0.001 A 
ATOM      7  C7  DEN d   1      -0.207  -2.021  -0.096  0.00  0.00     0.017 A 
ATOM      8  C8  DEN d   1       0.307  -3.242   0.319  0.00  0.00    -0.094 A 
ATOM      9  C9  DEN d   1       1.660  -3.519   0.214  0.00  0.00    -0.072 A 
ENDROOT
TORSDOF 0
ENDMDL
