MODEL 1
REMARK minimizedAffinity -1.52617836
REMARK minimizedRMSD -1
REMARK  0 active torsions:
REMARK  status: ('A' for Active; 'I' for Inactive)
ROOT
ATOM      1  C1  DEN d   1      -2.999  -1.039   5.040  0.00  0.00     0.130 A 
ATOM      2  C2  DEN d   1      -2.326   0.255   4.969  0.00  0.00    -0.031 A 
ATOM      3  C3  DEN d   1      -3.028   1.080   3.965  0.00  0.00     0.027 A 
ATOM      4  C4  DEN d   1      -5.084   0.485   2.526  0.00  0.00     0.027 A 
ATOM      5  C5  DEN d   1      -5.997  -0.503   2.227  0.00  0.00    -0.003 A 
ATOM      6  C6  DEN d   1      -5.955  -1.739   2.815  0.00  0.00     0.001 A 
ATOM      7  C7  DEN d   1      -5.006  -2.006   3.766  0.00  0.00     0.017 A 
ATOM      8  C8  DEN d   1      -4.077  -1.018   4.068  0.00  0.00    -0.094 A 
ATOM      9  C9  DEN d   1      -4.145   0.230   3.472  0.00  0.00    -0.072 A 
ENDROOT
TORSDOF 0
ENDMDL
