MODEL 1
REMARK minimizedAffinity -4.83483982
REMARK minimizedRMSD -1
REMARK  0 active torsions:
REMARK  status: ('A' for Active; 'I' for Inactive)
ROOT
ATOM      1  C1  DEN d   1       1.648  -2.911   1.135  0.00  0.00     0.130 A 
ATOM      2  C2  DEN d   1       0.524  -3.815   1.367  0.00  0.00    -0.031 A 
ATOM      3  C3  DEN d   1      -0.619  -3.334   0.565  0.00  0.00     0.027 A 
ATOM      4  C4  DEN d   1      -0.757  -1.293  -1.006  0.00  0.00     0.027 A 
ATOM      5  C5  DEN d   1      -0.060  -0.220  -1.515  0.00  0.00    -0.003 A 
ATOM      6  C6  DEN d   1       1.234   0.049  -1.153  0.00  0.00     0.001 A 
ATOM      7  C7  DEN d   1       1.886  -0.792  -0.291  0.00  0.00     0.017 A 
ATOM      8  C8  DEN d   1       1.188  -1.872   0.232  0.00  0.00    -0.094 A 
ATOM      9  C9  DEN d   1      -0.115  -2.134  -0.155  0.00  0.00    -0.072 A 
ENDROOT
TORSDOF 0
ENDMDL
