MODEL 1
REMARK minimizedAffinity -6.01870918
REMARK minimizedRMSD -1
REMARK  0 active torsions:
REMARK  status: ('A' for Active; 'I' for Inactive)
ROOT
ATOM      1  C1  DEN d   1      -0.480  -1.470  -0.326  0.00  0.00     0.130 A 
ATOM      2  C2  DEN d   1       0.521  -0.458  -0.651  0.00  0.00    -0.031 A 
ATOM      3  C3  DEN d   1       1.856  -1.056  -0.450  0.00  0.00     0.027 A 
ATOM      4  C4  DEN d   1       2.467  -3.439   0.324  0.00  0.00     0.027 A 
ATOM      5  C5  DEN d   1       1.957  -4.653   0.728  0.00  0.00    -0.003 A 
ATOM      6  C6  DEN d   1       0.611  -4.879   0.841  0.00  0.00     0.001 A 
ATOM      7  C7  DEN d   1      -0.274  -3.889   0.503  0.00  0.00     0.017 A 
ATOM      8  C8  DEN d   1       0.232  -2.660   0.102  0.00  0.00    -0.094 A 
ATOM      9  C9  DEN d   1       1.597  -2.456  -0.018  0.00  0.00    -0.072 A 
ENDROOT
TORSDOF 0
ENDMDL
