MODEL 1
REMARK minimizedAffinity 3.31207085
REMARK minimizedRMSD -1
REMARK  0 active torsions:
REMARK  status: ('A' for Active; 'I' for Inactive)
ROOT
ATOM      1  C1  DEN d   1       2.190  -5.186   1.895  0.00  0.00     0.130 A 
ATOM      2  C2  DEN d   1       1.119  -5.999   1.327  0.00  0.00    -0.031 A 
ATOM      3  C3  DEN d   1       0.615  -5.311   0.121  0.00  0.00     0.027 A 
ATOM      4  C4  DEN d   1       1.388  -3.081  -0.918  0.00  0.00     0.027 A 
ATOM      5  C5  DEN d   1       2.260  -2.023  -0.784  0.00  0.00    -0.003 A 
ATOM      6  C6  DEN d   1       3.139  -1.929   0.262  0.00  0.00     0.001 A 
ATOM      7  C7  DEN d   1       3.197  -2.933   1.192  0.00  0.00     0.017 A 
ATOM      8  C8  DEN d   1       2.316  -3.999   1.068  0.00  0.00    -0.094 A 
ATOM      9  C9  DEN d   1       1.444  -4.082  -0.004  0.00  0.00    -0.072 A 
ENDROOT
TORSDOF 0
ENDMDL
