MODEL 1
REMARK minimizedAffinity -0.950991869
REMARK minimizedRMSD -1
REMARK  0 active torsions:
REMARK  status: ('A' for Active; 'I' for Inactive)
ROOT
ATOM      1  C4' PXY d   1      -2.949   0.479  -0.023  0.00  0.00     0.077 C 
ATOM      2  C1' PXY d   1       2.435  -1.587  -0.422  0.00  0.00     0.077 C 
ATOM      3  C1  PXY d   1       1.027  -1.038  -0.306  0.00  0.00    -0.082 A 
ATOM      4  C2  PXY d   1       0.019  -1.706  -0.843  0.00  0.00     0.003 A 
ATOM      5  C3  PXY d   1      -1.257  -1.209  -0.776  0.00  0.00     0.003 A 
ATOM      6  C4  PXY d   1      -1.511  -0.042  -0.106  0.00  0.00    -0.082 A 
ATOM      7  C5  PXY d   1      -0.490   0.640   0.453  0.00  0.00     0.003 A 
ATOM      8  C6  PXY d   1       0.804   0.139   0.338  0.00  0.00     0.003 A 
ENDROOT
TORSDOF 0
ENDMDL
