MODEL 1
REMARK minimizedAffinity -3.98650622
REMARK minimizedRMSD -1
REMARK  0 active torsions:
REMARK  status: ('A' for Active; 'I' for Inactive)
ROOT
ATOM      1  C4' PXY d   1      -2.462   0.822   0.086  0.00  0.00     0.077 C 
ATOM      2  C1' PXY d   1       3.044  -0.871   0.571  0.00  0.00     0.077 C 
ATOM      3  C1  PXY d   1       1.597  -0.438   0.439  0.00  0.00    -0.082 A 
ATOM      4  C2  PXY d   1       1.304   0.850   0.364  0.00  0.00     0.003 A 
ATOM      5  C3  PXY d   1      -0.002   1.259   0.277  0.00  0.00     0.003 A 
ATOM      6  C4  PXY d   1      -1.014   0.340   0.211  0.00  0.00    -0.082 A 
ATOM      7  C5  PXY d   1      -0.722  -0.977   0.276  0.00  0.00     0.003 A 
ATOM      8  C6  PXY d   1       0.607  -1.371   0.406  0.00  0.00     0.003 A 
ENDROOT
TORSDOF 0
ENDMDL
