MODEL 1
REMARK minimizedAffinity -4.59380674
REMARK minimizedRMSD -1
REMARK  0 active torsions:
REMARK  status: ('A' for Active; 'I' for Inactive)
ROOT
ATOM      1  C4' PXY d   1      -0.997   1.187  -0.597  0.00  0.00     0.077 C 
ATOM      2  C1' PXY d   1       3.972  -1.318   0.970  0.00  0.00     0.077 C 
ATOM      3  C1  PXY d   1       2.671  -0.651   0.566  0.00  0.00    -0.082 A 
ATOM      4  C2  PXY d   1       1.664  -1.391   0.132  0.00  0.00     0.003 A 
ATOM      5  C3  PXY d   1       0.492  -0.801  -0.267  0.00  0.00     0.003 A 
ATOM      6  C4  PXY d   1       0.331   0.556  -0.170  0.00  0.00    -0.082 A 
ATOM      7  C5  PXY d   1       1.351   1.316   0.282  0.00  0.00     0.003 A 
ATOM      8  C6  PXY d   1       2.546   0.702   0.643  0.00  0.00     0.003 A 
ENDROOT
TORSDOF 0
ENDMDL
