MODEL 1
REMARK minimizedAffinity -5.26959991
REMARK minimizedRMSD -1
REMARK  0 active torsions:
REMARK  status: ('A' for Active; 'I' for Inactive)
ROOT
ATOM      1  C4' PXY d   1      -0.663  -2.937  -0.445  0.00  0.00     0.077 C 
ATOM      2  C1' PXY d   1       2.947   1.380   0.872  0.00  0.00     0.077 C 
ATOM      3  C1  PXY d   1       1.990   0.256   0.530  0.00  0.00    -0.082 A 
ATOM      4  C2  PXY d   1       2.417  -0.997   0.554  0.00  0.00     0.003 A 
ATOM      5  C3  PXY d   1       1.574  -2.024   0.217  0.00  0.00     0.003 A 
ATOM      6  C4  PXY d   1       0.265  -1.771  -0.098  0.00  0.00    -0.082 A 
ATOM      7  C5  PXY d   1      -0.181  -0.497  -0.115  0.00  0.00     0.003 A 
ATOM      8  C6  PXY d   1       0.702   0.535   0.191  0.00  0.00     0.003 A 
ENDROOT
TORSDOF 0
ENDMDL
