MODEL 1
REMARK minimizedAffinity -4.69648886
REMARK minimizedRMSD -1
REMARK  0 active torsions:
REMARK  status: ('A' for Active; 'I' for Inactive)
ROOT
ATOM      1  C4' PXY d   1      -1.306   0.627  -1.068  0.00  0.00     0.077 C 
ATOM      2  C1' PXY d   1       3.785  -1.054   1.094  0.00  0.00     0.077 C 
ATOM      3  C1  PXY d   1       2.451  -0.602   0.534  0.00  0.00    -0.082 A 
ATOM      4  C2  PXY d   1       1.588  -1.502   0.092  0.00  0.00     0.003 A 
ATOM      5  C3  PXY d   1       0.390  -1.109  -0.447  0.00  0.00     0.003 A 
ATOM      6  C4  PXY d   1       0.049   0.216  -0.485  0.00  0.00    -0.082 A 
ATOM      7  C5  PXY d   1       0.919   1.141  -0.027  0.00  0.00     0.003 A 
ATOM      8  C6  PXY d   1       2.148   0.724   0.479  0.00  0.00     0.003 A 
ENDROOT
TORSDOF 0
ENDMDL
