MODEL 1
REMARK minimizedAffinity -4.88651848
REMARK minimizedRMSD -1
REMARK  0 active torsions:
REMARK  status: ('A' for Active; 'I' for Inactive)
ROOT
ATOM      1  C4' PXY d   1       4.126  -0.661   1.261  0.00  0.00     0.077 C 
ATOM      2  C1' PXY d   1      -1.165   0.089  -0.943  0.00  0.00     0.077 C 
ATOM      3  C1  PXY d   1       0.225  -0.095  -0.367  0.00  0.00    -0.082 A 
ATOM      4  C2  PXY d   1       0.781  -1.296  -0.370  0.00  0.00     0.003 A 
ATOM      5  C3  PXY d   1       2.024  -1.486   0.175  0.00  0.00     0.003 A 
ATOM      6  C4  PXY d   1       2.728  -0.427   0.682  0.00  0.00    -0.082 A 
ATOM      7  C5  PXY d   1       2.173   0.803   0.679  0.00  0.00     0.003 A 
ATOM      8  C6  PXY d   1       0.893   0.968   0.158  0.00  0.00     0.003 A 
ENDROOT
TORSDOF 0
ENDMDL
