MODEL 1
REMARK minimizedAffinity -3.47647429
REMARK minimizedRMSD -1
REMARK  0 active torsions:
REMARK  status: ('A' for Active; 'I' for Inactive)
ROOT
ATOM      1  C4' PXY d   1      -3.000   1.115   0.427  0.00  0.00     0.077 C 
ATOM      2  C1' PXY d   1       2.202  -1.259  -0.419  0.00  0.00     0.077 C 
ATOM      3  C1  PXY d   1       0.843  -0.625  -0.198  0.00  0.00    -0.082 A 
ATOM      4  C2  PXY d   1      -0.098  -1.299   0.442  0.00  0.00     0.003 A 
ATOM      5  C3  PXY d   1      -1.342  -0.753   0.622  0.00  0.00     0.003 A 
ATOM      6  C4  PXY d   1      -1.610   0.518   0.189  0.00  0.00    -0.082 A 
ATOM      7  C5  PXY d   1      -0.652   1.217  -0.455  0.00  0.00     0.003 A 
ATOM      8  C6  PXY d   1       0.592   0.629  -0.664  0.00  0.00     0.003 A 
ENDROOT
TORSDOF 0
ENDMDL
