MODEL 1
REMARK minimizedAffinity -4.53306484
REMARK minimizedRMSD -1
REMARK  0 active torsions:
REMARK  status: ('A' for Active; 'I' for Inactive)
ROOT
ATOM      1  C4' PXY d   1       3.399  -0.695  -0.030  0.00  0.00     0.077 C 
ATOM      2  C1' PXY d   1      -2.274   0.403  -0.216  0.00  0.00     0.077 C 
ATOM      3  C1  PXY d   1      -0.788   0.102  -0.168  0.00  0.00    -0.082 A 
ATOM      4  C2  PXY d   1       0.039   0.977   0.382  0.00  0.00     0.003 A 
ATOM      5  C3  PXY d   1       1.388   0.735   0.405  0.00  0.00     0.003 A 
ATOM      6  C4  PXY d   1       1.891  -0.437  -0.092  0.00  0.00    -0.082 A 
ATOM      7  C5  PXY d   1       1.052  -1.340  -0.644  0.00  0.00     0.003 A 
ATOM      8  C6  PXY d   1      -0.310  -1.057  -0.695  0.00  0.00     0.003 A 
ENDROOT
TORSDOF 0
ENDMDL
