MODEL 1
REMARK minimizedAffinity -4.5555315
REMARK minimizedRMSD -1
REMARK  0 active torsions:
REMARK  status: ('A' for Active; 'I' for Inactive)
ROOT
ATOM      1  C4' PXY d   1       2.968   1.561   0.107  0.00  0.00     0.077 C 
ATOM      2  C1' PXY d   1      -0.957  -2.657  -0.359  0.00  0.00     0.077 C 
ATOM      3  C1  PXY d   1       0.063  -1.542  -0.241  0.00  0.00    -0.082 A 
ATOM      4  C2  PXY d   1       1.353  -1.823  -0.332  0.00  0.00     0.003 A 
ATOM      5  C3  PXY d   1       2.290  -0.832  -0.195  0.00  0.00     0.003 A 
ATOM      6  C4  PXY d   1       1.902   0.469  -0.016  0.00  0.00    -0.082 A 
ATOM      7  C5  PXY d   1       0.588   0.766   0.066  0.00  0.00     0.003 A 
ATOM      8  C6  PXY d   1      -0.347  -0.261  -0.034  0.00  0.00     0.003 A 
ENDROOT
TORSDOF 0
ENDMDL
