MODEL 1
REMARK minimizedAffinity 6.20902157
REMARK minimizedRMSD -1
REMARK  0 active torsions:
REMARK  status: ('A' for Active; 'I' for Inactive)
ROOT
ATOM      1  C4' PXY d   1       3.870  -0.651  -1.502  0.00  0.00     0.077 C 
ATOM      2  C1' PXY d   1      -1.034  -2.965   0.502  0.00  0.00     0.077 C 
ATOM      3  C1  PXY d   1       0.258  -2.369  -0.022  0.00  0.00    -0.082 A 
ATOM      4  C2  PXY d   1       0.457  -1.064   0.059  0.00  0.00     0.003 A 
ATOM      5  C3  PXY d   1       1.606  -0.505  -0.439  0.00  0.00     0.003 A 
ATOM      6  C4  PXY d   1       2.585  -1.297  -0.978  0.00  0.00    -0.082 A 
ATOM      7  C5  PXY d   1       2.394  -2.631  -1.054  0.00  0.00     0.003 A 
ATOM      8  C6  PXY d   1       1.203  -3.174  -0.581  0.00  0.00     0.003 A 
ENDROOT
TORSDOF 0
ENDMDL
