MODEL 1
REMARK minimizedAffinity -4.63527346
REMARK minimizedRMSD -1
REMARK  1 active torsions:
REMARK  status: ('A' for Active; 'I' for Inactive)
REMARK    1  A    between atoms: C1_2  and  C2_3 
ROOT
ATOM      1  C2  UNL d   1       1.487  -3.065   0.066  0.00  0.00    -0.077 A 
ATOM      2  C3  UNL d   1       1.955  -1.746  -0.021  0.00  0.00     0.002 A 
ATOM      3  C4  UNL d   1       1.128  -0.679   0.335  0.00  0.00     0.002 A 
ATOM      4  C5  UNL d   1      -0.169  -0.919   0.784  0.00  0.00    -0.004 A 
ATOM      5  C6  UNL d   1      -0.644  -2.227   0.872  0.00  0.00     0.002 A 
ATOM      6  C7  UNL d   1       0.180  -3.295   0.515  0.00  0.00     0.002 A 
ENDROOT
BRANCH   1   7
ATOM      7  C1  UNL d   1       2.393  -4.220  -0.271  0.00  0.00     0.055 C 
ATOM      8  C   UNL d   1       3.829  -3.758  -0.468  0.00  0.00     0.019 C 
ENDBRANCH   1   7
TORSDOF 1
ENDMDL
