MODEL 1
REMARK minimizedAffinity -0.603336692
REMARK minimizedRMSD -1
REMARK  1 active torsions:
REMARK  status: ('A' for Active; 'I' for Inactive)
REMARK    1  A    between atoms: C1_2  and  C2_3 
ROOT
ATOM      1  C2  UNL d   1       1.795  -3.317   0.243  0.00  0.00    -0.077 A 
ATOM      2  C3  UNL d   1       2.475  -2.094   0.319  0.00  0.00     0.002 A 
ATOM      3  C4  UNL d   1       1.786  -0.921   0.634  0.00  0.00     0.002 A 
ATOM      4  C5  UNL d   1       0.416  -0.961   0.880  0.00  0.00    -0.004 A 
ATOM      5  C6  UNL d   1      -0.270  -2.172   0.805  0.00  0.00     0.002 A 
ATOM      6  C7  UNL d   1       0.416  -3.345   0.489  0.00  0.00     0.002 A 
ENDROOT
BRANCH   1   7
ATOM      7  C1  UNL d   1       2.545  -4.591  -0.049  0.00  0.00     0.055 C 
ATOM      8  C   UNL d   1       4.046  -4.348  -0.109  0.00  0.00     0.019 C 
ENDBRANCH   1   7
TORSDOF 1
ENDMDL
