MODEL 1
REMARK minimizedAffinity -4.05768299
REMARK minimizedRMSD -1
REMARK  1 active torsions:
REMARK  status: ('A' for Active; 'I' for Inactive)
REMARK    1  A    between atoms: C1_2  and  C2_3 
ROOT
ATOM      1  C2  UNL d   1       1.709  -2.841   0.620  0.00  0.00    -0.077 A 
ATOM      2  C3  UNL d   1       0.342  -2.766   0.921  0.00  0.00     0.002 A 
ATOM      3  C4  UNL d   1      -0.285  -1.525   1.051  0.00  0.00     0.002 A 
ATOM      4  C5  UNL d   1       0.446  -0.351   0.878  0.00  0.00    -0.004 A 
ATOM      5  C6  UNL d   1       1.806  -0.416   0.581  0.00  0.00     0.002 A 
ATOM      6  C7  UNL d   1       2.435  -1.655   0.451  0.00  0.00     0.002 A 
ENDROOT
BRANCH   1   7
ATOM      7  C1  UNL d   1       2.377  -4.178   0.430  0.00  0.00     0.055 C 
ATOM      8  C   UNL d   1       3.811  -4.017  -0.054  0.00  0.00     0.019 C 
ENDBRANCH   1   7
TORSDOF 1
ENDMDL
