MODEL 1
REMARK minimizedAffinity -4.75265837
REMARK minimizedRMSD -1
REMARK  1 active torsions:
REMARK  status: ('A' for Active; 'I' for Inactive)
REMARK    1  A    between atoms: C1_2  and  C2_3 
ROOT
ATOM      1  C2  UNL d   1       1.269  -2.630   0.337  0.00  0.00    -0.077 A 
ATOM      2  C3  UNL d   1       2.118  -1.591   0.744  0.00  0.00     0.002 A 
ATOM      3  C4  UNL d   1       1.588  -0.370   1.166  0.00  0.00     0.002 A 
ATOM      4  C5  UNL d   1       0.208  -0.179   1.189  0.00  0.00    -0.004 A 
ATOM      5  C6  UNL d   1      -0.645  -1.205   0.784  0.00  0.00     0.002 A 
ATOM      6  C7  UNL d   1      -0.117  -2.425   0.361  0.00  0.00     0.002 A 
ENDROOT
BRANCH   1   7
ATOM      7  C1  UNL d   1       1.837  -3.964  -0.072  0.00  0.00     0.055 C 
ATOM      8  C   UNL d   1       3.351  -3.991   0.080  0.00  0.00     0.019 C 
ENDBRANCH   1   7
TORSDOF 1
ENDMDL
