MODEL 1
REMARK minimizedAffinity -2.27965093
REMARK minimizedRMSD -1
REMARK  1 active torsions:
REMARK  status: ('A' for Active; 'I' for Inactive)
REMARK    1  A    between atoms: C1_2  and  C2_3 
ROOT
ATOM      1  C2  UNL d   1       3.361  -3.694   0.022  0.00  0.00    -0.077 A 
ATOM      2  C3  UNL d   1       2.046  -4.142   0.204  0.00  0.00     0.002 A 
ATOM      3  C4  UNL d   1       1.020  -3.233   0.468  0.00  0.00     0.002 A 
ATOM      4  C5  UNL d   1       1.298  -1.870   0.547  0.00  0.00    -0.004 A 
ATOM      5  C6  UNL d   1       2.604  -1.414   0.370  0.00  0.00     0.002 A 
ATOM      6  C7  UNL d   1       3.631  -2.322   0.107  0.00  0.00     0.002 A 
ENDROOT
BRANCH   1   7
ATOM      7  C1  UNL d   1       4.461  -4.668  -0.311  0.00  0.00     0.055 C 
ATOM      8  C   UNL d   1       4.403  -5.896   0.586  0.00  0.00     0.019 C 
ENDBRANCH   1   7
TORSDOF 1
ENDMDL
