MODEL 1
REMARK minimizedAffinity -2.92519355
REMARK minimizedRMSD -1
REMARK  1 active torsions:
REMARK  status: ('A' for Active; 'I' for Inactive)
REMARK    1  A    between atoms: C1_2  and  C2_3 
ROOT
ATOM      1  C2  UNL d   1      -5.579  -4.631   3.331  0.00  0.00    -0.077 A 
ATOM      2  C3  UNL d   1      -5.658  -3.548   4.217  0.00  0.00     0.002 A 
ATOM      3  C4  UNL d   1      -5.256  -3.692   5.546  0.00  0.00     0.002 A 
ATOM      4  C5  UNL d   1      -4.769  -4.916   6.000  0.00  0.00    -0.004 A 
ATOM      5  C6  UNL d   1      -4.688  -6.000   5.127  0.00  0.00     0.002 A 
ATOM      6  C7  UNL d   1      -5.091  -5.858   3.798  0.00  0.00     0.002 A 
ENDROOT
BRANCH   1   7
ATOM      7  C1  UNL d   1      -5.965  -4.464   1.884  0.00  0.00     0.055 C 
ATOM      8  C   UNL d   1      -4.894  -3.713   1.108  0.00  0.00     0.019 C 
ENDBRANCH   1   7
TORSDOF 1
ENDMDL
