MODEL 1
REMARK minimizedAffinity -2.94539666
REMARK minimizedRMSD -1
REMARK  1 active torsions:
REMARK  status: ('A' for Active; 'I' for Inactive)
REMARK    1  A    between atoms: C1_2  and  C2_3 
ROOT
ATOM      1  C2  UNL d   1       3.189  -3.934   0.060  0.00  0.00    -0.077 A 
ATOM      2  C3  UNL d   1       1.857  -4.351   0.192  0.00  0.00     0.002 A 
ATOM      3  C4  UNL d   1       0.851  -3.424   0.473  0.00  0.00     0.002 A 
ATOM      4  C5  UNL d   1       1.166  -2.075   0.621  0.00  0.00    -0.004 A 
ATOM      5  C6  UNL d   1       2.488  -1.651   0.494  0.00  0.00     0.002 A 
ATOM      6  C7  UNL d   1       3.495  -2.575   0.214  0.00  0.00     0.002 A 
ENDROOT
BRANCH   1   7
ATOM      7  C1  UNL d   1       4.268  -4.924  -0.291  0.00  0.00     0.055 C 
ATOM      8  C   UNL d   1       4.403  -5.999   0.777  0.00  0.00     0.019 C 
ENDBRANCH   1   7
TORSDOF 1
ENDMDL
