MODEL 1
REMARK minimizedAffinity -4.89813423
REMARK minimizedRMSD -1
REMARK  1 active torsions:
REMARK  status: ('A' for Active; 'I' for Inactive)
REMARK    1  A    between atoms: C1_2  and  C2_3 
ROOT
ATOM      1  C2  UNL d   1       1.409  -2.854   0.145  0.00  0.00    -0.077 A 
ATOM      2  C3  UNL d   1       2.120  -1.664   0.353  0.00  0.00     0.002 A 
ATOM      3  C4  UNL d   1       1.444  -0.486   0.678  0.00  0.00     0.002 A 
ATOM      4  C5  UNL d   1       0.056  -0.488   0.801  0.00  0.00    -0.004 A 
ATOM      5  C6  UNL d   1      -0.659  -1.666   0.593  0.00  0.00     0.002 A 
ATOM      6  C7  UNL d   1       0.014  -2.844   0.268  0.00  0.00     0.002 A 
ENDROOT
BRANCH   1   7
ATOM      7  C1  UNL d   1       2.140  -4.136  -0.157  0.00  0.00     0.055 C 
ATOM      8  C   UNL d   1       3.647  -3.924  -0.175  0.00  0.00     0.019 C 
ENDBRANCH   1   7
TORSDOF 1
ENDMDL
