MODEL 1
REMARK minimizedAffinity -3.25530434
REMARK minimizedRMSD -1
REMARK  1 active torsions:
REMARK  status: ('A' for Active; 'I' for Inactive)
REMARK    1  A    between atoms: C1_2  and  C2_3 
ROOT
ATOM      1  C2  UNL d   1       1.908   4.507  -4.651  0.00  0.00    -0.077 A 
ATOM      2  C3  UNL d   1       1.020   4.463  -3.567  0.00  0.00     0.002 A 
ATOM      3  C4  UNL d   1      -0.176   5.182  -3.604  0.00  0.00     0.002 A 
ATOM      4  C5  UNL d   1      -0.497   5.947  -4.723  0.00  0.00    -0.004 A 
ATOM      5  C6  UNL d   1       0.380   5.999  -5.806  0.00  0.00     0.002 A 
ATOM      6  C7  UNL d   1       1.577   5.282  -5.770  0.00  0.00     0.002 A 
ENDROOT
BRANCH   1   7
ATOM      7  C1  UNL d   1       3.175   3.693  -4.634  0.00  0.00     0.055 C 
ATOM      8  C   UNL d   1       3.636   3.416  -3.210  0.00  0.00     0.019 C 
ENDBRANCH   1   7
TORSDOF 1
ENDMDL
