MODEL 1
REMARK minimizedAffinity 1.70440853
REMARK minimizedRMSD -1
REMARK  1 active torsions:
REMARK  status: ('A' for Active; 'I' for Inactive)
REMARK    1  A    between atoms: C1_2  and  C2_3 
ROOT
ATOM      1  C2  UNL d   1       1.505  -0.299   1.233  0.00  0.00    -0.077 A 
ATOM      2  C3  UNL d   1       1.577  -1.561   0.628  0.00  0.00     0.002 A 
ATOM      3  C4  UNL d   1       0.414  -2.211   0.210  0.00  0.00     0.002 A 
ATOM      4  C5  UNL d   1      -0.828  -1.605   0.389  0.00  0.00    -0.004 A 
ATOM      5  C6  UNL d   1      -0.909  -0.350   0.992  0.00  0.00     0.002 A 
ATOM      6  C7  UNL d   1       0.252   0.301   1.411  0.00  0.00     0.002 A 
ENDROOT
BRANCH   1   7
ATOM      7  C1  UNL d   1       2.762   0.425   1.639  0.00  0.00     0.055 C 
ATOM      8  C   UNL d   1       3.967  -0.505   1.622  0.00  0.00     0.019 C 
ENDBRANCH   1   7
TORSDOF 1
ENDMDL
