MODEL 1
REMARK minimizedAffinity -2.93248487
REMARK minimizedRMSD -1
REMARK  1 active torsions:
REMARK  status: ('A' for Active; 'I' for Inactive)
REMARK    1  A    between atoms: C1_2  and  C2_3 
ROOT
ATOM      1  C2  UNL d   1       1.171  -2.684   0.113  0.00  0.00    -0.077 A 
ATOM      2  C3  UNL d   1       0.304  -2.494   1.199  0.00  0.00     0.002 A 
ATOM      3  C4  UNL d   1      -0.108  -1.209   1.556  0.00  0.00     0.002 A 
ATOM      4  C5  UNL d   1       0.337  -0.105   0.831  0.00  0.00    -0.004 A 
ATOM      5  C6  UNL d   1       1.200  -0.284  -0.249  0.00  0.00     0.002 A 
ATOM      6  C7  UNL d   1       1.614  -1.568  -0.607  0.00  0.00     0.002 A 
ENDROOT
BRANCH   1   7
ATOM      7  C1  UNL d   1       1.577  -4.073  -0.305  0.00  0.00     0.055 C 
ATOM      8  C   UNL d   1       3.085  -4.260  -0.210  0.00  0.00     0.019 C 
ENDBRANCH   1   7
TORSDOF 1
ENDMDL
