MODEL 1
REMARK minimizedAffinity 2.21760631
REMARK minimizedRMSD -1
REMARK  0 active torsions:
REMARK  status: ('A' for Active; 'I' for Inactive)
ROOT
ATOM      1  C   UNL d   1       5.817   2.626   5.875  0.00  0.00     0.078 C 
ATOM      2  C1  UNL d   1       4.444   3.227   5.926  0.00  0.00    -0.077 A 
ATOM      3  C2  UNL d   1       3.303   2.417   5.959  0.00  0.00    -0.001 A 
ATOM      4  C3  UNL d   1       2.031   2.990   5.996  0.00  0.00     0.003 A 
ATOM      5  C4  UNL d   1       1.888   4.376   5.999  0.00  0.00    -0.005 A 
ATOM      6  C5  UNL d   1       3.017   5.191   5.965  0.00  0.00     0.003 A 
ATOM      7  C6  UNL d   1       4.290   4.619   5.927  0.00  0.00    -0.001 A 
ENDROOT
TORSDOF 0
ENDMDL
