MODEL 1
REMARK minimizedAffinity 1.68236041
REMARK minimizedRMSD -1
REMARK  0 active torsions:
REMARK  status: ('A' for Active; 'I' for Inactive)
ROOT
ATOM      1  C   UNL d   1       1.779   5.149   5.699  0.00  0.00     0.078 C 
ATOM      2  C1  UNL d   1       2.618   3.999   5.229  0.00  0.00    -0.077 A 
ATOM      3  C2  UNL d   1       3.318   4.064   4.018  0.00  0.00    -0.001 A 
ATOM      4  C3  UNL d   1       4.088   2.981   3.589  0.00  0.00     0.003 A 
ATOM      5  C4  UNL d   1       4.163   1.825   4.363  0.00  0.00    -0.005 A 
ATOM      6  C5  UNL d   1       3.467   1.750   5.568  0.00  0.00     0.003 A 
ATOM      7  C6  UNL d   1       2.697   2.832   5.999  0.00  0.00    -0.001 A 
ENDROOT
TORSDOF 0
ENDMDL
