MODEL 1
REMARK minimizedAffinity -2.75110722
REMARK minimizedRMSD -1
REMARK  0 active torsions:
REMARK  status: ('A' for Active; 'I' for Inactive)
ROOT
ATOM      1  C   UNL d   1       1.590  -1.304   3.963  0.00  0.00     0.078 C 
ATOM      2  C1  UNL d   1       1.152  -2.637   4.491  0.00  0.00    -0.077 A 
ATOM      3  C2  UNL d   1      -0.005  -3.260   4.007  0.00  0.00    -0.001 A 
ATOM      4  C3  UNL d   1      -0.407  -4.496   4.515  0.00  0.00     0.003 A 
ATOM      5  C4  UNL d   1       0.342  -5.121   5.510  0.00  0.00    -0.005 A 
ATOM      6  C5  UNL d   1       1.494  -4.508   6.000  0.00  0.00     0.003 A 
ATOM      7  C6  UNL d   1       1.897  -3.271   5.493  0.00  0.00    -0.001 A 
ENDROOT
TORSDOF 0
ENDMDL
