MODEL 1
REMARK minimizedAffinity -0.562176168
REMARK minimizedRMSD -1
REMARK  0 active torsions:
REMARK  status: ('A' for Active; 'I' for Inactive)
ROOT
ATOM      1  C   UNL d   1       0.794  -2.688   4.847  0.00  0.00     0.078 C 
ATOM      2  C1  UNL d   1      -0.157  -3.847   4.843  0.00  0.00    -0.077 A 
ATOM      3  C2  UNL d   1      -0.330  -4.634   3.698  0.00  0.00    -0.001 A 
ATOM      4  C3  UNL d   1      -1.226  -5.704   3.706  0.00  0.00     0.003 A 
ATOM      5  C4  UNL d   1      -1.958  -5.996   4.855  0.00  0.00    -0.005 A 
ATOM      6  C5  UNL d   1      -1.795  -5.216   5.999  0.00  0.00     0.003 A 
ATOM      7  C6  UNL d   1      -0.899  -4.146   5.993  0.00  0.00    -0.001 A 
ENDROOT
TORSDOF 0
ENDMDL
