MODEL 1
REMARK minimizedAffinity -1.93895161
REMARK minimizedRMSD -1
REMARK  0 active torsions:
REMARK  status: ('A' for Active; 'I' for Inactive)
ROOT
ATOM      1  C   UNL d   1       2.257   0.722   5.994  0.00  0.00     0.078 C 
ATOM      2  C1  UNL d   1       2.549   2.172   5.746  0.00  0.00    -0.077 A 
ATOM      3  C2  UNL d   1       1.585   3.156   5.997  0.00  0.00    -0.001 A 
ATOM      4  C3  UNL d   1       1.868   4.500   5.751  0.00  0.00     0.003 A 
ATOM      5  C4  UNL d   1       3.114   4.873   5.252  0.00  0.00    -0.005 A 
ATOM      6  C5  UNL d   1       4.079   3.901   4.997  0.00  0.00     0.003 A 
ATOM      7  C6  UNL d   1       3.798   2.556   5.242  0.00  0.00    -0.001 A 
ENDROOT
TORSDOF 0
ENDMDL
