MODEL 1
REMARK minimizedAffinity 0.306975722
REMARK minimizedRMSD -1
REMARK  0 active torsions:
REMARK  status: ('A' for Active; 'I' for Inactive)
ROOT
ATOM      1  C   UNL d   1       0.771   5.676   5.985  0.00  0.00     0.078 C 
ATOM      2  C1  UNL d   1       1.863   4.648   5.997  0.00  0.00    -0.077 A 
ATOM      3  C2  UNL d   1       3.211   5.028   5.994  0.00  0.00    -0.001 A 
ATOM      4  C3  UNL d   1       4.217   4.061   5.996  0.00  0.00     0.003 A 
ATOM      5  C4  UNL d   1       3.886   2.707   5.999  0.00  0.00    -0.005 A 
ATOM      6  C5  UNL d   1       2.548   2.320   6.000  0.00  0.00     0.003 A 
ATOM      7  C6  UNL d   1       1.540   3.286   5.998  0.00  0.00    -0.001 A 
ENDROOT
TORSDOF 0
ENDMDL
