MODEL 1
REMARK minimizedAffinity 2.83704877
REMARK minimizedRMSD -1
REMARK  0 active torsions:
REMARK  status: ('A' for Active; 'I' for Inactive)
ROOT
ATOM      1  C   UNL d   1      -2.380  -0.253  -1.770  0.00  0.00     0.078 C 
ATOM      2  C1  UNL d   1      -3.429   0.077  -0.751  0.00  0.00    -0.077 A 
ATOM      3  C2  UNL d   1      -4.781  -0.200  -0.992  0.00  0.00    -0.001 A 
ATOM      4  C3  UNL d   1      -5.748   0.121  -0.038  0.00  0.00     0.003 A 
ATOM      5  C4  UNL d   1      -5.374   0.723   1.162  0.00  0.00    -0.005 A 
ATOM      6  C5  UNL d   1      -4.032   1.005   1.409  0.00  0.00     0.003 A 
ATOM      7  C6  UNL d   1      -3.064   0.684   0.457  0.00  0.00    -0.001 A 
ENDROOT
TORSDOF 0
ENDMDL
