MODEL 1
REMARK minimizedAffinity 4.75328016
REMARK minimizedRMSD -1
REMARK  0 active torsions:
REMARK  status: ('A' for Active; 'I' for Inactive)
ROOT
ATOM      1  C   UNL d   1       2.824  -0.480  -0.762  0.00  0.00     0.078 C 
ATOM      2  C1  UNL d   1       3.756   0.644  -0.420  0.00  0.00    -0.077 A 
ATOM      3  C2  UNL d   1       5.144   0.464  -0.450  0.00  0.00    -0.001 A 
ATOM      4  C3  UNL d   1       6.000   1.516  -0.120  0.00  0.00     0.003 A 
ATOM      5  C4  UNL d   1       5.477   2.756   0.244  0.00  0.00    -0.005 A 
ATOM      6  C5  UNL d   1       4.097   2.944   0.279  0.00  0.00     0.003 A 
ATOM      7  C6  UNL d   1       3.240   1.892  -0.050  0.00  0.00    -0.001 A 
ENDROOT
TORSDOF 0
ENDMDL
