MODEL 1
REMARK minimizedAffinity 1.81156135
REMARK minimizedRMSD -1
REMARK  0 active torsions:
REMARK  status: ('A' for Active; 'I' for Inactive)
ROOT
ATOM      1  C   UNL d   1      -0.754  -6.000   6.000  0.00  0.00     0.078 C 
ATOM      2  C1  UNL d   1       0.069  -5.254   4.992  0.00  0.00    -0.077 A 
ATOM      3  C2  UNL d   1       1.148  -4.456   5.390  0.00  0.00    -0.001 A 
ATOM      4  C3  UNL d   1       1.899  -3.759   4.442  0.00  0.00     0.003 A 
ATOM      5  C4  UNL d   1       1.578  -3.853   3.089  0.00  0.00    -0.005 A 
ATOM      6  C5  UNL d   1       0.504  -4.643   2.683  0.00  0.00     0.003 A 
ATOM      7  C6  UNL d   1      -0.248  -5.340   3.630  0.00  0.00    -0.001 A 
ENDROOT
TORSDOF 0
ENDMDL
