MODEL 1
REMARK minimizedAffinity 1.15918601
REMARK minimizedRMSD -1
REMARK  0 active torsions:
REMARK  status: ('A' for Active; 'I' for Inactive)
ROOT
ATOM      1  C   UNL d   1       0.004   5.998   4.887  0.00  0.00     0.020 A 
ATOM      2  C1  UNL d   1      -0.435   5.071   3.943  0.00  0.00     0.020 A 
ATOM      3  C2  UNL d   1       0.461   4.145   3.405  0.00  0.00     0.034 A 
ATOM      4  C3  UNL d   1       1.800   4.143   3.811  0.00  0.00     0.017 A 
ATOM      5  C4  UNL d   1       2.240   5.074   4.759  0.00  0.00     0.017 A 
ATOM      6  C5  UNL d   1       1.339   6.000   5.294  0.00  0.00     0.034 A 
ATOM      7 Cl   UNL d   1       3.877   5.134   5.309  0.00  0.00    -0.070 Cl
ATOM      8 Cl1  UNL d   1       2.852   2.969   3.105  0.00  0.00    -0.070 Cl
ENDROOT
TORSDOF 0
ENDMDL
