MODEL 1
REMARK minimizedAffinity 2.20561528
REMARK minimizedRMSD -1
REMARK  0 active torsions:
REMARK  status: ('A' for Active; 'I' for Inactive)
ROOT
ATOM      1  C   UNL d   1      -0.533   5.030   4.004  0.00  0.00     0.020 A 
ATOM      2  C1  UNL d   1       0.016   5.962   4.884  0.00  0.00     0.020 A 
ATOM      3  C2  UNL d   1       1.397   6.000   5.088  0.00  0.00     0.034 A 
ATOM      4  C3  UNL d   1       2.233   5.104   4.412  0.00  0.00     0.017 A 
ATOM      5  C4  UNL d   1       1.681   4.169   3.529  0.00  0.00     0.017 A 
ATOM      6  C5  UNL d   1       0.297   4.136   3.329  0.00  0.00     0.034 A 
ATOM      7 Cl   UNL d   1       2.648   3.032   2.659  0.00  0.00    -0.070 Cl
ATOM      8 Cl1  UNL d   1       3.932   5.207   4.713  0.00  0.00    -0.070 Cl
ENDROOT
TORSDOF 0
ENDMDL
