MODEL 1
REMARK minimizedAffinity 0.108378969
REMARK minimizedRMSD -1
REMARK  0 active torsions:
REMARK  status: ('A' for Active; 'I' for Inactive)
ROOT
ATOM      1  C   UNL d   1       2.659   5.990   6.000  0.00  0.00     0.020 A 
ATOM      2  C1  UNL d   1       3.660   5.172   5.477  0.00  0.00     0.020 A 
ATOM      3  C2  UNL d   1       3.394   4.364   4.370  0.00  0.00     0.034 A 
ATOM      4  C3  UNL d   1       2.124   4.371   3.782  0.00  0.00     0.017 A 
ATOM      5  C4  UNL d   1       1.119   5.192   4.308  0.00  0.00     0.017 A 
ATOM      6  C5  UNL d   1       1.391   6.000   5.416  0.00  0.00     0.034 A 
ATOM      7 Cl   UNL d   1      -0.472   5.255   3.636  0.00  0.00    -0.070 Cl
ATOM      8 Cl1  UNL d   1       1.865   3.346   2.415  0.00  0.00    -0.070 Cl
ENDROOT
TORSDOF 0
ENDMDL
