MODEL 1
REMARK minimizedAffinity 3.54459047
REMARK minimizedRMSD -1
REMARK  0 active torsions:
REMARK  status: ('A' for Active; 'I' for Inactive)
ROOT
ATOM      1  C   UNL d   1       3.638   5.385   5.334  0.00  0.00     0.020 A 
ATOM      2  C1  UNL d   1       2.577   6.000   5.998  0.00  0.00     0.020 A 
ATOM      3  C2  UNL d   1       1.289   5.938   5.461  0.00  0.00     0.034 A 
ATOM      4  C3  UNL d   1       1.059   5.261   4.258  0.00  0.00     0.017 A 
ATOM      5  C4  UNL d   1       2.125   4.644   3.593  0.00  0.00     0.017 A 
ATOM      6  C5  UNL d   1       3.412   4.709   4.135  0.00  0.00     0.034 A 
ATOM      7 Cl   UNL d   1       1.919   3.790   2.105  0.00  0.00    -0.070 Cl
ATOM      8 Cl1  UNL d   1      -0.559   5.225   3.653  0.00  0.00    -0.070 Cl
ENDROOT
TORSDOF 0
ENDMDL
