MODEL 1
REMARK minimizedAffinity 1.03213286
REMARK minimizedRMSD -1
REMARK  0 active torsions:
REMARK  status: ('A' for Active; 'I' for Inactive)
ROOT
ATOM      1  C   UNL d   1       3.752   4.975   5.268  0.00  0.00     0.020 A 
ATOM      2  C1  UNL d   1       2.869   5.997   5.614  0.00  0.00     0.020 A 
ATOM      3  C2  UNL d   1       1.568   5.997   5.106  0.00  0.00     0.034 A 
ATOM      4  C3  UNL d   1       1.147   4.973   4.250  0.00  0.00     0.017 A 
ATOM      5  C4  UNL d   1       2.034   3.948   3.904  0.00  0.00     0.017 A 
ATOM      6  C5  UNL d   1       3.335   3.953   4.415  0.00  0.00     0.034 A 
ATOM      7 Cl   UNL d   1       1.587   2.651   2.853  0.00  0.00    -0.070 Cl
ATOM      8 Cl1  UNL d   1      -0.476   5.037   3.660  0.00  0.00    -0.070 Cl
ENDROOT
TORSDOF 0
ENDMDL
