MODEL 1
REMARK minimizedAffinity 8.33382702
REMARK minimizedRMSD -1
REMARK  0 active torsions:
REMARK  status: ('A' for Active; 'I' for Inactive)
ROOT
ATOM      1  C   UNL d   1       1.092   6.000   5.339  0.00  0.00     0.020 A 
ATOM      2  C1  UNL d   1       0.611   5.324   4.218  0.00  0.00     0.020 A 
ATOM      3  C2  UNL d   1       1.498   4.648   3.377  0.00  0.00     0.034 A 
ATOM      4  C3  UNL d   1       2.869   4.646   3.656  0.00  0.00     0.017 A 
ATOM      5  C4  UNL d   1       3.351   5.324   4.781  0.00  0.00     0.017 A 
ATOM      6  C5  UNL d   1       2.459   6.000   5.620  0.00  0.00     0.034 A 
ATOM      7 Cl   UNL d   1       5.029   5.366   5.191  0.00  0.00    -0.070 Cl
ATOM      8 Cl1  UNL d   1       3.908   3.789   2.573  0.00  0.00    -0.070 Cl
ENDROOT
TORSDOF 0
ENDMDL
