MODEL 1
REMARK minimizedAffinity 3.97681832
REMARK minimizedRMSD -1
REMARK  0 active torsions:
REMARK  status: ('A' for Active; 'I' for Inactive)
ROOT
ATOM      1  C   UNL d   1       0.312   5.261   4.500  0.00  0.00     0.020 A 
ATOM      2  C1  UNL d   1       0.717   5.999   5.612  0.00  0.00     0.020 A 
ATOM      3  C2  UNL d   1       2.058   5.999   6.000  0.00  0.00     0.034 A 
ATOM      4  C3  UNL d   1       3.000   5.260   5.276  0.00  0.00     0.017 A 
ATOM      5  C4  UNL d   1       2.594   4.519   4.160  0.00  0.00     0.017 A 
ATOM      6  C5  UNL d   1       1.249   4.523   3.776  0.00  0.00     0.034 A 
ATOM      7 Cl   UNL d   1       3.698   3.583   3.216  0.00  0.00    -0.070 Cl
ATOM      8 Cl1  UNL d   1       4.642   5.307   5.812  0.00  0.00    -0.070 Cl
ENDROOT
TORSDOF 0
ENDMDL
