MODEL 1
REMARK minimizedAffinity -1.12925947
REMARK minimizedRMSD -1
REMARK  0 active torsions:
REMARK  status: ('A' for Active; 'I' for Inactive)
ROOT
ATOM      1  C   UNL d   1       3.282   5.312   5.426  0.00  0.00     0.020 A 
ATOM      2  C1  UNL d   1       2.208   5.991   6.000  0.00  0.00     0.020 A 
ATOM      3  C2  UNL d   1       0.966   6.000   5.362  0.00  0.00     0.034 A 
ATOM      4  C3  UNL d   1       0.795   5.328   4.146  0.00  0.00     0.017 A 
ATOM      5  C4  UNL d   1       1.873   4.646   3.571  0.00  0.00     0.017 A 
ATOM      6  C5  UNL d   1       3.114   4.640   4.214  0.00  0.00     0.034 A 
ATOM      7 Cl   UNL d   1       1.738   3.794   2.073  0.00  0.00    -0.070 Cl
ATOM      8 Cl1  UNL d   1      -0.769   5.380   3.413  0.00  0.00    -0.070 Cl
ENDROOT
TORSDOF 0
ENDMDL
