MODEL 1
REMARK minimizedAffinity 0.217452407
REMARK minimizedRMSD -1
REMARK  0 active torsions:
REMARK  status: ('A' for Active; 'I' for Inactive)
ROOT
ATOM      1  C   UNL d   1       1.343   5.899   5.091  0.00  0.00     0.020 A 
ATOM      2  C1  UNL d   1       1.154   5.242   3.875  0.00  0.00     0.020 A 
ATOM      3  C2  UNL d   1       2.246   4.687   3.205  0.00  0.00     0.034 A 
ATOM      4  C3  UNL d   1       3.532   4.786   3.749  0.00  0.00     0.017 A 
ATOM      5  C4  UNL d   1       3.720   5.446   4.969  0.00  0.00     0.017 A 
ATOM      6  C5  UNL d   1       2.624   6.000   5.637  0.00  0.00     0.034 A 
ATOM      7 Cl   UNL d   1       5.277   5.609   5.704  0.00  0.00    -0.070 Cl
ATOM      8 Cl1  UNL d   1       4.836   4.076   2.866  0.00  0.00    -0.070 Cl
ENDROOT
TORSDOF 0
ENDMDL
