MODEL 1
REMARK minimizedAffinity 2.77437592
REMARK minimizedRMSD -1
REMARK  0 active torsions:
REMARK  status: ('A' for Active; 'I' for Inactive)
ROOT
ATOM      1  C   UNL d   1       0.067   5.080   4.101  0.00  0.00     0.020 A 
ATOM      2  C1  UNL d   1       0.533   5.966   5.071  0.00  0.00     0.020 A 
ATOM      3  C2  UNL d   1       1.892   6.000   5.390  0.00  0.00     0.034 A 
ATOM      4  C3  UNL d   1       2.789   5.146   4.739  0.00  0.00     0.017 A 
ATOM      5  C4  UNL d   1       2.321   4.257   3.766  0.00  0.00     0.017 A 
ATOM      6  C5  UNL d   1       0.959   4.227   3.449  0.00  0.00     0.034 A 
ATOM      7 Cl   UNL d   1       3.367   3.172   2.919  0.00  0.00    -0.070 Cl
ATOM      8 Cl1  UNL d   1       4.456   5.242   5.184  0.00  0.00    -0.070 Cl
ENDROOT
TORSDOF 0
ENDMDL
