MODEL 1
REMARK minimizedAffinity 1.5786798
REMARK minimizedRMSD -1
REMARK  0 active torsions:
REMARK  status: ('A' for Active; 'I' for Inactive)
ROOT
ATOM      1  C   UNL d   1       2.693   5.998   5.997  0.00  0.00     0.020 A 
ATOM      2  C1  UNL d   1       3.769   5.151   5.734  0.00  0.00     0.020 A 
ATOM      3  C2  UNL d   1       3.702   4.246   4.673  0.00  0.00     0.034 A 
ATOM      4  C3  UNL d   1       2.556   4.185   3.871  0.00  0.00     0.017 A 
ATOM      5  C4  UNL d   1       1.477   5.036   4.136  0.00  0.00     0.017 A 
ATOM      6  C5  UNL d   1       1.549   5.941   5.199  0.00  0.00     0.034 A 
ATOM      7 Cl   UNL d   1       0.030   5.019   3.191  0.00  0.00    -0.070 Cl
ATOM      8 Cl1  UNL d   1       2.541   3.042   2.576  0.00  0.00    -0.070 Cl
ENDROOT
TORSDOF 0
ENDMDL
