MODEL 1
REMARK minimizedAffinity 10.9647999
REMARK minimizedRMSD -1
REMARK  1 active torsions:
REMARK  status: ('A' for Active; 'I' for Inactive)
REMARK    1  A    between atoms: C1_2  and  C2_3 
ROOT
ATOM      1  C2  UNL d   1      -1.544   0.964   2.333  0.00  0.00    -0.081 A 
ATOM      2  C3  UNL d   1      -2.306   2.104   2.620  0.00  0.00     0.006 A 
ATOM      3  C4  UNL d   1      -3.596   1.981   3.141  0.00  0.00     0.002 A 
ATOM      4  C5  UNL d   1      -4.143   0.718   3.390  0.00  0.00    -0.080 A 
ATOM      5  C6  UNL d   1      -5.516   0.572   3.977  0.00  0.00     0.076 C 
ATOM      6  C7  UNL d   1      -3.390  -0.421   3.087  0.00  0.00     0.002 A 
ATOM      7  C8  UNL d   1      -2.100  -0.299   2.566  0.00  0.00     0.006 A 
ENDROOT
BRANCH   1   8
ATOM      8  C1  UNL d   1      -0.129   1.095   1.833  0.00  0.00     0.054 C 
ATOM      9  C   UNL d   1      -0.074   1.055   0.312  0.00  0.00     0.018 C 
ENDBRANCH   1   8
TORSDOF 1
ENDMDL
