MODEL 1
REMARK minimizedAffinity 4.62869358
REMARK minimizedRMSD -1
REMARK  1 active torsions:
REMARK  status: ('A' for Active; 'I' for Inactive)
REMARK    1  A    between atoms: C1_2  and  C2_3 
ROOT
ATOM      1  C2  UNL d   1       2.270   2.441   0.344  0.00  0.00    -0.081 A 
ATOM      2  C3  UNL d   1       1.033   2.092  -0.211  0.00  0.00     0.006 A 
ATOM      3  C4  UNL d   1       0.305   1.016   0.301  0.00  0.00     0.002 A 
ATOM      4  C5  UNL d   1       0.798   0.275   1.381  0.00  0.00    -0.080 A 
ATOM      5  C6  UNL d   1       0.012  -0.864   1.960  0.00  0.00     0.076 C 
ATOM      6  C7  UNL d   1       2.042   0.613   1.925  0.00  0.00     0.002 A 
ATOM      7  C8  UNL d   1       2.771   1.688   1.413  0.00  0.00     0.006 A 
ENDROOT
BRANCH   1   8
ATOM      8  C1  UNL d   1       3.027   3.641  -0.164  0.00  0.00     0.054 C 
ATOM      9  C   UNL d   1       2.292   4.313  -1.315  0.00  0.00     0.018 C 
ENDBRANCH   1   8
TORSDOF 1
ENDMDL
