MODEL 1
REMARK minimizedAffinity -0.923977733
REMARK minimizedRMSD -1
REMARK  1 active torsions:
REMARK  status: ('A' for Active; 'I' for Inactive)
REMARK    1  A    between atoms: C1_2  and  C2_3 
ROOT
ATOM      1  C2  UNL d   1      -0.343  -5.938   2.100  0.00  0.00    -0.081 A 
ATOM      2  C3  UNL d   1       1.050  -5.918   1.961  0.00  0.00     0.006 A 
ATOM      3  C4  UNL d   1       1.874  -5.925   3.089  0.00  0.00     0.002 A 
ATOM      4  C5  UNL d   1       1.320  -5.961   4.373  0.00  0.00    -0.080 A 
ATOM      5  C6  UNL d   1       2.194  -6.000   5.591  0.00  0.00     0.076 C 
ATOM      6  C7  UNL d   1      -0.072  -5.963   4.512  0.00  0.00     0.002 A 
ATOM      7  C8  UNL d   1      -0.897  -5.955   3.385  0.00  0.00     0.006 A 
ENDROOT
BRANCH   1   8
ATOM      8  C1  UNL d   1      -1.234  -5.995   0.885  0.00  0.00     0.054 C 
ATOM      9  C   UNL d   1      -2.705  -5.999   1.277  0.00  0.00     0.018 C 
ENDBRANCH   1   8
TORSDOF 1
ENDMDL
