MODEL 1
REMARK minimizedAffinity 9.6362896
REMARK minimizedRMSD -1
REMARK  1 active torsions:
REMARK  status: ('A' for Active; 'I' for Inactive)
REMARK    1  A    between atoms: C1_2  and  C2_3 
ROOT
ATOM      1  C2  UNL d   1       1.556  -1.335  -4.047  0.00  0.00    -0.081 A 
ATOM      2  C3  UNL d   1       1.737  -1.046  -2.689  0.00  0.00     0.006 A 
ATOM      3  C4  UNL d   1       2.790  -0.227  -2.274  0.00  0.00     0.002 A 
ATOM      4  C5  UNL d   1       3.673   0.323  -3.210  0.00  0.00    -0.080 A 
ATOM      5  C6  UNL d   1       4.789   1.228  -2.780  0.00  0.00     0.076 C 
ATOM      6  C7  UNL d   1       3.502   0.020  -4.565  0.00  0.00     0.002 A 
ATOM      7  C8  UNL d   1       2.450  -0.799  -4.980  0.00  0.00     0.006 A 
ENDROOT
BRANCH   1   8
ATOM      8  C1  UNL d   1       0.383  -2.165  -4.504  0.00  0.00     0.054 C 
ATOM      9  C   UNL d   1       0.700  -2.906  -5.795  0.00  0.00     0.018 C 
ENDBRANCH   1   8
TORSDOF 1
ENDMDL
