MODEL 1
REMARK minimizedAffinity 6.68366194
REMARK minimizedRMSD -1
REMARK  1 active torsions:
REMARK  status: ('A' for Active; 'I' for Inactive)
REMARK    1  A    between atoms: C1_2  and  C2_3 
ROOT
ATOM      1  C2  UNL d   1       1.289  -5.925   3.167  0.00  0.00    -0.081 A 
ATOM      2  C3  UNL d   1       0.055  -5.889   3.827  0.00  0.00     0.006 A 
ATOM      3  C4  UNL d   1      -1.138  -5.899   3.100  0.00  0.00     0.002 A 
ATOM      4  C5  UNL d   1      -1.117  -5.954   1.703  0.00  0.00    -0.080 A 
ATOM      5  C6  UNL d   1      -2.390  -5.997   0.911  0.00  0.00     0.076 C 
ATOM      6  C7  UNL d   1       0.116  -5.972   1.042  0.00  0.00     0.002 A 
ATOM      7  C8  UNL d   1       1.309  -5.961   1.768  0.00  0.00     0.006 A 
ENDROOT
BRANCH   1   8
ATOM      8  C1  UNL d   1       2.576  -5.979   3.950  0.00  0.00     0.054 C 
ATOM      9  C   UNL d   1       3.786  -5.905   3.030  0.00  0.00     0.018 C 
ENDBRANCH   1   8
TORSDOF 1
ENDMDL
