MODEL 1
REMARK minimizedAffinity 11.3752947
REMARK minimizedRMSD -1
REMARK  1 active torsions:
REMARK  status: ('A' for Active; 'I' for Inactive)
REMARK    1  A    between atoms: C1_2  and  C2_3 
ROOT
ATOM      1  C2  UNL d   1       0.378   0.839   1.920  0.00  0.00    -0.081 A 
ATOM      2  C3  UNL d   1       1.544   1.453   2.394  0.00  0.00     0.006 A 
ATOM      3  C4  UNL d   1       2.268   2.324   1.576  0.00  0.00     0.002 A 
ATOM      4  C5  UNL d   1       1.834   2.601   0.275  0.00  0.00    -0.080 A 
ATOM      5  C6  UNL d   1       2.586   3.557  -0.603  0.00  0.00     0.076 C 
ATOM      6  C7  UNL d   1       0.679   1.974  -0.204  0.00  0.00     0.002 A 
ATOM      7  C8  UNL d   1      -0.045   1.103   0.613  0.00  0.00     0.006 A 
ENDROOT
BRANCH   1   8
ATOM      8  C1  UNL d   1      -0.441  -0.050   2.822  0.00  0.00     0.054 C 
ATOM      9  C   UNL d   1      -1.019  -1.232   2.057  0.00  0.00     0.018 C 
ENDBRANCH   1   8
TORSDOF 1
ENDMDL
