MODEL 1
REMARK minimizedAffinity 11.213563
REMARK minimizedRMSD -1
REMARK  1 active torsions:
REMARK  status: ('A' for Active; 'I' for Inactive)
REMARK    1  A    between atoms: C1_2  and  C2_3 
ROOT
ATOM      1  C2  UNL d   1      -2.921  -1.716  -3.083  0.00  0.00    -0.081 A 
ATOM      2  C3  UNL d   1      -2.936  -3.023  -3.585  0.00  0.00     0.006 A 
ATOM      3  C4  UNL d   1      -1.892  -3.484  -4.390  0.00  0.00     0.002 A 
ATOM      4  C5  UNL d   1      -0.813  -2.650  -4.700  0.00  0.00    -0.080 A 
ATOM      5  C6  UNL d   1       0.330  -3.142  -5.538  0.00  0.00     0.076 C 
ATOM      6  C7  UNL d   1      -0.806  -1.338  -4.213  0.00  0.00     0.002 A 
ATOM      7  C8  UNL d   1      -1.850  -0.876  -3.409  0.00  0.00     0.006 A 
ENDROOT
BRANCH   1   8
ATOM      8  C1  UNL d   1      -4.013  -1.236  -2.162  0.00  0.00     0.054 C 
ATOM      9  C   UNL d   1      -5.388  -1.421  -2.790  0.00  0.00     0.018 C 
ENDBRANCH   1   8
TORSDOF 1
ENDMDL
