MODEL 1
REMARK minimizedAffinity 8.81197453
REMARK minimizedRMSD -1
REMARK  1 active torsions:
REMARK  status: ('A' for Active; 'I' for Inactive)
REMARK    1  A    between atoms: C1_2  and  C2_3 
ROOT
ATOM      1  C2  UNL d   1      -0.174  -2.157  -3.405  0.00  0.00    -0.081 A 
ATOM      2  C3  UNL d   1      -1.200  -3.072  -3.672  0.00  0.00     0.006 A 
ATOM      3  C4  UNL d   1      -2.494  -2.844  -3.198  0.00  0.00     0.002 A 
ATOM      4  C5  UNL d   1      -2.785  -1.694  -2.456  0.00  0.00    -0.080 A 
ATOM      5  C6  UNL d   1      -4.177  -1.422  -1.966  0.00  0.00     0.076 C 
ATOM      6  C7  UNL d   1      -1.757  -0.788  -2.174  0.00  0.00     0.002 A 
ATOM      7  C8  UNL d   1      -0.463  -1.016  -2.648  0.00  0.00     0.006 A 
ENDROOT
BRANCH   1   8
ATOM      8  C1  UNL d   1       1.207  -2.368  -3.971  0.00  0.00     0.054 C 
ATOM      9  C   UNL d   1       2.214  -1.418  -3.338  0.00  0.00     0.018 C 
ENDBRANCH   1   8
TORSDOF 1
ENDMDL
