MODEL 1
REMARK minimizedAffinity 2.04514003
REMARK minimizedRMSD -1
REMARK  1 active torsions:
REMARK  status: ('A' for Active; 'I' for Inactive)
REMARK    1  A    between atoms: C1_2  and  C2_3 
ROOT
ATOM      1  C2  UNL d   1      -0.272  -1.798  -3.942  0.00  0.00    -0.081 A 
ATOM      2  C3  UNL d   1      -1.065  -2.950  -4.006  0.00  0.00     0.006 A 
ATOM      3  C4  UNL d   1      -2.446  -2.872  -3.811  0.00  0.00     0.002 A 
ATOM      4  C5  UNL d   1      -3.058  -1.640  -3.557  0.00  0.00    -0.080 A 
ATOM      5  C6  UNL d   1      -4.543  -1.537  -3.376  0.00  0.00     0.076 C 
ATOM      6  C7  UNL d   1      -2.264  -0.491  -3.476  0.00  0.00     0.002 A 
ATOM      7  C8  UNL d   1      -0.883  -0.569  -3.670  0.00  0.00     0.006 A 
ENDROOT
BRANCH   1   8
ATOM      8  C1  UNL d   1       1.208  -1.870  -4.216  0.00  0.00     0.054 C 
ATOM      9  C   UNL d   1       1.971  -0.831  -3.407  0.00  0.00     0.018 C 
ENDBRANCH   1   8
TORSDOF 1
ENDMDL
