MODEL 1
REMARK minimizedAffinity 2.69846225
REMARK minimizedRMSD -1
REMARK  1 active torsions:
REMARK  status: ('A' for Active; 'I' for Inactive)
REMARK    1  A    between atoms: C1_2  and  C2_3 
ROOT
ATOM      1  C2  UNL d   1      -0.081  -5.929   2.141  0.00  0.00    -0.081 A 
ATOM      2  C3  UNL d   1      -1.049  -5.938   1.129  0.00  0.00     0.006 A 
ATOM      3  C4  UNL d   1      -2.408  -5.973   1.450  0.00  0.00     0.002 A 
ATOM      4  C5  UNL d   1      -2.822  -5.991   2.786  0.00  0.00    -0.080 A 
ATOM      5  C6  UNL d   1      -4.278  -5.998   3.144  0.00  0.00     0.076 C 
ATOM      6  C7  UNL d   1      -1.854  -6.000   3.797  0.00  0.00     0.002 A 
ATOM      7  C8  UNL d   1      -0.495  -5.966   3.477  0.00  0.00     0.006 A 
ENDROOT
BRANCH   1   8
ATOM      8  C1  UNL d   1       1.384  -5.826   1.800  0.00  0.00     0.054 C 
ATOM      9  C   UNL d   1       2.253  -5.966   3.041  0.00  0.00     0.018 C 
ENDBRANCH   1   8
TORSDOF 1
ENDMDL
