MODEL 1
REMARK minimizedAffinity 9.67137623
REMARK minimizedRMSD -1
REMARK  1 active torsions:
REMARK  status: ('A' for Active; 'I' for Inactive)
REMARK    1  A    between atoms: C1_2  and  C2_3 
ROOT
ATOM      1  C2  UNL d   1      -0.327  -2.078  -4.002  0.00  0.00    -0.081 A 
ATOM      2  C3  UNL d   1      -0.648  -0.843  -3.427  0.00  0.00     0.006 A 
ATOM      3  C4  UNL d   1      -1.941  -0.592  -2.963  0.00  0.00     0.002 A 
ATOM      4  C5  UNL d   1      -2.932  -1.575  -3.058  0.00  0.00    -0.080 A 
ATOM      5  C6  UNL d   1      -4.317  -1.330  -2.536  0.00  0.00     0.076 C 
ATOM      6  C7  UNL d   1      -2.616  -2.804  -3.648  0.00  0.00     0.002 A 
ATOM      7  C8  UNL d   1      -1.323  -3.054  -4.113  0.00  0.00     0.006 A 
ENDROOT
BRANCH   1   8
ATOM      8  C1  UNL d   1       1.084  -2.374  -4.444  0.00  0.00     0.054 C 
ATOM      9  C   UNL d   1       2.096  -1.577  -3.635  0.00  0.00     0.018 C 
ENDBRANCH   1   8
TORSDOF 1
ENDMDL
