MODEL 1
REMARK minimizedAffinity 8.53981209
REMARK minimizedRMSD -1
REMARK  1 active torsions:
REMARK  status: ('A' for Active; 'I' for Inactive)
REMARK    1  A    between atoms: C1_2  and  C2_3 
ROOT
ATOM      1  C2  UNL d   1      -0.659  -5.908   1.623  0.00  0.00    -0.081 A 
ATOM      2  C3  UNL d   1       0.731  -5.894   1.790  0.00  0.00     0.006 A 
ATOM      3  C4  UNL d   1       1.291  -5.911   3.070  0.00  0.00     0.002 A 
ATOM      4  C5  UNL d   1       0.471  -5.950   4.202  0.00  0.00    -0.080 A 
ATOM      5  C6  UNL d   1       1.059  -5.999   5.581  0.00  0.00     0.076 C 
ATOM      6  C7  UNL d   1      -0.918  -5.946   4.036  0.00  0.00     0.002 A 
ATOM      7  C8  UNL d   1      -1.479  -5.928   2.757  0.00  0.00     0.006 A 
ENDROOT
BRANCH   1   8
ATOM      8  C1  UNL d   1      -1.265  -5.955   0.243  0.00  0.00     0.054 C 
ATOM      9  C   UNL d   1      -2.752  -5.630   0.280  0.00  0.00     0.018 C 
ENDBRANCH   1   8
TORSDOF 1
ENDMDL
