MODEL 1
REMARK minimizedAffinity 0.79871434
REMARK minimizedRMSD -1
REMARK  1 active torsions:
REMARK  status: ('A' for Active; 'I' for Inactive)
REMARK    1  A    between atoms: C1_2  and  C2_3 
ROOT
ATOM      1  C2  UNL d   1       1.227  -5.963   3.051  0.00  0.00    -0.081 A 
ATOM      2  C3  UNL d   1       0.918  -5.980   4.417  0.00  0.00     0.006 A 
ATOM      3  C4  UNL d   1       1.936  -5.998   5.373  0.00  0.00     0.002 A 
ATOM      4  C5  UNL d   1       3.278  -5.991   4.981  0.00  0.00    -0.080 A 
ATOM      5  C6  UNL d   1       4.381  -5.979   5.998  0.00  0.00     0.076 C 
ATOM      6  C7  UNL d   1       3.587  -5.991   3.617  0.00  0.00     0.002 A 
ATOM      7  C8  UNL d   1       2.570  -5.974   2.660  0.00  0.00     0.006 A 
ENDROOT
BRANCH   1   8
ATOM      8  C1  UNL d   1       0.132  -5.878   2.019  0.00  0.00     0.054 C 
ATOM      9  C   UNL d   1      -1.243  -5.998   2.659  0.00  0.00     0.018 C 
ENDBRANCH   1   8
TORSDOF 1
ENDMDL
