MODEL 1
REMARK minimizedAffinity 13.5142317
REMARK minimizedRMSD -1
REMARK  0 active torsions:
REMARK  status: ('A' for Active; 'I' for Inactive)
ROOT
ATOM      1  C   UNL d   1      -4.856  -2.957  -5.621  0.00  0.00     0.023 A 
ATOM      2  C1  UNL d   1      -4.783  -3.885  -4.582  0.00  0.00     0.003 A 
ATOM      3  C2  UNL d   1      -3.572  -4.100  -3.920  0.00  0.00     0.048 A 
ATOM      4  C3  UNL d   1      -2.439  -3.382  -4.302  0.00  0.00     0.023 A 
ATOM      5  C4  UNL d   1      -2.508  -2.452  -5.340  0.00  0.00     0.048 A 
ATOM      6  C5  UNL d   1      -3.720  -2.242  -6.000  0.00  0.00     0.003 A 
ATOM      7  I   UNL d   1      -0.636  -3.699  -3.318  0.00  0.00    -0.146 I 
ENDROOT
TORSDOF 0
ENDMDL
