MODEL 1
REMARK minimizedAffinity 11.1345634
REMARK minimizedRMSD -1
REMARK  0 active torsions:
REMARK  status: ('A' for Active; 'I' for Inactive)
ROOT
ATOM      1  C   UNL d   1       1.542   1.462   1.765  0.00  0.00     0.023 A 
ATOM      2  C1  UNL d   1       0.756   1.935   2.816  0.00  0.00     0.003 A 
ATOM      3  C2  UNL d   1      -0.593   1.585   2.894  0.00  0.00     0.048 A 
ATOM      4  C3  UNL d   1      -1.151   0.760   1.917  0.00  0.00     0.023 A 
ATOM      5  C4  UNL d   1      -0.368   0.283   0.864  0.00  0.00     0.048 A 
ATOM      6  C5  UNL d   1       0.980   0.637   0.791  0.00  0.00     0.003 A 
ATOM      7  I   UNL d   1      -3.159   0.237   2.031  0.00  0.00    -0.146 I 
ENDROOT
TORSDOF 0
ENDMDL
