MODEL 1
REMARK minimizedAffinity 7.67317486
REMARK minimizedRMSD -1
REMARK  0 active torsions:
REMARK  status: ('A' for Active; 'I' for Inactive)
ROOT
ATOM      1  C   UNL d   1       1.131   1.744   2.796  0.00  0.00     0.023 A 
ATOM      2  C1  UNL d   1       2.345   1.631   2.118  0.00  0.00     0.003 A 
ATOM      3  C2  UNL d   1       2.390   1.024   0.861  0.00  0.00     0.048 A 
ATOM      4  C3  UNL d   1       1.217   0.534   0.288  0.00  0.00     0.023 A 
ATOM      5  C4  UNL d   1       0.000   0.645   0.962  0.00  0.00     0.048 A 
ATOM      6  C5  UNL d   1      -0.040   1.252   2.219  0.00  0.00     0.003 A 
ATOM      7  I   UNL d   1       1.282  -0.370  -1.583  0.00  0.00    -0.146 I 
ENDROOT
TORSDOF 0
ENDMDL
