MODEL 1
REMARK minimizedAffinity 9.88969994
REMARK minimizedRMSD -1
REMARK  0 active torsions:
REMARK  status: ('A' for Active; 'I' for Inactive)
ROOT
ATOM      1  C   UNL d   1       2.712  -0.347  -1.958  0.00  0.00     0.023 A 
ATOM      2  C1  UNL d   1       2.959   0.978  -1.598  0.00  0.00     0.003 A 
ATOM      3  C2  UNL d   1       2.416   1.495  -0.420  0.00  0.00     0.048 A 
ATOM      4  C3  UNL d   1       1.628   0.682   0.393  0.00  0.00     0.023 A 
ATOM      5  C4  UNL d   1       1.378  -0.645   0.037  0.00  0.00     0.048 A 
ATOM      6  C5  UNL d   1       1.923  -1.157  -1.142  0.00  0.00     0.003 A 
ATOM      7  I   UNL d   1       0.818   1.450   2.147  0.00  0.00    -0.146 I 
ENDROOT
TORSDOF 0
ENDMDL
