MODEL 1
REMARK minimizedAffinity 11.1234875
REMARK minimizedRMSD -1
REMARK  0 active torsions:
REMARK  status: ('A' for Active; 'I' for Inactive)
ROOT
ATOM      1  C   UNL d   1      -3.085   3.361  -5.941  0.00  0.00     0.023 A 
ATOM      2  C1  UNL d   1      -3.296   4.738  -5.857  0.00  0.00     0.003 A 
ATOM      3  C2  UNL d   1      -2.598   5.497  -4.915  0.00  0.00     0.048 A 
ATOM      4  C3  UNL d   1      -1.691   4.873  -4.060  0.00  0.00     0.023 A 
ATOM      5  C4  UNL d   1      -1.476   3.496  -4.140  0.00  0.00     0.048 A 
ATOM      6  C5  UNL d   1      -2.176   2.741  -5.083  0.00  0.00     0.003 A 
ATOM      7  I   UNL d   1      -0.651   6.000  -2.657  0.00  0.00    -0.146 I 
ENDROOT
TORSDOF 0
ENDMDL
