MODEL 1
REMARK minimizedAffinity 17.7950916
REMARK minimizedRMSD -1
REMARK  0 active torsions:
REMARK  status: ('A' for Active; 'I' for Inactive)
ROOT
ATOM      1  C   UNL d   1      -4.457   1.030   3.021  0.00  0.00     0.023 A 
ATOM      2  C1  UNL d   1      -3.839   1.957   3.861  0.00  0.00     0.003 A 
ATOM      3  C2  UNL d   1      -2.473   2.216   3.733  0.00  0.00     0.048 A 
ATOM      4  C3  UNL d   1      -1.731   1.545   2.762  0.00  0.00     0.023 A 
ATOM      5  C4  UNL d   1      -2.345   0.617   1.919  0.00  0.00     0.048 A 
ATOM      6  C5  UNL d   1      -3.711   0.361   2.051  0.00  0.00     0.003 A 
ATOM      7  I   UNL d   1       0.303   1.928   2.569  0.00  0.00    -0.146 I 
ENDROOT
TORSDOF 0
ENDMDL
