MODEL 1
REMARK minimizedAffinity 16.0088539
REMARK minimizedRMSD -1
REMARK  0 active torsions:
REMARK  status: ('A' for Active; 'I' for Inactive)
ROOT
ATOM      1  C   UNL d   1       1.841  -1.477  -1.304  0.00  0.00     0.023 A 
ATOM      2  C1  UNL d   1       2.516  -1.776  -2.488  0.00  0.00     0.003 A 
ATOM      3  C2  UNL d   1       3.708  -2.502  -2.449  0.00  0.00     0.048 A 
ATOM      4  C3  UNL d   1       4.220  -2.925  -1.223  0.00  0.00     0.023 A 
ATOM      5  C4  UNL d   1       3.548  -2.629  -0.036  0.00  0.00     0.048 A 
ATOM      6  C5  UNL d   1       2.356  -1.903  -0.080  0.00  0.00     0.003 A 
ATOM      7  I   UNL d   1       5.995  -4.005  -1.163  0.00  0.00    -0.146 I 
ENDROOT
TORSDOF 0
ENDMDL
