MODEL 1
REMARK minimizedAffinity 13.646143
REMARK minimizedRMSD -1
REMARK  0 active torsions:
REMARK  status: ('A' for Active; 'I' for Inactive)
ROOT
ATOM      1  C   UNL d   1       2.361   0.573  -0.273  0.00  0.00     0.023 A 
ATOM      2  C1  UNL d   1       2.047  -0.680  -0.798  0.00  0.00     0.003 A 
ATOM      3  C2  UNL d   1       2.909  -1.760  -0.595  0.00  0.00     0.048 A 
ATOM      4  C3  UNL d   1       4.083  -1.579   0.136  0.00  0.00     0.023 A 
ATOM      5  C4  UNL d   1       4.401  -0.327   0.663  0.00  0.00     0.048 A 
ATOM      6  C5  UNL d   1       3.537   0.750   0.457  0.00  0.00     0.003 A 
ATOM      7  I   UNL d   1       5.368  -3.185   0.440  0.00  0.00    -0.146 I 
ENDROOT
TORSDOF 0
ENDMDL
