MODEL 1
REMARK minimizedAffinity 14.5825891
REMARK minimizedRMSD -1
REMARK  0 active torsions:
REMARK  status: ('A' for Active; 'I' for Inactive)
ROOT
ATOM      1  C   UNL d   1       4.186   1.115  -0.180  0.00  0.00     0.023 A 
ATOM      2  C1  UNL d   1       4.051  -0.187   0.302  0.00  0.00     0.003 A 
ATOM      3  C2  UNL d   1       3.223  -1.095  -0.361  0.00  0.00     0.048 A 
ATOM      4  C3  UNL d   1       2.534  -0.695  -1.506  0.00  0.00     0.023 A 
ATOM      5  C4  UNL d   1       2.668   0.606  -1.992  0.00  0.00     0.048 A 
ATOM      6  C5  UNL d   1       3.496   1.511  -1.326  0.00  0.00     0.003 A 
ATOM      7  I   UNL d   1       1.302  -2.046  -2.494  0.00  0.00    -0.146 I 
ENDROOT
TORSDOF 0
ENDMDL
