MODEL 1
REMARK minimizedAffinity 7.30035305
REMARK minimizedRMSD -1
REMARK  0 active torsions:
REMARK  status: ('A' for Active; 'I' for Inactive)
ROOT
ATOM      1  C   UNL d   1      -1.209  -3.480  -2.699  0.00  0.00     0.023 A 
ATOM      2  C1  UNL d   1      -2.238  -4.421  -2.727  0.00  0.00     0.003 A 
ATOM      3  C2  UNL d   1      -3.299  -4.272  -3.622  0.00  0.00     0.048 A 
ATOM      4  C3  UNL d   1      -3.325  -3.178  -4.487  0.00  0.00     0.023 A 
ATOM      5  C4  UNL d   1      -2.297  -2.234  -4.463  0.00  0.00     0.048 A 
ATOM      6  C5  UNL d   1      -1.239  -2.387  -3.566  0.00  0.00     0.003 A 
ATOM      7  I   UNL d   1      -4.903  -2.953  -5.821  0.00  0.00    -0.146 I 
ENDROOT
TORSDOF 0
ENDMDL
