MODEL 1
REMARK minimizedAffinity 14.3784561
REMARK minimizedRMSD -1
REMARK  0 active torsions:
REMARK  status: ('A' for Active; 'I' for Inactive)
ROOT
ATOM      1  C   UNL d   1       3.447   0.809   0.191  0.00  0.00     0.023 A 
ATOM      2  C1  UNL d   1       3.442   1.691   1.271  0.00  0.00     0.003 A 
ATOM      3  C2  UNL d   1       2.273   1.886   2.010  0.00  0.00     0.048 A 
ATOM      4  C3  UNL d   1       1.113   1.195   1.663  0.00  0.00     0.023 A 
ATOM      5  C4  UNL d   1       1.113   0.311   0.583  0.00  0.00     0.048 A 
ATOM      6  C5  UNL d   1       2.284   0.119  -0.153  0.00  0.00     0.003 A 
ATOM      7  I   UNL d   1      -0.628   1.485   2.761  0.00  0.00    -0.146 I 
ENDROOT
TORSDOF 0
ENDMDL
