MODEL 1
REMARK minimizedAffinity 15.7032871
REMARK minimizedRMSD -1
REMARK  0 active torsions:
REMARK  status: ('A' for Active; 'I' for Inactive)
ROOT
ATOM      1  C   UNL d   1       2.364   1.469   3.195  0.00  0.00     0.023 A 
ATOM      2  C1  UNL d   1       1.727   1.560   1.957  0.00  0.00     0.003 A 
ATOM      3  C2  UNL d   1       0.332   1.558   1.887  0.00  0.00     0.048 A 
ATOM      4  C3  UNL d   1      -0.419   1.467   3.058  0.00  0.00     0.023 A 
ATOM      5  C4  UNL d   1       0.214   1.377   4.298  0.00  0.00     0.048 A 
ATOM      6  C5  UNL d   1       1.609   1.378   4.364  0.00  0.00     0.003 A 
ATOM      7  I   UNL d   1      -2.495   1.464   2.955  0.00  0.00    -0.146 I 
ENDROOT
TORSDOF 0
ENDMDL
