MODEL 1
REMARK minimizedAffinity 6.83396339
REMARK minimizedRMSD -1
REMARK  0 active torsions:
REMARK  status: ('A' for Active; 'I' for Inactive)
ROOT
ATOM      1  C   UNL d   1       2.853   0.271  -1.523  0.00  0.00     0.023 A 
ATOM      2  C1  UNL d   1       3.329   0.987  -0.425  0.00  0.00     0.003 A 
ATOM      3  C2  UNL d   1       2.457   1.360   0.599  0.00  0.00     0.048 A 
ATOM      4  C3  UNL d   1       1.108   1.013   0.519  0.00  0.00     0.023 A 
ATOM      5  C4  UNL d   1       0.627   0.296  -0.577  0.00  0.00     0.048 A 
ATOM      6  C5  UNL d   1       1.503  -0.074  -1.599  0.00  0.00     0.003 A 
ATOM      7  I   UNL d   1      -0.193   1.568   2.042  0.00  0.00    -0.146 I 
ENDROOT
TORSDOF 0
ENDMDL
