MODEL 1
REMARK minimizedAffinity 10.7545586
REMARK minimizedRMSD -1
REMARK  0 active torsions:
REMARK  status: ('A' for Active; 'I' for Inactive)
ROOT
ATOM      1  C   UNL d   1      -2.048   0.754   1.813  0.00  0.00     0.023 A 
ATOM      2  C1  UNL d   1      -3.371   0.545   2.203  0.00  0.00     0.003 A 
ATOM      3  C2  UNL d   1      -3.838   1.081   3.405  0.00  0.00     0.048 A 
ATOM      4  C3  UNL d   1      -2.977   1.826   4.211  0.00  0.00     0.023 A 
ATOM      5  C4  UNL d   1      -1.653   2.038   3.824  0.00  0.00     0.048 A 
ATOM      6  C5  UNL d   1      -1.190   1.499   2.622  0.00  0.00     0.003 A 
ATOM      7  I   UNL d   1      -3.671   2.625   6.000  0.00  0.00    -0.146 I 
ENDROOT
TORSDOF 0
ENDMDL
