MODEL 1
REMARK minimizedAffinity 10.7871628
REMARK minimizedRMSD -1
REMARK  0 active torsions:
REMARK  status: ('A' for Active; 'I' for Inactive)
ROOT
ATOM      1  C   UNL d   1       4.582  -4.190   0.845  0.00  0.00     0.023 A 
ATOM      2  C1  UNL d   1       5.318  -3.005   0.813  0.00  0.00     0.003 A 
ATOM      3  C2  UNL d   1       4.682  -1.794   0.530  0.00  0.00     0.048 A 
ATOM      4  C3  UNL d   1       3.310  -1.775   0.280  0.00  0.00     0.023 A 
ATOM      5  C4  UNL d   1       2.570  -2.958   0.311  0.00  0.00     0.048 A 
ATOM      6  C5  UNL d   1       3.210  -4.166   0.594  0.00  0.00     0.003 A 
ATOM      7  I   UNL d   1       2.363   0.026  -0.141  0.00  0.00    -0.146 I 
ENDROOT
TORSDOF 0
ENDMDL
