MODEL 1
REMARK minimizedAffinity 13.0435648
REMARK minimizedRMSD -1
REMARK  0 active torsions:
REMARK  status: ('A' for Active; 'I' for Inactive)
ROOT
ATOM      1  C   UNL d   1      -5.103   1.047   3.565  0.00  0.00     0.023 A 
ATOM      2  C1  UNL d   1      -4.368   0.062   2.905  0.00  0.00     0.003 A 
ATOM      3  C2  UNL d   1      -3.017   0.268   2.622  0.00  0.00     0.048 A 
ATOM      4  C3  UNL d   1      -2.405   1.461   3.004  0.00  0.00     0.023 A 
ATOM      5  C4  UNL d   1      -3.135   2.450   3.666  0.00  0.00     0.048 A 
ATOM      6  C5  UNL d   1      -4.487   2.240   3.945  0.00  0.00     0.003 A 
ATOM      7  I   UNL d   1      -0.393   1.771   2.585  0.00  0.00    -0.146 I 
ENDROOT
TORSDOF 0
ENDMDL
