MODEL 1
REMARK minimizedAffinity -1.71490479
REMARK minimizedRMSD -1
REMARK  0 active torsions:
REMARK  status: ('A' for Active; 'I' for Inactive)
ROOT
ATOM      1  C1  DEN d   1       0.591   0.365  -0.016  0.00  0.00     0.130 A 
ATOM      2  C2  DEN d   1       0.336  -0.966   0.528  0.00  0.00    -0.031 A 
ATOM      3  C3  DEN d   1      -0.686  -0.839   1.586  0.00  0.00     0.027 A 
ATOM      4  C4  DEN d   1      -1.897   1.278   2.426  0.00  0.00     0.027 A 
ATOM      5  C5  DEN d   1      -2.005   2.643   2.277  0.00  0.00    -0.003 A 
ATOM      6  C6  DEN d   1      -1.238   3.343   1.384  0.00  0.00     0.001 A 
ATOM      7  C7  DEN d   1      -0.359   2.674   0.574  0.00  0.00     0.017 A 
ATOM      8  C8  DEN d   1      -0.239   1.299   0.724  0.00  0.00    -0.094 A 
ATOM      9  C9  DEN d   1      -1.032   0.608   1.623  0.00  0.00    -0.072 A 
ENDROOT
TORSDOF 0
ENDMDL
