MODEL 1
REMARK minimizedAffinity -4.74898529
REMARK minimizedRMSD -1
REMARK  0 active torsions:
REMARK  status: ('A' for Active; 'I' for Inactive)
ROOT
ATOM      1  C1  DEN d   1       0.729   0.302  -0.882  0.00  0.00     0.130 A 
ATOM      2  C2  DEN d   1       1.378  -0.589   0.077  0.00  0.00    -0.031 A 
ATOM      3  C3  DEN d   1       0.592  -0.566   1.326  0.00  0.00     0.027 A 
ATOM      4  C4  DEN d   1      -1.559   0.752   1.866  0.00  0.00     0.027 A 
ATOM      5  C5  DEN d   1      -2.479   1.650   1.372  0.00  0.00    -0.003 A 
ATOM      6  C6  DEN d   1      -2.376   2.183   0.115  0.00  0.00     0.001 A 
ATOM      7  C7  DEN d   1      -1.355   1.788  -0.709  0.00  0.00     0.017 A 
ATOM      8  C8  DEN d   1      -0.419   0.889  -0.215  0.00  0.00    -0.094 A 
ATOM      9  C9  DEN d   1      -0.547   0.352   1.055  0.00  0.00    -0.072 A 
ENDROOT
TORSDOF 0
ENDMDL
