MODEL 1
REMARK minimizedAffinity -1.88046408
REMARK minimizedRMSD -1
REMARK  0 active torsions:
REMARK  status: ('A' for Active; 'I' for Inactive)
ROOT
ATOM      1  C1  DEN d   1      -0.174  -3.504  -0.818  0.00  0.00     0.130 A 
ATOM      2  C2  DEN d   1       0.441  -3.673  -2.131  0.00  0.00    -0.031 A 
ATOM      3  C3  DEN d   1       0.860  -2.341  -2.613  0.00  0.00     0.027 A 
ATOM      4  C4  DEN d   1       0.623  -0.048  -1.456  0.00  0.00     0.027 A 
ATOM      5  C5  DEN d   1       0.156   0.600  -0.334  0.00  0.00    -0.003 A 
ATOM      6  C6  DEN d   1      -0.479  -0.064   0.682  0.00  0.00     0.001 A 
ATOM      7  C7  DEN d   1      -0.624  -1.425   0.616  0.00  0.00     0.017 A 
ATOM      8  C8  DEN d   1      -0.162  -2.084  -0.515  0.00  0.00    -0.094 A 
ATOM      9  C9  DEN d   1       0.488  -1.397  -1.526  0.00  0.00    -0.072 A 
ENDROOT
TORSDOF 0
ENDMDL
