MODEL 1
REMARK minimizedAffinity -4.68645811
REMARK minimizedRMSD -1
REMARK  0 active torsions:
REMARK  status: ('A' for Active; 'I' for Inactive)
ROOT
ATOM      1  C1  DEN d   1      -1.490   2.200   0.045  0.00  0.00     0.130 A 
ATOM      2  C2  DEN d   1      -1.862   2.510   1.423  0.00  0.00    -0.031 A 
ATOM      3  C3  DEN d   1      -1.277   1.474   2.298  0.00  0.00     0.027 A 
ATOM      4  C4  DEN d   1       0.165  -0.567   1.657  0.00  0.00     0.027 A 
ATOM      5  C5  DEN d   1       0.735  -1.253   0.608  0.00  0.00    -0.003 A 
ATOM      6  C6  DEN d   1       0.576  -0.860  -0.695  0.00  0.00     0.001 A 
ATOM      7  C7  DEN d   1      -0.133   0.277  -0.978  0.00  0.00     0.017 A 
ATOM      8  C8  DEN d   1      -0.717   0.971   0.074  0.00  0.00    -0.094 A 
ATOM      9  C9  DEN d   1      -0.535   0.564   1.384  0.00  0.00    -0.072 A 
ENDROOT
TORSDOF 0
ENDMDL
