MODEL 1
REMARK minimizedAffinity -5.11988115
REMARK minimizedRMSD -1
REMARK  0 active torsions:
REMARK  status: ('A' for Active; 'I' for Inactive)
ROOT
ATOM      1  C1  DEN d   1      -1.582   2.011  -0.059  0.00  0.00     0.130 A 
ATOM      2  C2  DEN d   1      -2.102   1.827   1.293  0.00  0.00    -0.031 A 
ATOM      3  C3  DEN d   1      -1.396   0.682   1.903  0.00  0.00     0.027 A 
ATOM      4  C4  DEN d   1       0.446  -0.813   0.891  0.00  0.00     0.027 A 
ATOM      5  C5  DEN d   1       1.208  -1.051  -0.232  0.00  0.00    -0.003 A 
ATOM      6  C6  DEN d   1       1.071  -0.313  -1.378  0.00  0.00     0.001 A 
ATOM      7  C7  DEN d   1       0.182   0.729  -1.411  0.00  0.00     0.017 A 
ATOM      8  C8  DEN d   1      -0.596   0.970  -0.286  0.00  0.00    -0.094 A 
ATOM      9  C9  DEN d   1      -0.433   0.221   0.867  0.00  0.00    -0.072 A 
ENDROOT
TORSDOF 0
ENDMDL
