MODEL 1
REMARK minimizedAffinity -4.53092909
REMARK minimizedRMSD -1
REMARK  0 active torsions:
REMARK  status: ('A' for Active; 'I' for Inactive)
ROOT
ATOM      1  C1  DEN d   1      -0.473  -0.491   1.983  0.00  0.00     0.130 A 
ATOM      2  C2  DEN d   1      -1.190   0.658   2.528  0.00  0.00    -0.031 A 
ATOM      3  C3  DEN d   1      -1.219   1.711   1.493  0.00  0.00     0.027 A 
ATOM      4  C4  DEN d   1      -0.232   1.671  -0.890  0.00  0.00     0.027 A 
ATOM      5  C5  DEN d   1       0.477   0.917  -1.799  0.00  0.00    -0.003 A 
ATOM      6  C6  DEN d   1       0.944  -0.336  -1.502  0.00  0.00     0.001 A 
ATOM      7  C7  DEN d   1       0.669  -0.890  -0.280  0.00  0.00     0.017 A 
ATOM      8  C8  DEN d   1      -0.038  -0.133   0.645  0.00  0.00    -0.094 A 
ATOM      9  C9  DEN d   1      -0.513   1.126   0.321  0.00  0.00    -0.072 A 
ENDROOT
TORSDOF 0
ENDMDL
