MODEL 1
REMARK minimizedAffinity -2.70812726
REMARK minimizedRMSD -1
REMARK  0 active torsions:
REMARK  status: ('A' for Active; 'I' for Inactive)
ROOT
ATOM      1  C1  DEN d   1      -2.110   0.966  -0.957  0.00  0.00     0.130 A 
ATOM      2  C2  DEN d   1      -3.158   1.693  -0.247  0.00  0.00    -0.031 A 
ATOM      3  C3  DEN d   1      -2.759   1.803   1.170  0.00  0.00     0.027 A 
ATOM      4  C4  DEN d   1      -0.627   0.926   2.328  0.00  0.00     0.027 A 
ATOM      5  C5  DEN d   1       0.550   0.236   2.139  0.00  0.00    -0.003 A 
ATOM      6  C6  DEN d   1       0.904  -0.285   0.922  0.00  0.00     0.001 A 
ATOM      7  C7  DEN d   1       0.093  -0.084  -0.164  0.00  0.00     0.017 A 
ATOM      8  C8  DEN d   1      -1.098   0.605   0.021  0.00  0.00    -0.094 A 
ATOM      9  C9  DEN d   1      -1.433   1.133   1.256  0.00  0.00    -0.072 A 
ENDROOT
TORSDOF 0
ENDMDL
