MODEL 1
REMARK minimizedAffinity -6.32286501
REMARK minimizedRMSD -1
REMARK  0 active torsions:
REMARK  status: ('A' for Active; 'I' for Inactive)
ROOT
ATOM      1  C1  DEN d   1      -0.381  -0.287   1.590  0.00  0.00     0.130 A 
ATOM      2  C2  DEN d   1       0.574  -0.938   0.697  0.00  0.00    -0.031 A 
ATOM      3  C3  DEN d   1       0.967   0.037  -0.340  0.00  0.00     0.027 A 
ATOM      4  C4  DEN d   1       0.196   2.480  -0.646  0.00  0.00     0.027 A 
ATOM      5  C5  DEN d   1      -0.616   3.472  -0.143  0.00  0.00    -0.003 A 
ATOM      6  C6  DEN d   1      -1.426   3.272   0.943  0.00  0.00     0.001 A 
ATOM      7  C7  DEN d   1      -1.407   2.065   1.590  0.00  0.00     0.017 A 
ATOM      8  C8  DEN d   1      -0.597   1.057   1.085  0.00  0.00    -0.094 A 
ATOM      9  C9  DEN d   1       0.224   1.283  -0.007  0.00  0.00    -0.072 A 
ENDROOT
TORSDOF 0
ENDMDL
