MODEL 1
REMARK minimizedAffinity -6.59225893
REMARK minimizedRMSD -1
REMARK  0 active torsions:
REMARK  status: ('A' for Active; 'I' for Inactive)
ROOT
ATOM      1  C1  DEN d   1      -1.577   2.865   1.127  0.00  0.00     0.130 A 
ATOM      2  C2  DEN d   1      -1.159   3.607  -0.060  0.00  0.00    -0.031 A 
ATOM      3  C3  DEN d   1      -0.299   2.722  -0.871  0.00  0.00     0.027 A 
ATOM      4  C4  DEN d   1       0.418   0.288  -0.411  0.00  0.00     0.027 A 
ATOM      5  C5  DEN d   1       0.323  -0.762   0.476  0.00  0.00    -0.003 A 
ATOM      6  C6  DEN d   1      -0.378  -0.665   1.649  0.00  0.00     0.001 A 
ATOM      7  C7  DEN d   1      -1.050   0.491   1.945  0.00  0.00     0.017 A 
ATOM      8  C8  DEN d   1      -0.953   1.556   1.059  0.00  0.00    -0.094 A 
ATOM      9  C9  DEN d   1      -0.249   1.435  -0.127  0.00  0.00    -0.072 A 
ENDROOT
TORSDOF 0
ENDMDL
