MODEL 1
REMARK minimizedAffinity -2.7596941
REMARK minimizedRMSD -1
REMARK  0 active torsions:
REMARK  status: ('A' for Active; 'I' for Inactive)
ROOT
ATOM      1  C1  DEN d   1      -0.805  -0.444  -0.801  0.00  0.00     0.130 A 
ATOM      2  C2  DEN d   1       0.548  -0.982  -0.698  0.00  0.00    -0.031 A 
ATOM      3  C3  DEN d   1       1.183  -0.394   0.499  0.00  0.00     0.027 A 
ATOM      4  C4  DEN d   1       0.205   1.285   2.195  0.00  0.00     0.027 A 
ATOM      5  C5  DEN d   1      -0.902   2.038   2.518  0.00  0.00    -0.003 A 
ATOM      6  C6  DEN d   1      -2.033   2.043   1.745  0.00  0.00     0.001 A 
ATOM      7  C7  DEN d   1      -2.099   1.245   0.634  0.00  0.00     0.017 A 
ATOM      8  C8  DEN d   1      -0.984   0.488   0.298  0.00  0.00    -0.094 A 
ATOM      9  C9  DEN d   1       0.145   0.487   1.099  0.00  0.00    -0.072 A 
ENDROOT
TORSDOF 0
ENDMDL
