MODEL 1
REMARK minimizedAffinity -5.2867465
REMARK minimizedRMSD -1
REMARK  0 active torsions:
REMARK  status: ('A' for Active; 'I' for Inactive)
ROOT
ATOM      1  C1  DEN d   1       0.154  -0.613   1.213  0.00  0.00     0.130 A 
ATOM      2  C2  DEN d   1       0.479  -1.017  -0.152  0.00  0.00    -0.031 A 
ATOM      3  C3  DEN d   1      -0.132  -0.039  -1.075  0.00  0.00     0.027 A 
ATOM      4  C4  DEN d   1      -1.538   2.052  -0.525  0.00  0.00     0.027 A 
ATOM      5  C5  DEN d   1      -2.089   2.798   0.493  0.00  0.00    -0.003 A 
ATOM      6  C6  DEN d   1      -1.962   2.443   1.810  0.00  0.00     0.001 A 
ATOM      7  C7  DEN d   1      -1.227   1.337   2.147  0.00  0.00     0.017 A 
ATOM      8  C8  DEN d   1      -0.675   0.576   1.125  0.00  0.00    -0.094 A 
ATOM      9  C9  DEN d   1      -0.805   0.958  -0.199  0.00  0.00    -0.072 A 
ENDROOT
TORSDOF 0
ENDMDL
