MODEL 1
REMARK minimizedAffinity -5.84332514
REMARK minimizedRMSD -1
REMARK  0 active torsions:
REMARK  status: ('A' for Active; 'I' for Inactive)
ROOT
ATOM      1  C1  DEN d   1       0.089  -0.370   0.380  0.00  0.00     0.130 A 
ATOM      2  C2  DEN d   1      -0.577  -0.712   1.635  0.00  0.00    -0.031 A 
ATOM      3  C3  DEN d   1      -1.247   0.502   2.142  0.00  0.00     0.027 A 
ATOM      4  C4  DEN d   1      -1.322   2.865   1.110  0.00  0.00     0.027 A 
ATOM      5  C5  DEN d   1      -0.896   3.644   0.057  0.00  0.00    -0.003 A 
ATOM      6  C6  DEN d   1      -0.090   3.153  -0.936  0.00  0.00     0.001 A 
ATOM      7  C7  DEN d   1       0.278   1.833  -0.920  0.00  0.00     0.017 A 
ATOM      8  C8  DEN d   1      -0.142   1.043   0.142  0.00  0.00    -0.094 A 
ATOM      9  C9  DEN d   1      -0.966   1.555   1.129  0.00  0.00    -0.072 A 
ENDROOT
TORSDOF 0
ENDMDL
