MODEL 1
REMARK minimizedAffinity 2.47416878
REMARK minimizedRMSD -1
REMARK  0 active torsions:
REMARK  status: ('A' for Active; 'I' for Inactive)
ROOT
ATOM      1  C   UNL d   1      -1.742   0.058   0.176  0.00  0.00     0.124 A 
ATOM      2  C1  UNL d   1      -2.123   0.234   1.499  0.00  0.00     0.062 A 
ATOM      3  C2  UNL d   1      -1.259  -0.121   2.530  0.00  0.00     0.162 A 
ATOM      4  C3  UNL d   1      -0.003  -0.656   2.243  0.00  0.00    -0.034 A 
ATOM      5  C4  UNL d   1       0.373  -0.831   0.910  0.00  0.00     0.162 A 
ATOM      6  C5  UNL d   1      -0.494  -0.474  -0.117  0.00  0.00     0.062 A 
ATOM      7  F   UNL d   1      -0.124  -0.645  -1.395  0.00  0.00    -0.097 F 
ATOM      8  F1  UNL d   1       1.574  -1.342   0.598  0.00  0.00    -0.096 F 
ATOM      9  I   UNL d   1       1.293  -1.189   3.782  0.00  0.00    -0.060 I 
ATOM     10  F2  UNL d   1      -1.654   0.060   3.799  0.00  0.00    -0.096 F 
ATOM     11  F3  UNL d   1      -3.329   0.748   1.785  0.00  0.00    -0.097 F 
ATOM     12  F4  UNL d   1      -2.576   0.400  -0.814  0.00  0.00    -0.092 F 
ENDROOT
TORSDOF 0
ENDMDL
