MODEL 1
REMARK minimizedAffinity 3.63499737
REMARK minimizedRMSD -1
REMARK  0 active torsions:
REMARK  status: ('A' for Active; 'I' for Inactive)
ROOT
ATOM      1  C   UNL d   1      -1.974  -1.148   4.162  0.00  0.00     0.124 A 
ATOM      2  C1  UNL d   1      -0.694  -1.549   4.518  0.00  0.00     0.062 A 
ATOM      3  C2  UNL d   1       0.396  -1.198   3.727  0.00  0.00     0.162 A 
ATOM      4  C3  UNL d   1       0.211  -0.440   2.571  0.00  0.00    -0.034 A 
ATOM      5  C4  UNL d   1      -1.080  -0.040   2.218  0.00  0.00     0.162 A 
ATOM      6  C5  UNL d   1      -2.166  -0.394   3.013  0.00  0.00     0.062 A 
ATOM      7  F   UNL d   1      -3.401  -0.006   2.667  0.00  0.00    -0.097 F 
ATOM      8  F1  UNL d   1      -1.294   0.689   1.114  0.00  0.00    -0.096 F 
ATOM      9  I   UNL d   1       1.838   0.088   1.385  0.00  0.00    -0.060 I 
ATOM     10  F2  UNL d   1       1.622  -1.599   4.096  0.00  0.00    -0.096 F 
ATOM     11  F3  UNL d   1      -0.506  -2.279   5.628  0.00  0.00    -0.097 F 
ATOM     12  F4  UNL d   1      -3.021  -1.488   4.925  0.00  0.00    -0.092 F 
ENDROOT
TORSDOF 0
ENDMDL
