MODEL 1
REMARK minimizedAffinity -0.319120944
REMARK minimizedRMSD -1
REMARK  0 active torsions:
REMARK  status: ('A' for Active; 'I' for Inactive)
ROOT
ATOM      1  C   UNL d   1      -2.016  -0.842   3.893  0.00  0.00     0.124 A 
ATOM      2  C1  UNL d   1      -0.774  -1.323   4.283  0.00  0.00     0.062 A 
ATOM      3  C2  UNL d   1       0.352  -1.070   3.504  0.00  0.00     0.162 A 
ATOM      4  C3  UNL d   1       0.240  -0.330   2.326  0.00  0.00    -0.034 A 
ATOM      5  C4  UNL d   1      -1.013   0.149   1.940  0.00  0.00     0.162 A 
ATOM      6  C5  UNL d   1      -2.134  -0.107   2.722  0.00  0.00     0.062 A 
ATOM      7  F   UNL d   1      -3.333   0.359   2.343  0.00  0.00    -0.097 F 
ATOM      8  F1  UNL d   1      -1.155   0.864   0.813  0.00  0.00    -0.096 F 
ATOM      9  I   UNL d   1       1.920   0.051   1.158  0.00  0.00    -0.060 I 
ATOM     10  F2  UNL d   1       1.539  -1.546   3.905  0.00  0.00    -0.096 F 
ATOM     11  F3  UNL d   1      -0.657  -2.035   5.413  0.00  0.00    -0.097 F 
ATOM     12  F4  UNL d   1      -3.097  -1.088   4.644  0.00  0.00    -0.092 F 
ENDROOT
TORSDOF 0
ENDMDL
