MODEL 1
REMARK minimizedAffinity 4.14074183
REMARK minimizedRMSD -1
REMARK  0 active torsions:
REMARK  status: ('A' for Active; 'I' for Inactive)
ROOT
ATOM      1  C   UNL d   1      -1.594  -0.513   3.484  0.00  0.00     0.124 A 
ATOM      2  C1  UNL d   1      -1.827   0.028   2.227  0.00  0.00     0.062 A 
ATOM      3  C2  UNL d   1      -0.769   0.237   1.347  0.00  0.00     0.162 A 
ATOM      4  C3  UNL d   1       0.533  -0.096   1.721  0.00  0.00    -0.034 A 
ATOM      5  C4  UNL d   1       0.760  -0.639   2.986  0.00  0.00     0.162 A 
ATOM      6  C5  UNL d   1      -0.301  -0.847   3.862  0.00  0.00     0.062 A 
ATOM      7  F   UNL d   1      -0.073  -1.370   5.076  0.00  0.00    -0.097 F 
ATOM      8  F1  UNL d   1       1.999  -0.971   3.377  0.00  0.00    -0.096 F 
ATOM      9  I   UNL d   1       2.118   0.215   0.408  0.00  0.00    -0.060 I 
ATOM     10  F2  UNL d   1      -1.024   0.762   0.140  0.00  0.00    -0.096 F 
ATOM     11  F3  UNL d   1      -3.076   0.352   1.860  0.00  0.00    -0.097 F 
ATOM     12  F4  UNL d   1      -2.614  -0.713   4.328  0.00  0.00    -0.092 F 
ENDROOT
TORSDOF 0
ENDMDL
