MODEL 1
REMARK minimizedAffinity 17.8603458
REMARK minimizedRMSD -1
REMARK  0 active torsions:
REMARK  status: ('A' for Active; 'I' for Inactive)
ROOT
ATOM      1  C   UNL d   1      -2.625   0.214   1.750  0.00  0.00     0.124 A 
ATOM      2  C1  UNL d   1      -1.269  -0.027   1.574  0.00  0.00     0.062 A 
ATOM      3  C2  UNL d   1      -0.721  -0.037   0.294  0.00  0.00     0.162 A 
ATOM      4  C3  UNL d   1      -1.529   0.195  -0.819  0.00  0.00    -0.034 A 
ATOM      5  C4  UNL d   1      -2.891   0.435  -0.634  0.00  0.00     0.162 A 
ATOM      6  C5  UNL d   1      -3.434   0.444   0.647  0.00  0.00     0.062 A 
ATOM      7  F   UNL d   1      -4.744   0.677   0.816  0.00  0.00    -0.097 F 
ATOM      8  F1  UNL d   1      -3.696   0.662  -1.682  0.00  0.00    -0.096 F 
ATOM      9  I   UNL d   1      -0.713   0.181  -2.734  0.00  0.00    -0.060 I 
ATOM     10  F2  UNL d   1       0.592  -0.272   0.153  0.00  0.00    -0.096 F 
ATOM     11  F3  UNL d   1      -0.485  -0.251   2.638  0.00  0.00    -0.097 F 
ATOM     12  F4  UNL d   1      -3.150   0.222   2.982  0.00  0.00    -0.092 F 
ENDROOT
TORSDOF 0
ENDMDL
