MODEL 1
REMARK minimizedAffinity 5.37101173
REMARK minimizedRMSD -1
REMARK  0 active torsions:
REMARK  status: ('A' for Active; 'I' for Inactive)
ROOT
ATOM      1  C   UNL d   1      -2.475  -1.610   4.918  0.00  0.00     0.124 A 
ATOM      2  C1  UNL d   1      -3.164  -1.169   3.797  0.00  0.00     0.062 A 
ATOM      3  C2  UNL d   1      -2.468  -0.738   2.672  0.00  0.00     0.162 A 
ATOM      4  C3  UNL d   1      -1.073  -0.746   2.662  0.00  0.00    -0.034 A 
ATOM      5  C4  UNL d   1      -0.387  -1.190   3.793  0.00  0.00     0.162 A 
ATOM      6  C5  UNL d   1      -1.088  -1.620   4.915  0.00  0.00     0.062 A 
ATOM      7  F   UNL d   1      -0.420  -2.046   5.998  0.00  0.00    -0.097 F 
ATOM      8  F1  UNL d   1       0.954  -1.212   3.817  0.00  0.00    -0.096 F 
ATOM      9  I   UNL d   1      -0.028  -0.103   0.981  0.00  0.00    -0.060 I 
ATOM     10  F2  UNL d   1      -3.160  -0.317   1.603  0.00  0.00    -0.096 F 
ATOM     11  F3  UNL d   1      -4.505  -1.157   3.798  0.00  0.00    -0.097 F 
ATOM     12  F4  UNL d   1      -3.148  -2.023   6.000  0.00  0.00    -0.092 F 
ENDROOT
TORSDOF 0
ENDMDL
