MODEL 1
REMARK minimizedAffinity 9.1336298
REMARK minimizedRMSD -1
REMARK  0 active torsions:
REMARK  status: ('A' for Active; 'I' for Inactive)
ROOT
ATOM      1  C   UNL d   1       1.184  -0.462   3.259  0.00  0.00     0.124 A 
ATOM      2  C1  UNL d   1       1.378  -0.128   1.926  0.00  0.00     0.062 A 
ATOM      3  C2  UNL d   1       0.286   0.150   1.108  0.00  0.00     0.162 A 
ATOM      4  C3  UNL d   1      -1.010   0.095   1.621  0.00  0.00    -0.034 A 
ATOM      5  C4  UNL d   1      -1.196  -0.242   2.963  0.00  0.00     0.162 A 
ATOM      6  C5  UNL d   1      -0.102  -0.519   3.776  0.00  0.00     0.062 A 
ATOM      7  F   UNL d   1      -0.291  -0.842   5.064  0.00  0.00    -0.097 F 
ATOM      8  F1  UNL d   1      -2.429  -0.304   3.489  0.00  0.00    -0.096 F 
ATOM      9  I   UNL d   1      -2.644   0.510   0.402  0.00  0.00    -0.060 I 
ATOM     10  F2  UNL d   1       0.503   0.470  -0.176  0.00  0.00    -0.096 F 
ATOM     11  F3  UNL d   1       2.620  -0.073   1.423  0.00  0.00    -0.097 F 
ATOM     12  F4  UNL d   1       2.236  -0.730   4.043  0.00  0.00    -0.092 F 
ENDROOT
TORSDOF 0
ENDMDL
