MODEL 1
REMARK minimizedAffinity 4.31843185
REMARK minimizedRMSD -1
REMARK  0 active torsions:
REMARK  status: ('A' for Active; 'I' for Inactive)
ROOT
ATOM      1  C   UNL d   1      -1.768  -0.678   2.638  0.00  0.00     0.124 A 
ATOM      2  C1  UNL d   1      -0.525  -0.858   3.229  0.00  0.00     0.062 A 
ATOM      3  C2  UNL d   1       0.637  -0.615   2.502  0.00  0.00     0.162 A 
ATOM      4  C3  UNL d   1       0.562  -0.189   1.176  0.00  0.00    -0.034 A 
ATOM      5  C4  UNL d   1      -0.692  -0.011   0.589  0.00  0.00     0.162 A 
ATOM      6  C5  UNL d   1      -1.851  -0.255   1.319  0.00  0.00     0.062 A 
ATOM      7  F   UNL d   1      -3.051  -0.080   0.747  0.00  0.00    -0.097 F 
ATOM      8  F1  UNL d   1      -0.801   0.398  -0.684  0.00  0.00    -0.096 F 
ATOM      9  I   UNL d   1       2.297   0.174   0.086  0.00  0.00    -0.060 I 
ATOM     10  F2  UNL d   1       1.824  -0.798   3.099  0.00  0.00    -0.096 F 
ATOM     11  F3  UNL d   1      -0.443  -1.267   4.503  0.00  0.00    -0.097 F 
ATOM     12  F4  UNL d   1      -2.885  -0.913   3.340  0.00  0.00    -0.092 F 
ENDROOT
TORSDOF 0
ENDMDL
