MODEL 1
REMARK minimizedAffinity -4.31672049
REMARK minimizedRMSD -1
REMARK  1 active torsions:
REMARK  status: ('A' for Active; 'I' for Inactive)
REMARK    1  A    between atoms: N_2  and  C1_3 
ROOT
ATOM      1  C1  UNL d   1       0.786  -0.714   0.697  0.00  0.00     0.143 A 
ATOM      2  C2  UNL d   1      -0.330  -0.782   1.538  0.00  0.00    -0.057 A 
ATOM      3  C3  UNL d   1      -1.262   0.261   1.594  0.00  0.00     0.033 A 
ATOM      4  C4  UNL d   1      -1.078   1.408   0.829  0.00  0.00    -0.042 A 
ATOM      5  C5  UNL d   1       0.037   1.508   0.004  0.00  0.00     0.033 A 
ATOM      6  C6  UNL d   1       0.960   0.460  -0.053  0.00  0.00    -0.057 A 
ENDROOT
BRANCH   1   7
ATOM      7  N   UNL d   1       1.799  -1.675   0.669  0.00  0.00    -0.732 N 
ATOM      8  C   UNL d   1       1.521  -3.050   1.027  0.00  0.00     0.284 C 
ATOM      9  H3  UNL d   1       2.412  -1.571  -0.136  0.00  0.00     0.395 HD
ENDBRANCH   1   7
TORSDOF 1
ENDMDL
