MODEL 1
REMARK minimizedAffinity -3.53131652
REMARK minimizedRMSD -1
REMARK  1 active torsions:
REMARK  status: ('A' for Active; 'I' for Inactive)
REMARK    1  A    between atoms: N_2  and  C1_3 
ROOT
ATOM      1  C1  UNL d   1      -0.007   0.083   0.076  0.00  0.00     0.143 A 
ATOM      2  C2  UNL d   1       1.343   0.150   0.437  0.00  0.00    -0.057 A 
ATOM      3  C3  UNL d   1       2.055  -0.999   0.801  0.00  0.00     0.033 A 
ATOM      4  C4  UNL d   1       1.420  -2.236   0.839  0.00  0.00    -0.042 A 
ATOM      5  C5  UNL d   1       0.072  -2.323   0.509  0.00  0.00     0.033 A 
ATOM      6  C6  UNL d   1      -0.632  -1.172   0.140  0.00  0.00    -0.057 A 
ENDROOT
BRANCH   1   7
ATOM      7  N   UNL d   1      -0.795   1.203  -0.200  0.00  0.00    -0.732 N 
ATOM      8  C   UNL d   1      -1.548   1.288  -1.432  0.00  0.00     0.284 C 
ATOM      9  H3  UNL d   1      -1.299   1.535   0.619  0.00  0.00     0.395 HD
ENDBRANCH   1   7
TORSDOF 1
ENDMDL
