MODEL 1
REMARK minimizedAffinity -1.46896386
REMARK minimizedRMSD -1
REMARK  1 active torsions:
REMARK  status: ('A' for Active; 'I' for Inactive)
REMARK    1  A    between atoms: N_2  and  C1_3 
ROOT
ATOM      1  C1  UNL d   1       1.190  -1.152   0.092  0.00  0.00     0.143 A 
ATOM      2  C2  UNL d   1       1.561  -0.054  -0.691  0.00  0.00    -0.057 A 
ATOM      3  C3  UNL d   1       0.685   1.018  -0.900  0.00  0.00     0.033 A 
ATOM      4  C4  UNL d   1      -0.593   0.997  -0.351  0.00  0.00    -0.042 A 
ATOM      5  C5  UNL d   1      -0.992  -0.096   0.410  0.00  0.00     0.033 A 
ATOM      6  C6  UNL d   1      -0.110  -1.160   0.621  0.00  0.00    -0.057 A 
ENDROOT
BRANCH   1   7
ATOM      7  N   UNL d   1       1.980  -2.293   0.256  0.00  0.00    -0.732 N 
ATOM      8  C   UNL d   1       1.661  -3.270   1.274  0.00  0.00     0.284 C 
ATOM      9  H3  UNL d   1       2.268  -2.697  -0.632  0.00  0.00     0.395 HD
ENDBRANCH   1   7
TORSDOF 1
ENDMDL
