MODEL 1
REMARK minimizedAffinity -4.10921288
REMARK minimizedRMSD -1
REMARK  1 active torsions:
REMARK  status: ('A' for Active; 'I' for Inactive)
REMARK    1  A    between atoms: N_2  and  C1_3 
ROOT
ATOM      1  C1  UNL d   1      -0.168   0.474  -0.010  0.00  0.00     0.143 A 
ATOM      2  C2  UNL d   1       1.187   0.727  -0.250  0.00  0.00    -0.057 A 
ATOM      3  C3  UNL d   1       2.160  -0.255  -0.027  0.00  0.00     0.033 A 
ATOM      4  C4  UNL d   1       1.797  -1.503   0.468  0.00  0.00    -0.042 A 
ATOM      5  C5  UNL d   1       0.459  -1.769   0.737  0.00  0.00     0.033 A 
ATOM      6  C6  UNL d   1      -0.509  -0.786   0.506  0.00  0.00    -0.057 A 
ENDROOT
BRANCH   1   7
ATOM      7  N   UNL d   1      -1.171   1.440  -0.118  0.00  0.00    -0.732 N 
ATOM      8  C   UNL d   1      -1.750   1.761  -1.405  0.00  0.00     0.284 C 
ATOM      9  H3  UNL d   1      -1.847   1.384   0.640  0.00  0.00     0.395 HD
ENDBRANCH   1   7
TORSDOF 1
ENDMDL
