MODEL 1
REMARK minimizedAffinity -4.47877359
REMARK minimizedRMSD -1
REMARK  1 active torsions:
REMARK  status: ('A' for Active; 'I' for Inactive)
REMARK    1  A    between atoms: N_2  and  C1_3 
ROOT
ATOM      1  C1  UNL d   1      -0.205   0.377   0.124  0.00  0.00     0.143 A 
ATOM      2  C2  UNL d   1      -0.292  -0.842   0.807  0.00  0.00    -0.057 A 
ATOM      3  C3  UNL d   1       0.819  -1.686   0.929  0.00  0.00     0.033 A 
ATOM      4  C4  UNL d   1       2.032  -1.339   0.344  0.00  0.00    -0.042 A 
ATOM      5  C5  UNL d   1       2.135  -0.145  -0.360  0.00  0.00     0.033 A 
ATOM      6  C6  UNL d   1       1.024   0.697  -0.473  0.00  0.00    -0.057 A 
ENDROOT
BRANCH   1   7
ATOM      7  N   UNL d   1      -1.298   1.213  -0.116  0.00  0.00    -0.732 N 
ATOM      8  C   UNL d   1      -1.289   2.134  -1.232  0.00  0.00     0.284 C 
ATOM      9  H3  UNL d   1      -2.187   0.740   0.026  0.00  0.00     0.395 HD
ENDBRANCH   1   7
TORSDOF 1
ENDMDL
