MODEL 1
REMARK minimizedAffinity -3.92338228
REMARK minimizedRMSD -1
REMARK  1 active torsions:
REMARK  status: ('A' for Active; 'I' for Inactive)
REMARK    1  A    between atoms: N_2  and  C1_3 
ROOT
ATOM      1  C1  UNL d   1      -0.049   0.187  -0.116  0.00  0.00     0.143 A 
ATOM      2  C2  UNL d   1       1.273  -0.025  -0.524  0.00  0.00    -0.057 A 
ATOM      3  C3  UNL d   1       1.953  -1.204  -0.197  0.00  0.00     0.033 A 
ATOM      4  C4  UNL d   1       1.332  -2.183   0.571  0.00  0.00    -0.042 A 
ATOM      5  C5  UNL d   1       0.027  -1.983   1.009  0.00  0.00     0.033 A 
ATOM      6  C6  UNL d   1      -0.649  -0.806   0.674  0.00  0.00    -0.057 A 
ENDROOT
BRANCH   1   7
ATOM      7  N   UNL d   1      -0.745   1.379  -0.325  0.00  0.00    -0.732 N 
ATOM      8  C   UNL d   1      -1.616   1.533  -1.470  0.00  0.00     0.284 C 
ATOM      9  H3  UNL d   1      -1.121   1.766   0.538  0.00  0.00     0.395 HD
ENDBRANCH   1   7
TORSDOF 1
ENDMDL
