MODEL 1
REMARK minimizedAffinity -4.79452896
REMARK minimizedRMSD -1
REMARK  1 active torsions:
REMARK  status: ('A' for Active; 'I' for Inactive)
REMARK    1  A    between atoms: N_2  and  C1_3 
ROOT
ATOM      1  C1  UNL d   1       0.232  -0.046  -0.004  0.00  0.00     0.143 A 
ATOM      2  C2  UNL d   1       1.527  -0.075  -0.533  0.00  0.00    -0.057 A 
ATOM      3  C3  UNL d   1       2.269  -1.262  -0.570  0.00  0.00     0.033 A 
ATOM      4  C4  UNL d   1       1.739  -2.438  -0.050  0.00  0.00    -0.042 A 
ATOM      5  C5  UNL d   1       0.464  -2.426   0.504  0.00  0.00     0.033 A 
ATOM      6  C6  UNL d   1      -0.275  -1.240   0.532  0.00  0.00    -0.057 A 
ENDROOT
BRANCH   1   7
ATOM      7  N   UNL d   1      -0.518   1.123   0.151  0.00  0.00    -0.732 N 
ATOM      8  C   UNL d   1      -1.588   1.188   1.124  0.00  0.00     0.284 C 
ATOM      9  H3  UNL d   1       0.056   1.962   0.108  0.00  0.00     0.395 HD
ENDBRANCH   1   7
TORSDOF 1
ENDMDL
