MODEL 1
REMARK minimizedAffinity -4.27449369
REMARK minimizedRMSD -1
REMARK  1 active torsions:
REMARK  status: ('A' for Active; 'I' for Inactive)
REMARK    1  A    between atoms: N_2  and  C1_3 
ROOT
ATOM      1  C1  UNL d   1       0.039  -0.168   0.055  0.00  0.00     0.143 A 
ATOM      2  C2  UNL d   1       1.431  -0.059   0.133  0.00  0.00    -0.057 A 
ATOM      3  C3  UNL d   1       2.220  -1.130   0.569  0.00  0.00     0.033 A 
ATOM      4  C4  UNL d   1       1.626  -2.324   0.965  0.00  0.00    -0.042 A 
ATOM      5  C5  UNL d   1       0.242  -2.446   0.920  0.00  0.00     0.033 A 
ATOM      6  C6  UNL d   1      -0.540  -1.376   0.477  0.00  0.00    -0.057 A 
ENDROOT
BRANCH   1   7
ATOM      7  N   UNL d   1      -0.808   0.893  -0.277  0.00  0.00    -0.732 N 
ATOM      8  C   UNL d   1      -1.579   0.865  -1.501  0.00  0.00     0.284 C 
ATOM      9  H3  UNL d   1      -1.317   1.249   0.528  0.00  0.00     0.395 HD
ENDBRANCH   1   7
TORSDOF 1
ENDMDL
