MODEL 1
REMARK minimizedAffinity -0.294584423
REMARK minimizedRMSD -1
REMARK  1 active torsions:
REMARK  status: ('A' for Active; 'I' for Inactive)
REMARK    1  A    between atoms: N_2  and  C1_3 
ROOT
ATOM      1  C1  UNL d   1       1.104  -0.905   1.055  0.00  0.00     0.143 A 
ATOM      2  C2  UNL d   1      -0.110  -0.834   1.747  0.00  0.00    -0.057 A 
ATOM      3  C3  UNL d   1      -1.124   0.045   1.346  0.00  0.00     0.033 A 
ATOM      4  C4  UNL d   1      -0.929   0.892   0.260  0.00  0.00    -0.042 A 
ATOM      5  C5  UNL d   1       0.279   0.856  -0.427  0.00  0.00     0.033 A 
ATOM      6  C6  UNL d   1       1.285  -0.029  -0.026  0.00  0.00    -0.057 A 
ENDROOT
BRANCH   1   7
ATOM      7  N   UNL d   1       2.187  -1.687   1.463  0.00  0.00    -0.732 N 
ATOM      8  C   UNL d   1       2.041  -3.117   1.635  0.00  0.00     0.284 C 
ATOM      9  H3  UNL d   1       3.058  -1.409   1.015  0.00  0.00     0.395 HD
ENDBRANCH   1   7
TORSDOF 1
ENDMDL
