MODEL 1
REMARK minimizedAffinity -3.83460164
REMARK minimizedRMSD -1
REMARK  1 active torsions:
REMARK  status: ('A' for Active; 'I' for Inactive)
REMARK    1  A    between atoms: N_2  and  C1_3 
ROOT
ATOM      1  C1  UNL d   1      -0.043   0.182  -0.210  0.00  0.00     0.143 A 
ATOM      2  C2  UNL d   1      -0.434  -0.810   0.696  0.00  0.00    -0.057 A 
ATOM      3  C3  UNL d   1       0.428  -1.858   1.042  0.00  0.00     0.033 A 
ATOM      4  C4  UNL d   1       1.690  -1.949   0.463  0.00  0.00    -0.042 A 
ATOM      5  C5  UNL d   1       2.090  -0.988  -0.459  0.00  0.00     0.033 A 
ATOM      6  C6  UNL d   1       1.227   0.060  -0.795  0.00  0.00    -0.057 A 
ENDROOT
BRANCH   1   7
ATOM      7  N   UNL d   1      -0.890   1.193  -0.668  0.00  0.00    -0.732 N 
ATOM      8  C   UNL d   1      -1.593   1.053  -1.925  0.00  0.00     0.284 C 
ATOM      9  H3  UNL d   1      -1.450   1.599   0.078  0.00  0.00     0.395 HD
ENDBRANCH   1   7
TORSDOF 1
ENDMDL
