MODEL 1
REMARK minimizedAffinity -2.5538075
REMARK minimizedRMSD -1
REMARK  1 active torsions:
REMARK  status: ('A' for Active; 'I' for Inactive)
REMARK    1  A    between atoms: N_2  and  C1_3 
ROOT
ATOM      1  C1  UNL d   1      -0.199   0.111  -0.037  0.00  0.00     0.143 A 
ATOM      2  C2  UNL d   1      -0.540  -1.233   0.149  0.00  0.00    -0.057 A 
ATOM      3  C3  UNL d   1       0.437  -2.199   0.420  0.00  0.00     0.033 A 
ATOM      4  C4  UNL d   1       1.779  -1.841   0.481  0.00  0.00    -0.042 A 
ATOM      5  C5  UNL d   1       2.144  -0.516   0.275  0.00  0.00     0.033 A 
ATOM      6  C6  UNL d   1       1.163   0.446   0.012  0.00  0.00    -0.057 A 
ENDROOT
BRANCH   1   7
ATOM      7  N   UNL d   1      -1.112   1.101  -0.406  0.00  0.00    -0.732 N 
ATOM      8  C   UNL d   1      -1.870   0.985  -1.634  0.00  0.00     0.284 C 
ATOM      9  H3  UNL d   1      -1.652   1.446   0.384  0.00  0.00     0.395 HD
ENDBRANCH   1   7
TORSDOF 1
ENDMDL
