MODEL 1
REMARK minimizedAffinity 1.10342312
REMARK minimizedRMSD -1
REMARK  0 active torsions:
REMARK  status: ('A' for Active; 'I' for Inactive)
ROOT
ATOM      1  C2' OXE d   1       0.662   0.623  -2.713  0.00  0.00     0.078 C 
ATOM      2  C1' OXE d   1       0.224  -1.809  -1.380  0.00  0.00     0.078 C 
ATOM      3  C1  OXE d   1      -0.018  -0.533  -0.613  0.00  0.00    -0.078 A 
ATOM      4  C2  OXE d   1       0.244   0.652  -1.258  0.00  0.00    -0.078 A 
ATOM      5  C3  OXE d   1      -0.013   1.859  -0.615  0.00  0.00     0.003 A 
ATOM      6  C4  OXE d   1      -0.390   1.877   0.734  0.00  0.00    -0.002 A 
ATOM      7  C5  OXE d   1      -0.623   0.682   1.422  0.00  0.00    -0.002 A 
ATOM      8  C6  OXE d   1      -0.483  -0.528   0.752  0.00  0.00     0.003 A 
ENDROOT
TORSDOF 0
ENDMDL
