MODEL 1
REMARK minimizedAffinity -5.81674767
REMARK minimizedRMSD -1
REMARK  0 active torsions:
REMARK  status: ('A' for Active; 'I' for Inactive)
ROOT
ATOM      1  C2' OXE d   1       0.556   0.036  -1.294  0.00  0.00     0.078 C 
ATOM      2  C1' OXE d   1      -0.484   2.487  -2.187  0.00  0.00     0.078 C 
ATOM      3  C1  OXE d   1      -0.533   2.199  -0.707  0.00  0.00    -0.078 A 
ATOM      4  C2  OXE d   1      -0.064   0.978  -0.284  0.00  0.00    -0.078 A 
ATOM      5  C3  OXE d   1      -0.036   0.684   1.076  0.00  0.00     0.003 A 
ATOM      6  C4  OXE d   1      -0.621   1.556   2.002  0.00  0.00    -0.002 A 
ATOM      7  C5  OXE d   1      -1.139   2.787   1.588  0.00  0.00    -0.002 A 
ATOM      8  C6  OXE d   1      -1.065   3.142   0.246  0.00  0.00     0.003 A 
ENDROOT
TORSDOF 0
ENDMDL
