MODEL 1
REMARK minimizedAffinity -6.04894066
REMARK minimizedRMSD -1
REMARK  0 active torsions:
REMARK  status: ('A' for Active; 'I' for Inactive)
ROOT
ATOM      1  C2' OXE d   1       0.473   1.119   2.272  0.00  0.00     0.078 C 
ATOM      2  C1' OXE d   1       0.919  -0.012  -0.258  0.00  0.00     0.078 C 
ATOM      3  C1  OXE d   1       0.082   1.241  -0.185  0.00  0.00    -0.078 A 
ATOM      4  C2  OXE d   1      -0.170   1.761   1.061  0.00  0.00    -0.078 A 
ATOM      5  C3  OXE d   1      -0.890   2.946   1.181  0.00  0.00     0.003 A 
ATOM      6  C4  OXE d   1      -1.490   3.527   0.058  0.00  0.00    -0.002 A 
ATOM      7  C5  OXE d   1      -1.279   2.991  -1.217  0.00  0.00    -0.002 A 
ATOM      8  C6  OXE d   1      -0.462   1.875  -1.360  0.00  0.00     0.003 A 
ENDROOT
TORSDOF 0
ENDMDL
