MODEL 1
REMARK minimizedAffinity -2.64832783
REMARK minimizedRMSD -1
REMARK  0 active torsions:
REMARK  status: ('A' for Active; 'I' for Inactive)
ROOT
ATOM      1  C2' OXE d   1      -1.201   2.985   1.533  0.00  0.00     0.078 C 
ATOM      2  C1' OXE d   1      -0.916   3.188  -1.252  0.00  0.00     0.078 C 
ATOM      3  C1  OXE d   1      -0.425   1.928  -0.584  0.00  0.00    -0.078 A 
ATOM      4  C2  OXE d   1      -0.525   1.857   0.784  0.00  0.00    -0.078 A 
ATOM      5  C3  OXE d   1      -0.137   0.695   1.445  0.00  0.00     0.003 A 
ATOM      6  C4  OXE d   1       0.496  -0.340   0.746  0.00  0.00    -0.002 A 
ATOM      7  C5  OXE d   1       0.645  -0.271  -0.644  0.00  0.00    -0.002 A 
ATOM      8  C6  OXE d   1       0.152   0.835  -1.328  0.00  0.00     0.003 A 
ENDROOT
TORSDOF 0
ENDMDL
