MODEL 1
REMARK minimizedAffinity -3.53045011
REMARK minimizedRMSD -1
REMARK  0 active torsions:
REMARK  status: ('A' for Active; 'I' for Inactive)
ROOT
ATOM      1  C2' OXE d   1      -1.515   2.948  -1.366  0.00  0.00     0.078 C 
ATOM      2  C1' OXE d   1      -1.866   2.058   1.273  0.00  0.00     0.078 C 
ATOM      3  C1  OXE d   1      -0.840   1.352   0.423  0.00  0.00    -0.078 A 
ATOM      4  C2  OXE d   1      -0.708   1.763  -0.881  0.00  0.00    -0.078 A 
ATOM      5  C3  OXE d   1       0.262   1.182  -1.693  0.00  0.00     0.003 A 
ATOM      6  C4  OXE d   1       0.997   0.080  -1.240  0.00  0.00    -0.002 A 
ATOM      7  C5  OXE d   1       0.850  -0.381   0.073  0.00  0.00    -0.002 A 
ATOM      8  C6  OXE d   1      -0.032   0.269   0.928  0.00  0.00     0.003 A 
ENDROOT
TORSDOF 0
ENDMDL
