MODEL 1
REMARK minimizedAffinity -2.86927009
REMARK minimizedRMSD -1
REMARK  0 active torsions:
REMARK  status: ('A' for Active; 'I' for Inactive)
ROOT
ATOM      1  C2' OXE d   1      -1.328   2.735  -1.567  0.00  0.00     0.078 C 
ATOM      2  C1' OXE d   1      -1.407   2.790   1.238  0.00  0.00     0.078 C 
ATOM      3  C1  OXE d   1      -0.642   1.671   0.578  0.00  0.00    -0.078 A 
ATOM      4  C2  OXE d   1      -0.647   1.625  -0.795  0.00  0.00    -0.078 A 
ATOM      5  C3  OXE d   1       0.088   0.645  -1.456  0.00  0.00     0.003 A 
ATOM      6  C4  OXE d   1       0.707  -0.384  -0.734  0.00  0.00    -0.002 A 
ATOM      7  C5  OXE d   1       0.691  -0.378   0.665  0.00  0.00    -0.002 A 
ATOM      8  C6  OXE d   1       0.059   0.663   1.335  0.00  0.00     0.003 A 
ENDROOT
TORSDOF 0
ENDMDL
