MODEL 1
REMARK minimizedAffinity -4.26644659
REMARK minimizedRMSD -1
REMARK  0 active torsions:
REMARK  status: ('A' for Active; 'I' for Inactive)
ROOT
ATOM      1  C2' OXE d   1      -0.038  -0.026  -1.205  0.00  0.00     0.078 C 
ATOM      2  C1' OXE d   1       0.231  -0.678   1.513  0.00  0.00     0.078 C 
ATOM      3  C1  OXE d   1      -0.383   0.656   1.167  0.00  0.00    -0.078 A 
ATOM      4  C2  OXE d   1      -0.467   0.987  -0.165  0.00  0.00    -0.078 A 
ATOM      5  C3  OXE d   1      -1.074   2.181  -0.541  0.00  0.00     0.003 A 
ATOM      6  C4  OXE d   1      -1.460   3.116   0.427  0.00  0.00    -0.002 A 
ATOM      7  C5  OXE d   1      -1.346   2.816   1.789  0.00  0.00    -0.002 A 
ATOM      8  C6  OXE d   1      -0.850   1.576   2.174  0.00  0.00     0.003 A 
ENDROOT
TORSDOF 0
ENDMDL
