MODEL 1
REMARK minimizedAffinity 9.76355934
REMARK minimizedRMSD -1
REMARK  0 active torsions:
REMARK  status: ('A' for Active; 'I' for Inactive)
ROOT
ATOM      1  C   UNL d   1       4.568   2.127  -2.150  0.00  0.00     0.077 C 
ATOM      2  C1  UNL d   1       3.626   1.181  -1.466  0.00  0.00    -0.074 A 
ATOM      3  C2  UNL d   1       3.016   1.524  -0.256  0.00  0.00    -0.005 A 
ATOM      4  C3  UNL d   1       2.134   0.638   0.364  0.00  0.00     0.006 A 
ATOM      5  C4  UNL d   1       1.855  -0.598  -0.220  0.00  0.00    -0.005 A 
ATOM      6  C5  UNL d   1       2.455  -0.958  -1.431  0.00  0.00    -0.074 A 
ATOM      7  C6  UNL d   1       2.158  -2.279  -2.077  0.00  0.00     0.077 C 
ATOM      8  C7  UNL d   1       3.334  -0.059  -2.051  0.00  0.00    -0.001 A 
ENDROOT
TORSDOF 0
ENDMDL
