MODEL 1
REMARK minimizedAffinity 17.1580811
REMARK minimizedRMSD -1
REMARK  0 active torsions:
REMARK  status: ('A' for Active; 'I' for Inactive)
ROOT
ATOM      1  C   UNL d   1       1.816   1.485  -1.096  0.00  0.00     0.077 C 
ATOM      2  C1  UNL d   1       2.554   0.551  -0.183  0.00  0.00    -0.074 A 
ATOM      3  C2  UNL d   1       1.950  -0.619   0.289  0.00  0.00    -0.005 A 
ATOM      4  C3  UNL d   1       2.652  -1.483   1.130  0.00  0.00     0.006 A 
ATOM      5  C4  UNL d   1       3.961  -1.185   1.508  0.00  0.00    -0.005 A 
ATOM      6  C5  UNL d   1       4.582  -0.020   1.046  0.00  0.00    -0.074 A 
ATOM      7  C6  UNL d   1       5.992   0.310   1.435  0.00  0.00     0.077 C 
ATOM      8  C7  UNL d   1       3.872   0.839   0.195  0.00  0.00    -0.001 A 
ENDROOT
TORSDOF 0
ENDMDL
