MODEL 1
REMARK minimizedAffinity 13.65411
REMARK minimizedRMSD -1
REMARK  0 active torsions:
REMARK  status: ('A' for Active; 'I' for Inactive)
ROOT
ATOM      1  C   UNL d   1       2.618   1.181  -1.137  0.00  0.00     0.077 C 
ATOM      2  C1  UNL d   1       2.978   0.143  -0.116  0.00  0.00    -0.074 A 
ATOM      3  C2  UNL d   1       2.056  -0.835   0.271  0.00  0.00    -0.005 A 
ATOM      4  C3  UNL d   1       2.409  -1.800   1.214  0.00  0.00     0.006 A 
ATOM      5  C4  UNL d   1       3.685  -1.797   1.779  0.00  0.00    -0.005 A 
ATOM      6  C5  UNL d   1       4.621  -0.828   1.403  0.00  0.00    -0.074 A 
ATOM      7  C6  UNL d   1       6.000  -0.816   1.993  0.00  0.00     0.077 C 
ATOM      8  C7  UNL d   1       4.261   0.135   0.450  0.00  0.00    -0.001 A 
ENDROOT
TORSDOF 0
ENDMDL
