MODEL 1
REMARK minimizedAffinity 9.66030979
REMARK minimizedRMSD -1
REMARK  0 active torsions:
REMARK  status: ('A' for Active; 'I' for Inactive)
ROOT
ATOM      1  C   UNL d   1       4.824   2.262  -1.783  0.00  0.00     0.077 C 
ATOM      2  C1  UNL d   1       3.873   1.382  -1.028  0.00  0.00    -0.074 A 
ATOM      3  C2  UNL d   1       4.068   1.113   0.331  0.00  0.00    -0.005 A 
ATOM      4  C3  UNL d   1       3.170   0.301   1.023  0.00  0.00     0.006 A 
ATOM      5  C4  UNL d   1       2.070  -0.250   0.364  0.00  0.00    -0.005 A 
ATOM      6  C5  UNL d   1       1.859   0.008  -0.994  0.00  0.00    -0.074 A 
ATOM      7  C6  UNL d   1       0.676  -0.568  -1.715  0.00  0.00     0.077 C 
ATOM      8  C7  UNL d   1       2.762   0.831  -1.681  0.00  0.00    -0.001 A 
ENDROOT
TORSDOF 0
ENDMDL
