MODEL 1
REMARK minimizedAffinity 12.4395571
REMARK minimizedRMSD -1
REMARK  0 active torsions:
REMARK  status: ('A' for Active; 'I' for Inactive)
ROOT
ATOM      1  C   UNL d   1      -3.063  -0.736  -2.231  0.00  0.00     0.077 C 
ATOM      2  C1  UNL d   1      -4.071   0.093  -1.492  0.00  0.00    -0.074 A 
ATOM      3  C2  UNL d   1      -5.075  -0.509  -0.727  0.00  0.00    -0.005 A 
ATOM      4  C3  UNL d   1      -6.000   0.276  -0.038  0.00  0.00     0.006 A 
ATOM      5  C4  UNL d   1      -5.929   1.668  -0.106  0.00  0.00    -0.005 A 
ATOM      6  C5  UNL d   1      -4.931   2.287  -0.865  0.00  0.00    -0.074 A 
ATOM      7  C6  UNL d   1      -4.835   3.782  -0.941  0.00  0.00     0.077 C 
ATOM      8  C7  UNL d   1      -4.002   1.492  -1.549  0.00  0.00    -0.001 A 
ENDROOT
TORSDOF 0
ENDMDL
