MODEL 1
REMARK minimizedAffinity 17.9620819
REMARK minimizedRMSD -1
REMARK  0 active torsions:
REMARK  status: ('A' for Active; 'I' for Inactive)
ROOT
ATOM      1  C   UNL d   1       4.915   2.323   3.380  0.00  0.00     0.077 C 
ATOM      2  C1  UNL d   1       4.101   3.583   3.379  0.00  0.00    -0.074 A 
ATOM      3  C2  UNL d   1       4.716   4.837   3.437  0.00  0.00    -0.005 A 
ATOM      4  C3  UNL d   1       3.946   6.000   3.427  0.00  0.00     0.006 A 
ATOM      5  C4  UNL d   1       2.555   5.920   3.359  0.00  0.00    -0.005 A 
ATOM      6  C5  UNL d   1       1.921   4.675   3.299  0.00  0.00    -0.074 A 
ATOM      7  C6  UNL d   1       0.427   4.572   3.215  0.00  0.00     0.077 C 
ATOM      8  C7  UNL d   1       2.702   3.511   3.303  0.00  0.00    -0.001 A 
ENDROOT
TORSDOF 0
ENDMDL
