MODEL 1
REMARK minimizedAffinity 24.0806446
REMARK minimizedRMSD -1
REMARK  0 active torsions:
REMARK  status: ('A' for Active; 'I' for Inactive)
ROOT
ATOM      1  C   UNL d   1      -5.078   0.219   0.360  0.00  0.00     0.077 C 
ATOM      2  C1  UNL d   1      -5.086   1.407  -0.555  0.00  0.00    -0.074 A 
ATOM      3  C2  UNL d   1      -5.731   1.356  -1.795  0.00  0.00    -0.005 A 
ATOM      4  C3  UNL d   1      -5.738   2.472  -2.631  0.00  0.00     0.006 A 
ATOM      5  C4  UNL d   1      -5.101   3.649  -2.236  0.00  0.00    -0.005 A 
ATOM      6  C5  UNL d   1      -4.451   3.720  -1.000  0.00  0.00    -0.074 A 
ATOM      7  C6  UNL d   1      -3.770   4.980  -0.556  0.00  0.00     0.077 C 
ATOM      8  C7  UNL d   1      -4.455   2.596  -0.162  0.00  0.00    -0.001 A 
ENDROOT
TORSDOF 0
ENDMDL
