MODEL 1
REMARK minimizedAffinity 7.38101673
REMARK minimizedRMSD -1
REMARK  0 active torsions:
REMARK  status: ('A' for Active; 'I' for Inactive)
ROOT
ATOM      1  C   UNL d   1      -1.843   5.998   4.900  0.00  0.00     0.077 C 
ATOM      2  C1  UNL d   1      -3.291   5.609   4.927  0.00  0.00    -0.074 A 
ATOM      3  C2  UNL d   1      -4.116   5.983   5.992  0.00  0.00    -0.005 A 
ATOM      4  C3  UNL d   1      -5.463   5.622   5.999  0.00  0.00     0.006 A 
ATOM      5  C4  UNL d   1      -5.998   4.884   4.942  0.00  0.00    -0.005 A 
ATOM      6  C5  UNL d   1      -5.189   4.502   3.868  0.00  0.00    -0.074 A 
ATOM      7  C6  UNL d   1      -5.750   3.717   2.719  0.00  0.00     0.077 C 
ATOM      8  C7  UNL d   1      -3.837   4.874   3.865  0.00  0.00    -0.001 A 
ENDROOT
TORSDOF 0
ENDMDL
