MODEL 1
REMARK minimizedAffinity 7.7422142
REMARK minimizedRMSD -1
REMARK  0 active torsions:
REMARK  status: ('A' for Active; 'I' for Inactive)
ROOT
ATOM      1  C   UNL d   1      -1.799   6.000   4.879  0.00  0.00     0.077 C 
ATOM      2  C1  UNL d   1      -3.261   5.666   4.896  0.00  0.00    -0.074 A 
ATOM      3  C2  UNL d   1      -4.061   5.997   5.994  0.00  0.00    -0.005 A 
ATOM      4  C3  UNL d   1      -5.422   5.689   5.991  0.00  0.00     0.006 A 
ATOM      5  C4  UNL d   1      -5.995   5.048   4.892  0.00  0.00    -0.005 A 
ATOM      6  C5  UNL d   1      -5.211   4.711   3.784  0.00  0.00    -0.074 A 
ATOM      7  C6  UNL d   1      -5.813   4.031   2.590  0.00  0.00     0.077 C 
ATOM      8  C7  UNL d   1      -3.846   5.030   3.792  0.00  0.00    -0.001 A 
ENDROOT
TORSDOF 0
ENDMDL
