MODEL 1
REMARK minimizedAffinity -4.46175957
REMARK minimizedRMSD -1
REMARK  1 active torsions:
REMARK  status: ('A' for Active; 'I' for Inactive)
REMARK    1  A    between atoms: C3_4  and  O_7 
ROOT
ATOM      1  C   UNL d   1      -1.144   2.500   1.356  0.00  0.00    -0.033 A 
ATOM      2  C1  UNL d   1      -0.498   1.454   2.019  0.00  0.00     0.039 A 
ATOM      3  C2  UNL d   1      -0.132   0.302   1.319  0.00  0.00    -0.080 A 
ATOM      4  C3  UNL d   1      -0.415   0.210  -0.041  0.00  0.00     0.150 A 
ATOM      5  C4  UNL d   1      -1.054   1.250  -0.708  0.00  0.00    -0.007 A 
ATOM      6  C5  UNL d   1      -1.420   2.399  -0.007  0.00  0.00     0.039 A 
ENDROOT
BRANCH   4   7
ATOM      7  O   UNL d   1      -0.081  -0.895  -0.765  0.00  0.00    -0.526 OA
ATOM      8  H5  UNL d   1       0.328  -1.543  -0.167  0.00  0.00     0.418 HD
ENDBRANCH   4   7
TORSDOF 1
ENDMDL
