MODEL 1
REMARK minimizedAffinity -4.81401396
REMARK minimizedRMSD -1
REMARK  1 active torsions:
REMARK  status: ('A' for Active; 'I' for Inactive)
REMARK    1  A    between atoms: C3_4  and  O_7 
ROOT
ATOM      1  C   UNL d   1       0.733  -1.810  -0.716  0.00  0.00    -0.033 A 
ATOM      2  C1  UNL d   1       0.396  -2.945  -1.457  0.00  0.00     0.039 A 
ATOM      3  C2  UNL d   1      -0.936  -3.351  -1.548  0.00  0.00    -0.080 A 
ATOM      4  C3  UNL d   1      -1.921  -2.615  -0.896  0.00  0.00     0.150 A 
ATOM      5  C4  UNL d   1      -1.593  -1.482  -0.159  0.00  0.00    -0.007 A 
ATOM      6  C5  UNL d   1      -0.262  -1.078  -0.068  0.00  0.00     0.039 A 
ENDROOT
BRANCH   4   7
ATOM      7  O   UNL d   1      -3.235  -2.976  -0.951  0.00  0.00    -0.526 OA
ATOM      8  H5  UNL d   1      -3.308  -3.794  -1.472  0.00  0.00     0.418 HD
ENDBRANCH   4   7
TORSDOF 1
ENDMDL
