MODEL 1
REMARK minimizedAffinity -4.82561111
REMARK minimizedRMSD -1
REMARK  1 active torsions:
REMARK  status: ('A' for Active; 'I' for Inactive)
REMARK    1  A    between atoms: C3_4  and  O_7 
ROOT
ATOM      1  C   UNL d   1      -1.508   3.067   0.994  0.00  0.00    -0.033 A 
ATOM      2  C1  UNL d   1      -1.459   3.200  -0.396  0.00  0.00     0.039 A 
ATOM      3  C2  UNL d   1      -0.881   2.195  -1.174  0.00  0.00    -0.080 A 
ATOM      4  C3  UNL d   1      -0.357   1.065  -0.553  0.00  0.00     0.150 A 
ATOM      5  C4  UNL d   1      -0.406   0.924   0.830  0.00  0.00    -0.007 A 
ATOM      6  C5  UNL d   1      -0.983   1.929   1.606  0.00  0.00     0.039 A 
ENDROOT
BRANCH   4   7
ATOM      7  O   UNL d   1       0.221   0.060  -1.271  0.00  0.00    -0.526 OA
ATOM      8  H5  UNL d   1       0.209   0.307  -2.211  0.00  0.00     0.418 HD
ENDBRANCH   4   7
TORSDOF 1
ENDMDL
