MODEL 1
REMARK minimizedAffinity -3.00042725
REMARK minimizedRMSD -1
REMARK  1 active torsions:
REMARK  status: ('A' for Active; 'I' for Inactive)
REMARK    1  A    between atoms: C3_4  and  O_7 
ROOT
ATOM      1  C   UNL d   1      -0.259   1.652   1.834  0.00  0.00    -0.033 A 
ATOM      2  C1  UNL d   1      -0.655   1.255   3.113  0.00  0.00     0.039 A 
ATOM      3  C2  UNL d   1      -0.041   0.164   3.729  0.00  0.00    -0.080 A 
ATOM      4  C3  UNL d   1       0.968  -0.521   3.058  0.00  0.00     0.150 A 
ATOM      5  C4  UNL d   1       1.371  -0.130   1.785  0.00  0.00    -0.007 A 
ATOM      6  C5  UNL d   1       0.755   0.960   1.171  0.00  0.00     0.039 A 
ENDROOT
BRANCH   4   7
ATOM      7  O   UNL d   1       1.594  -1.596   3.616  0.00  0.00    -0.526 OA
ATOM      8  H5  UNL d   1       1.193  -1.769   4.484  0.00  0.00     0.418 HD
ENDBRANCH   4   7
TORSDOF 1
ENDMDL
