MODEL 1
REMARK minimizedAffinity 3.5273602
REMARK minimizedRMSD -1
REMARK  1 active torsions:
REMARK  status: ('A' for Active; 'I' for Inactive)
REMARK    1  A    between atoms: C3_4  and  O_7 
ROOT
ATOM      1  C   UNL d   1      -0.699   1.261  -1.606  0.00  0.00    -0.033 A 
ATOM      2  C1  UNL d   1      -1.947   0.824  -1.156  0.00  0.00     0.039 A 
ATOM      3  C2  UNL d   1      -2.301  -0.522  -1.273  0.00  0.00    -0.080 A 
ATOM      4  C3  UNL d   1      -1.400  -1.419  -1.840  0.00  0.00     0.150 A 
ATOM      5  C4  UNL d   1      -0.154  -0.991  -2.287  0.00  0.00    -0.007 A 
ATOM      6  C5  UNL d   1       0.197   0.353  -2.170  0.00  0.00     0.039 A 
ENDROOT
BRANCH   4   7
ATOM      7  O   UNL d   1      -1.703  -2.740  -1.980  0.00  0.00    -0.526 OA
ATOM      8  H5  UNL d   1      -2.607  -2.885  -1.655  0.00  0.00     0.418 HD
ENDBRANCH   4   7
TORSDOF 1
ENDMDL
