MODEL 1
REMARK minimizedAffinity -4.62476826
REMARK minimizedRMSD -1
REMARK  1 active torsions:
REMARK  status: ('A' for Active; 'I' for Inactive)
REMARK    1  A    between atoms: C3_4  and  O_7 
ROOT
ATOM      1  C   UNL d   1      -0.131   0.183   1.598  0.00  0.00    -0.033 A 
ATOM      2  C1  UNL d   1      -0.660   1.472   1.680  0.00  0.00     0.039 A 
ATOM      3  C2  UNL d   1      -0.760   2.262   0.534  0.00  0.00    -0.080 A 
ATOM      4  C3  UNL d   1      -0.328   1.752  -0.687  0.00  0.00     0.150 A 
ATOM      5  C4  UNL d   1       0.197   0.467  -0.777  0.00  0.00    -0.007 A 
ATOM      6  C5  UNL d   1       0.297  -0.320   0.369  0.00  0.00     0.039 A 
ENDROOT
BRANCH   4   7
ATOM      7  O   UNL d   1      -0.401   2.487  -1.833  0.00  0.00    -0.526 OA
ATOM      8  H5  UNL d   1      -0.758   3.364  -1.614  0.00  0.00     0.418 HD
ENDBRANCH   4   7
TORSDOF 1
ENDMDL
