MODEL 1
REMARK minimizedAffinity -3.21491861
REMARK minimizedRMSD -1
REMARK  1 active torsions:
REMARK  status: ('A' for Active; 'I' for Inactive)
REMARK    1  A    between atoms: C3_4  and  O_7 
ROOT
ATOM      1  C   UNL d   1       0.619  -0.128   0.229  0.00  0.00    -0.033 A 
ATOM      2  C1  UNL d   1      -0.459   0.405  -0.481  0.00  0.00     0.039 A 
ATOM      3  C2  UNL d   1      -1.315   1.322   0.131  0.00  0.00    -0.080 A 
ATOM      4  C3  UNL d   1      -1.083   1.698   1.451  0.00  0.00     0.150 A 
ATOM      5  C4  UNL d   1      -0.009   1.174   2.163  0.00  0.00    -0.007 A 
ATOM      6  C5  UNL d   1       0.844   0.257   1.551  0.00  0.00     0.039 A 
ENDROOT
BRANCH   4   7
ATOM      7  O   UNL d   1      -1.895   2.587   2.092  0.00  0.00    -0.526 OA
ATOM      8  H5  UNL d   1      -2.610   2.842   1.486  0.00  0.00     0.418 HD
ENDBRANCH   4   7
TORSDOF 1
ENDMDL
