MODEL 1
REMARK minimizedAffinity -5.11430883
REMARK minimizedRMSD -1
REMARK  1 active torsions:
REMARK  status: ('A' for Active; 'I' for Inactive)
REMARK    1  A    between atoms: C3_4  and  O_7 
ROOT
ATOM      1  C   UNL d   1       0.311   0.047  -0.565  0.00  0.00    -0.033 A 
ATOM      2  C1  UNL d   1       0.393  -0.320   0.779  0.00  0.00     0.039 A 
ATOM      3  C2  UNL d   1      -0.227   0.460   1.757  0.00  0.00    -0.080 A 
ATOM      4  C3  UNL d   1      -0.925   1.603   1.378  0.00  0.00     0.150 A 
ATOM      5  C4  UNL d   1      -1.014   1.973   0.040  0.00  0.00    -0.007 A 
ATOM      6  C5  UNL d   1      -0.394   1.193  -0.935  0.00  0.00     0.039 A 
ENDROOT
BRANCH   4   7
ATOM      7  O   UNL d   1      -1.542   2.399   2.297  0.00  0.00    -0.526 OA
ATOM      8  H5  UNL d   1      -1.371   2.036   3.182  0.00  0.00     0.418 HD
ENDBRANCH   4   7
TORSDOF 1
ENDMDL
