MODEL 1
REMARK minimizedAffinity -4.61865997
REMARK minimizedRMSD -1
REMARK  1 active torsions:
REMARK  status: ('A' for Active; 'I' for Inactive)
REMARK    1  A    between atoms: C3_4  and  O_7 
ROOT
ATOM      1  C   UNL d   1       0.473  -0.272  -0.402  0.00  0.00    -0.033 A 
ATOM      2  C1  UNL d   1       0.663  -0.462   0.968  0.00  0.00     0.039 A 
ATOM      3  C2  UNL d   1       0.011   0.363   1.887  0.00  0.00    -0.080 A 
ATOM      4  C3  UNL d   1      -0.828   1.372   1.423  0.00  0.00     0.150 A 
ATOM      5  C4  UNL d   1      -1.026   1.565   0.059  0.00  0.00    -0.007 A 
ATOM      6  C5  UNL d   1      -0.373   0.741  -0.856  0.00  0.00     0.039 A 
ENDROOT
BRANCH   4   7
ATOM      7  O   UNL d   1      -1.483   2.206   2.281  0.00  0.00    -0.526 OA
ATOM      8  H5  UNL d   1      -1.228   1.973   3.189  0.00  0.00     0.418 HD
ENDBRANCH   4   7
TORSDOF 1
ENDMDL
