MODEL 1
REMARK minimizedAffinity -3.81212878
REMARK minimizedRMSD -1
REMARK  0 active torsions:
REMARK  status: ('A' for Active; 'I' for Inactive)
ROOT
ATOM      1  C   UNL d   1      -1.521  -1.779   1.454  0.00  0.00     0.020 A 
ATOM      2  C1  UNL d   1      -1.470  -2.580   0.313  0.00  0.00     0.020 A 
ATOM      3  C2  UNL d   1      -0.914  -2.081  -0.866  0.00  0.00     0.034 A 
ATOM      4  C3  UNL d   1      -0.406  -0.777  -0.909  0.00  0.00     0.017 A 
ATOM      5  C4  UNL d   1      -0.458   0.026   0.237  0.00  0.00     0.017 A 
ATOM      6  C5  UNL d   1      -1.015  -0.479   1.415  0.00  0.00     0.034 A 
ATOM      7 Cl   UNL d   1       0.149   1.644   0.261  0.00  0.00    -0.070 Cl
ATOM      8 Cl1  UNL d   1       0.267  -0.225  -2.401  0.00  0.00    -0.070 Cl
ENDROOT
TORSDOF 0
ENDMDL
