MODEL 1
REMARK minimizedAffinity -1.07409465
REMARK minimizedRMSD -1
REMARK  0 active torsions:
REMARK  status: ('A' for Active; 'I' for Inactive)
ROOT
ATOM      1  C   UNL d   1      -0.887  -0.498   1.251  0.00  0.00     0.020 A 
ATOM      2  C1  UNL d   1      -0.077   0.255   0.402  0.00  0.00     0.020 A 
ATOM      3  C2  UNL d   1       0.689  -0.380  -0.578  0.00  0.00     0.034 A 
ATOM      4  C3  UNL d   1       0.647  -1.773  -0.711  0.00  0.00     0.017 A 
ATOM      5  C4  UNL d   1      -0.166  -2.528   0.142  0.00  0.00     0.017 A 
ATOM      6  C5  UNL d   1      -0.931  -1.887   1.121  0.00  0.00     0.034 A 
ATOM      7 Cl   UNL d   1      -0.270  -4.250   0.038  0.00  0.00    -0.070 Cl
ATOM      8 Cl1  UNL d   1       1.620  -2.492  -1.944  0.00  0.00    -0.070 Cl
ENDROOT
TORSDOF 0
ENDMDL
