MODEL 1
REMARK minimizedAffinity -0.817427516
REMARK minimizedRMSD -1
REMARK  0 active torsions:
REMARK  status: ('A' for Active; 'I' for Inactive)
ROOT
ATOM      1  C   UNL d   1      -1.073   0.696   1.422  0.00  0.00     0.020 A 
ATOM      2  C1  UNL d   1      -0.536   1.470   0.394  0.00  0.00     0.020 A 
ATOM      3  C2  UNL d   1      -0.048   0.855  -0.762  0.00  0.00     0.034 A 
ATOM      4  C3  UNL d   1      -0.096  -0.538  -0.891  0.00  0.00     0.017 A 
ATOM      5  C4  UNL d   1      -0.635  -1.314   0.141  0.00  0.00     0.017 A 
ATOM      6  C5  UNL d   1      -1.122  -0.693   1.296  0.00  0.00     0.034 A 
ATOM      7 Cl   UNL d   1      -0.728  -3.037   0.053  0.00  0.00    -0.070 Cl
ATOM      8 Cl1  UNL d   1       0.524  -1.231  -2.347  0.00  0.00    -0.070 Cl
ENDROOT
TORSDOF 0
ENDMDL
