MODEL 1
REMARK minimizedAffinity -3.71382022
REMARK minimizedRMSD -1
REMARK  0 active torsions:
REMARK  status: ('A' for Active; 'I' for Inactive)
ROOT
ATOM      1  C   UNL d   1      -0.484   0.753   0.924  0.00  0.00     0.020 A 
ATOM      2  C1  UNL d   1      -0.028   1.335  -0.259  0.00  0.00     0.020 A 
ATOM      3  C2  UNL d   1       0.477   0.532  -1.283  0.00  0.00     0.034 A 
ATOM      4  C3  UNL d   1       0.528  -0.858  -1.128  0.00  0.00     0.017 A 
ATOM      5  C4  UNL d   1       0.070  -1.441   0.060  0.00  0.00     0.017 A 
ATOM      6  C5  UNL d   1      -0.434  -0.632   1.082  0.00  0.00     0.034 A 
ATOM      7 Cl   UNL d   1       0.101  -3.149   0.325  0.00  0.00    -0.070 Cl
ATOM      8 Cl1  UNL d   1       1.164  -1.790  -2.436  0.00  0.00    -0.070 Cl
ENDROOT
TORSDOF 0
ENDMDL
