MODEL 1
REMARK minimizedAffinity -1.46799839
REMARK minimizedRMSD -1
REMARK  0 active torsions:
REMARK  status: ('A' for Active; 'I' for Inactive)
ROOT
ATOM      1  C   UNL d   1      -0.766  -1.520   1.428  0.00  0.00     0.020 A 
ATOM      2  C1  UNL d   1      -0.615  -2.329   0.302  0.00  0.00     0.020 A 
ATOM      3  C2  UNL d   1      -0.201  -1.770  -0.909  0.00  0.00     0.034 A 
ATOM      4  C3  UNL d   1       0.064  -0.398  -0.997  0.00  0.00     0.017 A 
ATOM      5  C4  UNL d   1      -0.088   0.413   0.133  0.00  0.00     0.017 A 
ATOM      6  C5  UNL d   1      -0.503  -0.152   1.343  0.00  0.00     0.034 A 
ATOM      7 Cl   UNL d   1       0.221   2.113   0.102  0.00  0.00    -0.070 Cl
ATOM      8 Cl1  UNL d   1       0.573   0.225  -2.526  0.00  0.00    -0.070 Cl
ENDROOT
TORSDOF 0
ENDMDL
