MODEL 1
REMARK minimizedAffinity 1.83934951
REMARK minimizedRMSD -1
REMARK  0 active torsions:
REMARK  status: ('A' for Active; 'I' for Inactive)
ROOT
ATOM      1  C   UNL d   1      -1.020  -1.076   2.048  0.00  0.00     0.020 A 
ATOM      2  C1  UNL d   1      -0.392   0.033   1.483  0.00  0.00     0.020 A 
ATOM      3  C2  UNL d   1      -0.001   0.006   0.142  0.00  0.00     0.034 A 
ATOM      4  C3  UNL d   1      -0.238  -1.132  -0.637  0.00  0.00     0.017 A 
ATOM      5  C4  UNL d   1      -0.868  -2.245  -0.068  0.00  0.00     0.017 A 
ATOM      6  C5  UNL d   1      -1.257  -2.213   1.274  0.00  0.00     0.034 A 
ATOM      7 Cl   UNL d   1      -1.194  -3.686  -0.966  0.00  0.00    -0.070 Cl
ATOM      8 Cl1  UNL d   1       0.272  -1.096  -2.287  0.00  0.00    -0.070 Cl
ENDROOT
TORSDOF 0
ENDMDL
