MODEL 1
REMARK minimizedAffinity -2.58760762
REMARK minimizedRMSD -1
REMARK  0 active torsions:
REMARK  status: ('A' for Active; 'I' for Inactive)
ROOT
ATOM      1  C   UNL d   1      -0.740  -3.150  -0.900  0.00  0.00     0.020 A 
ATOM      2  C1  UNL d   1      -0.091  -2.441  -1.910  0.00  0.00     0.020 A 
ATOM      3  C2  UNL d   1       0.216  -1.091  -1.728  0.00  0.00     0.034 A 
ATOM      4  C3  UNL d   1      -0.124  -0.446  -0.534  0.00  0.00     0.017 A 
ATOM      5  C4  UNL d   1      -0.775  -1.159   0.479  0.00  0.00     0.017 A 
ATOM      6  C5  UNL d   1      -1.081  -2.510   0.292  0.00  0.00     0.034 A 
ATOM      7 Cl   UNL d   1      -1.228  -0.431   1.980  0.00  0.00    -0.070 Cl
ATOM      8 Cl1  UNL d   1       0.287   1.225  -0.378  0.00  0.00    -0.070 Cl
ENDROOT
TORSDOF 0
ENDMDL
