MODEL 1
REMARK minimizedAffinity -0.583513021
REMARK minimizedRMSD -1
REMARK  0 active torsions:
REMARK  status: ('A' for Active; 'I' for Inactive)
ROOT
ATOM      1  C   UNL d   1      -0.064   1.554  -0.310  0.00  0.00     0.020 A 
ATOM      2  C1  UNL d   1      -0.579   1.094   0.902  0.00  0.00     0.020 A 
ATOM      3  C2  UNL d   1      -0.871  -0.261   1.066  0.00  0.00     0.034 A 
ATOM      4  C3  UNL d   1      -0.648  -1.162   0.018  0.00  0.00     0.017 A 
ATOM      5  C4  UNL d   1      -0.131  -0.699  -1.198  0.00  0.00     0.017 A 
ATOM      6  C5  UNL d   1       0.159   0.660  -1.357  0.00  0.00     0.034 A 
ATOM      7 Cl   UNL d   1       0.170  -1.749  -2.537  0.00  0.00    -0.070 Cl
ATOM      8 Cl1  UNL d   1      -1.031  -2.824   0.291  0.00  0.00    -0.070 Cl
ENDROOT
TORSDOF 0
ENDMDL
