MODEL 1
REMARK minimizedAffinity -2.84848142
REMARK minimizedRMSD -1
REMARK  0 active torsions:
REMARK  status: ('A' for Active; 'I' for Inactive)
ROOT
ATOM      1  C   UNL d   1      -1.071   1.255  -0.084  0.00  0.00     0.020 A 
ATOM      2  C1  UNL d   1      -1.481   0.500   1.014  0.00  0.00     0.020 A 
ATOM      3  C2  UNL d   1      -1.197  -0.866   1.067  0.00  0.00     0.034 A 
ATOM      4  C3  UNL d   1      -0.501  -1.482   0.021  0.00  0.00     0.017 A 
ATOM      5  C4  UNL d   1      -0.090  -0.723  -1.081  0.00  0.00     0.017 A 
ATOM      6  C5  UNL d   1      -0.377   0.644  -1.130  0.00  0.00     0.034 A 
ATOM      7 Cl   UNL d   1       0.773  -1.413  -2.411  0.00  0.00    -0.070 Cl
ATOM      8 Cl1  UNL d   1      -0.185  -3.175   0.153  0.00  0.00    -0.070 Cl
ENDROOT
TORSDOF 0
ENDMDL
