MODEL 1
REMARK minimizedAffinity -2.24125648
REMARK minimizedRMSD -1
REMARK  0 active torsions:
REMARK  status: ('A' for Active; 'I' for Inactive)
ROOT
ATOM      1  C   UNL d   1       1.981   3.612   0.793  0.00  0.00     0.020 A 
ATOM      2  C1  UNL d   1       2.179   2.797   1.907  0.00  0.00     0.020 A 
ATOM      3  C2  UNL d   1       1.592   1.532   1.960  0.00  0.00     0.034 A 
ATOM      4  C3  UNL d   1       0.803   1.077   0.897  0.00  0.00     0.017 A 
ATOM      5  C4  UNL d   1       0.605   1.895  -0.221  0.00  0.00     0.017 A 
ATOM      6  C5  UNL d   1       1.196   3.161  -0.269  0.00  0.00     0.034 A 
ATOM      7 Cl   UNL d   1      -0.355   1.403  -1.571  0.00  0.00    -0.070 Cl
ATOM      8 Cl1  UNL d   1       0.107  -0.499   1.030  0.00  0.00    -0.070 Cl
ENDROOT
TORSDOF 0
ENDMDL
