MODEL 1
REMARK minimizedAffinity -3.89714074
REMARK minimizedRMSD -1
REMARK  0 active torsions:
REMARK  status: ('A' for Active; 'I' for Inactive)
ROOT
ATOM      1  C   UNL d   1       0.105  -2.326  -2.425  0.00  0.00     0.020 A 
ATOM      2  C1  UNL d   1      -0.449  -3.294  -1.588  0.00  0.00     0.020 A 
ATOM      3  C2  UNL d   1      -0.779  -2.971  -0.270  0.00  0.00     0.034 A 
ATOM      4  C3  UNL d   1      -0.553  -1.678   0.215  0.00  0.00     0.017 A 
ATOM      5  C4  UNL d   1       0.003  -0.707  -0.625  0.00  0.00     0.017 A 
ATOM      6  C5  UNL d   1       0.331  -1.036  -1.944  0.00  0.00     0.034 A 
ATOM      7 Cl   UNL d   1       0.311   0.910  -0.098  0.00  0.00    -0.070 Cl
ATOM      8 Cl1  UNL d   1      -0.985  -1.349   1.856  0.00  0.00    -0.070 Cl
ENDROOT
TORSDOF 0
ENDMDL
