MODEL 1
REMARK minimizedAffinity -2.53260732
REMARK minimizedRMSD -1
REMARK  0 active torsions:
REMARK  status: ('A' for Active; 'I' for Inactive)
ROOT
ATOM      1  C   UNL d   1      -0.500   1.377   0.055  0.00  0.00     0.020 A 
ATOM      2  C1  UNL d   1      -0.895   0.650   1.177  0.00  0.00     0.020 A 
ATOM      3  C2  UNL d   1      -0.831  -0.745   1.163  0.00  0.00     0.034 A 
ATOM      4  C3  UNL d   1      -0.372  -1.417   0.024  0.00  0.00     0.017 A 
ATOM      5  C4  UNL d   1       0.024  -0.686  -1.101  0.00  0.00     0.017 A 
ATOM      6  C5  UNL d   1      -0.042   0.710  -1.082  0.00  0.00     0.034 A 
ATOM      7 Cl   UNL d   1       0.602  -1.445  -2.543  0.00  0.00    -0.070 Cl
ATOM      8 Cl1  UNL d   1      -0.319  -3.144   0.077  0.00  0.00    -0.070 Cl
ENDROOT
TORSDOF 0
ENDMDL
