MODEL 1
REMARK minimizedAffinity -1.41107547
REMARK minimizedRMSD -1
REMARK  0 active torsions:
REMARK  status: ('A' for Active; 'I' for Inactive)
ROOT
ATOM      1  C   UNL d   1      -1.205  -1.930   1.349  0.00  0.00     0.020 A 
ATOM      2  C1  UNL d   1      -0.957  -0.840   2.183  0.00  0.00     0.020 A 
ATOM      3  C2  UNL d   1      -0.235   0.255   1.704  0.00  0.00     0.034 A 
ATOM      4  C3  UNL d   1       0.241   0.263   0.388  0.00  0.00     0.017 A 
ATOM      5  C4  UNL d   1      -0.008  -0.831  -0.448  0.00  0.00     0.017 A 
ATOM      6  C5  UNL d   1      -0.731  -1.925   0.036  0.00  0.00     0.034 A 
ATOM      7 Cl   UNL d   1       0.548  -0.894  -2.084  0.00  0.00    -0.070 Cl
ATOM      8 Cl1  UNL d   1       1.127   1.651  -0.138  0.00  0.00    -0.070 Cl
ENDROOT
TORSDOF 0
ENDMDL
