MODEL 1
REMARK minimizedAffinity 0.073187001
REMARK minimizedRMSD -1
REMARK  0 active torsions:
REMARK  status: ('A' for Active; 'I' for Inactive)
ROOT
ATOM      1  C   UNL d   1      -0.046   1.515   0.337  0.00  0.00     0.020 A 
ATOM      2  C1  UNL d   1      -0.548   0.843   1.450  0.00  0.00     0.020 A 
ATOM      3  C2  UNL d   1      -0.744  -0.539   1.402  0.00  0.00     0.034 A 
ATOM      4  C3  UNL d   1      -0.437  -1.254   0.238  0.00  0.00     0.017 A 
ATOM      5  C4  UNL d   1       0.067  -0.578  -0.879  0.00  0.00     0.017 A 
ATOM      6  C5  UNL d   1       0.261   0.806  -0.826  0.00  0.00     0.034 A 
ATOM      7 Cl   UNL d   1       0.469  -1.391  -2.351  0.00  0.00    -0.070 Cl
ATOM      8 Cl1  UNL d   1      -0.704  -2.961   0.249  0.00  0.00    -0.070 Cl
ENDROOT
TORSDOF 0
ENDMDL
