MODEL 1
REMARK minimizedAffinity 0.127058238
REMARK minimizedRMSD -1
REMARK  0 active torsions:
REMARK  status: ('A' for Active; 'I' for Inactive)
ROOT
ATOM      1  C   UNL d   1      -1.104  -2.472   0.897  0.00  0.00     0.020 A 
ATOM      2  C1  UNL d   1      -1.265  -1.407   1.783  0.00  0.00     0.020 A 
ATOM      3  C2  UNL d   1      -0.860  -0.123   1.412  0.00  0.00     0.034 A 
ATOM      4  C3  UNL d   1      -0.291   0.099   0.152  0.00  0.00     0.017 A 
ATOM      5  C4  UNL d   1      -0.130  -0.970  -0.736  0.00  0.00     0.017 A 
ATOM      6  C5  UNL d   1      -0.537  -2.254  -0.359  0.00  0.00     0.034 A 
ATOM      7 Cl   UNL d   1       0.564  -0.774  -2.306  0.00  0.00    -0.070 Cl
ATOM      8 Cl1  UNL d   1       0.186   1.713  -0.240  0.00  0.00    -0.070 Cl
ENDROOT
TORSDOF 0
ENDMDL
