MODEL 1
REMARK minimizedAffinity -0.412926823
REMARK minimizedRMSD -1
REMARK  0 active torsions:
REMARK  status: ('A' for Active; 'I' for Inactive)
ROOT
ATOM      1  C   UNL d   1      -1.439   0.066   1.504  0.00  0.00     0.020 A 
ATOM      2  C1  UNL d   1      -0.257  -0.253   0.838  0.00  0.00     0.020 A 
ATOM      3  C2  UNL d   1      -0.161  -1.446   0.118  0.00  0.00     0.034 A 
ATOM      4  C3  UNL d   1      -1.249  -2.324   0.063  0.00  0.00     0.017 A 
ATOM      5  C4  UNL d   1      -2.436  -2.003   0.732  0.00  0.00     0.017 A 
ATOM      6  C5  UNL d   1      -2.527  -0.807   1.451  0.00  0.00     0.034 A 
ATOM      7 Cl   UNL d   1      -3.821  -3.036   0.709  0.00  0.00    -0.070 Cl
ATOM      8 Cl1  UNL d   1      -1.060  -3.781  -0.846  0.00  0.00    -0.070 Cl
ENDROOT
TORSDOF 0
ENDMDL
