MODEL 1
REMARK minimizedAffinity -2.73435044
REMARK minimizedRMSD -1
REMARK  0 active torsions:
REMARK  status: ('A' for Active; 'I' for Inactive)
ROOT
ATOM      1  C   UNL d   1       0.793  -0.492  -3.316  0.00  0.00     0.020 A 
ATOM      2  C1  UNL d   1       0.600  -1.796  -2.861  0.00  0.00     0.020 A 
ATOM      3  C2  UNL d   1       0.241  -2.026  -1.532  0.00  0.00     0.034 A 
ATOM      4  C3  UNL d   1       0.073  -0.950  -0.652  0.00  0.00     0.017 A 
ATOM      5  C4  UNL d   1       0.267   0.359  -1.110  0.00  0.00     0.017 A 
ATOM      6  C5  UNL d   1       0.627   0.583  -2.442  0.00  0.00     0.034 A 
ATOM      7 Cl   UNL d   1       0.079   1.737  -0.084  0.00  0.00    -0.070 Cl
ATOM      8 Cl1  UNL d   1      -0.372  -1.307   0.979  0.00  0.00    -0.070 Cl
ENDROOT
TORSDOF 0
ENDMDL
