MODEL 1
REMARK minimizedAffinity -4.88796425
REMARK minimizedRMSD -1
REMARK  0 active torsions:
REMARK  status: ('A' for Active; 'I' for Inactive)
ROOT
ATOM      1  C   UNL d   1      -0.503  -3.595  -0.972  0.00  0.00     0.020 A 
ATOM      2  C1  UNL d   1      -0.369  -3.280   0.379  0.00  0.00     0.020 A 
ATOM      3  C2  UNL d   1      -0.039  -1.978   0.763  0.00  0.00     0.034 A 
ATOM      4  C3  UNL d   1       0.157  -0.987  -0.206  0.00  0.00     0.017 A 
ATOM      5  C4  UNL d   1       0.023  -1.305  -1.562  0.00  0.00     0.017 A 
ATOM      6  C5  UNL d   1      -0.307  -2.610  -1.941  0.00  0.00     0.034 A 
ATOM      7 Cl   UNL d   1       0.250  -0.136  -2.815  0.00  0.00    -0.070 Cl
ATOM      8 Cl1  UNL d   1       0.562   0.601   0.340  0.00  0.00    -0.070 Cl
ENDROOT
TORSDOF 0
ENDMDL
