MODEL 1
REMARK minimizedAffinity -1.45717633
REMARK minimizedRMSD -1
REMARK  0 active torsions:
REMARK  status: ('A' for Active; 'I' for Inactive)
ROOT
ATOM      1  C   UNL d   1       1.757   1.717   0.117  0.00  0.00     0.172 C 
ATOM      2  N   UNL d   1       2.201   0.368  -0.150  0.00  0.00    -0.070 N 
ATOM      3  C1  UNL d   1       3.046  -0.009  -1.158  0.00  0.00    -0.004 A 
ATOM      4  C2  UNL d   1       3.222  -1.373  -1.073  0.00  0.00    -0.047 A 
ATOM      5  C3  UNL d   1       2.455  -1.832   0.024  0.00  0.00    -0.047 A 
ATOM      6  C4  UNL d   1       1.833  -0.733   0.578  0.00  0.00    -0.004 A 
ENDROOT
TORSDOF 0
ENDMDL
