MODEL 1
REMARK minimizedAffinity -0.25692293
REMARK minimizedRMSD -1
REMARK  0 active torsions:
REMARK  status: ('A' for Active; 'I' for Inactive)
ROOT
ATOM      1  C   UNL d   1      -2.461  -3.980   1.139  0.00  0.00     0.172 C 
ATOM      2  N   UNL d   1      -3.423  -4.801   1.837  0.00  0.00    -0.070 N 
ATOM      3  C1  UNL d   1      -3.305  -5.249   3.125  0.00  0.00    -0.004 A 
ATOM      4  C2  UNL d   1      -4.426  -5.997   3.416  0.00  0.00    -0.047 A 
ATOM      5  C3  UNL d   1      -5.244  -6.000   2.262  0.00  0.00    -0.047 A 
ATOM      6  C4  UNL d   1      -4.599  -5.252   1.299  0.00  0.00    -0.004 A 
ENDROOT
TORSDOF 0
ENDMDL
