MODEL 1
REMARK minimizedAffinity 4.07673883
REMARK minimizedRMSD -1
REMARK  0 active torsions:
REMARK  status: ('A' for Active; 'I' for Inactive)
ROOT
ATOM      1  C   UNL d   1      -3.878   1.446  -1.690  0.00  0.00     0.172 C 
ATOM      2  N   UNL d   1      -3.104   2.060  -2.744  0.00  0.00    -0.070 N 
ATOM      3  C1  UNL d   1      -2.048   2.913  -2.565  0.00  0.00    -0.004 A 
ATOM      4  C2  UNL d   1      -1.584   3.277  -3.810  0.00  0.00    -0.047 A 
ATOM      5  C3  UNL d   1      -2.389   2.620  -4.771  0.00  0.00    -0.047 A 
ATOM      6  C4  UNL d   1      -3.322   1.874  -4.083  0.00  0.00    -0.004 A 
ENDROOT
TORSDOF 0
ENDMDL
