MODEL 1
REMARK minimizedAffinity 2.02021909
REMARK minimizedRMSD -1
REMARK  0 active torsions:
REMARK  status: ('A' for Active; 'I' for Inactive)
ROOT
ATOM      1  C   UNL d   1       3.800  -0.198  -2.312  0.00  0.00     0.172 C 
ATOM      2  N   UNL d   1       3.083  -0.803  -1.214  0.00  0.00    -0.070 N 
ATOM      3  C1  UNL d   1       2.848  -2.142  -1.056  0.00  0.00    -0.004 A 
ATOM      4  C2  UNL d   1       2.136  -2.311   0.112  0.00  0.00    -0.047 A 
ATOM      5  C3  UNL d   1       1.935  -1.028   0.674  0.00  0.00    -0.047 A 
ATOM      6  C4  UNL d   1       2.532  -0.113  -0.167  0.00  0.00    -0.004 A 
ENDROOT
TORSDOF 0
ENDMDL
