MODEL 1
REMARK minimizedAffinity 1.61218894
REMARK minimizedRMSD -1
REMARK  0 active torsions:
REMARK  status: ('A' for Active; 'I' for Inactive)
ROOT
ATOM      1  C   UNL d   1      -2.210   2.949  -3.714  0.00  0.00     0.172 C 
ATOM      2  N   UNL d   1      -2.922   2.137  -2.756  0.00  0.00    -0.070 N 
ATOM      3  C1  UNL d   1      -4.184   2.382  -2.283  0.00  0.00    -0.004 A 
ATOM      4  C2  UNL d   1      -4.502   1.380  -1.391  0.00  0.00    -0.047 A 
ATOM      5  C3  UNL d   1      -3.392   0.504  -1.325  0.00  0.00    -0.047 A 
ATOM      6  C4  UNL d   1      -2.429   0.996  -2.180  0.00  0.00    -0.004 A 
ENDROOT
TORSDOF 0
ENDMDL
