MODEL 1
REMARK minimizedAffinity -3.22981071
REMARK minimizedRMSD -1
REMARK  0 active torsions:
REMARK  status: ('A' for Active; 'I' for Inactive)
ROOT
ATOM      1  C   UNL d   1       2.863  -5.650   4.988  0.00  0.00     0.172 C 
ATOM      2  N   UNL d   1       1.880  -4.726   4.473  0.00  0.00    -0.070 N 
ATOM      3  C1  UNL d   1       2.150  -3.537   3.851  0.00  0.00    -0.004 A 
ATOM      4  C2  UNL d   1       0.947  -2.956   3.511  0.00  0.00    -0.047 A 
ATOM      5  C3  UNL d   1      -0.081  -3.826   3.944  0.00  0.00    -0.047 A 
ATOM      6  C4  UNL d   1       0.524  -4.914   4.536  0.00  0.00    -0.004 A 
ENDROOT
TORSDOF 0
ENDMDL
