MODEL 1
REMARK minimizedAffinity -1.09178996
REMARK minimizedRMSD -1
REMARK  0 active torsions:
REMARK  status: ('A' for Active; 'I' for Inactive)
ROOT
ATOM      1  C   UNL d   1       1.116   1.933  -0.073  0.00  0.00     0.172 C 
ATOM      2  N   UNL d   1       1.517   0.546  -0.075  0.00  0.00    -0.070 N 
ATOM      3  C1  UNL d   1       0.987  -0.440   0.712  0.00  0.00    -0.004 A 
ATOM      4  C2  UNL d   1       1.637  -1.617   0.410  0.00  0.00    -0.047 A 
ATOM      5  C3  UNL d   1       2.592  -1.328  -0.593  0.00  0.00    -0.047 A 
ATOM      6  C4  UNL d   1       2.496   0.019  -0.875  0.00  0.00    -0.004 A 
ENDROOT
TORSDOF 0
ENDMDL
