MODEL 1
REMARK minimizedAffinity 4.56986141
REMARK minimizedRMSD -1
REMARK  0 active torsions:
REMARK  status: ('A' for Active; 'I' for Inactive)
ROOT
ATOM      1  C   UNL d   1      -0.025   0.353   1.106  0.00  0.00     0.172 C 
ATOM      2  N   UNL d   1       1.272   0.342   0.473  0.00  0.00    -0.070 N 
ATOM      3  C1  UNL d   1       1.974  -0.776   0.108  0.00  0.00    -0.004 A 
ATOM      4  C2  UNL d   1       3.159  -0.364  -0.462  0.00  0.00    -0.047 A 
ATOM      5  C3  UNL d   1       3.171   1.051  -0.438  0.00  0.00    -0.047 A 
ATOM      6  C4  UNL d   1       1.991   1.462   0.145  0.00  0.00    -0.004 A 
ENDROOT
TORSDOF 0
ENDMDL
