MODEL 1
REMARK minimizedAffinity -0.329362124
REMARK minimizedRMSD -1
REMARK  0 active torsions:
REMARK  status: ('A' for Active; 'I' for Inactive)
ROOT
ATOM      1  C   UNL d   1      -3.515  -5.988  -4.124  0.00  0.00     0.172 C 
ATOM      2  N   UNL d   1      -4.287  -5.991  -2.904  0.00  0.00    -0.070 N 
ATOM      3  C1  UNL d   1      -5.654  -6.000  -2.825  0.00  0.00    -0.004 A 
ATOM      4  C2  UNL d   1      -5.999  -6.000  -1.490  0.00  0.00    -0.047 A 
ATOM      5  C3  UNL d   1      -4.798  -5.990  -0.742  0.00  0.00    -0.047 A 
ATOM      6  C4  UNL d   1      -3.753  -5.985  -1.642  0.00  0.00    -0.004 A 
ENDROOT
TORSDOF 0
ENDMDL
