MODEL 1
REMARK minimizedAffinity 0.987226486
REMARK minimizedRMSD -1
REMARK  0 active torsions:
REMARK  status: ('A' for Active; 'I' for Inactive)
ROOT
ATOM      1  C   UNL d   1      -2.574  -3.972   0.391  0.00  0.00     0.172 C 
ATOM      2  N   UNL d   1      -3.059  -4.512   1.640  0.00  0.00    -0.070 N 
ATOM      3  C1  UNL d   1      -2.329  -4.642   2.791  0.00  0.00    -0.004 A 
ATOM      4  C2  UNL d   1      -3.149  -5.196   3.750  0.00  0.00    -0.047 A 
ATOM      5  C3  UNL d   1      -4.415  -5.407   3.154  0.00  0.00    -0.047 A 
ATOM      6  C4  UNL d   1      -4.332  -4.975   1.848  0.00  0.00    -0.004 A 
ENDROOT
TORSDOF 0
ENDMDL
