MODEL 1
REMARK minimizedAffinity 0.548600316
REMARK minimizedRMSD -1
REMARK  0 active torsions:
REMARK  status: ('A' for Active; 'I' for Inactive)
ROOT
ATOM      1  C   UNL d   1      -1.521  -6.000  -5.995  0.00  0.00     0.172 C 
ATOM      2  N   UNL d   1      -0.231  -5.887  -5.358  0.00  0.00    -0.070 N 
ATOM      3  C1  UNL d   1       0.982  -5.987  -5.987  0.00  0.00    -0.004 A 
ATOM      4  C2  UNL d   1       1.965  -5.823  -5.036  0.00  0.00    -0.047 A 
ATOM      5  C3  UNL d   1       1.322  -5.619  -3.792  0.00  0.00    -0.047 A 
ATOM      6  C4  UNL d   1      -0.037  -5.663  -4.020  0.00  0.00    -0.004 A 
ENDROOT
TORSDOF 0
ENDMDL
