MODEL 1
REMARK minimizedAffinity 3.69117141
REMARK minimizedRMSD -1
REMARK  0 active torsions:
REMARK  status: ('A' for Active; 'I' for Inactive)
ROOT
ATOM      1  C   UNL d   1       1.506  -4.867  -2.519  0.00  0.00     0.172 C 
ATOM      2  N   UNL d   1       1.345  -5.291  -3.890  0.00  0.00    -0.070 N 
ATOM      3  C1  UNL d   1       2.346  -5.383  -4.819  0.00  0.00    -0.004 A 
ATOM      4  C2  UNL d   1       1.787  -5.822  -6.000  0.00  0.00    -0.047 A 
ATOM      5  C3  UNL d   1       0.402  -6.000  -5.772  0.00  0.00    -0.047 A 
ATOM      6  C4  UNL d   1       0.155  -5.663  -4.458  0.00  0.00    -0.004 A 
ENDROOT
TORSDOF 0
ENDMDL
