MODEL 1
REMARK minimizedAffinity -2.68487072
REMARK minimizedRMSD -1
REMARK  0 active torsions:
REMARK  status: ('A' for Active; 'I' for Inactive)
ROOT
ATOM      1  C   UNL d   1      -0.758  -6.000  -5.819  0.00  0.00     0.172 C 
ATOM      2  N   UNL d   1       0.355  -5.872  -4.908  0.00  0.00    -0.070 N 
ATOM      3  C1  UNL d   1       1.653  -5.617  -5.264  0.00  0.00    -0.004 A 
ATOM      4  C2  UNL d   1       2.406  -5.570  -4.111  0.00  0.00    -0.047 A 
ATOM      5  C3  UNL d   1       1.531  -5.806  -3.024  0.00  0.00    -0.047 A 
ATOM      6  C4  UNL d   1       0.268  -5.990  -3.546  0.00  0.00    -0.004 A 
ENDROOT
TORSDOF 0
ENDMDL
