MODEL 1
REMARK minimizedAffinity -0.924482644
REMARK minimizedRMSD -1
REMARK  0 active torsions:
REMARK  status: ('A' for Active; 'I' for Inactive)
ROOT
ATOM      1  C   UNL d   1      -1.855  -5.999  -3.369  0.00  0.00     0.172 C 
ATOM      2  N   UNL d   1      -0.609  -5.535  -3.932  0.00  0.00    -0.070 N 
ATOM      3  C1  UNL d   1      -0.353  -5.355  -5.265  0.00  0.00    -0.004 A 
ATOM      4  C2  UNL d   1       0.944  -4.903  -5.388  0.00  0.00    -0.047 A 
ATOM      5  C3  UNL d   1       1.485  -4.810  -4.084  0.00  0.00    -0.047 A 
ATOM      6  C4  UNL d   1       0.503  -5.207  -3.202  0.00  0.00    -0.004 A 
ENDROOT
TORSDOF 0
ENDMDL
