MODEL 1
REMARK minimizedAffinity 3.0086534
REMARK minimizedRMSD -1
REMARK  0 active torsions:
REMARK  status: ('A' for Active; 'I' for Inactive)
ROOT
ATOM      1  C   UNL d   1      -0.983   1.819  -3.089  0.00  0.00     0.172 C 
ATOM      2  N   UNL d   1       0.043   1.049  -2.426  0.00  0.00    -0.070 N 
ATOM      3  C1  UNL d   1       0.077   0.745  -1.092  0.00  0.00    -0.004 A 
ATOM      4  C2  UNL d   1       1.212  -0.002  -0.858  0.00  0.00    -0.047 A 
ATOM      5  C3  UNL d   1       1.883  -0.152  -2.094  0.00  0.00    -0.047 A 
ATOM      6  C4  UNL d   1       1.138   0.508  -3.048  0.00  0.00    -0.004 A 
ENDROOT
TORSDOF 0
ENDMDL
