MODEL 1
REMARK minimizedAffinity -0.358722717
REMARK minimizedRMSD -1
REMARK  0 active torsions:
REMARK  status: ('A' for Active; 'I' for Inactive)
ROOT
ATOM      1  C   UNL d   1      -2.204   1.974  -1.871  0.00  0.00     0.172 C 
ATOM      2  N   UNL d   1      -2.144   0.993  -0.813  0.00  0.00    -0.070 N 
ATOM      3  C1  UNL d   1      -1.733   1.229   0.471  0.00  0.00    -0.004 A 
ATOM      4  C2  UNL d   1      -1.822   0.043   1.168  0.00  0.00    -0.047 A 
ATOM      5  C3  UNL d   1      -2.303  -0.940   0.270  0.00  0.00    -0.047 A 
ATOM      6  C4  UNL d   1      -2.494  -0.325  -0.949  0.00  0.00    -0.004 A 
ENDROOT
TORSDOF 0
ENDMDL
