MODEL 1
REMARK minimizedAffinity -3.43033433
REMARK minimizedRMSD -1
REMARK  0 active torsions:
REMARK  status: ('A' for Active; 'I' for Inactive)
ROOT
ATOM      1  C1  DEN d   1      -1.531   1.185  -0.792  0.00  0.00     0.130 A 
ATOM      2  C2  DEN d   1      -2.129   0.450   0.319  0.00  0.00    -0.031 A 
ATOM      3  C3  DEN d   1      -1.277  -0.723   0.602  0.00  0.00     0.027 A 
ATOM      4  C4  DEN d   1       0.901  -1.465  -0.564  0.00  0.00     0.027 A 
ATOM      5  C5  DEN d   1       1.794  -1.166  -1.569  0.00  0.00    -0.003 A 
ATOM      6  C6  DEN d   1       1.625  -0.091  -2.401  0.00  0.00     0.001 A 
ATOM      7  C7  DEN d   1       0.561   0.751  -2.213  0.00  0.00     0.017 A 
ATOM      8  C8  DEN d   1      -0.348   0.452  -1.207  0.00  0.00    -0.094 A 
ATOM      9  C9  DEN d   1      -0.153  -0.632  -0.369  0.00  0.00    -0.072 A 
ENDROOT
TORSDOF 0
ENDMDL
