MODEL 1
REMARK minimizedAffinity -5.785007
REMARK minimizedRMSD -1
REMARK  0 active torsions:
REMARK  status: ('A' for Active; 'I' for Inactive)
ROOT
ATOM      1  C1  DEN d   1       2.029  -0.689   0.672  0.00  0.00     0.130 A 
ATOM      2  C2  DEN d   1       1.731  -0.889  -0.744  0.00  0.00    -0.031 A 
ATOM      3  C3  DEN d   1       0.345  -0.443  -0.986  0.00  0.00     0.027 A 
ATOM      4  C4  DEN d   1      -1.360   0.537   0.683  0.00  0.00     0.027 A 
ATOM      5  C5  DEN d   1      -1.569   0.886   1.999  0.00  0.00    -0.003 A 
ATOM      6  C6  DEN d   1      -0.613   0.705   2.963  0.00  0.00     0.001 A 
ATOM      7  C7  DEN d   1       0.613   0.201   2.617  0.00  0.00     0.017 A 
ATOM      8  C8  DEN d   1       0.829  -0.160   1.294  0.00  0.00    -0.094 A 
ATOM      9  C9  DEN d   1      -0.146   0.043   0.332  0.00  0.00    -0.072 A 
ENDROOT
TORSDOF 0
ENDMDL
