MODEL 1
REMARK minimizedAffinity -3.46269608
REMARK minimizedRMSD -1
REMARK  0 active torsions:
REMARK  status: ('A' for Active; 'I' for Inactive)
ROOT
ATOM      1  C1  DEN d   1       1.067  -0.922  -0.203  0.00  0.00     0.130 A 
ATOM      2  C2  DEN d   1       2.152  -0.976   0.772  0.00  0.00    -0.031 A 
ATOM      3  C3  DEN d   1       1.640  -0.452   2.055  0.00  0.00     0.027 A 
ATOM      4  C4  DEN d   1      -0.717   0.428   2.622  0.00  0.00     0.027 A 
ATOM      5  C5  DEN d   1      -1.973   0.681   2.116  0.00  0.00    -0.003 A 
ATOM      6  C6  DEN d   1      -2.291   0.451   0.804  0.00  0.00     0.001 A 
ATOM      7  C7  DEN d   1      -1.354  -0.089  -0.037  0.00  0.00     0.017 A 
ATOM      8  C8  DEN d   1      -0.084  -0.340   0.464  0.00  0.00    -0.094 A 
ATOM      9  C9  DEN d   1       0.215  -0.112   1.796  0.00  0.00    -0.072 A 
ENDROOT
TORSDOF 0
ENDMDL
