MODEL 1
REMARK minimizedAffinity -2.95670724
REMARK minimizedRMSD -1
REMARK  0 active torsions:
REMARK  status: ('A' for Active; 'I' for Inactive)
ROOT
ATOM      1  C1  DEN d   1       0.418   1.400  -3.620  0.00  0.00     0.130 A 
ATOM      2  C2  DEN d   1       1.434   0.765  -4.455  0.00  0.00    -0.031 A 
ATOM      3  C3  DEN d   1       1.865  -0.478  -3.783  0.00  0.00     0.027 A 
ATOM      4  C4  DEN d   1       1.057  -1.477  -1.547  0.00  0.00     0.027 A 
ATOM      5  C5  DEN d   1       0.215  -1.291  -0.473  0.00  0.00    -0.003 A 
ATOM      6  C6  DEN d   1      -0.588  -0.187  -0.357  0.00  0.00     0.001 A 
ATOM      7  C7  DEN d   1      -0.598   0.752  -1.355  0.00  0.00     0.017 A 
ATOM      8  C8  DEN d   1       0.255   0.575  -2.437  0.00  0.00    -0.094 A 
ATOM      9  C9  DEN d   1       1.049  -0.554  -2.541  0.00  0.00    -0.072 A 
ENDROOT
TORSDOF 0
ENDMDL
