MODEL 1
REMARK minimizedAffinity -3.10286903
REMARK minimizedRMSD -1
REMARK  0 active torsions:
REMARK  status: ('A' for Active; 'I' for Inactive)
ROOT
ATOM      1  C1  DEN d   1      -0.371  -0.914  -3.654  0.00  0.00     0.130 A 
ATOM      2  C2  DEN d   1       0.156  -0.230  -4.832  0.00  0.00    -0.031 A 
ATOM      3  C3  DEN d   1       1.318   0.577  -4.409  0.00  0.00     0.027 A 
ATOM      4  C4  DEN d   1       2.351   0.827  -2.058  0.00  0.00     0.027 A 
ATOM      5  C5  DEN d   1       2.242   0.449  -0.739  0.00  0.00    -0.003 A 
ATOM      6  C6  DEN d   1       1.242  -0.376  -0.295  0.00  0.00     0.001 A 
ATOM      7  C7  DEN d   1       0.338  -0.887  -1.189  0.00  0.00     0.017 A 
ATOM      8  C8  DEN d   1       0.437  -0.504  -2.520  0.00  0.00    -0.094 A 
ATOM      9  C9  DEN d   1       1.462   0.321  -2.950  0.00  0.00    -0.072 A 
ENDROOT
TORSDOF 0
ENDMDL
