MODEL 1
REMARK minimizedAffinity -1.94687414
REMARK minimizedRMSD -1
REMARK  0 active torsions:
REMARK  status: ('A' for Active; 'I' for Inactive)
ROOT
ATOM      1  C1  DEN d   1       0.979  -0.068   0.021  0.00  0.00     0.130 A 
ATOM      2  C2  DEN d   1      -0.403  -0.361   0.390  0.00  0.00    -0.031 A 
ATOM      3  C3  DEN d   1      -1.192  -0.484  -0.853  0.00  0.00     0.027 A 
ATOM      4  C4  DEN d   1      -0.409  -0.253  -3.300  0.00  0.00     0.027 A 
ATOM      5  C5  DEN d   1       0.672   0.004  -4.113  0.00  0.00    -0.003 A 
ATOM      6  C6  DEN d   1       1.914   0.286  -3.609  0.00  0.00     0.001 A 
ATOM      7  C7  DEN d   1       2.116   0.274  -2.254  0.00  0.00     0.017 A 
ATOM      8  C8  DEN d   1       1.028   0.023  -1.427  0.00  0.00    -0.094 A 
ATOM      9  C9  DEN d   1      -0.217  -0.272  -1.957  0.00  0.00    -0.072 A 
ENDROOT
TORSDOF 0
ENDMDL
