MODEL 1
REMARK minimizedAffinity -1.14559615
REMARK minimizedRMSD -1
REMARK  0 active torsions:
REMARK  status: ('A' for Active; 'I' for Inactive)
ROOT
ATOM      1  C1  DEN d   1       0.051   0.905   0.027  0.00  0.00     0.130 A 
ATOM      2  C2  DEN d   1      -0.959   0.051   0.647  0.00  0.00    -0.031 A 
ATOM      3  C3  DEN d   1      -1.310  -1.014  -0.313  0.00  0.00     0.027 A 
ATOM      4  C4  DEN d   1      -0.390  -1.425  -2.688  0.00  0.00     0.027 A 
ATOM      5  C5  DEN d   1       0.475  -0.958  -3.653  0.00  0.00    -0.003 A 
ATOM      6  C6  DEN d   1       1.228   0.172  -3.474  0.00  0.00     0.001 A 
ATOM      7  C7  DEN d   1       1.164   0.849  -2.285  0.00  0.00     0.017 A 
ATOM      8  C8  DEN d   1       0.288   0.389  -1.310  0.00  0.00    -0.094 A 
ATOM      9  C9  DEN d   1      -0.455  -0.763  -1.505  0.00  0.00    -0.072 A 
ENDROOT
TORSDOF 0
ENDMDL
