MODEL 1
REMARK minimizedAffinity -3.3129797
REMARK minimizedRMSD -1
REMARK  0 active torsions:
REMARK  status: ('A' for Active; 'I' for Inactive)
ROOT
ATOM      1  C1  DEN d   1       0.909  -0.412   3.292  0.00  0.00     0.130 A 
ATOM      2  C2  DEN d   1      -0.401  -0.059   3.831  0.00  0.00    -0.031 A 
ATOM      3  C3  DEN d   1      -1.277   0.307   2.699  0.00  0.00     0.027 A 
ATOM      4  C4  DEN d   1      -0.734   0.357   0.178  0.00  0.00     0.027 A 
ATOM      5  C5  DEN d   1       0.251   0.151  -0.763  0.00  0.00    -0.003 A 
ATOM      6  C6  DEN d   1       1.523  -0.222  -0.418  0.00  0.00     0.001 A 
ATOM      7  C7  DEN d   1       1.833  -0.443   0.898  0.00  0.00     0.017 A 
ATOM      8  C8  DEN d   1       0.847  -0.230   1.853  0.00  0.00    -0.094 A 
ATOM      9  C9  DEN d   1      -0.437   0.135   1.483  0.00  0.00    -0.072 A 
ENDROOT
TORSDOF 0
ENDMDL
