MODEL 1
REMARK minimizedAffinity -2.29092884
REMARK minimizedRMSD -1
REMARK  0 active torsions:
REMARK  status: ('A' for Active; 'I' for Inactive)
ROOT
ATOM      1  C1  DEN d   1       0.674  -0.924  -0.514  0.00  0.00     0.130 A 
ATOM      2  C2  DEN d   1      -0.538  -0.418   0.124  0.00  0.00    -0.031 A 
ATOM      3  C3  DEN d   1      -1.098   0.644  -0.736  0.00  0.00     0.027 A 
ATOM      4  C4  DEN d   1      -0.213   1.545  -2.985  0.00  0.00     0.027 A 
ATOM      5  C5  DEN d   1       0.791   1.435  -3.921  0.00  0.00    -0.003 A 
ATOM      6  C6  DEN d   1       1.836   0.562  -3.772  0.00  0.00     0.001 A 
ATOM      7  C7  DEN d   1       1.877  -0.268  -2.683  0.00  0.00     0.017 A 
ATOM      8  C8  DEN d   1       0.872  -0.158  -1.731  0.00  0.00    -0.094 A 
ATOM      9  C9  DEN d   1      -0.182   0.723  -1.906  0.00  0.00    -0.072 A 
ENDROOT
TORSDOF 0
ENDMDL
