MODEL 1
REMARK minimizedAffinity 4.08716059
REMARK minimizedRMSD -1
REMARK  0 active torsions:
REMARK  status: ('A' for Active; 'I' for Inactive)
ROOT
ATOM      1  C1  DEN d   1       4.841  -0.915   3.894  0.00  0.00     0.130 A 
ATOM      2  C2  DEN d   1       4.176  -0.666   2.617  0.00  0.00    -0.031 A 
ATOM      3  C3  DEN d   1       4.118   0.795   2.410  0.00  0.00     0.027 A 
ATOM      4  C4  DEN d   1       4.992   2.686   3.930  0.00  0.00     0.027 A 
ATOM      5  C5  DEN d   1       5.620   2.967   5.124  0.00  0.00    -0.003 A 
ATOM      6  C6  DEN d   1       5.998   1.984   5.999  0.00  0.00     0.001 A 
ATOM      7  C7  DEN d   1       5.793   0.669   5.674  0.00  0.00     0.017 A 
ATOM      8  C8  DEN d   1       5.154   0.378   4.475  0.00  0.00    -0.094 A 
ATOM      9  C9  DEN d   1       4.790   1.385   3.598  0.00  0.00    -0.072 A 
ENDROOT
TORSDOF 0
ENDMDL
