MODEL 1
REMARK minimizedAffinity -0.991992772
REMARK minimizedRMSD -1
REMARK  0 active torsions:
REMARK  status: ('A' for Active; 'I' for Inactive)
ROOT
ATOM      1  C1  BNZ d   1      -3.183   0.413   0.853  0.00  0.00     0.000 A 
ATOM      2  C2  BNZ d   1      -2.006   0.161   1.506  0.00  0.00     0.000 A 
ATOM      3  C3  BNZ d   1      -0.937   1.003   1.370  0.00  0.00     0.000 A 
ATOM      4  C4  BNZ d   1      -1.033   2.070   0.552  0.00  0.00     0.000 A 
ATOM      5  C5  BNZ d   1      -2.211   2.332  -0.120  0.00  0.00     0.000 A 
ATOM      6  C6  BNZ d   1      -3.297   1.504   0.049  0.00  0.00     0.000 A 
ENDROOT
TORSDOF 0
ENDMDL
