MODEL 1
REMARK minimizedAffinity 2.33891511
REMARK minimizedRMSD -1
REMARK  0 active torsions:
REMARK  status: ('A' for Active; 'I' for Inactive)
ROOT
ATOM      1  C1  BNZ d   1      -1.841  -3.709   0.857  0.00  0.00     0.000 A 
ATOM      2  C2  BNZ d   1      -2.258  -2.411   0.984  0.00  0.00     0.000 A 
ATOM      3  C3  BNZ d   1      -2.001  -1.702   2.125  0.00  0.00     0.000 A 
ATOM      4  C4  BNZ d   1      -1.364  -2.304   3.150  0.00  0.00     0.000 A 
ATOM      5  C5  BNZ d   1      -0.946  -3.615   3.040  0.00  0.00     0.000 A 
ATOM      6  C6  BNZ d   1      -1.171  -4.313   1.876  0.00  0.00     0.000 A 
ENDROOT
TORSDOF 0
ENDMDL
