MODEL 1
REMARK minimizedAffinity -0.516911507
REMARK minimizedRMSD -1
REMARK  0 active torsions:
REMARK  status: ('A' for Active; 'I' for Inactive)
ROOT
ATOM      1  C1  BNZ d   1      -1.366   0.278   1.294  0.00  0.00     0.000 A 
ATOM      2  C2  BNZ d   1      -2.671   0.085   0.925  0.00  0.00     0.000 A 
ATOM      3  C3  BNZ d   1      -3.386   1.088   0.331  0.00  0.00     0.000 A 
ATOM      4  C4  BNZ d   1      -2.809   2.292   0.144  0.00  0.00     0.000 A 
ATOM      5  C5  BNZ d   1      -1.497   2.505   0.518  0.00  0.00     0.000 A 
ATOM      6  C6  BNZ d   1      -0.769   1.482   1.081  0.00  0.00     0.000 A 
ENDROOT
TORSDOF 0
ENDMDL
