MODEL 1
REMARK minimizedAffinity -4.87433577
REMARK minimizedRMSD -1
REMARK  0 active torsions:
REMARK  status: ('A' for Active; 'I' for Inactive)
ROOT
ATOM      1  C1  BNZ d   1      -0.628   2.074  -0.116  0.00  0.00     0.000 A 
ATOM      2  C2  BNZ d   1      -1.881   2.534  -0.422  0.00  0.00     0.000 A 
ATOM      3  C3  BNZ d   1      -2.995   1.848  -0.023  0.00  0.00     0.000 A 
ATOM      4  C4  BNZ d   1      -2.853   0.686   0.645  0.00  0.00     0.000 A 
ATOM      5  C5  BNZ d   1      -1.596   0.204   0.953  0.00  0.00     0.000 A 
ATOM      6  C6  BNZ d   1      -0.479   0.917   0.584  0.00  0.00     0.000 A 
ENDROOT
TORSDOF 0
ENDMDL
