MODEL 1
REMARK minimizedAffinity 0.499326408
REMARK minimizedRMSD -1
REMARK  0 active torsions:
REMARK  status: ('A' for Active; 'I' for Inactive)
ROOT
ATOM      1  C1  BNZ d   1       4.279   6.000   0.101  0.00  0.00     0.000 A 
ATOM      2  C2  BNZ d   1       3.791   6.000   1.381  0.00  0.00     0.000 A 
ATOM      3  C3  BNZ d   1       4.181   5.046   2.279  0.00  0.00     0.000 A 
ATOM      4  C4  BNZ d   1       5.025   4.070   1.885  0.00  0.00     0.000 A 
ATOM      5  C5  BNZ d   1       5.519   4.051   0.596  0.00  0.00     0.000 A 
ATOM      6  C6  BNZ d   1       5.155   5.036  -0.294  0.00  0.00     0.000 A 
ENDROOT
TORSDOF 0
ENDMDL
