MODEL 1
REMARK minimizedAffinity 3.63806653
REMARK minimizedRMSD -1
REMARK  0 active torsions:
REMARK  status: ('A' for Active; 'I' for Inactive)
ROOT
ATOM      1  C1  BNZ d   1       1.509   2.342   1.095  0.00  0.00     0.000 A 
ATOM      2  C2  BNZ d   1       1.248   3.483   1.806  0.00  0.00     0.000 A 
ATOM      3  C3  BNZ d   1       0.180   3.549   2.656  0.00  0.00     0.000 A 
ATOM      4  C4  BNZ d   1      -0.648   2.490   2.763  0.00  0.00     0.000 A 
ATOM      5  C5  BNZ d   1      -0.404   1.336   2.045  0.00  0.00     0.000 A 
ATOM      6  C6  BNZ d   1       0.694   1.259   1.220  0.00  0.00     0.000 A 
ENDROOT
TORSDOF 0
ENDMDL
