MODEL 1
REMARK minimizedAffinity 0.534214079
REMARK minimizedRMSD -1
REMARK  0 active torsions:
REMARK  status: ('A' for Active; 'I' for Inactive)
ROOT
ATOM      1  C1  BNZ d   1      -0.562  -3.716   3.802  0.00  0.00     0.000 A 
ATOM      2  C2  BNZ d   1      -1.110  -3.729   2.547  0.00  0.00     0.000 A 
ATOM      3  C3  BNZ d   1      -1.134  -4.877   1.806  0.00  0.00     0.000 A 
ATOM      4  C4  BNZ d   1      -0.575  -6.000   2.303  0.00  0.00     0.000 A 
ATOM      5  C5  BNZ d   1      -0.010  -6.000   3.563  0.00  0.00     0.000 A 
ATOM      6  C6  BNZ d   1      -0.023  -4.852   4.322  0.00  0.00     0.000 A 
ENDROOT
TORSDOF 0
ENDMDL
