MODEL 1
REMARK minimizedAffinity -0.298943639
REMARK minimizedRMSD -1
REMARK  0 active torsions:
REMARK  status: ('A' for Active; 'I' for Inactive)
ROOT
ATOM      1  C1  BNZ d   1       1.726   1.468   1.543  0.00  0.00     0.000 A 
ATOM      2  C2  BNZ d   1       2.412   2.227   2.454  0.00  0.00     0.000 A 
ATOM      3  C3  BNZ d   1       1.749   3.067   3.304  0.00  0.00     0.000 A 
ATOM      4  C4  BNZ d   1       0.408   3.178   3.216  0.00  0.00     0.000 A 
ATOM      5  C5  BNZ d   1      -0.296   2.426   2.296  0.00  0.00     0.000 A 
ATOM      6  C6  BNZ d   1       0.370   1.552   1.468  0.00  0.00     0.000 A 
ENDROOT
TORSDOF 0
ENDMDL
