MODEL 1
REMARK minimizedAffinity 0.3254731
REMARK minimizedRMSD -1
REMARK  0 active torsions:
REMARK  status: ('A' for Active; 'I' for Inactive)
ROOT
ATOM      1  C1  BNZ d   1      -0.817   2.897   2.875  0.00  0.00     0.000 A 
ATOM      2  C2  BNZ d   1       0.234   3.272   3.669  0.00  0.00     0.000 A 
ATOM      3  C3  BNZ d   1       1.522   3.010   3.295  0.00  0.00     0.000 A 
ATOM      4  C4  BNZ d   1       1.756   2.339   2.149  0.00  0.00     0.000 A 
ATOM      5  C5  BNZ d   1       0.707   1.946   1.342  0.00  0.00     0.000 A 
ATOM      6  C6  BNZ d   1      -0.586   2.245   1.703  0.00  0.00     0.000 A 
ENDROOT
TORSDOF 0
ENDMDL
