MODEL 1
REMARK minimizedAffinity -0.91482538
REMARK minimizedRMSD -1
REMARK  0 active torsions:
REMARK  status: ('A' for Active; 'I' for Inactive)
ROOT
ATOM      1  C1  BNZ d   1       1.749   2.050   2.035  0.00  0.00     0.000 A 
ATOM      2  C2  BNZ d   1       1.226   2.866   3.003  0.00  0.00     0.000 A 
ATOM      3  C3  BNZ d   1      -0.121   3.089   3.078  0.00  0.00     0.000 A 
ATOM      4  C4  BNZ d   1      -0.938   2.529   2.163  0.00  0.00     0.000 A 
ATOM      5  C5  BNZ d   1      -0.425   1.712   1.175  0.00  0.00     0.000 A 
ATOM      6  C6  BNZ d   1       0.927   1.458   1.126  0.00  0.00     0.000 A 
ENDROOT
TORSDOF 0
ENDMDL
