MODEL 1
REMARK minimizedAffinity 1.15230298
REMARK minimizedRMSD -1
REMARK  0 active torsions:
REMARK  status: ('A' for Active; 'I' for Inactive)
ROOT
ATOM      1  C1  BNZ d   1       2.201   5.962   1.378  0.00  0.00     0.000 A 
ATOM      2  C2  BNZ d   1       2.310   5.962   2.743  0.00  0.00     0.000 A 
ATOM      3  C3  BNZ d   1       3.536   5.999   3.347  0.00  0.00     0.000 A 
ATOM      4  C4  BNZ d   1       4.650   5.996   2.587  0.00  0.00     0.000 A 
ATOM      5  C5  BNZ d   1       4.557   5.987   1.209  0.00  0.00     0.000 A 
ATOM      6  C6  BNZ d   1       3.321   5.989   0.604  0.00  0.00     0.000 A 
ENDROOT
TORSDOF 0
ENDMDL
