MODEL 1
REMARK minimizedAffinity 2.11828113
REMARK minimizedRMSD -1
REMARK  0 active torsions:
REMARK  status: ('A' for Active; 'I' for Inactive)
ROOT
ATOM      1  C1  BNZ d   1       0.352   1.260   1.184  0.00  0.00     0.000 A 
ATOM      2  C2  BNZ d   1       1.434   1.732   1.877  0.00  0.00     0.000 A 
ATOM      3  C3  BNZ d   1       1.302   2.763   2.766  0.00  0.00     0.000 A 
ATOM      4  C4  BNZ d   1       0.097   3.345   2.931  0.00  0.00     0.000 A 
ATOM      5  C5  BNZ d   1      -1.003   2.887   2.233  0.00  0.00     0.000 A 
ATOM      6  C6  BNZ d   1      -0.873   1.824   1.368  0.00  0.00     0.000 A 
ENDROOT
TORSDOF 0
ENDMDL
