MODEL 1
REMARK minimizedAffinity -3.15336728
REMARK minimizedRMSD -1
REMARK  0 active torsions:
REMARK  status: ('A' for Active; 'I' for Inactive)
ROOT
ATOM      1  C1  BNZ d   1       1.230   0.820   0.702  0.00  0.00     0.000 A 
ATOM      2  C2  BNZ d   1       1.633   1.531   1.801  0.00  0.00     0.000 A 
ATOM      3  C3  BNZ d   1       0.722   2.179   2.588  0.00  0.00     0.000 A 
ATOM      4  C4  BNZ d   1      -0.584   2.149   2.253  0.00  0.00     0.000 A 
ATOM      5  C5  BNZ d   1      -1.005   1.444   1.143  0.00  0.00     0.000 A 
ATOM      6  C6  BNZ d   1      -0.090   0.761   0.375  0.00  0.00     0.000 A 
ENDROOT
TORSDOF 0
ENDMDL
