MODEL 1
REMARK minimizedAffinity 4.76634359
REMARK minimizedRMSD -1
REMARK  0 active torsions:
REMARK  status: ('A' for Active; 'I' for Inactive)
ROOT
ATOM      1  C1  BNZ d   1       1.854   1.602  -3.254  0.00  0.00     0.000 A 
ATOM      2  C2  BNZ d   1       0.622   2.094  -2.914  0.00  0.00     0.000 A 
ATOM      3  C3  BNZ d   1       0.205   2.097  -1.613  0.00  0.00     0.000 A 
ATOM      4  C4  BNZ d   1       1.001   1.571  -0.660  0.00  0.00     0.000 A 
ATOM      5  C5  BNZ d   1       2.242   1.063  -0.988  0.00  0.00     0.000 A 
ATOM      6  C6  BNZ d   1       2.676   1.098  -2.293  0.00  0.00     0.000 A 
ENDROOT
TORSDOF 0
ENDMDL
