MODEL 1
REMARK minimizedAffinity 5.09066725
REMARK minimizedRMSD -1
REMARK  0 active torsions:
REMARK  status: ('A' for Active; 'I' for Inactive)
ROOT
ATOM      1  C1  BNZ d   1      -1.789  -4.970  -2.861  0.00  0.00     0.000 A 
ATOM      2  C2  BNZ d   1      -2.049  -5.593  -1.669  0.00  0.00     0.000 A 
ATOM      3  C3  BNZ d   1      -2.952  -5.067  -0.787  0.00  0.00     0.000 A 
ATOM      4  C4  BNZ d   1      -3.563  -3.901  -1.080  0.00  0.00     0.000 A 
ATOM      5  C5  BNZ d   1      -3.305  -3.257  -2.273  0.00  0.00     0.000 A 
ATOM      6  C6  BNZ d   1      -2.425  -3.809  -3.176  0.00  0.00     0.000 A 
ENDROOT
TORSDOF 0
ENDMDL
