MODEL 1
REMARK minimizedAffinity -1.23886466
REMARK minimizedRMSD -1
REMARK  0 active torsions:
REMARK  status: ('A' for Active; 'I' for Inactive)
ROOT
ATOM      1  C1  BNZ d   1       2.616   2.060   1.666  0.00  0.00     0.000 A 
ATOM      2  C2  BNZ d   1       2.361   2.945   2.680  0.00  0.00     0.000 A 
ATOM      3  C3  BNZ d   1       1.105   3.062   3.208  0.00  0.00     0.000 A 
ATOM      4  C4  BNZ d   1       0.099   2.324   2.695  0.00  0.00     0.000 A 
ATOM      5  C5  BNZ d   1       0.338   1.435   1.666  0.00  0.00     0.000 A 
ATOM      6  C6  BNZ d   1       1.611   1.292   1.164  0.00  0.00     0.000 A 
ENDROOT
TORSDOF 0
ENDMDL
