MODEL 1
REMARK minimizedAffinity -3.16568089
REMARK minimizedRMSD -1
REMARK  0 active torsions:
REMARK  status: ('A' for Active; 'I' for Inactive)
ROOT
ATOM      1  C   UNL d   1       1.791  -1.087   2.299  0.00  0.00     0.124 A 
ATOM      2  C1  UNL d   1       1.981  -1.394   0.959  0.00  0.00     0.062 A 
ATOM      3  C2  UNL d   1       1.075  -0.946   0.002  0.00  0.00     0.162 A 
ATOM      4  C3  UNL d   1      -0.030  -0.184   0.382  0.00  0.00    -0.034 A 
ATOM      5  C4  UNL d   1      -0.215   0.121   1.732  0.00  0.00     0.162 A 
ATOM      6  C5  UNL d   1       0.694  -0.330   2.684  0.00  0.00     0.062 A 
ATOM      7  F   UNL d   1       0.508  -0.032   3.978  0.00  0.00    -0.097 F 
ATOM      8  F1  UNL d   1      -1.266   0.851   2.132  0.00  0.00    -0.096 F 
ATOM      9  I   UNL d   1      -1.387   0.489  -1.045  0.00  0.00    -0.060 I 
ATOM     10  F2  UNL d   1       1.283  -1.258  -1.285  0.00  0.00    -0.096 F 
ATOM     11  F3  UNL d   1       3.040  -2.126   0.584  0.00  0.00    -0.097 F 
ATOM     12  F4  UNL d   1       2.664  -1.520   3.217  0.00  0.00    -0.092 F 
ENDROOT
TORSDOF 0
ENDMDL
