MODEL 1
REMARK minimizedAffinity -1.86104453
REMARK minimizedRMSD -1
REMARK  0 active torsions:
REMARK  status: ('A' for Active; 'I' for Inactive)
ROOT
ATOM      1  C   UNL d   1       0.802  -0.897   1.366  0.00  0.00     0.124 A 
ATOM      2  C1  UNL d   1      -0.289  -0.121   1.730  0.00  0.00     0.062 A 
ATOM      3  C2  UNL d   1      -0.997   0.589   0.765  0.00  0.00     0.162 A 
ATOM      4  C3  UNL d   1      -0.616   0.525  -0.576  0.00  0.00    -0.034 A 
ATOM      5  C4  UNL d   1       0.483  -0.257  -0.935  0.00  0.00     0.162 A 
ATOM      6  C5  UNL d   1       1.187  -0.965   0.034  0.00  0.00     0.062 A 
ATOM      7  F   UNL d   1       2.242  -1.714  -0.320  0.00  0.00    -0.097 F 
ATOM      8  F1  UNL d   1       0.876  -0.341  -2.214  0.00  0.00    -0.096 F 
ATOM      9  I   UNL d   1      -1.672   1.585  -2.023  0.00  0.00    -0.060 I 
ATOM     10  F2  UNL d   1      -2.048   1.331   1.145  0.00  0.00    -0.096 F 
ATOM     11  F3  UNL d   1      -0.662  -0.054   3.016  0.00  0.00    -0.097 F 
ATOM     12  F4  UNL d   1       1.482  -1.578   2.297  0.00  0.00    -0.092 F 
ENDROOT
TORSDOF 0
ENDMDL
