MODEL 1
REMARK minimizedAffinity -0.383566052
REMARK minimizedRMSD -1
REMARK  0 active torsions:
REMARK  status: ('A' for Active; 'I' for Inactive)
ROOT
ATOM      1  C   UNL d   1       0.074  -0.376  -1.692  0.00  0.00     0.124 A 
ATOM      2  C1  UNL d   1      -0.869  -0.048  -0.727  0.00  0.00     0.062 A 
ATOM      3  C2  UNL d   1      -0.537  -0.099   0.623  0.00  0.00     0.162 A 
ATOM      4  C3  UNL d   1       0.746  -0.480   1.018  0.00  0.00    -0.034 A 
ATOM      5  C4  UNL d   1       1.689  -0.810   0.042  0.00  0.00     0.162 A 
ATOM      6  C5  UNL d   1       1.351  -0.757  -1.306  0.00  0.00     0.062 A 
ATOM      7  F   UNL d   1       2.263  -1.074  -2.236  0.00  0.00    -0.097 F 
ATOM      8  F1  UNL d   1       2.931  -1.180   0.387  0.00  0.00    -0.096 F 
ATOM      9  I   UNL d   1       1.248  -0.558   3.036  0.00  0.00    -0.060 I 
ATOM     10  F2  UNL d   1      -1.468   0.223   1.533  0.00  0.00    -0.096 F 
ATOM     11  F3  UNL d   1      -2.105   0.319  -1.097  0.00  0.00    -0.097 F 
ATOM     12  F4  UNL d   1      -0.250  -0.327  -2.990  0.00  0.00    -0.092 F 
ENDROOT
TORSDOF 0
ENDMDL
