MODEL 1
REMARK minimizedAffinity -1.60174358
REMARK minimizedRMSD -1
REMARK  0 active torsions:
REMARK  status: ('A' for Active; 'I' for Inactive)
ROOT
ATOM      1  C   UNL d   1       2.655  -1.089  -0.003  0.00  0.00     0.124 A 
ATOM      2  C1  UNL d   1       2.179  -0.656   1.227  0.00  0.00     0.062 A 
ATOM      3  C2  UNL d   1       0.810  -0.521   1.439  0.00  0.00     0.162 A 
ATOM      4  C3  UNL d   1      -0.093  -0.820   0.419  0.00  0.00    -0.034 A 
ATOM      5  C4  UNL d   1       0.393  -1.254  -0.815  0.00  0.00     0.162 A 
ATOM      6  C5  UNL d   1       1.762  -1.387  -1.023  0.00  0.00     0.062 A 
ATOM      7  F   UNL d   1       2.220  -1.806  -2.211  0.00  0.00    -0.097 F 
ATOM      8  F1  UNL d   1      -0.447  -1.551  -1.817  0.00  0.00    -0.096 F 
ATOM      9  I   UNL d   1      -2.141  -0.620   0.733  0.00  0.00    -0.060 I 
ATOM     10  F2  UNL d   1       0.378  -0.100   2.637  0.00  0.00    -0.096 F 
ATOM     11  F3  UNL d   1       3.040  -0.365   2.213  0.00  0.00    -0.097 F 
ATOM     12  F4  UNL d   1       3.973  -1.216  -0.205  0.00  0.00    -0.092 F 
ENDROOT
TORSDOF 0
ENDMDL
