MODEL 1
REMARK minimizedAffinity -0.269056678
REMARK minimizedRMSD -1
REMARK  0 active torsions:
REMARK  status: ('A' for Active; 'I' for Inactive)
ROOT
ATOM      1  C   UNL d   1      -0.176  -0.554   1.640  0.00  0.00     0.124 A 
ATOM      2  C1  UNL d   1      -1.168  -0.501   0.670  0.00  0.00     0.062 A 
ATOM      3  C2  UNL d   1      -0.994   0.282  -0.467  0.00  0.00     0.162 A 
ATOM      4  C3  UNL d   1       0.177   1.019  -0.642  0.00  0.00    -0.034 A 
ATOM      5  C4  UNL d   1       1.170   0.961   0.337  0.00  0.00     0.162 A 
ATOM      6  C5  UNL d   1       0.992   0.177   1.472  0.00  0.00     0.062 A 
ATOM      7  F   UNL d   1       1.952   0.127   2.407  0.00  0.00    -0.097 F 
ATOM      8  F1  UNL d   1       2.309   1.657   0.200  0.00  0.00    -0.096 F 
ATOM      9  I   UNL d   1       0.441   2.191  -2.342  0.00  0.00    -0.060 I 
ATOM     10  F2  UNL d   1      -1.970   0.314  -1.387  0.00  0.00    -0.096 F 
ATOM     11  F3  UNL d   1      -2.297  -1.205   0.830  0.00  0.00    -0.097 F 
ATOM     12  F4  UNL d   1      -0.346  -1.308   2.733  0.00  0.00    -0.092 F 
ENDROOT
TORSDOF 0
ENDMDL
