MODEL 1
REMARK minimizedAffinity 2.86158395
REMARK minimizedRMSD -1
REMARK  0 active torsions:
REMARK  status: ('A' for Active; 'I' for Inactive)
ROOT
ATOM      1  C   UNL d   1       2.300  -0.671   0.492  0.00  0.00     0.124 A 
ATOM      2  C1  UNL d   1       1.438  -0.886  -0.575  0.00  0.00     0.062 A 
ATOM      3  C2  UNL d   1       0.061  -0.793  -0.393  0.00  0.00     0.162 A 
ATOM      4  C3  UNL d   1      -0.463  -0.481   0.862  0.00  0.00    -0.034 A 
ATOM      5  C4  UNL d   1       0.410  -0.267   1.930  0.00  0.00     0.162 A 
ATOM      6  C5  UNL d   1       1.785  -0.361   1.743  0.00  0.00     0.062 A 
ATOM      7  F   UNL d   1       2.616  -0.153   2.775  0.00  0.00    -0.097 F 
ATOM      8  F1  UNL d   1      -0.061   0.035   3.149  0.00  0.00    -0.096 F 
ATOM      9  I   UNL d   1      -2.521  -0.341   1.138  0.00  0.00    -0.060 I 
ATOM     10  F2  UNL d   1      -0.748  -1.006  -1.441  0.00  0.00    -0.096 F 
ATOM     11  F3  UNL d   1       1.933  -1.187  -1.784  0.00  0.00    -0.097 F 
ATOM     12  F4  UNL d   1       3.624  -0.762   0.314  0.00  0.00    -0.092 F 
ENDROOT
TORSDOF 0
ENDMDL
