MODEL 1
REMARK minimizedAffinity -0.567829609
REMARK minimizedRMSD -1
REMARK  0 active torsions:
REMARK  status: ('A' for Active; 'I' for Inactive)
ROOT
ATOM      1  C   UNL d   1       0.865  -0.591   2.270  0.00  0.00     0.124 A 
ATOM      2  C1  UNL d   1       1.615   0.004   1.265  0.00  0.00     0.062 A 
ATOM      3  C2  UNL d   1       0.984   0.558   0.155  0.00  0.00     0.162 A 
ATOM      4  C3  UNL d   1      -0.406   0.520   0.044  0.00  0.00    -0.034 A 
ATOM      5  C4  UNL d   1      -1.154  -0.081   1.058  0.00  0.00     0.162 A 
ATOM      6  C5  UNL d   1      -0.518  -0.633   2.165  0.00  0.00     0.062 A 
ATOM      7  F   UNL d   1      -1.245  -1.208   3.135  0.00  0.00    -0.097 F 
ATOM      8  F1  UNL d   1      -2.492  -0.135   0.983  0.00  0.00    -0.096 F 
ATOM      9  I   UNL d   1      -1.354   1.347  -1.615  0.00  0.00    -0.060 I 
ATOM     10  F2  UNL d   1       1.734   1.127  -0.801  0.00  0.00    -0.096 F 
ATOM     11  F3  UNL d   1       2.952   0.045   1.363  0.00  0.00    -0.097 F 
ATOM     12  F4  UNL d   1       1.475  -1.124   3.336  0.00  0.00    -0.092 F 
ENDROOT
TORSDOF 0
ENDMDL
