MODEL 1
REMARK minimizedAffinity -2.53344202
REMARK minimizedRMSD -1
REMARK  0 active torsions:
REMARK  status: ('A' for Active; 'I' for Inactive)
ROOT
ATOM      1  C   UNL d   1       1.566  -2.102   2.483  0.00  0.00     0.124 A 
ATOM      2  C1  UNL d   1       0.199  -1.908   2.343  0.00  0.00     0.062 A 
ATOM      3  C2  UNL d   1      -0.299  -1.182   1.265  0.00  0.00     0.162 A 
ATOM      4  C3  UNL d   1       0.571  -0.646   0.316  0.00  0.00    -0.034 A 
ATOM      5  C4  UNL d   1       1.945  -0.844   0.464  0.00  0.00     0.162 A 
ATOM      6  C5  UNL d   1       2.438  -1.570   1.543  0.00  0.00     0.062 A 
ATOM      7  F   UNL d   1       3.759  -1.756   1.676  0.00  0.00    -0.097 F 
ATOM      8  F1  UNL d   1       2.810  -0.342  -0.430  0.00  0.00    -0.096 F 
ATOM      9  I   UNL d   1      -0.169   0.440  -1.297  0.00  0.00    -0.060 I 
ATOM     10  F2  UNL d   1      -1.625  -1.011   1.156  0.00  0.00    -0.096 F 
ATOM     11  F3  UNL d   1      -0.645  -2.421   3.251  0.00  0.00    -0.097 F 
ATOM     12  F4  UNL d   1       2.043  -2.800   3.522  0.00  0.00    -0.092 F 
ENDROOT
TORSDOF 0
ENDMDL
