MODEL 1
REMARK minimizedAffinity 0.236137256
REMARK minimizedRMSD -1
REMARK  0 active torsions:
REMARK  status: ('A' for Active; 'I' for Inactive)
ROOT
ATOM      1  C   UNL d   1      -0.806   2.861  -2.654  0.00  0.00     0.124 A 
ATOM      2  C1  UNL d   1      -1.662   1.855  -2.227  0.00  0.00     0.062 A 
ATOM      3  C2  UNL d   1      -1.236   0.928  -1.280  0.00  0.00     0.162 A 
ATOM      4  C3  UNL d   1       0.053   1.003  -0.752  0.00  0.00    -0.034 A 
ATOM      5  C4  UNL d   1       0.908   2.017  -1.187  0.00  0.00     0.162 A 
ATOM      6  C5  UNL d   1       0.478   2.941  -2.133  0.00  0.00     0.062 A 
ATOM      7  F   UNL d   1       1.306   3.912  -2.544  0.00  0.00    -0.097 F 
ATOM      8  F1  UNL d   1       2.154   2.119  -0.700  0.00  0.00    -0.096 F 
ATOM      9  I   UNL d   1       0.694  -0.381   0.664  0.00  0.00    -0.060 I 
ATOM     10  F2  UNL d   1      -2.085  -0.033  -0.886  0.00  0.00    -0.096 F 
ATOM     11  F3  UNL d   1      -2.903   1.775  -2.729  0.00  0.00    -0.097 F 
ATOM     12  F4  UNL d   1      -1.218   3.751  -3.566  0.00  0.00    -0.092 F 
ENDROOT
TORSDOF 0
ENDMDL
