MODEL 1
REMARK minimizedAffinity -0.679909468
REMARK minimizedRMSD -1
REMARK  0 active torsions:
REMARK  status: ('A' for Active; 'I' for Inactive)
ROOT
ATOM      1  C   UNL d   1       1.345  -1.317   2.437  0.00  0.00     0.124 A 
ATOM      2  C1  UNL d   1      -0.034  -1.231   2.574  0.00  0.00     0.062 A 
ATOM      3  C2  UNL d   1      -0.812  -0.744   1.528  0.00  0.00     0.162 A 
ATOM      4  C3  UNL d   1      -0.214  -0.340   0.334  0.00  0.00    -0.034 A 
ATOM      5  C4  UNL d   1       1.173  -0.428   0.204  0.00  0.00     0.162 A 
ATOM      6  C5  UNL d   1       1.947  -0.916   1.253  0.00  0.00     0.062 A 
ATOM      7  F   UNL d   1       3.279  -0.998   1.119  0.00  0.00    -0.097 F 
ATOM      8  F1  UNL d   1       1.781  -0.048  -0.929  0.00  0.00    -0.096 F 
ATOM      9  I   UNL d   1      -1.374   0.389  -1.232  0.00  0.00    -0.060 I 
ATOM     10  F2  UNL d   1      -2.142  -0.671   1.688  0.00  0.00    -0.096 F 
ATOM     11  F3  UNL d   1      -0.618  -1.617   3.717  0.00  0.00    -0.097 F 
ATOM     12  F4  UNL d   1       2.091  -1.785   3.445  0.00  0.00    -0.092 F 
ENDROOT
TORSDOF 0
ENDMDL
