MODEL 1
REMARK minimizedAffinity 7.33882046
REMARK minimizedRMSD -1
REMARK  0 active torsions:
REMARK  status: ('A' for Active; 'I' for Inactive)
ROOT
ATOM      1  C2' OXE d   1      -0.496  -0.608   3.648  0.00  0.00     0.078 C 
ATOM      2  C1' OXE d   1       0.894  -0.074   1.269  0.00  0.00     0.078 C 
ATOM      3  C1  OXE d   1      -0.600   0.127   1.270  0.00  0.00    -0.078 A 
ATOM      4  C2  OXE d   1      -1.279  -0.182   2.425  0.00  0.00    -0.078 A 
ATOM      5  C3  OXE d   1      -2.651   0.037   2.497  0.00  0.00     0.003 A 
ATOM      6  C4  OXE d   1      -3.369   0.422   1.358  0.00  0.00    -0.002 A 
ATOM      7  C5  OXE d   1      -2.703   0.703   0.161  0.00  0.00    -0.002 A 
ATOM      8  C6  OXE d   1      -1.317   0.601   0.112  0.00  0.00     0.003 A 
ENDROOT
TORSDOF 0
ENDMDL
