MODEL 1
REMARK minimizedAffinity 5.10027361
REMARK minimizedRMSD -1
REMARK  0 active torsions:
REMARK  status: ('A' for Active; 'I' for Inactive)
ROOT
ATOM      1  C2' OXE d   1      -0.745  -0.881  -1.731  0.00  0.00     0.078 C 
ATOM      2  C1' OXE d   1       1.096  -0.515   0.356  0.00  0.00     0.078 C 
ATOM      3  C1  OXE d   1      -0.345  -0.154   0.618  0.00  0.00    -0.078 A 
ATOM      4  C2  OXE d   1      -1.231  -0.293  -0.424  0.00  0.00    -0.078 A 
ATOM      5  C3  OXE d   1      -2.582  -0.026  -0.221  0.00  0.00     0.003 A 
ATOM      6  C4  OXE d   1      -3.021   0.528   0.988  0.00  0.00    -0.002 A 
ATOM      7  C5  OXE d   1      -2.128   0.714   2.049  0.00  0.00    -0.002 A 
ATOM      8  C6  OXE d   1      -0.798   0.339   1.895  0.00  0.00     0.003 A 
ENDROOT
TORSDOF 0
ENDMDL
