MODEL 1
REMARK minimizedAffinity 1.27295697
REMARK minimizedRMSD -1
REMARK  0 active torsions:
REMARK  status: ('A' for Active; 'I' for Inactive)
ROOT
ATOM      1  C2' OXE d   1       1.019   0.282   0.503  0.00  0.00     0.078 C 
ATOM      2  C1' OXE d   1      -1.510   0.138  -0.708  0.00  0.00     0.078 C 
ATOM      3  C1  OXE d   1      -1.429  -0.087   0.782  0.00  0.00    -0.078 A 
ATOM      4  C2  OXE d   1      -0.182  -0.061   1.358  0.00  0.00    -0.078 A 
ATOM      5  C3  OXE d   1      -0.057  -0.207   2.737  0.00  0.00     0.003 A 
ATOM      6  C4  OXE d   1      -1.171  -0.534   3.519  0.00  0.00    -0.002 A 
ATOM      7  C5  OXE d   1      -2.445  -0.605   2.946  0.00  0.00    -0.002 A 
ATOM      8  C6  OXE d   1      -2.597  -0.342   1.588  0.00  0.00     0.003 A 
ENDROOT
TORSDOF 0
ENDMDL
