MODEL 1
REMARK minimizedAffinity 4.74556971
REMARK minimizedRMSD -1
REMARK  0 active torsions:
REMARK  status: ('A' for Active; 'I' for Inactive)
ROOT
ATOM      1  C2' OXE d   1       1.463  -0.302   0.673  0.00  0.00     0.078 C 
ATOM      2  C1' OXE d   1       0.794  -0.844   3.344  0.00  0.00     0.078 C 
ATOM      3  C1  OXE d   1      -0.280  -0.273   2.452  0.00  0.00    -0.078 A 
ATOM      4  C2  OXE d   1       0.070   0.033   1.159  0.00  0.00    -0.078 A 
ATOM      5  C3  OXE d   1      -0.897   0.511   0.278  0.00  0.00     0.003 A 
ATOM      6  C4  OXE d   1      -2.181   0.827   0.739  0.00  0.00    -0.002 A 
ATOM      7  C5  OXE d   1      -2.546   0.560   2.062  0.00  0.00    -0.002 A 
ATOM      8  C6  OXE d   1      -1.622  -0.028   2.919  0.00  0.00     0.003 A 
ENDROOT
TORSDOF 0
ENDMDL
