MODEL 1
REMARK minimizedAffinity 0.244402215
REMARK minimizedRMSD -1
REMARK  0 active torsions:
REMARK  status: ('A' for Active; 'I' for Inactive)
ROOT
ATOM      1  C2' OXE d   1      -0.268   0.007  -0.754  0.00  0.00     0.078 C 
ATOM      2  C1' OXE d   1      -2.725   0.541   0.496  0.00  0.00     0.078 C 
ATOM      3  C1  OXE d   1      -1.552   0.181   1.374  0.00  0.00    -0.078 A 
ATOM      4  C2  OXE d   1      -0.366  -0.125   0.751  0.00  0.00    -0.078 A 
ATOM      5  C3  OXE d   1       0.761  -0.411   1.516  0.00  0.00     0.003 A 
ATOM      6  C4  OXE d   1       0.659  -0.540   2.907  0.00  0.00    -0.002 A 
ATOM      7  C5  OXE d   1      -0.550  -0.272   3.558  0.00  0.00    -0.002 A 
ATOM      8  C6  OXE d   1      -1.652   0.130   2.811  0.00  0.00     0.003 A 
ENDROOT
TORSDOF 0
ENDMDL
