MODEL 1
REMARK minimizedAffinity 25.9943142
REMARK minimizedRMSD -1
REMARK  0 active torsions:
REMARK  status: ('A' for Active; 'I' for Inactive)
ROOT
ATOM      1  C   UNL d   1       0.178   2.575   0.454  0.00  0.00     0.124 A 
ATOM      2  C1  UNL d   1       0.257   3.891   0.887  0.00  0.00     0.062 A 
ATOM      3  C2  UNL d   1      -0.854   4.724   0.802  0.00  0.00     0.162 A 
ATOM      4  C3  UNL d   1      -2.056   4.244   0.282  0.00  0.00    -0.034 A 
ATOM      5  C4  UNL d   1      -2.128   2.919  -0.152  0.00  0.00     0.162 A 
ATOM      6  C5  UNL d   1      -1.015   2.090  -0.064  0.00  0.00     0.062 A 
ATOM      7  F   UNL d   1      -1.094   0.818  -0.483  0.00  0.00    -0.097 F 
ATOM      8  F1  UNL d   1      -3.268   2.424  -0.656  0.00  0.00    -0.096 F 
ATOM      9  I   UNL d   1      -3.720   5.486   0.153  0.00  0.00    -0.060 I 
ATOM     10  F2  UNL d   1      -0.748   5.992   1.227  0.00  0.00    -0.096 F 
ATOM     11  F3  UNL d   1       1.409   4.362   1.387  0.00  0.00    -0.097 F 
ATOM     12  F4  UNL d   1       1.249   1.775   0.536  0.00  0.00    -0.092 F 
ENDROOT
TORSDOF 0
ENDMDL
