MODEL 1
REMARK minimizedAffinity 26.7592907
REMARK minimizedRMSD -1
REMARK  0 active torsions:
REMARK  status: ('A' for Active; 'I' for Inactive)
ROOT
ATOM      1  C   UNL d   1      -3.007  -2.592  -0.538  0.00  0.00     0.124 A 
ATOM      2  C1  UNL d   1      -1.761  -2.703  -1.141  0.00  0.00     0.062 A 
ATOM      3  C2  UNL d   1      -0.610  -2.775  -0.361  0.00  0.00     0.162 A 
ATOM      4  C3  UNL d   1      -0.700  -2.738   1.031  0.00  0.00    -0.034 A 
ATOM      5  C4  UNL d   1      -1.956  -2.626   1.629  0.00  0.00     0.162 A 
ATOM      6  C5  UNL d   1      -3.103  -2.553   0.846  0.00  0.00     0.062 A 
ATOM      7  F   UNL d   1      -4.305  -2.446   1.430  0.00  0.00    -0.097 F 
ATOM      8  F1  UNL d   1      -2.078  -2.588   2.964  0.00  0.00    -0.096 F 
ATOM      9  I   UNL d   1       1.019  -2.847   2.200  0.00  0.00    -0.060 I 
ATOM     10  F2  UNL d   1       0.580  -2.882  -0.970  0.00  0.00    -0.096 F 
ATOM     11  F3  UNL d   1      -1.665  -2.739  -2.478  0.00  0.00    -0.097 F 
ATOM     12  F4  UNL d   1      -4.112  -2.521  -1.291  0.00  0.00    -0.092 F 
ENDROOT
TORSDOF 0
ENDMDL
