MODEL 1
REMARK minimizedAffinity 26.7640953
REMARK minimizedRMSD -1
REMARK  0 active torsions:
REMARK  status: ('A' for Active; 'I' for Inactive)
ROOT
ATOM      1  C   UNL d   1      -1.950  -2.860   0.695  0.00  0.00     0.124 A 
ATOM      2  C1  UNL d   1      -2.838  -1.845   0.366  0.00  0.00     0.062 A 
ATOM      3  C2  UNL d   1      -3.197  -0.894   1.316  0.00  0.00     0.162 A 
ATOM      4  C3  UNL d   1      -2.668  -0.952   2.605  0.00  0.00    -0.034 A 
ATOM      5  C4  UNL d   1      -1.776  -1.976   2.929  0.00  0.00     0.162 A 
ATOM      6  C5  UNL d   1      -1.420  -2.924   1.976  0.00  0.00     0.062 A 
ATOM      7  F   UNL d   1      -0.562  -3.904   2.295  0.00  0.00    -0.097 F 
ATOM      8  F1  UNL d   1      -1.248  -2.061   4.159  0.00  0.00    -0.096 F 
ATOM      9  I   UNL d   1      -3.203   0.468   4.029  0.00  0.00    -0.060 I 
ATOM     10  F2  UNL d   1      -4.058   0.075   0.970  0.00  0.00    -0.096 F 
ATOM     11  F3  UNL d   1      -3.352  -1.781  -0.871  0.00  0.00    -0.097 F 
ATOM     12  F4  UNL d   1      -1.607  -3.775  -0.221  0.00  0.00    -0.092 F 
ENDROOT
TORSDOF 0
ENDMDL
