MODEL 1
REMARK minimizedAffinity 20.5348186
REMARK minimizedRMSD -1
REMARK  0 active torsions:
REMARK  status: ('A' for Active; 'I' for Inactive)
ROOT
ATOM      1  C   UNL d   1       5.074  -3.448  -5.046  0.00  0.00     0.124 A 
ATOM      2  C1  UNL d   1       5.056  -4.637  -4.329  0.00  0.00     0.062 A 
ATOM      3  C2  UNL d   1       4.102  -4.842  -3.336  0.00  0.00     0.162 A 
ATOM      4  C3  UNL d   1       3.157  -3.855  -3.054  0.00  0.00    -0.034 A 
ATOM      5  C4  UNL d   1       3.182  -2.662  -3.778  0.00  0.00     0.162 A 
ATOM      6  C5  UNL d   1       4.138  -2.462  -4.770  0.00  0.00     0.062 A 
ATOM      7  F   UNL d   1       4.153  -1.313  -5.461  0.00  0.00    -0.097 F 
ATOM      8  F1  UNL d   1       2.289  -1.692  -3.533  0.00  0.00    -0.096 F 
ATOM      9  I   UNL d   1       1.730  -4.157  -1.570  0.00  0.00    -0.060 I 
ATOM     10  F2  UNL d   1       4.108  -6.000  -2.660  0.00  0.00    -0.096 F 
ATOM     11  F3  UNL d   1       5.960  -5.591  -4.594  0.00  0.00    -0.097 F 
ATOM     12  F4  UNL d   1       5.993  -3.254  -6.000  0.00  0.00    -0.092 F 
ENDROOT
TORSDOF 0
ENDMDL
