MODEL 1
REMARK minimizedAffinity 39.484005
REMARK minimizedRMSD -1
REMARK  0 active torsions:
REMARK  status: ('A' for Active; 'I' for Inactive)
ROOT
ATOM      1  C   UNL d   1      -3.743   0.401   0.461  0.00  0.00     0.124 A 
ATOM      2  C1  UNL d   1      -4.096   1.743   0.501  0.00  0.00     0.062 A 
ATOM      3  C2  UNL d   1      -3.115   2.721   0.634  0.00  0.00     0.162 A 
ATOM      4  C3  UNL d   1      -1.770   2.361   0.726  0.00  0.00    -0.034 A 
ATOM      5  C4  UNL d   1      -1.423   1.010   0.686  0.00  0.00     0.162 A 
ATOM      6  C5  UNL d   1      -2.407   0.036   0.554  0.00  0.00     0.062 A 
ATOM      7  F   UNL d   1      -2.064  -1.260   0.516  0.00  0.00    -0.097 F 
ATOM      8  F1  UNL d   1      -0.140   0.629   0.773  0.00  0.00    -0.096 F 
ATOM      9  I   UNL d   1      -0.300   3.821   0.924  0.00  0.00    -0.060 I 
ATOM     10  F2  UNL d   1      -3.485   4.010   0.669  0.00  0.00    -0.096 F 
ATOM     11  F3  UNL d   1      -5.386   2.098   0.413  0.00  0.00    -0.097 F 
ATOM     12  F4  UNL d   1      -4.689  -0.538   0.335  0.00  0.00    -0.092 F 
ENDROOT
TORSDOF 0
ENDMDL
