MODEL 1
REMARK minimizedAffinity 9.91317844
REMARK minimizedRMSD -1
REMARK  0 active torsions:
REMARK  status: ('A' for Active; 'I' for Inactive)
ROOT
ATOM      1  C   UNL d   1       4.827  -3.748   4.672  0.00  0.00     0.124 A 
ATOM      2  C1  UNL d   1       4.832  -2.405   5.025  0.00  0.00     0.062 A 
ATOM      3  C2  UNL d   1       3.650  -1.776   5.402  0.00  0.00     0.162 A 
ATOM      4  C3  UNL d   1       2.451  -2.488   5.430  0.00  0.00    -0.034 A 
ATOM      5  C4  UNL d   1       2.453  -3.838   5.074  0.00  0.00     0.162 A 
ATOM      6  C5  UNL d   1       3.638  -4.463   4.697  0.00  0.00     0.062 A 
ATOM      7  F   UNL d   1       3.631  -5.760   4.357  0.00  0.00    -0.097 F 
ATOM      8  F1  UNL d   1       1.319  -4.553   5.090  0.00  0.00    -0.096 F 
ATOM      9  I   UNL d   1       0.681  -1.551   5.994  0.00  0.00    -0.060 I 
ATOM     10  F2  UNL d   1       3.685  -0.477   5.738  0.00  0.00    -0.096 F 
ATOM     11  F3  UNL d   1       5.980  -1.712   5.001  0.00  0.00    -0.097 F 
ATOM     12  F4  UNL d   1       5.966  -4.350   4.309  0.00  0.00    -0.092 F 
ENDROOT
TORSDOF 0
ENDMDL
