MODEL 1
REMARK minimizedAffinity 22.5471096
REMARK minimizedRMSD -1
REMARK  0 active torsions:
REMARK  status: ('A' for Active; 'I' for Inactive)
ROOT
ATOM      1  C   UNL d   1       4.831  -3.607  -4.573  0.00  0.00     0.124 A 
ATOM      2  C1  UNL d   1       4.708  -2.436  -3.837  0.00  0.00     0.062 A 
ATOM      3  C2  UNL d   1       3.498  -1.748  -3.815  0.00  0.00     0.162 A 
ATOM      4  C3  UNL d   1       2.402  -2.228  -4.530  0.00  0.00    -0.034 A 
ATOM      5  C4  UNL d   1       2.534  -3.405  -5.269  0.00  0.00     0.162 A 
ATOM      6  C5  UNL d   1       3.744  -4.090  -5.288  0.00  0.00     0.062 A 
ATOM      7  F   UNL d   1       3.862  -5.221  -5.999  0.00  0.00    -0.097 F 
ATOM      8  F1  UNL d   1       1.499  -3.895  -5.968  0.00  0.00    -0.096 F 
ATOM      9  I   UNL d   1       0.592  -1.201  -4.500  0.00  0.00    -0.060 I 
ATOM     10  F2  UNL d   1       3.408  -0.619  -3.095  0.00  0.00    -0.096 F 
ATOM     11  F3  UNL d   1       5.756  -1.967  -3.146  0.00  0.00    -0.097 F 
ATOM     12  F4  UNL d   1       5.996  -4.267  -4.593  0.00  0.00    -0.092 F 
ENDROOT
TORSDOF 0
ENDMDL
