MODEL 1
REMARK minimizedAffinity 28.7996483
REMARK minimizedRMSD -1
REMARK  0 active torsions:
REMARK  status: ('A' for Active; 'I' for Inactive)
ROOT
ATOM      1  C   UNL d   1      -1.851  -0.885   1.373  0.00  0.00     0.124 A 
ATOM      2  C1  UNL d   1      -1.909   0.399   1.897  0.00  0.00     0.062 A 
ATOM      3  C2  UNL d   1      -2.301   0.599   3.218  0.00  0.00     0.162 A 
ATOM      4  C3  UNL d   1      -2.636  -0.489   4.024  0.00  0.00    -0.034 A 
ATOM      5  C4  UNL d   1      -2.576  -1.777   3.490  0.00  0.00     0.162 A 
ATOM      6  C5  UNL d   1      -2.184  -1.972   2.170  0.00  0.00     0.062 A 
ATOM      7  F   UNL d   1      -2.127  -3.213   1.665  0.00  0.00    -0.097 F 
ATOM      8  F1  UNL d   1      -2.891  -2.845   4.238  0.00  0.00    -0.096 F 
ATOM      9  I   UNL d   1      -3.222  -0.194   6.000  0.00  0.00    -0.060 I 
ATOM     10  F2  UNL d   1      -2.349   1.850   3.698  0.00  0.00    -0.096 F 
ATOM     11  F3  UNL d   1      -1.589   1.450   1.129  0.00  0.00    -0.097 F 
ATOM     12  F4  UNL d   1      -1.474  -1.074   0.102  0.00  0.00    -0.092 F 
ENDROOT
TORSDOF 0
ENDMDL
