MODEL 1
REMARK minimizedAffinity 20.1706791
REMARK minimizedRMSD -1
REMARK  0 active torsions:
REMARK  status: ('A' for Active; 'I' for Inactive)
ROOT
ATOM      1  C   UNL d   1       4.839  -1.947  -4.870  0.00  0.00     0.124 A 
ATOM      2  C1  UNL d   1       4.944  -3.331  -4.869  0.00  0.00     0.062 A 
ATOM      3  C2  UNL d   1       5.270  -4.007  -3.697  0.00  0.00     0.162 A 
ATOM      4  C3  UNL d   1       5.495  -3.301  -2.516  0.00  0.00    -0.034 A 
ATOM      5  C4  UNL d   1       5.389  -1.909  -2.525  0.00  0.00     0.162 A 
ATOM      6  C5  UNL d   1       5.062  -1.237  -3.698  0.00  0.00     0.062 A 
ATOM      7  F   UNL d   1       4.962   0.100  -3.697  0.00  0.00    -0.097 F 
ATOM      8  F1  UNL d   1       5.598  -1.198  -1.406  0.00  0.00    -0.096 F 
ATOM      9  I   UNL d   1       5.984  -4.308  -0.762  0.00  0.00    -0.060 I 
ATOM     10  F2  UNL d   1       5.364  -5.345  -3.726  0.00  0.00    -0.096 F 
ATOM     11  F3  UNL d   1       4.730  -4.018  -6.000  0.00  0.00    -0.097 F 
ATOM     12  F4  UNL d   1       4.526  -1.298  -5.999  0.00  0.00    -0.092 F 
ENDROOT
TORSDOF 0
ENDMDL
