MODEL 1
REMARK minimizedAffinity 22.8010559
REMARK minimizedRMSD -1
REMARK  0 active torsions:
REMARK  status: ('A' for Active; 'I' for Inactive)
ROOT
ATOM      1  C   UNL d   1      -2.422   0.510   5.119  0.00  0.00     0.124 A 
ATOM      2  C1  UNL d   1      -3.725   0.900   5.399  0.00  0.00     0.062 A 
ATOM      3  C2  UNL d   1      -4.703  -0.057   5.650  0.00  0.00     0.162 A 
ATOM      4  C3  UNL d   1      -4.383  -1.414   5.624  0.00  0.00    -0.034 A 
ATOM      5  C4  UNL d   1      -3.072  -1.799   5.341  0.00  0.00     0.162 A 
ATOM      6  C5  UNL d   1      -2.097  -0.838   5.090  0.00  0.00     0.062 A 
ATOM      7  F   UNL d   1      -0.840  -1.217   4.820  0.00  0.00    -0.097 F 
ATOM      8  F1  UNL d   1      -2.730  -3.095   5.307  0.00  0.00    -0.096 F 
ATOM      9  I   UNL d   1      -5.844  -2.848   6.000  0.00  0.00    -0.060 I 
ATOM     10  F2  UNL d   1      -5.954   0.349   5.918  0.00  0.00    -0.096 F 
ATOM     11  F3  UNL d   1      -4.042   2.203   5.426  0.00  0.00    -0.097 F 
ATOM     12  F4  UNL d   1      -1.483   1.433   4.876  0.00  0.00    -0.092 F 
ENDROOT
TORSDOF 0
ENDMDL
