MODEL 1
REMARK minimizedAffinity 25.3948708
REMARK minimizedRMSD -1
REMARK  0 active torsions:
REMARK  status: ('A' for Active; 'I' for Inactive)
ROOT
ATOM      1  C   UNL d   1       4.958  -3.330   5.158  0.00  0.00     0.124 A 
ATOM      2  C1  UNL d   1       4.753  -2.271   4.285  0.00  0.00     0.062 A 
ATOM      3  C2  UNL d   1       3.672  -2.284   3.409  0.00  0.00     0.162 A 
ATOM      4  C3  UNL d   1       2.785  -3.360   3.403  0.00  0.00    -0.034 A 
ATOM      5  C4  UNL d   1       2.997  -4.423   4.283  0.00  0.00     0.162 A 
ATOM      6  C5  UNL d   1       4.080  -4.405   5.157  0.00  0.00     0.062 A 
ATOM      7  F   UNL d   1       4.276  -5.429   6.000  0.00  0.00    -0.097 F 
ATOM      8  F1  UNL d   1       2.164  -5.474   4.304  0.00  0.00    -0.096 F 
ATOM      9  I   UNL d   1       1.166  -3.384   2.095  0.00  0.00    -0.060 I 
ATOM     10  F2  UNL d   1       3.499  -1.247   2.577  0.00  0.00    -0.096 F 
ATOM     11  F3  UNL d   1       5.601  -1.231   4.284  0.00  0.00    -0.097 F 
ATOM     12  F4  UNL d   1       6.000  -3.315   5.999  0.00  0.00    -0.092 F 
ENDROOT
TORSDOF 0
ENDMDL
