MODEL 1
REMARK minimizedAffinity 10.6493626
REMARK minimizedRMSD -1
REMARK  0 active torsions:
REMARK  status: ('A' for Active; 'I' for Inactive)
ROOT
ATOM      1  C   UNL d   1       2.364   5.597  -3.335  0.00  0.00     0.124 A 
ATOM      2  C1  UNL d   1       3.673   5.794  -3.753  0.00  0.00     0.062 A 
ATOM      3  C2  UNL d   1       4.713   5.780  -2.827  0.00  0.00     0.162 A 
ATOM      4  C3  UNL d   1       4.448   5.567  -1.475  0.00  0.00    -0.034 A 
ATOM      5  C4  UNL d   1       3.128   5.371  -1.062  0.00  0.00     0.162 A 
ATOM      6  C5  UNL d   1       2.093   5.386  -1.991  0.00  0.00     0.062 A 
ATOM      7  F   UNL d   1       0.829   5.195  -1.586  0.00  0.00    -0.097 F 
ATOM      8  F1  UNL d   1       2.838   5.163   0.231  0.00  0.00    -0.096 F 
ATOM      9  I   UNL d   1       5.999   5.546  -0.088  0.00  0.00    -0.060 I 
ATOM     10  F2  UNL d   1       5.968   5.974  -3.259  0.00  0.00    -0.096 F 
ATOM     11  F3  UNL d   1       3.937   6.000  -5.051  0.00  0.00    -0.097 F 
ATOM     12  F4  UNL d   1       1.366   5.612  -4.228  0.00  0.00    -0.092 F 
ENDROOT
TORSDOF 0
ENDMDL
