MODEL 1
REMARK minimizedAffinity 15.4402552
REMARK minimizedRMSD -1
REMARK  0 active torsions:
REMARK  status: ('A' for Active; 'I' for Inactive)
ROOT
ATOM      1  C   UNL d   1       1.558  -2.108  -4.157  0.00  0.00     0.124 A 
ATOM      2  C1  UNL d   1       1.965  -2.000  -2.835  0.00  0.00     0.062 A 
ATOM      3  C2  UNL d   1       1.020  -1.899  -1.818  0.00  0.00     0.162 A 
ATOM      4  C3  UNL d   1      -0.342  -1.906  -2.119  0.00  0.00    -0.034 A 
ATOM      5  C4  UNL d   1      -0.744  -2.013  -3.452  0.00  0.00     0.162 A 
ATOM      6  C5  UNL d   1       0.204  -2.114  -4.465  0.00  0.00     0.062 A 
ATOM      7  F   UNL d   1      -0.191  -2.218  -5.742  0.00  0.00    -0.097 F 
ATOM      8  F1  UNL d   1      -2.045  -2.022  -3.777  0.00  0.00    -0.096 F 
ATOM      9  I   UNL d   1      -1.758  -1.754  -0.601  0.00  0.00    -0.060 I 
ATOM     10  F2  UNL d   1       1.442  -1.796  -0.549  0.00  0.00    -0.096 F 
ATOM     11  F3  UNL d   1       3.271  -1.993  -2.535  0.00  0.00    -0.097 F 
ATOM     12  F4  UNL d   1       2.469  -2.205  -5.134  0.00  0.00    -0.092 F 
ENDROOT
TORSDOF 0
ENDMDL
