MODEL 1
REMARK minimizedAffinity 8.64217186
REMARK minimizedRMSD -1
REMARK  0 active torsions:
REMARK  status: ('A' for Active; 'I' for Inactive)
ROOT
ATOM      1  C   UNL d   1      -2.292  -2.733  -1.347  0.00  0.00     0.124 A 
ATOM      2  C1  UNL d   1      -1.042  -2.498  -1.903  0.00  0.00     0.062 A 
ATOM      3  C2  UNL d   1       0.085  -2.431  -1.089  0.00  0.00     0.162 A 
ATOM      4  C3  UNL d   1      -0.032  -2.602   0.290  0.00  0.00    -0.034 A 
ATOM      5  C4  UNL d   1      -1.292  -2.838   0.842  0.00  0.00     0.162 A 
ATOM      6  C5  UNL d   1      -2.415  -2.903   0.025  0.00  0.00     0.062 A 
ATOM      7  F   UNL d   1      -3.622  -3.131   0.564  0.00  0.00    -0.097 F 
ATOM      8  F1  UNL d   1      -1.440  -3.007   2.165  0.00  0.00    -0.096 F 
ATOM      9  I   UNL d   1       1.651  -2.503   1.510  0.00  0.00    -0.060 I 
ATOM     10  F2  UNL d   1       1.280  -2.202  -1.654  0.00  0.00    -0.096 F 
ATOM     11  F3  UNL d   1      -0.920  -2.332  -3.228  0.00  0.00    -0.097 F 
ATOM     12  F4  UNL d   1      -3.375  -2.796  -2.132  0.00  0.00    -0.092 F 
ENDROOT
TORSDOF 0
ENDMDL
