MODEL 1
REMARK minimizedAffinity 18.5258045
REMARK minimizedRMSD -1
REMARK  0 active torsions:
REMARK  status: ('A' for Active; 'I' for Inactive)
ROOT
ATOM      1  C   UNL d   1      -3.629  -3.579  -2.812  0.00  0.00     0.124 A 
ATOM      2  C1  UNL d   1      -4.117  -4.504  -3.724  0.00  0.00     0.062 A 
ATOM      3  C2  UNL d   1      -3.257  -5.110  -4.635  0.00  0.00     0.162 A 
ATOM      4  C3  UNL d   1      -1.899  -4.793  -4.638  0.00  0.00    -0.034 A 
ATOM      5  C4  UNL d   1      -1.415  -3.861  -3.719  0.00  0.00     0.162 A 
ATOM      6  C5  UNL d   1      -2.279  -3.258  -2.810  0.00  0.00     0.062 A 
ATOM      7  F   UNL d   1      -1.805  -2.364  -1.929  0.00  0.00    -0.097 F 
ATOM      8  F1  UNL d   1      -0.115  -3.533  -3.694  0.00  0.00    -0.096 F 
ATOM      9  I   UNL d   1      -0.610  -5.697  -5.999  0.00  0.00    -0.060 I 
ATOM     10  F2  UNL d   1      -3.757  -6.000  -5.505  0.00  0.00    -0.096 F 
ATOM     11  F3  UNL d   1      -5.422  -4.815  -3.728  0.00  0.00    -0.097 F 
ATOM     12  F4  UNL d   1      -4.459  -2.997  -1.936  0.00  0.00    -0.092 F 
ENDROOT
TORSDOF 0
ENDMDL
