MODEL 1
REMARK minimizedAffinity -3.86971045
REMARK minimizedRMSD -1
REMARK  0 active torsions:
REMARK  status: ('A' for Active; 'I' for Inactive)
ROOT
ATOM      1  N1  IND d   1      -1.646  -2.319  -2.581  0.00  0.00    -0.196 N 
ATOM      2  C2  IND d   1      -1.328  -3.625  -2.331  0.00  0.00     0.054 A 
ATOM      3  C3  IND d   1      -0.517  -3.713  -1.253  0.00  0.00    -0.031 A 
ATOM      4  C4  IND d   1       0.331  -1.853   0.312  0.00  0.00     0.051 A 
ATOM      5  C5  IND d   1       0.336  -0.495   0.468  0.00  0.00    -0.031 A 
ATOM      6  C6  IND d   1      -0.335   0.341  -0.401  0.00  0.00     0.015 A 
ATOM      7  C7  IND d   1      -1.049  -0.153  -1.456  0.00  0.00    -0.016 A 
ATOM      8  C8  IND d   1      -1.051  -1.531  -1.621  0.00  0.00    -0.047 A 
ATOM      9  C9  IND d   1      -0.336  -2.381  -0.767  0.00  0.00    -0.096 A 
ATOM     10  HN1 IND d   1      -2.137  -2.038  -3.229  0.00  0.00     0.298 HD
ENDROOT
TORSDOF 0
ENDMDL
