MODEL 1
REMARK minimizedAffinity -3.83150649
REMARK minimizedRMSD -1
REMARK  0 active torsions:
REMARK  status: ('A' for Active; 'I' for Inactive)
ROOT
ATOM      1  N1  IND d   1       1.693  -0.001   0.490  0.00  0.00    -0.196 N 
ATOM      2  C2  IND d   1       2.361   1.148   0.808  0.00  0.00     0.054 A 
ATOM      3  C3  IND d   1       1.517   2.204   0.787  0.00  0.00    -0.031 A 
ATOM      4  C4  IND d   1      -1.020   2.262   0.357  0.00  0.00     0.051 A 
ATOM      5  C5  IND d   1      -2.069   1.466  -0.011  0.00  0.00    -0.031 A 
ATOM      6  C6  IND d   1      -1.914   0.113  -0.233  0.00  0.00     0.015 A 
ATOM      7  C7  IND d   1      -0.703  -0.500  -0.083  0.00  0.00    -0.016 A 
ATOM      8  C8  IND d   1       0.366   0.306   0.284  0.00  0.00    -0.047 A 
ATOM      9  C9  IND d   1       0.224   1.687   0.469  0.00  0.00    -0.096 A 
ATOM     10  HN1 IND d   1       2.042  -0.785   0.429  0.00  0.00     0.298 HD
ENDROOT
TORSDOF 0
ENDMDL
