MODEL 1
REMARK minimizedAffinity -3.38073587
REMARK minimizedRMSD -1
REMARK  0 active torsions:
REMARK  status: ('A' for Active; 'I' for Inactive)
ROOT
ATOM      1  N1  IND d   1      -0.845   0.867   0.178  0.00  0.00    -0.196 N 
ATOM      2  C2  IND d   1      -1.306   2.141   0.366  0.00  0.00     0.054 A 
ATOM      3  C3  IND d   1      -0.293   2.960   0.726  0.00  0.00    -0.031 A 
ATOM      4  C4  IND d   1       2.218   2.446   0.970  0.00  0.00     0.051 A 
ATOM      5  C5  IND d   1       3.115   1.415   0.936  0.00  0.00    -0.031 A 
ATOM      6  C6  IND d   1       2.730   0.123   0.640  0.00  0.00     0.015 A 
ATOM      7  C7  IND d   1       1.430  -0.185   0.354  0.00  0.00    -0.016 A 
ATOM      8  C8  IND d   1       0.516   0.858   0.393  0.00  0.00    -0.047 A 
ATOM      9  C9  IND d   1       0.893   2.163   0.735  0.00  0.00    -0.096 A 
ATOM     10  HN1 IND d   1      -1.324   0.187  -0.038  0.00  0.00     0.298 HD
ENDROOT
TORSDOF 0
ENDMDL
