MODEL 1
REMARK minimizedAffinity -2.66770625
REMARK minimizedRMSD -1
REMARK  0 active torsions:
REMARK  status: ('A' for Active; 'I' for Inactive)
ROOT
ATOM      1  N1  IND d   1       0.069  -0.317  -0.266  0.00  0.00    -0.196 N 
ATOM      2  C2  IND d   1      -1.111  -0.648   0.340  0.00  0.00     0.054 A 
ATOM      3  C3  IND d   1      -1.573   0.392   1.070  0.00  0.00    -0.031 A 
ATOM      4  C4  IND d   1      -0.608   2.764   1.330  0.00  0.00     0.051 A 
ATOM      5  C5  IND d   1       0.475   3.529   0.996  0.00  0.00    -0.031 A 
ATOM      6  C6  IND d   1       1.496   3.042   0.207  0.00  0.00     0.015 A 
ATOM      7  C7  IND d   1       1.468   1.770  -0.290  0.00  0.00    -0.016 A 
ATOM      8  C8  IND d   1       0.374   0.988   0.052  0.00  0.00    -0.047 A 
ATOM      9  C9  IND d   1      -0.645   1.463   0.888  0.00  0.00    -0.096 A 
ATOM     10  HN1 IND d   1       0.541  -0.837  -0.762  0.00  0.00     0.298 HD
ENDROOT
TORSDOF 0
ENDMDL
