MODEL 1
REMARK minimizedAffinity -3.247823
REMARK minimizedRMSD -1
REMARK  0 active torsions:
REMARK  status: ('A' for Active; 'I' for Inactive)
ROOT
ATOM      1  N1  IND d   1       1.889  -0.270   0.044  0.00  0.00    -0.196 N 
ATOM      2  C2  IND d   1       1.318  -1.449   0.434  0.00  0.00     0.054 A 
ATOM      3  C3  IND d   1       0.016  -1.261   0.746  0.00  0.00    -0.031 A 
ATOM      4  C4  IND d   1      -1.409   0.878   0.593  0.00  0.00     0.051 A 
ATOM      5  C5  IND d   1      -1.320   2.215   0.324  0.00  0.00    -0.031 A 
ATOM      6  C6  IND d   1      -0.133   2.803  -0.062  0.00  0.00     0.015 A 
ATOM      7  C7  IND d   1       1.011   2.071  -0.206  0.00  0.00    -0.016 A 
ATOM      8  C8  IND d   1       0.926   0.714   0.073  0.00  0.00    -0.047 A 
ATOM      9  C9  IND d   1      -0.266   0.119   0.507  0.00  0.00    -0.096 A 
ATOM     10  HN1 IND d   1       2.712  -0.162  -0.182  0.00  0.00     0.298 HD
ENDROOT
TORSDOF 0
ENDMDL
