MODEL 1
REMARK minimizedAffinity 0.729875863
REMARK minimizedRMSD -1
REMARK  0 active torsions:
REMARK  status: ('A' for Active; 'I' for Inactive)
ROOT
ATOM      1  N1  IND d   1       1.959  -1.407   0.249  0.00  0.00    -0.196 N 
ATOM      2  C2  IND d   1       2.983  -0.521   0.062  0.00  0.00     0.054 A 
ATOM      3  C3  IND d   1       2.510   0.746   0.038  0.00  0.00    -0.031 A 
ATOM      4  C4  IND d   1       0.107   1.601   0.386  0.00  0.00     0.051 A 
ATOM      5  C5  IND d   1      -1.178   1.165   0.554  0.00  0.00    -0.031 A 
ATOM      6  C6  IND d   1      -1.488  -0.177   0.633  0.00  0.00     0.015 A 
ATOM      7  C7  IND d   1      -0.520  -1.138   0.558  0.00  0.00    -0.016 A 
ATOM      8  C8  IND d   1       0.785  -0.700   0.381  0.00  0.00    -0.047 A 
ATOM      9  C9  IND d   1       1.101   0.660   0.257  0.00  0.00    -0.096 A 
ATOM     10  HN1 IND d   1       2.036  -2.263   0.279  0.00  0.00     0.298 HD
ENDROOT
TORSDOF 0
ENDMDL
