MODEL 1
REMARK minimizedAffinity -4.09146595
REMARK minimizedRMSD -1
REMARK  0 active torsions:
REMARK  status: ('A' for Active; 'I' for Inactive)
ROOT
ATOM      1  N1  IND d   1       1.287  -0.860   0.168  0.00  0.00    -0.196 N 
ATOM      2  C2  IND d   1       0.335  -1.812   0.411  0.00  0.00     0.054 A 
ATOM      3  C3  IND d   1      -0.876  -1.234   0.576  0.00  0.00    -0.031 A 
ATOM      4  C4  IND d   1      -1.545   1.245   0.389  0.00  0.00     0.051 A 
ATOM      5  C5  IND d   1      -1.016   2.493   0.218  0.00  0.00    -0.031 A 
ATOM      6  C6  IND d   1       0.334   2.692   0.015  0.00  0.00     0.015 A 
ATOM      7  C7  IND d   1       1.208   1.643  -0.036  0.00  0.00    -0.016 A 
ATOM      8  C8  IND d   1       0.676   0.374   0.144  0.00  0.00    -0.047 A 
ATOM      9  C9  IND d   1      -0.687   0.170   0.393  0.00  0.00    -0.096 A 
ATOM     10  HN1 IND d   1       2.125  -1.008   0.050  0.00  0.00     0.298 HD
ENDROOT
TORSDOF 0
ENDMDL
