MODEL 1
REMARK minimizedAffinity -4.53493643
REMARK minimizedRMSD -1
REMARK  0 active torsions:
REMARK  status: ('A' for Active; 'I' for Inactive)
ROOT
ATOM      1  N1  IND d   1       1.171  -1.156  -0.037  0.00  0.00    -0.196 N 
ATOM      2  C2  IND d   1       0.341  -2.234   0.090  0.00  0.00     0.054 A 
ATOM      3  C3  IND d   1      -0.926  -1.827   0.328  0.00  0.00    -0.031 A 
ATOM      4  C4  IND d   1      -1.881   0.561   0.448  0.00  0.00     0.051 A 
ATOM      5  C5  IND d   1      -1.503   1.874   0.430  0.00  0.00    -0.031 A 
ATOM      6  C6  IND d   1      -0.188   2.253   0.250  0.00  0.00     0.015 A 
ATOM      7  C7  IND d   1       0.800   1.327   0.068  0.00  0.00    -0.016 A 
ATOM      8  C8  IND d   1       0.421  -0.007   0.092  0.00  0.00    -0.047 A 
ATOM      9  C9  IND d   1      -0.905  -0.398   0.318  0.00  0.00    -0.096 A 
ATOM     10  HN1 IND d   1       2.019  -1.189  -0.174  0.00  0.00     0.298 HD
ENDROOT
TORSDOF 0
ENDMDL
