MODEL 1
REMARK minimizedAffinity -1.68347454
REMARK minimizedRMSD -1
REMARK  0 active torsions:
REMARK  status: ('A' for Active; 'I' for Inactive)
ROOT
ATOM      1  N1  IND d   1       0.413  -2.267  -1.668  0.00  0.00    -0.196 N 
ATOM      2  C2  IND d   1      -0.706  -2.711  -2.316  0.00  0.00     0.054 A 
ATOM      3  C3  IND d   1      -1.785  -1.988  -1.942  0.00  0.00    -0.031 A 
ATOM      4  C4  IND d   1      -1.928   0.035  -0.357  0.00  0.00     0.051 A 
ATOM      5  C5  IND d   1      -1.175   0.787   0.501  0.00  0.00    -0.031 A 
ATOM      6  C6  IND d   1       0.174   0.556   0.682  0.00  0.00     0.015 A 
ATOM      7  C7  IND d   1       0.825  -0.433  -0.001  0.00  0.00    -0.016 A 
ATOM      8  C8  IND d   1       0.062  -1.202  -0.868  0.00  0.00    -0.047 A 
ATOM      9  C9  IND d   1      -1.316  -1.000  -1.023  0.00  0.00    -0.096 A 
ATOM     10  HN1 IND d   1       1.203  -2.597  -1.747  0.00  0.00     0.298 HD
ENDROOT
TORSDOF 0
ENDMDL
