MODEL 1
REMARK minimizedAffinity -3.18268871
REMARK minimizedRMSD -1
REMARK  0 active torsions:
REMARK  status: ('A' for Active; 'I' for Inactive)
ROOT
ATOM      1  N1  IND d   1       2.859  -0.969   0.761  0.00  0.00    -0.196 N 
ATOM      2  C2  IND d   1       3.551   0.190   0.546  0.00  0.00     0.054 A 
ATOM      3  C3  IND d   1       2.700   1.200   0.259  0.00  0.00    -0.031 A 
ATOM      4  C4  IND d   1       0.127   1.200   0.188  0.00  0.00     0.051 A 
ATOM      5  C5  IND d   1      -0.953   0.368   0.279  0.00  0.00    -0.031 A 
ATOM      6  C6  IND d   1      -0.815  -0.979   0.543  0.00  0.00     0.015 A 
ATOM      7  C7  IND d   1       0.413  -1.545   0.739  0.00  0.00    -0.016 A 
ATOM      8  C8  IND d   1       1.512  -0.704   0.640  0.00  0.00    -0.047 A 
ATOM      9  C9  IND d   1       1.381   0.656   0.330  0.00  0.00    -0.096 A 
ATOM     10  HN1 IND d   1       3.206  -1.735   0.941  0.00  0.00     0.298 HD
ENDROOT
TORSDOF 0
ENDMDL
