MODEL 1
REMARK minimizedAffinity -6.00211906
REMARK minimizedRMSD -1
REMARK  0 active torsions:
REMARK  status: ('A' for Active; 'I' for Inactive)
ROOT
ATOM      1  N1  IND d   1       0.856  -0.818  -0.139  0.00  0.00    -0.196 N 
ATOM      2  C2  IND d   1      -0.214  -1.255   0.591  0.00  0.00     0.054 A 
ATOM      3  C3  IND d   1      -0.965  -0.207   0.998  0.00  0.00    -0.031 A 
ATOM      4  C4  IND d   1      -0.680   2.302   0.496  0.00  0.00     0.051 A 
ATOM      5  C5  IND d   1       0.170   3.192  -0.099  0.00  0.00    -0.031 A 
ATOM      6  C6  IND d   1       1.313   2.782  -0.754  0.00  0.00     0.015 A 
ATOM      7  C7  IND d   1       1.645   1.460  -0.848  0.00  0.00    -0.016 A 
ATOM      8  C8  IND d   1       0.788   0.554  -0.238  0.00  0.00    -0.047 A 
ATOM      9  C9  IND d   1      -0.351   0.967   0.464  0.00  0.00    -0.096 A 
ATOM     10  HN1 IND d   1       1.468  -1.317  -0.480  0.00  0.00     0.298 HD
ENDROOT
TORSDOF 0
ENDMDL
