MODEL 1
REMARK minimizedAffinity -2.55665445
REMARK minimizedRMSD -1
REMARK  0 active torsions:
REMARK  status: ('A' for Active; 'I' for Inactive)
ROOT
ATOM      1  N1  IND d   1      -0.566   2.462   0.983  0.00  0.00    -0.196 N 
ATOM      2  C2  IND d   1       0.339   3.232   0.307  0.00  0.00     0.054 A 
ATOM      3  C3  IND d   1       1.062   2.471  -0.544  0.00  0.00    -0.031 A 
ATOM      4  C4  IND d   1       0.859  -0.042  -1.065  0.00  0.00     0.051 A 
ATOM      5  C5  IND d   1       0.201  -1.174  -0.673  0.00  0.00    -0.031 A 
ATOM      6  C6  IND d   1      -0.768  -1.151   0.310  0.00  0.00     0.015 A 
ATOM      7  C7  IND d   1      -1.124   0.013   0.932  0.00  0.00    -0.016 A 
ATOM      8  C8  IND d   1      -0.453   1.163   0.540  0.00  0.00    -0.047 A 
ATOM      9  C9  IND d   1       0.560   1.138  -0.426  0.00  0.00    -0.096 A 
ATOM     10  HN1 IND d   1      -1.113   2.743   1.584  0.00  0.00     0.298 HD
ENDROOT
TORSDOF 0
ENDMDL
