MODEL 1
REMARK minimizedAffinity -0.749860466
REMARK minimizedRMSD -1
REMARK  0 active torsions:
REMARK  status: ('A' for Active; 'I' for Inactive)
ROOT
ATOM      1  N1  IND d   1       1.959   0.783   0.503  0.00  0.00    -0.196 N 
ATOM      2  C2  IND d   1       1.888  -0.582   0.480  0.00  0.00     0.054 A 
ATOM      3  C3  IND d   1       0.597  -0.986   0.489  0.00  0.00    -0.031 A 
ATOM      4  C4  IND d   1      -1.558   0.421   0.436  0.00  0.00     0.051 A 
ATOM      5  C5  IND d   1      -2.002   1.713   0.486  0.00  0.00    -0.031 A 
ATOM      6  C6  IND d   1      -1.132   2.782   0.543  0.00  0.00     0.015 A 
ATOM      7  C7  IND d   1       0.222   2.599   0.540  0.00  0.00    -0.016 A 
ATOM      8  C8  IND d   1       0.677   1.289   0.497  0.00  0.00    -0.047 A 
ATOM      9  C9  IND d   1      -0.202   0.198   0.482  0.00  0.00    -0.096 A 
ATOM     10  HN1 IND d   1       2.682   1.247   0.519  0.00  0.00     0.298 HD
ENDROOT
TORSDOF 0
ENDMDL
