MODEL 1
REMARK minimizedAffinity -4.94101524
REMARK minimizedRMSD -1
REMARK  0 active torsions:
REMARK  status: ('A' for Active; 'I' for Inactive)
ROOT
ATOM      1  N1  IND d   1       0.330  -0.389  -0.387  0.00  0.00    -0.196 N 
ATOM      2  C2  IND d   1      -0.853  -0.832   0.137  0.00  0.00     0.054 A 
ATOM      3  C3  IND d   1      -1.525   0.190   0.712  0.00  0.00    -0.031 A 
ATOM      4  C4  IND d   1      -0.919   2.690   0.821  0.00  0.00     0.051 A 
ATOM      5  C5  IND d   1       0.080   3.570   0.514  0.00  0.00    -0.031 A 
ATOM      6  C6  IND d   1       1.236   3.168  -0.124  0.00  0.00     0.015 A 
ATOM      7  C7  IND d   1       1.431   1.867  -0.491  0.00  0.00    -0.016 A 
ATOM      8  C8  IND d   1       0.422   0.969  -0.175  0.00  0.00    -0.047 A 
ATOM      9  C9  IND d   1      -0.735   1.363   0.511  0.00  0.00    -0.096 A 
ATOM     10  HN1 IND d   1       0.917  -0.877  -0.782  0.00  0.00     0.298 HD
ENDROOT
TORSDOF 0
ENDMDL
