MODEL 1
REMARK minimizedAffinity -2.73014021
REMARK minimizedRMSD -1
REMARK  1 active torsions:
REMARK  status: ('A' for Active; 'I' for Inactive)
REMARK    1  A    between atoms: C1_2  and  C2_3 
ROOT
ATOM      1  C2  UNL d   1       0.028   5.062  -1.557  0.00  0.00    -0.081 A 
ATOM      2  C3  UNL d   1       0.419   5.660  -0.353  0.00  0.00     0.006 A 
ATOM      3  C4  UNL d   1       0.814   4.875   0.733  0.00  0.00     0.002 A 
ATOM      4  C5  UNL d   1       0.834   3.480   0.630  0.00  0.00    -0.080 A 
ATOM      5  C6  UNL d   1       1.285   2.627   1.778  0.00  0.00     0.076 C 
ATOM      6  C7  UNL d   1       0.427   2.882  -0.567  0.00  0.00     0.002 A 
ATOM      7  C8  UNL d   1       0.031   3.666  -1.653  0.00  0.00     0.006 A 
ENDROOT
BRANCH   1   8
ATOM      8  C1  UNL d   1      -0.337   5.908  -2.750  0.00  0.00     0.054 C 
ATOM      9  C   UNL d   1      -1.846   6.000  -2.922  0.00  0.00     0.018 C 
ENDBRANCH   1   8
TORSDOF 1
ENDMDL
