MODEL 1
REMARK minimizedAffinity -0.378219843
REMARK minimizedRMSD -1
REMARK  1 active torsions:
REMARK  status: ('A' for Active; 'I' for Inactive)
REMARK    1  A    between atoms: C1_2  and  C2_3 
ROOT
ATOM      1  C2  UNL d   1       0.681   4.271  -0.741  0.00  0.00    -0.081 A 
ATOM      2  C3  UNL d   1       0.077   3.138  -1.301  0.00  0.00     0.006 A 
ATOM      3  C4  UNL d   1      -0.021   1.953  -0.569  0.00  0.00     0.002 A 
ATOM      4  C5  UNL d   1       0.476   1.882   0.737  0.00  0.00    -0.080 A 
ATOM      5  C6  UNL d   1       0.350   0.624   1.544  0.00  0.00     0.076 C 
ATOM      6  C7  UNL d   1       1.095   3.007   1.291  0.00  0.00     0.002 A 
ATOM      7  C8  UNL d   1       1.194   4.193   0.559  0.00  0.00     0.006 A 
ENDROOT
BRANCH   1   8
ATOM      8  C1  UNL d   1       0.731   5.570  -1.504  0.00  0.00     0.054 C 
ATOM      9  C   UNL d   1      -0.658   6.000  -1.954  0.00  0.00     0.018 C 
ENDBRANCH   1   8
TORSDOF 1
ENDMDL
