MODEL 1
REMARK minimizedAffinity 3.69817972
REMARK minimizedRMSD -1
REMARK  1 active torsions:
REMARK  status: ('A' for Active; 'I' for Inactive)
REMARK    1  A    between atoms: C1_2  and  C2_3 
ROOT
ATOM      1  C2  UNL d   1      -0.204   4.724  -1.392  0.00  0.00    -0.081 A 
ATOM      2  C3  UNL d   1       0.543   3.587  -1.723  0.00  0.00     0.006 A 
ATOM      3  C4  UNL d   1       0.525   2.462  -0.896  0.00  0.00     0.002 A 
ATOM      4  C5  UNL d   1      -0.247   2.451   0.271  0.00  0.00    -0.080 A 
ATOM      5  C6  UNL d   1      -0.300   1.239   1.151  0.00  0.00     0.076 C 
ATOM      6  C7  UNL d   1      -0.980   3.593   0.611  0.00  0.00     0.002 A 
ATOM      7  C8  UNL d   1      -0.961   4.719  -0.216  0.00  0.00     0.006 A 
ENDROOT
BRANCH   1   8
ATOM      8  C1  UNL d   1      -0.237   5.916  -2.315  0.00  0.00     0.054 C 
ATOM      9  C   UNL d   1      -1.553   5.991  -3.075  0.00  0.00     0.018 C 
ENDBRANCH   1   8
TORSDOF 1
ENDMDL
