MODEL 1
REMARK minimizedAffinity 2.75275731
REMARK minimizedRMSD -1
REMARK  1 active torsions:
REMARK  status: ('A' for Active; 'I' for Inactive)
REMARK    1  A    between atoms: C1_2  and  C2_3 
ROOT
ATOM      1  C2  UNL d   1      -0.315   2.325   0.036  0.00  0.00    -0.081 A 
ATOM      2  C3  UNL d   1      -0.066   2.183  -1.334  0.00  0.00     0.006 A 
ATOM      3  C4  UNL d   1       0.202   3.303  -2.125  0.00  0.00     0.002 A 
ATOM      4  C5  UNL d   1       0.233   4.581  -1.558  0.00  0.00    -0.080 A 
ATOM      5  C6  UNL d   1       0.549   5.789  -2.389  0.00  0.00     0.076 C 
ATOM      6  C7  UNL d   1      -0.033   4.725  -0.192  0.00  0.00     0.002 A 
ATOM      7  C8  UNL d   1      -0.302   3.605   0.599  0.00  0.00     0.006 A 
ENDROOT
BRANCH   1   8
ATOM      8  C1  UNL d   1      -0.540   1.112   0.904  0.00  0.00     0.054 C 
ATOM      9  C   UNL d   1       0.747   0.673   1.586  0.00  0.00     0.018 C 
ENDBRANCH   1   8
TORSDOF 1
ENDMDL
