MODEL 1
REMARK minimizedAffinity 7.75995779
REMARK minimizedRMSD -1
REMARK  0 active torsions:
REMARK  status: ('A' for Active; 'I' for Inactive)
ROOT
ATOM      1  C   UNL d   1      -4.491   0.779  -3.399  0.00  0.00     0.078 C 
ATOM      2  C1  UNL d   1      -4.507   2.235  -3.758  0.00  0.00    -0.077 A 
ATOM      3  C2  UNL d   1      -3.319   2.974  -3.825  0.00  0.00    -0.001 A 
ATOM      4  C3  UNL d   1      -3.350   4.331  -4.151  0.00  0.00     0.003 A 
ATOM      5  C4  UNL d   1      -4.565   4.961  -4.412  0.00  0.00    -0.005 A 
ATOM      6  C5  UNL d   1      -5.752   4.234  -4.346  0.00  0.00     0.003 A 
ATOM      7  C6  UNL d   1      -5.723   2.877  -4.020  0.00  0.00    -0.001 A 
ENDROOT
TORSDOF 0
ENDMDL
