MODEL 1
REMARK minimizedAffinity 1.94350159
REMARK minimizedRMSD -1
REMARK  0 active torsions:
REMARK  status: ('A' for Active; 'I' for Inactive)
ROOT
ATOM      1  C   UNL d   1       0.697  -2.306   3.018  0.00  0.00     0.078 C 
ATOM      2  C1  UNL d   1      -0.537  -1.461   3.124  0.00  0.00    -0.077 A 
ATOM      3  C2  UNL d   1      -1.709  -1.806   2.439  0.00  0.00    -0.001 A 
ATOM      4  C3  UNL d   1      -2.847  -1.005   2.539  0.00  0.00     0.003 A 
ATOM      5  C4  UNL d   1      -2.825   0.147   3.322  0.00  0.00    -0.005 A 
ATOM      6  C5  UNL d   1      -1.663   0.501   4.005  0.00  0.00     0.003 A 
ATOM      7  C6  UNL d   1      -0.524  -0.300   3.906  0.00  0.00    -0.001 A 
ENDROOT
TORSDOF 0
ENDMDL
