MODEL 1
REMARK minimizedAffinity 4.35499763
REMARK minimizedRMSD -1
REMARK  0 active torsions:
REMARK  status: ('A' for Active; 'I' for Inactive)
ROOT
ATOM      1  C   UNL d   1       1.494   2.348   3.729  0.00  0.00     0.078 C 
ATOM      2  C1  UNL d   1       1.420   3.618   4.523  0.00  0.00    -0.077 A 
ATOM      3  C2  UNL d   1       0.258   4.399   4.527  0.00  0.00    -0.001 A 
ATOM      4  C3  UNL d   1       0.207   5.584   5.263  0.00  0.00     0.003 A 
ATOM      5  C4  UNL d   1       1.315   5.999   5.999  0.00  0.00    -0.005 A 
ATOM      6  C5  UNL d   1       2.476   5.229   5.999  0.00  0.00     0.003 A 
ATOM      7  C6  UNL d   1       2.529   4.044   5.264  0.00  0.00    -0.001 A 
ENDROOT
TORSDOF 0
ENDMDL
