MODEL 1
REMARK minimizedAffinity 6.23926306
REMARK minimizedRMSD -1
REMARK  0 active torsions:
REMARK  status: ('A' for Active; 'I' for Inactive)
ROOT
ATOM      1  C   UNL d   1       5.524  -3.738   1.133  0.00  0.00     0.078 C 
ATOM      2  C1  UNL d   1       4.048  -3.731   1.397  0.00  0.00    -0.077 A 
ATOM      3  C2  UNL d   1       3.385  -4.891   1.814  0.00  0.00    -0.001 A 
ATOM      4  C3  UNL d   1       2.009  -4.873   2.047  0.00  0.00     0.003 A 
ATOM      5  C4  UNL d   1       1.284  -3.697   1.863  0.00  0.00    -0.005 A 
ATOM      6  C5  UNL d   1       1.935  -2.538   1.446  0.00  0.00     0.003 A 
ATOM      7  C6  UNL d   1       3.311  -2.554   1.213  0.00  0.00    -0.001 A 
ENDROOT
TORSDOF 0
ENDMDL
