MODEL 1
REMARK minimizedAffinity 4.99482918
REMARK minimizedRMSD -1
REMARK  0 active torsions:
REMARK  status: ('A' for Active; 'I' for Inactive)
ROOT
ATOM      1  C   UNL d   1      -3.864  -1.257  -0.528  0.00  0.00     0.078 C 
ATOM      2  C1  UNL d   1      -3.661  -0.763   0.873  0.00  0.00    -0.077 A 
ATOM      3  C2  UNL d   1      -4.404   0.314   1.373  0.00  0.00    -0.001 A 
ATOM      4  C3  UNL d   1      -4.198   0.770   2.676  0.00  0.00     0.003 A 
ATOM      5  C4  UNL d   1      -3.249   0.156   3.490  0.00  0.00    -0.005 A 
ATOM      6  C5  UNL d   1      -2.503  -0.915   3.001  0.00  0.00     0.003 A 
ATOM      7  C6  UNL d   1      -2.708  -1.372   1.698  0.00  0.00    -0.001 A 
ENDROOT
TORSDOF 0
ENDMDL
