MODEL 1
REMARK minimizedAffinity 6.20739317
REMARK minimizedRMSD -1
REMARK  0 active torsions:
REMARK  status: ('A' for Active; 'I' for Inactive)
ROOT
ATOM      1  C   UNL d   1      -1.447   4.555  -5.976  0.00  0.00     0.078 C 
ATOM      2  C1  UNL d   1      -2.708   4.112  -5.296  0.00  0.00    -0.077 A 
ATOM      3  C2  UNL d   1      -2.682   3.594  -3.995  0.00  0.00    -0.001 A 
ATOM      4  C3  UNL d   1      -3.862   3.176  -3.378  0.00  0.00     0.003 A 
ATOM      5  C4  UNL d   1      -5.077   3.270  -4.055  0.00  0.00    -0.005 A 
ATOM      6  C5  UNL d   1      -5.113   3.782  -5.350  0.00  0.00     0.003 A 
ATOM      7  C6  UNL d   1      -3.933   4.201  -5.968  0.00  0.00    -0.001 A 
ENDROOT
TORSDOF 0
ENDMDL
