MODEL 1
REMARK minimizedAffinity 1.1152668
REMARK minimizedRMSD -1
REMARK  0 active torsions:
REMARK  status: ('A' for Active; 'I' for Inactive)
ROOT
ATOM      1  C   UNL d   1      -0.303  -1.334   3.212  0.00  0.00     0.078 C 
ATOM      2  C1  UNL d   1       0.893  -2.204   2.965  0.00  0.00    -0.077 A 
ATOM      3  C2  UNL d   1       0.989  -2.989   1.810  0.00  0.00    -0.001 A 
ATOM      4  C3  UNL d   1       2.103  -3.801   1.598  0.00  0.00     0.003 A 
ATOM      5  C4  UNL d   1       3.131  -3.838   2.539  0.00  0.00    -0.005 A 
ATOM      6  C5  UNL d   1       3.044  -3.063   3.693  0.00  0.00     0.003 A 
ATOM      7  C6  UNL d   1       1.930  -2.249   3.906  0.00  0.00    -0.001 A 
ENDROOT
TORSDOF 0
ENDMDL
