MODEL 1
REMARK minimizedAffinity 4.61795616
REMARK minimizedRMSD -1
REMARK  0 active torsions:
REMARK  status: ('A' for Active; 'I' for Inactive)
ROOT
ATOM      1  C   UNL d   1       5.586  -4.770  -1.644  0.00  0.00     0.078 C 
ATOM      2  C1  UNL d   1       4.833  -4.364  -0.412  0.00  0.00    -0.077 A 
ATOM      3  C2  UNL d   1       3.439  -4.228  -0.431  0.00  0.00    -0.001 A 
ATOM      4  C3  UNL d   1       2.752  -3.840   0.721  0.00  0.00     0.003 A 
ATOM      5  C4  UNL d   1       3.450  -3.584   1.899  0.00  0.00    -0.005 A 
ATOM      6  C5  UNL d   1       4.837  -3.714   1.927  0.00  0.00     0.003 A 
ATOM      7  C6  UNL d   1       5.526  -4.102   0.776  0.00  0.00    -0.001 A 
ENDROOT
TORSDOF 0
ENDMDL
