MODEL 1
REMARK minimizedAffinity 11.1107483
REMARK minimizedRMSD -1
REMARK  0 active torsions:
REMARK  status: ('A' for Active; 'I' for Inactive)
ROOT
ATOM      1  C   UNL d   1      -2.610  -0.720  -1.148  0.00  0.00     0.078 C 
ATOM      2  C1  UNL d   1      -3.636  -0.943  -2.218  0.00  0.00    -0.077 A 
ATOM      3  C2  UNL d   1      -4.087  -2.233  -2.528  0.00  0.00    -0.001 A 
ATOM      4  C3  UNL d   1      -5.035  -2.427  -3.533  0.00  0.00     0.003 A 
ATOM      5  C4  UNL d   1      -5.540  -1.336  -4.239  0.00  0.00    -0.005 A 
ATOM      6  C5  UNL d   1      -5.096  -0.050  -3.940  0.00  0.00     0.003 A 
ATOM      7  C6  UNL d   1      -4.148   0.146  -2.935  0.00  0.00    -0.001 A 
ENDROOT
TORSDOF 0
ENDMDL
