MODEL 1
REMARK minimizedAffinity 2.3767302
REMARK minimizedRMSD -1
REMARK  0 active torsions:
REMARK  status: ('A' for Active; 'I' for Inactive)
ROOT
ATOM      1  C   UNL d   1      -0.600  -2.397   3.229  0.00  0.00     0.078 C 
ATOM      2  C1  UNL d   1       0.604  -2.927   2.509  0.00  0.00    -0.077 A 
ATOM      3  C2  UNL d   1       1.296  -2.137   1.584  0.00  0.00    -0.001 A 
ATOM      4  C3  UNL d   1       2.410  -2.646   0.914  0.00  0.00     0.003 A 
ATOM      5  C4  UNL d   1       2.839  -3.948   1.161  0.00  0.00    -0.005 A 
ATOM      6  C5  UNL d   1       2.155  -4.743   2.078  0.00  0.00     0.003 A 
ATOM      7  C6  UNL d   1       1.042  -4.235   2.749  0.00  0.00    -0.001 A 
ENDROOT
TORSDOF 0
ENDMDL
