MODEL 1
REMARK minimizedAffinity 7.13698673
REMARK minimizedRMSD -1
REMARK  0 active torsions:
REMARK  status: ('A' for Active; 'I' for Inactive)
ROOT
ATOM      1  C   UNL d   1      -5.853   4.363  -0.097  0.00  0.00     0.172 C 
ATOM      2  N   UNL d   1      -4.902   4.776   0.909  0.00  0.00    -0.070 N 
ATOM      3  C1  UNL d   1      -4.876   5.996   1.530  0.00  0.00    -0.004 A 
ATOM      4  C2  UNL d   1      -3.824   5.995   2.420  0.00  0.00    -0.047 A 
ATOM      5  C3  UNL d   1      -3.196   4.730   2.330  0.00  0.00    -0.047 A 
ATOM      6  C4  UNL d   1      -3.883   3.995   1.388  0.00  0.00    -0.004 A 
ENDROOT
TORSDOF 0
ENDMDL
