MODEL 1
REMARK minimizedAffinity 3.28587174
REMARK minimizedRMSD -1
REMARK  0 active torsions:
REMARK  status: ('A' for Active; 'I' for Inactive)
ROOT
ATOM      1  C   UNL d   1       0.755  -1.270  -1.295  0.00  0.00     0.172 C 
ATOM      2  N   UNL d   1      -0.522  -0.600  -1.226  0.00  0.00    -0.070 N 
ATOM      3  C1  UNL d   1      -1.747  -1.211  -1.265  0.00  0.00    -0.004 A 
ATOM      4  C2  UNL d   1      -2.711  -0.230  -1.173  0.00  0.00    -0.047 A 
ATOM      5  C3  UNL d   1      -2.042   1.013  -1.076  0.00  0.00    -0.047 A 
ATOM      6  C4  UNL d   1      -0.688   0.755  -1.112  0.00  0.00    -0.004 A 
ENDROOT
TORSDOF 0
ENDMDL
