MODEL 1
REMARK minimizedAffinity 0.561546504
REMARK minimizedRMSD -1
REMARK  0 active torsions:
REMARK  status: ('A' for Active; 'I' for Inactive)
ROOT
ATOM      1  C   UNL d   1      -0.349   3.630  -0.554  0.00  0.00     0.172 C 
ATOM      2  N   UNL d   1       0.171   3.420   0.777  0.00  0.00    -0.070 N 
ATOM      3  C1  UNL d   1      -0.406   2.643   1.746  0.00  0.00    -0.004 A 
ATOM      4  C2  UNL d   1       0.394   2.702   2.867  0.00  0.00    -0.047 A 
ATOM      5  C3  UNL d   1       1.489   3.545   2.561  0.00  0.00    -0.047 A 
ATOM      6  C4  UNL d   1       1.326   3.975   1.261  0.00  0.00    -0.004 A 
ENDROOT
TORSDOF 0
ENDMDL
