MODEL 1
REMARK minimizedAffinity -0.0644577742
REMARK minimizedRMSD -1
REMARK  0 active torsions:
REMARK  status: ('A' for Active; 'I' for Inactive)
ROOT
ATOM      1  C   UNL d   1      -0.364   3.334  -0.676  0.00  0.00     0.172 C 
ATOM      2  N   UNL d   1       0.032   3.409   0.711  0.00  0.00    -0.070 N 
ATOM      3  C1  UNL d   1      -0.691   2.939   1.775  0.00  0.00    -0.004 A 
ATOM      4  C2  UNL d   1       0.027   3.202   2.922  0.00  0.00    -0.047 A 
ATOM      5  C3  UNL d   1       1.222   3.853   2.534  0.00  0.00    -0.047 A 
ATOM      6  C4  UNL d   1       1.199   3.968   1.160  0.00  0.00    -0.004 A 
ENDROOT
TORSDOF 0
ENDMDL
