MODEL 1
REMARK minimizedAffinity 9.09771633
REMARK minimizedRMSD -1
REMARK  0 active torsions:
REMARK  status: ('A' for Active; 'I' for Inactive)
ROOT
ATOM      1  C   UNL d   1       5.061  -4.531  -0.538  0.00  0.00     0.172 C 
ATOM      2  N   UNL d   1       4.304  -3.309  -0.405  0.00  0.00    -0.070 N 
ATOM      3  C1  UNL d   1       4.790  -2.044  -0.602  0.00  0.00    -0.004 A 
ATOM      4  C2  UNL d   1       3.759  -1.156  -0.380  0.00  0.00    -0.047 A 
ATOM      5  C3  UNL d   1       2.614  -1.914  -0.037  0.00  0.00    -0.047 A 
ATOM      6  C4  UNL d   1       2.980  -3.244  -0.060  0.00  0.00    -0.004 A 
ENDROOT
TORSDOF 0
ENDMDL
