MODEL 1
REMARK minimizedAffinity 0.703702867
REMARK minimizedRMSD -1
REMARK  0 active torsions:
REMARK  status: ('A' for Active; 'I' for Inactive)
ROOT
ATOM      1  C   UNL d   1      -5.986  -3.796   5.945  0.00  0.00     0.172 C 
ATOM      2  N   UNL d   1      -5.991  -2.583   5.162  0.00  0.00    -0.070 N 
ATOM      3  C1  UNL d   1      -5.995  -2.515   3.794  0.00  0.00    -0.004 A 
ATOM      4  C2  UNL d   1      -6.000  -1.184   3.438  0.00  0.00    -0.047 A 
ATOM      5  C3  UNL d   1      -5.998  -0.425   4.632  0.00  0.00    -0.047 A 
ATOM      6  C4  UNL d   1      -5.993  -1.317   5.685  0.00  0.00    -0.004 A 
ENDROOT
TORSDOF 0
ENDMDL
