MODEL 1
REMARK minimizedAffinity -5.71716595
REMARK minimizedRMSD -1
REMARK  3 active torsions:
REMARK  status: ('A' for Active; 'I' for Inactive)
REMARK    1  A    between atoms: C3'_2  and  C2'_3 
REMARK    2  A    between atoms: C2'_3  and  C1'_4 
REMARK    3  A    between atoms: C1'_4  and  C1_5 
ROOT
ATOM      1  C1  N4B d   1       0.066   0.105   0.036  0.00  0.00    -0.075 A 
ATOM      2  C2  N4B d   1      -0.403  -1.106   0.591  0.00  0.00     0.002 A 
ATOM      3  C3  N4B d   1       0.488  -2.089   0.945  0.00  0.00     0.002 A 
ATOM      4  C4  N4B d   1       1.845  -1.893   0.737  0.00  0.00    -0.004 A 
ATOM      5  C5  N4B d   1       2.292  -0.710   0.224  0.00  0.00     0.002 A 
ATOM      6  C6  N4B d   1       1.408   0.289  -0.132  0.00  0.00     0.002 A 
ENDROOT
BRANCH   1   7
ATOM      7  C1' N4B d   1      -0.875   1.175  -0.446  0.00  0.00     0.057 C 
BRANCH   7   8
ATOM      8  C2' N4B d   1      -0.403   1.683  -1.805  0.00  0.00     0.009 C 
BRANCH   8   9
ATOM      9  C3' N4B d   1      -1.547   2.249  -2.628  0.00  0.00     0.004 C 
ATOM     10  C4' N4B d   1      -2.879   1.681  -2.240  0.00  0.00     0.003 C 
ENDBRANCH   8   9
ENDBRANCH   7   8
ENDBRANCH   1   7
TORSDOF 3
ENDMDL
