MODEL 1
REMARK minimizedAffinity -6.17025471
REMARK minimizedRMSD -1
REMARK  3 active torsions:
REMARK  status: ('A' for Active; 'I' for Inactive)
REMARK    1  A    between atoms: C3'_2  and  C2'_3 
REMARK    2  A    between atoms: C2'_3  and  C1'_4 
REMARK    3  A    between atoms: C1'_4  and  C1_5 
ROOT
ATOM      1  C1  N4B d   1       0.012  -0.149   0.163  0.00  0.00    -0.075 A 
ATOM      2  C2  N4B d   1       1.422  -0.081   0.130  0.00  0.00     0.002 A 
ATOM      3  C3  N4B d   1       2.171  -1.157   0.537  0.00  0.00     0.002 A 
ATOM      4  C4  N4B d   1       1.535  -2.301   0.997  0.00  0.00    -0.004 A 
ATOM      5  C5  N4B d   1       0.173  -2.368   1.001  0.00  0.00     0.002 A 
ATOM      6  C6  N4B d   1      -0.593  -1.295   0.591  0.00  0.00     0.002 A 
ENDROOT
BRANCH   1   7
ATOM      7  C1' N4B d   1      -0.849   1.033  -0.191  0.00  0.00     0.057 C 
BRANCH   7   8
ATOM      8  C2' N4B d   1      -1.779   0.649  -1.339  0.00  0.00     0.009 C 
BRANCH   8   9
ATOM      9  C3' N4B d   1      -1.889   1.755  -2.374  0.00  0.00     0.004 C 
ATOM     10  C4' N4B d   1      -2.010   1.230  -3.774  0.00  0.00     0.003 C 
ENDBRANCH   8   9
ENDBRANCH   7   8
ENDBRANCH   1   7
TORSDOF 3
ENDMDL
