MODEL 1
REMARK minimizedAffinity -3.10909891
REMARK minimizedRMSD -1
REMARK  3 active torsions:
REMARK  status: ('A' for Active; 'I' for Inactive)
REMARK    1  A    between atoms: C3'_2  and  C2'_3 
REMARK    2  A    between atoms: C2'_3  and  C1'_4 
REMARK    3  A    between atoms: C1'_4  and  C1_5 
ROOT
ATOM      1  C1  N4B d   1       0.617  -0.282  -0.340  0.00  0.00    -0.075 A 
ATOM      2  C2  N4B d   1      -0.434  -1.124   0.087  0.00  0.00     0.002 A 
ATOM      3  C3  N4B d   1      -0.161  -2.215   0.876  0.00  0.00     0.002 A 
ATOM      4  C4  N4B d   1       1.150  -2.493   1.232  0.00  0.00    -0.004 A 
ATOM      5  C5  N4B d   1       2.155  -1.660   0.837  0.00  0.00     0.002 A 
ATOM      6  C6  N4B d   1       1.896  -0.558   0.047  0.00  0.00     0.002 A 
ENDROOT
BRANCH   1   7
ATOM      7  C1' N4B d   1       0.378   0.874  -1.274  0.00  0.00     0.057 C 
BRANCH   7   8
ATOM      8  C2' N4B d   1      -1.121   1.142  -1.366  0.00  0.00     0.009 C 
BRANCH   8   9
ATOM      9  C3' N4B d   1      -1.467   2.034  -2.546  0.00  0.00     0.004 C 
ATOM     10  C4' N4B d   1      -1.745   1.258  -3.799  0.00  0.00     0.003 C 
ENDBRANCH   8   9
ENDBRANCH   7   8
ENDBRANCH   1   7
TORSDOF 3
ENDMDL
