MODEL 1
REMARK minimizedAffinity -6.91459751
REMARK minimizedRMSD -1
REMARK  3 active torsions:
REMARK  status: ('A' for Active; 'I' for Inactive)
REMARK    1  A    between atoms: C3'_2  and  C2'_3 
REMARK    2  A    between atoms: C2'_3  and  C1'_4 
REMARK    3  A    between atoms: C1'_4  and  C1_5 
ROOT
ATOM      1  C1  N4B d   1      -0.017  -0.454   0.797  0.00  0.00    -0.075 A 
ATOM      2  C2  N4B d   1       1.066  -0.904   0.011  0.00  0.00     0.002 A 
ATOM      3  C3  N4B d   1       1.723  -2.062   0.345  0.00  0.00     0.002 A 
ATOM      4  C4  N4B d   1       1.329  -2.774   1.468  0.00  0.00    -0.004 A 
ATOM      5  C5  N4B d   1       0.266  -2.347   2.208  0.00  0.00     0.002 A 
ATOM      6  C6  N4B d   1      -0.407  -1.187   1.881  0.00  0.00     0.002 A 
ENDROOT
BRANCH   1   7
ATOM      7  C1' N4B d   1      -0.712   0.851   0.521  0.00  0.00     0.057 C 
BRANCH   7   8
ATOM      8  C2' N4B d   1      -0.743   1.093  -0.985  0.00  0.00     0.009 C 
BRANCH   8   9
ATOM      9  C3' N4B d   1      -2.128   0.872  -1.568  0.00  0.00     0.004 C 
ATOM     10  C4' N4B d   1      -2.285   1.470  -2.935  0.00  0.00     0.003 C 
ENDBRANCH   8   9
ENDBRANCH   7   8
ENDBRANCH   1   7
TORSDOF 3
ENDMDL
