MODEL 1
REMARK minimizedAffinity -4.97173452
REMARK minimizedRMSD -1
REMARK  3 active torsions:
REMARK  status: ('A' for Active; 'I' for Inactive)
REMARK    1  A    between atoms: C3'_2  and  C2'_3 
REMARK    2  A    between atoms: C2'_3  and  C1'_4 
REMARK    3  A    between atoms: C1'_4  and  C1_5 
ROOT
ATOM      1  C1  N4B d   1       0.141   0.360   0.525  0.00  0.00    -0.075 A 
ATOM      2  C2  N4B d   1       1.441   0.392  -0.025  0.00  0.00     0.002 A 
ATOM      3  C3  N4B d   1       2.235  -0.728   0.025  0.00  0.00     0.002 A 
ATOM      4  C4  N4B d   1       1.758  -1.880   0.633  0.00  0.00    -0.004 A 
ATOM      5  C5  N4B d   1       0.492  -1.910   1.139  0.00  0.00     0.002 A 
ATOM      6  C6  N4B d   1      -0.318  -0.793   1.092  0.00  0.00     0.002 A 
ENDROOT
BRANCH   1   7
ATOM      7  C1' N4B d   1      -0.732   1.585   0.571  0.00  0.00     0.057 C 
BRANCH   7   8
ATOM      8  C2' N4B d   1      -0.934   2.110  -0.848  0.00  0.00     0.009 C 
BRANCH   8   9
ATOM      9  C3' N4B d   1      -2.072   1.399  -1.560  0.00  0.00     0.004 C 
ATOM     10  C4' N4B d   1      -2.219   1.826  -2.990  0.00  0.00     0.003 C 
ENDBRANCH   8   9
ENDBRANCH   7   8
ENDBRANCH   1   7
TORSDOF 3
ENDMDL
