MODEL 1
REMARK minimizedAffinity -4.76287317
REMARK minimizedRMSD -1
REMARK  3 active torsions:
REMARK  status: ('A' for Active; 'I' for Inactive)
REMARK    1  A    between atoms: C3'_2  and  C2'_3 
REMARK    2  A    between atoms: C2'_3  and  C1'_4 
REMARK    3  A    between atoms: C1'_4  and  C1_5 
ROOT
ATOM      1  C1  N4B d   1       0.363  -0.051   0.208  0.00  0.00    -0.075 A 
ATOM      2  C2  N4B d   1       1.560  -0.550  -0.352  0.00  0.00     0.002 A 
ATOM      3  C3  N4B d   1       2.174  -1.645   0.206  0.00  0.00     0.002 A 
ATOM      4  C4  N4B d   1       1.623  -2.243   1.329  0.00  0.00    -0.004 A 
ATOM      5  C5  N4B d   1       0.453  -1.770   1.847  0.00  0.00     0.002 A 
ATOM      6  C6  N4B d   1      -0.177  -0.673   1.295  0.00  0.00     0.002 A 
ENDROOT
BRANCH   1   7
ATOM      7  C1' N4B d   1      -0.298   1.195  -0.315  0.00  0.00     0.057 C 
BRANCH   7   8
ATOM      8  C2' N4B d   1      -1.351   0.807  -1.348  0.00  0.00     0.009 C 
BRANCH   8   9
ATOM      9  C3' N4B d   1      -1.944   2.023  -2.040  0.00  0.00     0.004 C 
ATOM     10  C4' N4B d   1      -2.237   1.781  -3.490  0.00  0.00     0.003 C 
ENDBRANCH   8   9
ENDBRANCH   7   8
ENDBRANCH   1   7
TORSDOF 3
ENDMDL
