MODEL 1
REMARK minimizedAffinity 1.58675301
REMARK minimizedRMSD -1
REMARK  3 active torsions:
REMARK  status: ('A' for Active; 'I' for Inactive)
REMARK    1  A    between atoms: C3'_2  and  C2'_3 
REMARK    2  A    between atoms: C2'_3  and  C1'_4 
REMARK    3  A    between atoms: C1'_4  and  C1_5 
ROOT
ATOM      1  C1  N4B d   1       0.667  -1.908  -0.023  0.00  0.00    -0.075 A 
ATOM      2  C2  N4B d   1       0.520  -0.710  -0.757  0.00  0.00     0.002 A 
ATOM      3  C3  N4B d   1       1.550   0.197  -0.803  0.00  0.00     0.002 A 
ATOM      4  C4  N4B d   1       2.723  -0.061  -0.111  0.00  0.00    -0.004 A 
ATOM      5  C5  N4B d   1       2.867  -1.232   0.575  0.00  0.00     0.002 A 
ATOM      6  C6  N4B d   1       1.841  -2.155   0.627  0.00  0.00     0.002 A 
ENDROOT
BRANCH   1   7
ATOM      7  C1' N4B d   1      -0.462  -2.891   0.128  0.00  0.00     0.057 C 
BRANCH   7   8
ATOM      8  C2' N4B d   1      -1.618  -2.217   0.862  0.00  0.00     0.009 C 
BRANCH   8   9
ATOM      9  C3' N4B d   1      -1.129  -1.221   1.900  0.00  0.00     0.004 C 
ATOM     10  C4' N4B d   1      -1.812   0.110   1.795  0.00  0.00     0.003 C 
ENDBRANCH   8   9
ENDBRANCH   7   8
ENDBRANCH   1   7
TORSDOF 3
ENDMDL
