MODEL 1
REMARK minimizedAffinity -4.35191536
REMARK minimizedRMSD -1
REMARK  3 active torsions:
REMARK  status: ('A' for Active; 'I' for Inactive)
REMARK    1  A    between atoms: C3'_2  and  C2'_3 
REMARK    2  A    between atoms: C2'_3  and  C1'_4 
REMARK    3  A    between atoms: C1'_4  and  C1_5 
ROOT
ATOM      1  C1  N4B d   1      -1.232   1.505  -1.176  0.00  0.00    -0.075 A 
ATOM      2  C2  N4B d   1      -0.545   1.951  -2.327  0.00  0.00     0.002 A 
ATOM      3  C3  N4B d   1      -1.244   2.241  -3.473  0.00  0.00     0.002 A 
ATOM      4  C4  N4B d   1      -2.620   2.076  -3.498  0.00  0.00    -0.004 A 
ATOM      5  C5  N4B d   1      -3.278   1.670  -2.375  0.00  0.00     0.002 A 
ATOM      6  C6  N4B d   1      -2.590   1.378  -1.214  0.00  0.00     0.002 A 
ENDROOT
BRANCH   1   7
ATOM      7  C1' N4B d   1      -0.502   1.093   0.073  0.00  0.00     0.057 C 
BRANCH   7   8
ATOM      8  C2' N4B d   1      -0.365  -0.426   0.096  0.00  0.00     0.009 C 
BRANCH   8   9
ATOM      9  C3' N4B d   1       0.996  -0.881  -0.402  0.00  0.00     0.004 C 
ATOM     10  C4' N4B d   1       1.581  -1.981   0.433  0.00  0.00     0.003 C 
ENDBRANCH   8   9
ENDBRANCH   7   8
ENDBRANCH   1   7
TORSDOF 3
ENDMDL
