MODEL 1
REMARK minimizedAffinity -2.41524506
REMARK minimizedRMSD -1
REMARK  3 active torsions:
REMARK  status: ('A' for Active; 'I' for Inactive)
REMARK    1  A    between atoms: C3'_2  and  C2'_3 
REMARK    2  A    between atoms: C2'_3  and  C1'_4 
REMARK    3  A    between atoms: C1'_4  and  C1_5 
ROOT
ATOM      1  C1  N4B d   1       0.084  -0.171  -0.023  0.00  0.00    -0.075 A 
ATOM      2  C2  N4B d   1       1.484  -0.063   0.121  0.00  0.00     0.002 A 
ATOM      3  C3  N4B d   1       2.250  -1.195   0.261  0.00  0.00     0.002 A 
ATOM      4  C4  N4B d   1       1.637  -2.439   0.279  0.00  0.00    -0.004 A 
ATOM      5  C5  N4B d   1       0.286  -2.536   0.113  0.00  0.00     0.002 A 
ATOM      6  C6  N4B d   1      -0.495  -1.407  -0.032  0.00  0.00     0.002 A 
ENDROOT
BRANCH   1   7
ATOM      7  C1' N4B d   1      -0.803   1.042  -0.092  0.00  0.00     0.057 C 
BRANCH   7   8
ATOM      8  C2' N4B d   1      -2.087   0.682  -0.834  0.00  0.00     0.009 C 
BRANCH   8   9
ATOM      9  C3' N4B d   1      -2.155   1.338  -2.203  0.00  0.00     0.004 C 
ATOM     10  C4' N4B d   1      -3.253   0.781  -3.059  0.00  0.00     0.003 C 
ENDBRANCH   8   9
ENDBRANCH   7   8
ENDBRANCH   1   7
TORSDOF 3
ENDMDL
