MODEL 1
REMARK minimizedAffinity -6.39447021
REMARK minimizedRMSD -1
REMARK  3 active torsions:
REMARK  status: ('A' for Active; 'I' for Inactive)
REMARK    1  A    between atoms: C3'_2  and  C2'_3 
REMARK    2  A    between atoms: C2'_3  and  C1'_4 
REMARK    3  A    between atoms: C1'_4  and  C1_5 
ROOT
ATOM      1  C1  N4B d   1      -0.158  -0.019   0.191  0.00  0.00    -0.075 A 
ATOM      2  C2  N4B d   1       1.224  -0.048  -0.100  0.00  0.00     0.002 A 
ATOM      3  C3  N4B d   1       1.949  -1.191   0.126  0.00  0.00     0.002 A 
ATOM      4  C4  N4B d   1       1.322  -2.308   0.658  0.00  0.00    -0.004 A 
ATOM      5  C5  N4B d   1      -0.018  -2.280   0.913  0.00  0.00     0.002 A 
ATOM      6  C6  N4B d   1      -0.761  -1.138   0.687  0.00  0.00     0.002 A 
ENDROOT
BRANCH   1   7
ATOM      7  C1' N4B d   1      -0.975   1.235   0.041  0.00  0.00     0.057 C 
BRANCH   7   8
ATOM      8  C2' N4B d   1      -0.966   1.667  -1.423  0.00  0.00     0.009 C 
BRANCH   8   9
ATOM      9  C3' N4B d   1      -2.338   1.536  -2.062  0.00  0.00     0.004 C 
ATOM     10  C4' N4B d   1      -2.355   0.570  -3.208  0.00  0.00     0.003 C 
ENDBRANCH   8   9
ENDBRANCH   7   8
ENDBRANCH   1   7
TORSDOF 3
ENDMDL
