MODEL 1
REMARK minimizedAffinity -5.6028924
REMARK minimizedRMSD -1
REMARK  0 active torsions:
REMARK  status: ('A' for Active; 'I' for Inactive)
ROOT
ATOM      1  C2' OXE d   1      -2.542   0.440   0.046  0.00  0.00     0.078 C 
ATOM      2  C1' OXE d   1       0.079   0.263  -0.944  0.00  0.00     0.078 C 
ATOM      3  C1  OXE d   1      -0.133   0.029   0.531  0.00  0.00    -0.078 A 
ATOM      4  C2  OXE d   1      -1.412   0.163   1.015  0.00  0.00    -0.078 A 
ATOM      5  C3  OXE d   1      -1.672  -0.096   2.358  0.00  0.00     0.003 A 
ATOM      6  C4  OXE d   1      -0.620  -0.341   3.248  0.00  0.00    -0.002 A 
ATOM      7  C5  OXE d   1       0.696  -0.443   2.783  0.00  0.00    -0.002 A 
ATOM      8  C6  OXE d   1       0.950  -0.303   1.423  0.00  0.00     0.003 A 
ENDROOT
TORSDOF 0
ENDMDL
