MODEL 1
REMARK minimizedAffinity -5.79527903
REMARK minimizedRMSD -1
REMARK  0 active torsions:
REMARK  status: ('A' for Active; 'I' for Inactive)
ROOT
ATOM      1  C2' OXE d   1       1.750   0.351   1.478  0.00  0.00     0.078 C 
ATOM      2  C1' OXE d   1       0.112   0.348  -0.801  0.00  0.00     0.078 C 
ATOM      3  C1  OXE d   1      -0.561   0.345   0.549  0.00  0.00    -0.078 A 
ATOM      4  C2  OXE d   1       0.249   0.300   1.658  0.00  0.00    -0.078 A 
ATOM      5  C3  OXE d   1      -0.319   0.351   2.928  0.00  0.00     0.003 A 
ATOM      6  C4  OXE d   1      -1.709   0.293   3.086  0.00  0.00    -0.002 A 
ATOM      7  C5  OXE d   1      -2.551   0.299   1.969  0.00  0.00    -0.002 A 
ATOM      8  C6  OXE d   1      -1.995   0.368   0.696  0.00  0.00     0.003 A 
ENDROOT
TORSDOF 0
ENDMDL
