MODEL 1
REMARK minimizedAffinity -4.22743845
REMARK minimizedRMSD -1
REMARK  0 active torsions:
REMARK  status: ('A' for Active; 'I' for Inactive)
ROOT
ATOM      1  C2' OXE d   1       1.561   1.652   0.643  0.00  0.00     0.078 C 
ATOM      2  C1' OXE d   1       0.304  -0.362  -0.854  0.00  0.00     0.078 C 
ATOM      3  C1  OXE d   1       0.030  -0.313   0.629  0.00  0.00    -0.078 A 
ATOM      4  C2  OXE d   1       0.686   0.647   1.361  0.00  0.00    -0.078 A 
ATOM      5  C3  OXE d   1       0.427   0.772   2.723  0.00  0.00     0.003 A 
ATOM      6  C4  OXE d   1      -0.376  -0.168   3.381  0.00  0.00    -0.002 A 
ATOM      7  C5  OXE d   1      -1.022  -1.178   2.660  0.00  0.00    -0.002 A 
ATOM      8  C6  OXE d   1      -0.864  -1.239   1.280  0.00  0.00     0.003 A 
ENDROOT
TORSDOF 0
ENDMDL
