MODEL 1
REMARK minimizedAffinity -5.47467136
REMARK minimizedRMSD -1
REMARK  0 active torsions:
REMARK  status: ('A' for Active; 'I' for Inactive)
ROOT
ATOM      1  C2' OXE d   1       1.557   1.810   1.207  0.00  0.00     0.078 C 
ATOM      2  C1' OXE d   1       0.265   0.263  -0.746  0.00  0.00     0.078 C 
ATOM      3  C1  OXE d   1      -0.117   0.038   0.695  0.00  0.00    -0.078 A 
ATOM      4  C2  OXE d   1       0.553   0.767   1.648  0.00  0.00    -0.078 A 
ATOM      5  C3  OXE d   1       0.201   0.638   2.988  0.00  0.00     0.003 A 
ATOM      6  C4  OXE d   1      -0.721  -0.337   3.389  0.00  0.00    -0.002 A 
ATOM      7  C5  OXE d   1      -1.387  -1.117   2.438  0.00  0.00    -0.002 A 
ATOM      8  C6  OXE d   1      -1.128  -0.913   1.087  0.00  0.00     0.003 A 
ENDROOT
TORSDOF 0
ENDMDL
