MODEL 1
REMARK minimizedAffinity -3.36565852
REMARK minimizedRMSD -1
REMARK  0 active torsions:
REMARK  status: ('A' for Active; 'I' for Inactive)
ROOT
ATOM      1  C2' OXE d   1       1.022   1.058   3.538  0.00  0.00     0.078 C 
ATOM      2  C1' OXE d   1      -0.560  -1.253   3.349  0.00  0.00     0.078 C 
ATOM      3  C1  OXE d   1      -0.120  -0.595   2.065  0.00  0.00    -0.078 A 
ATOM      4  C2  OXE d   1       0.615   0.562   2.168  0.00  0.00    -0.078 A 
ATOM      5  C3  OXE d   1       1.093   1.179   1.015  0.00  0.00     0.003 A 
ATOM      6  C4  OXE d   1       0.703   0.720  -0.249  0.00  0.00    -0.002 A 
ATOM      7  C5  OXE d   1      -0.078  -0.433  -0.375  0.00  0.00    -0.002 A 
ATOM      8  C6  OXE d   1      -0.462  -1.125   0.768  0.00  0.00     0.003 A 
ENDROOT
TORSDOF 0
ENDMDL
