MODEL 1
REMARK minimizedAffinity -1.85424793
REMARK minimizedRMSD -1
REMARK  0 active torsions:
REMARK  status: ('A' for Active; 'I' for Inactive)
ROOT
ATOM      1  C2' OXE d   1       0.933   1.218  -3.963  0.00  0.00     0.078 C 
ATOM      2  C1' OXE d   1       1.053  -1.584  -3.831  0.00  0.00     0.078 C 
ATOM      3  C1  OXE d   1       0.572  -0.842  -2.609  0.00  0.00    -0.078 A 
ATOM      4  C2  OXE d   1       0.560   0.531  -2.666  0.00  0.00    -0.078 A 
ATOM      5  C3  OXE d   1       0.073   1.262  -1.587  0.00  0.00     0.003 A 
ATOM      6  C4  OXE d   1      -0.260   0.620  -0.388  0.00  0.00    -0.002 A 
ATOM      7  C5  OXE d   1      -0.218  -0.776  -0.295  0.00  0.00    -0.002 A 
ATOM      8  C6  OXE d   1       0.154  -1.522  -1.408  0.00  0.00     0.003 A 
ENDROOT
TORSDOF 0
ENDMDL
