MODEL 1
REMARK minimizedAffinity -4.82566166
REMARK minimizedRMSD -1
REMARK  0 active torsions:
REMARK  status: ('A' for Active; 'I' for Inactive)
ROOT
ATOM      1  C2' OXE d   1      -0.014   0.290  -1.368  0.00  0.00     0.078 C 
ATOM      2  C1' OXE d   1      -2.469   0.146  -0.015  0.00  0.00     0.078 C 
ATOM      3  C1  OXE d   1      -1.207   0.041   0.804  0.00  0.00    -0.078 A 
ATOM      4  C2  OXE d   1      -0.011   0.066   0.128  0.00  0.00    -0.078 A 
ATOM      5  C3  OXE d   1       1.184   0.027   0.841  0.00  0.00     0.003 A 
ATOM      6  C4  OXE d   1       1.178  -0.191   2.224  0.00  0.00    -0.002 A 
ATOM      7  C5  OXE d   1      -0.029  -0.259   2.927  0.00  0.00    -0.002 A 
ATOM      8  C6  OXE d   1      -1.228  -0.102   2.239  0.00  0.00     0.003 A 
ENDROOT
TORSDOF 0
ENDMDL
