MODEL 1
REMARK minimizedAffinity -4.76633406
REMARK minimizedRMSD -1
REMARK  0 active torsions:
REMARK  status: ('A' for Active; 'I' for Inactive)
ROOT
ATOM      1  C2' OXE d   1       0.223   0.440  -1.420  0.00  0.00     0.078 C 
ATOM      2  C1' OXE d   1       1.936   1.621   0.465  0.00  0.00     0.078 C 
ATOM      3  C1  OXE d   1       0.966   0.575   0.954  0.00  0.00    -0.078 A 
ATOM      4  C2  OXE d   1       0.100   0.036   0.034  0.00  0.00    -0.078 A 
ATOM      5  C3  OXE d   1      -0.778  -0.973   0.421  0.00  0.00     0.003 A 
ATOM      6  C4  OXE d   1      -0.893  -1.334   1.769  0.00  0.00    -0.002 A 
ATOM      7  C5  OXE d   1      -0.048  -0.769   2.729  0.00  0.00    -0.002 A 
ATOM      8  C6  OXE d   1       0.914   0.154   2.333  0.00  0.00     0.003 A 
ENDROOT
TORSDOF 0
ENDMDL
