MODEL 1
REMARK minimizedAffinity 1.1275562
REMARK minimizedRMSD -1
REMARK  0 active torsions:
REMARK  status: ('A' for Active; 'I' for Inactive)
ROOT
ATOM      1  C2' OXE d   1       0.453   0.862  -1.478  0.00  0.00     0.078 C 
ATOM      2  C1' OXE d   1      -1.744  -0.674  -2.312  0.00  0.00     0.078 C 
ATOM      3  C1  OXE d   1      -1.522  -0.511  -0.829  0.00  0.00    -0.078 A 
ATOM      4  C2  OXE d   1      -0.418   0.203  -0.430  0.00  0.00    -0.078 A 
ATOM      5  C3  OXE d   1      -0.197   0.429   0.926  0.00  0.00     0.003 A 
ATOM      6  C4  OXE d   1      -1.001  -0.192   1.889  0.00  0.00    -0.002 A 
ATOM      7  C5  OXE d   1      -2.108  -0.956   1.503  0.00  0.00    -0.002 A 
ATOM      8  C6  OXE d   1      -2.406  -1.090   0.152  0.00  0.00     0.003 A 
ENDROOT
TORSDOF 0
ENDMDL
