MODEL 1
REMARK minimizedAffinity -5.69277048
REMARK minimizedRMSD -1
REMARK  0 active torsions:
REMARK  status: ('A' for Active; 'I' for Inactive)
ROOT
ATOM      1  C2' OXE d   1      -2.944   0.390   0.776  0.00  0.00     0.078 C 
ATOM      2  C1' OXE d   1      -1.876  -0.206   3.302  0.00  0.00     0.078 C 
ATOM      3  C1  OXE d   1      -0.915  -0.064   2.148  0.00  0.00    -0.078 A 
ATOM      4  C2  OXE d   1      -1.451   0.181   0.906  0.00  0.00    -0.078 A 
ATOM      5  C3  OXE d   1      -0.606   0.375  -0.183  0.00  0.00     0.003 A 
ATOM      6  C4  OXE d   1       0.773   0.170  -0.055  0.00  0.00    -0.002 A 
ATOM      7  C5  OXE d   1       1.335  -0.120   1.192  0.00  0.00    -0.002 A 
ATOM      8  C6  OXE d   1       0.511  -0.198   2.310  0.00  0.00     0.003 A 
ENDROOT
TORSDOF 0
ENDMDL
