MODEL 1
REMARK minimizedAffinity -4.04496336
REMARK minimizedRMSD -1
REMARK  0 active torsions:
REMARK  status: ('A' for Active; 'I' for Inactive)
ROOT
ATOM      1  C2' OXE d   1      -2.711  -0.289   0.669  0.00  0.00     0.078 C 
ATOM      2  C1' OXE d   1      -0.754  -0.540   2.666  0.00  0.00     0.078 C 
ATOM      3  C1  OXE d   1      -0.301  -0.146   1.283  0.00  0.00    -0.078 A 
ATOM      4  C2  OXE d   1      -1.259  -0.071   0.301  0.00  0.00    -0.078 A 
ATOM      5  C3  OXE d   1      -0.903   0.343  -0.980  0.00  0.00     0.003 A 
ATOM      6  C4  OXE d   1       0.443   0.533  -1.315  0.00  0.00    -0.002 A 
ATOM      7  C5  OXE d   1       1.440   0.423  -0.339  0.00  0.00    -0.002 A 
ATOM      8  C6  OXE d   1       1.081   0.127   0.971  0.00  0.00     0.003 A 
ENDROOT
TORSDOF 0
ENDMDL
