MODEL 1
REMARK minimizedAffinity -5.50763369
REMARK minimizedRMSD -1
REMARK  0 active torsions:
REMARK  status: ('A' for Active; 'I' for Inactive)
ROOT
ATOM      1  C2' OXE d   1      -0.572  -1.072   3.522  0.00  0.00     0.078 C 
ATOM      2  C1' OXE d   1       2.015  -0.004   3.310  0.00  0.00     0.078 C 
ATOM      3  C1  OXE d   1       1.177  -0.070   2.059  0.00  0.00    -0.078 A 
ATOM      4  C2  OXE d   1      -0.071  -0.637   2.162  0.00  0.00    -0.078 A 
ATOM      5  C3  OXE d   1      -0.906  -0.673   1.050  0.00  0.00     0.003 A 
ATOM      6  C4  OXE d   1      -0.431  -0.277  -0.207  0.00  0.00    -0.002 A 
ATOM      7  C5  OXE d   1       0.850   0.267  -0.342  0.00  0.00    -0.002 A 
ATOM      8  C6  OXE d   1       1.650   0.417   0.786  0.00  0.00     0.003 A 
ENDROOT
TORSDOF 0
ENDMDL
