MODEL 1
REMARK minimizedAffinity -3.83417058
REMARK minimizedRMSD -1
REMARK  0 active torsions:
REMARK  status: ('A' for Active; 'I' for Inactive)
ROOT
ATOM      1  C2' OXE d   1      -2.869  -0.289   0.929  0.00  0.00     0.078 C 
ATOM      2  C1' OXE d   1      -0.829  -0.456   2.850  0.00  0.00     0.078 C 
ATOM      3  C1  OXE d   1      -0.466   0.064   1.482  0.00  0.00    -0.078 A 
ATOM      4  C2  OXE d   1      -1.460   0.099   0.534  0.00  0.00    -0.078 A 
ATOM      5  C3  OXE d   1      -1.192   0.621  -0.728  0.00  0.00     0.003 A 
ATOM      6  C4  OXE d   1       0.116   0.968  -1.088  0.00  0.00    -0.002 A 
ATOM      7  C5  OXE d   1       1.152   0.903  -0.150  0.00  0.00    -0.002 A 
ATOM      8  C6  OXE d   1       0.870   0.494   1.149  0.00  0.00     0.003 A 
ENDROOT
TORSDOF 0
ENDMDL
