MODEL 1
REMARK minimizedAffinity -4.62902975
REMARK minimizedRMSD -1
REMARK  0 active torsions:
REMARK  status: ('A' for Active; 'I' for Inactive)
ROOT
ATOM      1  C2' OXE d   1      -2.006  -0.663   0.561  0.00  0.00     0.078 C 
ATOM      2  C1' OXE d   1      -0.727  -1.226   2.995  0.00  0.00     0.078 C 
ATOM      3  C1  OXE d   1      -0.078  -0.222   2.075  0.00  0.00    -0.078 A 
ATOM      4  C2  OXE d   1      -0.686   0.012   0.866  0.00  0.00    -0.078 A 
ATOM      5  C3  OXE d   1      -0.159   0.969   0.003  0.00  0.00     0.003 A 
ATOM      6  C4  OXE d   1       1.067   1.581   0.287  0.00  0.00    -0.002 A 
ATOM      7  C5  OXE d   1       1.724   1.327   1.496  0.00  0.00    -0.002 A 
ATOM      8  C6  OXE d   1       1.145   0.462   2.418  0.00  0.00     0.003 A 
ENDROOT
TORSDOF 0
ENDMDL
