MODEL 1
REMARK minimizedAffinity -3.59840035
REMARK minimizedRMSD -1
REMARK  0 active torsions:
REMARK  status: ('A' for Active; 'I' for Inactive)
ROOT
ATOM      1  C2' OXE d   1       2.025   1.543   0.967  0.00  0.00     0.078 C 
ATOM      2  C1' OXE d   1       0.399   0.669  -1.148  0.00  0.00     0.078 C 
ATOM      3  C1  OXE d   1      -0.051   0.363   0.258  0.00  0.00    -0.078 A 
ATOM      4  C2  OXE d   1       0.774   0.753   1.285  0.00  0.00    -0.078 A 
ATOM      5  C3  OXE d   1       0.379   0.544   2.604  0.00  0.00     0.003 A 
ATOM      6  C4  OXE d   1      -0.775  -0.196   2.889  0.00  0.00    -0.002 A 
ATOM      7  C5  OXE d   1      -1.609  -0.638   1.857  0.00  0.00    -0.002 A 
ATOM      8  C6  OXE d   1      -1.284  -0.330   0.540  0.00  0.00     0.003 A 
ENDROOT
TORSDOF 0
ENDMDL
