MODEL 1
REMARK minimizedAffinity -4.77757215
REMARK minimizedRMSD -1
REMARK  0 active torsions:
REMARK  status: ('A' for Active; 'I' for Inactive)
ROOT
ATOM      1  C2' OXE d   1      -1.984   0.322  -0.051  0.00  0.00     0.078 C 
ATOM      2  C1' OXE d   1       0.448  -0.119  -1.383  0.00  0.00     0.078 C 
ATOM      3  C1  OXE d   1       0.484   0.028   0.118  0.00  0.00    -0.078 A 
ATOM      4  C2  OXE d   1      -0.704   0.290   0.756  0.00  0.00    -0.078 A 
ATOM      5  C3  OXE d   1      -0.735   0.381   2.145  0.00  0.00     0.003 A 
ATOM      6  C4  OXE d   1       0.454   0.360   2.884  0.00  0.00    -0.002 A 
ATOM      7  C5  OXE d   1       1.680   0.134   2.249  0.00  0.00    -0.002 A 
ATOM      8  C6  OXE d   1       1.707  -0.076   0.875  0.00  0.00     0.003 A 
ENDROOT
TORSDOF 0
ENDMDL
