MODEL 1
REMARK minimizedAffinity -5.91480541
REMARK minimizedRMSD -1
REMARK  0 active torsions:
REMARK  status: ('A' for Active; 'I' for Inactive)
ROOT
ATOM      1  C2' OXE d   1      -1.888  -0.755   0.385  0.00  0.00     0.078 C 
ATOM      2  C1' OXE d   1      -1.138  -1.108   3.067  0.00  0.00     0.078 C 
ATOM      3  C1  OXE d   1      -0.170  -0.398   2.153  0.00  0.00    -0.078 A 
ATOM      4  C2  OXE d   1      -0.526  -0.271   0.832  0.00  0.00    -0.078 A 
ATOM      5  C3  OXE d   1       0.306   0.424  -0.042  0.00  0.00     0.003 A 
ATOM      6  C4  OXE d   1       1.568   0.860   0.377  0.00  0.00    -0.002 A 
ATOM      7  C5  OXE d   1       1.967   0.706   1.709  0.00  0.00    -0.002 A 
ATOM      8  C6  OXE d   1       1.094   0.118   2.618  0.00  0.00     0.003 A 
ENDROOT
TORSDOF 0
ENDMDL
