MODEL 1
REMARK minimizedAffinity -4.93443012
REMARK minimizedRMSD -1
REMARK  0 active torsions:
REMARK  status: ('A' for Active; 'I' for Inactive)
ROOT
ATOM      1  C2' OXE d   1       2.110   1.054   1.039  0.00  0.00     0.078 C 
ATOM      2  C1' OXE d   1       0.425   0.457  -1.125  0.00  0.00     0.078 C 
ATOM      3  C1  OXE d   1      -0.027   0.044   0.253  0.00  0.00    -0.078 A 
ATOM      4  C2  OXE d   1       0.825   0.299   1.301  0.00  0.00    -0.078 A 
ATOM      5  C3  OXE d   1       0.433  -0.012   2.600  0.00  0.00     0.003 A 
ATOM      6  C4  OXE d   1      -0.753  -0.719   2.832  0.00  0.00    -0.002 A 
ATOM      7  C5  OXE d   1      -1.617  -1.023   1.775  0.00  0.00    -0.002 A 
ATOM      8  C6  OXE d   1      -1.290  -0.612   0.487  0.00  0.00     0.003 A 
ENDROOT
TORSDOF 0
ENDMDL
