MODEL 1
REMARK minimizedAffinity 0.886795759
REMARK minimizedRMSD -1
REMARK  2 active torsions:
REMARK  status: ('A' for Active; 'I' for Inactive)
REMARK    1  A    between atoms: C1_2  and  C2_3 
REMARK    2  A    between atoms: C2_3  and  C3_4 
ROOT
ATOM      1  C3  UNL d   1       1.837   1.163   0.840  0.00  0.00    -0.075 A 
ATOM      2  C4  UNL d   1       2.413   0.449   1.901  0.00  0.00     0.002 A 
ATOM      3  C5  UNL d   1       1.817  -0.721   2.374  0.00  0.00     0.002 A 
ATOM      4  C6  UNL d   1       0.635  -1.184   1.801  0.00  0.00    -0.004 A 
ATOM      5  C7  UNL d   1       0.045  -0.474   0.758  0.00  0.00     0.002 A 
ATOM      6  C8  UNL d   1       0.641   0.694   0.280  0.00  0.00     0.002 A 
ENDROOT
BRANCH   1   7
ATOM      7  C2  UNL d   1       2.492   2.413   0.304  0.00  0.00     0.056 C 
BRANCH   7   8
ATOM      8  C1  UNL d   1       1.837   2.965  -0.966  0.00  0.00     0.007 C 
ATOM      9  C   UNL d   1       2.182   4.424  -1.234  0.00  0.00     0.009 C 
ENDBRANCH   7   8
ENDBRANCH   1   7
TORSDOF 2
ENDMDL
