MODEL 1
REMARK minimizedAffinity 2.87225652
REMARK minimizedRMSD -1
REMARK  2 active torsions:
REMARK  status: ('A' for Active; 'I' for Inactive)
REMARK    1  A    between atoms: C1_2  and  C2_3 
REMARK    2  A    between atoms: C2_3  and  C3_4 
ROOT
ATOM      1  C3  UNL d   1       1.248  -0.214   1.369  0.00  0.00    -0.075 A 
ATOM      2  C4  UNL d   1       0.875   0.719   0.390  0.00  0.00     0.002 A 
ATOM      3  C5  UNL d   1       1.615   1.887   0.206  0.00  0.00     0.002 A 
ATOM      4  C6  UNL d   1       2.729   2.143   1.003  0.00  0.00    -0.004 A 
ATOM      5  C7  UNL d   1       3.099   1.231   1.990  0.00  0.00     0.002 A 
ATOM      6  C8  UNL d   1       2.363   0.059   2.173  0.00  0.00     0.002 A 
ENDROOT
BRANCH   1   7
ATOM      7  C2  UNL d   1       0.469  -1.494   1.553  0.00  0.00     0.056 C 
BRANCH   7   8
ATOM      8  C1  UNL d   1      -0.950  -1.449   0.975  0.00  0.00     0.007 C 
ATOM      9  C   UNL d   1      -1.545  -2.830   0.738  0.00  0.00     0.009 C 
ENDBRANCH   7   8
ENDBRANCH   1   7
TORSDOF 2
ENDMDL
