MODEL 1
REMARK minimizedAffinity -0.273108661
REMARK minimizedRMSD -1
REMARK  2 active torsions:
REMARK  status: ('A' for Active; 'I' for Inactive)
REMARK    1  A    between atoms: C1_2  and  C2_3 
REMARK    2  A    between atoms: C2_3  and  C3_4 
ROOT
ATOM      1  C3  UNL d   1       3.579   5.976  -2.427  0.00  0.00    -0.075 A 
ATOM      2  C4  UNL d   1       3.486   5.976  -3.826  0.00  0.00     0.002 A 
ATOM      3  C5  UNL d   1       4.639   5.973  -4.613  0.00  0.00     0.002 A 
ATOM      4  C6  UNL d   1       5.896   5.982  -4.012  0.00  0.00    -0.004 A 
ATOM      5  C7  UNL d   1       6.000   5.999  -2.623  0.00  0.00     0.002 A 
ATOM      6  C8  UNL d   1       4.848   5.997  -1.834  0.00  0.00     0.002 A 
ENDROOT
BRANCH   1   7
ATOM      7  C2  UNL d   1       2.336   5.949  -1.570  0.00  0.00     0.056 C 
BRANCH   7   8
ATOM      8  C1  UNL d   1       1.559   4.631  -1.641  0.00  0.00     0.007 C 
ATOM      9  C   UNL d   1       1.893   3.675  -0.504  0.00  0.00     0.009 C 
ENDBRANCH   7   8
ENDBRANCH   1   7
TORSDOF 2
ENDMDL
