MODEL 1
REMARK minimizedAffinity -1.68041563
REMARK minimizedRMSD -1
REMARK  2 active torsions:
REMARK  status: ('A' for Active; 'I' for Inactive)
REMARK    1  A    between atoms: C1_2  and  C2_3 
REMARK    2  A    between atoms: C2_3  and  C3_4 
ROOT
ATOM      1  C3  UNL d   1       1.475   3.830  -0.697  0.00  0.00    -0.075 A 
ATOM      2  C4  UNL d   1       0.292   3.475  -0.032  0.00  0.00     0.002 A 
ATOM      3  C5  UNL d   1       0.228   2.303   0.722  0.00  0.00     0.002 A 
ATOM      4  C6  UNL d   1       1.339   1.468   0.814  0.00  0.00    -0.004 A 
ATOM      5  C7  UNL d   1       2.515   1.803   0.145  0.00  0.00     0.002 A 
ATOM      6  C8  UNL d   1       2.583   2.977  -0.607  0.00  0.00     0.002 A 
ENDROOT
BRANCH   1   7
ATOM      7  C2  UNL d   1       1.560   5.111  -1.491  0.00  0.00     0.056 C 
BRANCH   7   8
ATOM      8  C1  UNL d   1       2.871   5.880  -1.296  0.00  0.00     0.007 C 
ATOM      9  C   UNL d   1       3.720   5.949  -2.559  0.00  0.00     0.009 C 
ENDBRANCH   7   8
ENDBRANCH   1   7
TORSDOF 2
ENDMDL
