MODEL 1
REMARK minimizedAffinity 1.44616663
REMARK minimizedRMSD -1
REMARK  2 active torsions:
REMARK  status: ('A' for Active; 'I' for Inactive)
REMARK    1  A    between atoms: C1_2  and  C2_3 
REMARK    2  A    between atoms: C2_3  and  C3_4 
ROOT
ATOM      1  C3  UNL d   1       1.753  -0.531   2.083  0.00  0.00    -0.075 A 
ATOM      2  C4  UNL d   1       0.715  -0.812   1.182  0.00  0.00     0.002 A 
ATOM      3  C5  UNL d   1      -0.004  -2.003   1.278  0.00  0.00     0.002 A 
ATOM      4  C6  UNL d   1       0.310  -2.932   2.268  0.00  0.00    -0.004 A 
ATOM      5  C7  UNL d   1       1.350  -2.671   3.158  0.00  0.00     0.002 A 
ATOM      6  C8  UNL d   1       2.068  -1.478   3.067  0.00  0.00     0.002 A 
ENDROOT
BRANCH   1   7
ATOM      7  C2  UNL d   1       2.515   0.770   2.003  0.00  0.00     0.056 C 
BRANCH   7   8
ATOM      8  C1  UNL d   1       2.727   1.281   0.574  0.00  0.00     0.007 C 
ATOM      9  C   UNL d   1       1.777   2.408   0.192  0.00  0.00     0.009 C 
ENDBRANCH   7   8
ENDBRANCH   1   7
TORSDOF 2
ENDMDL
