MODEL 1
REMARK minimizedAffinity -0.162667975
REMARK minimizedRMSD -1
REMARK  2 active torsions:
REMARK  status: ('A' for Active; 'I' for Inactive)
REMARK    1  A    between atoms: C1_2  and  C2_3 
REMARK    2  A    between atoms: C2_3  and  C3_4 
ROOT
ATOM      1  C3  UNL d   1       1.836   2.220  -0.185  0.00  0.00    -0.075 A 
ATOM      2  C4  UNL d   1       0.631   1.554   0.085  0.00  0.00     0.002 A 
ATOM      3  C5  UNL d   1       0.551   0.633   1.130  0.00  0.00     0.002 A 
ATOM      4  C6  UNL d   1       1.672   0.359   1.909  0.00  0.00    -0.004 A 
ATOM      5  C7  UNL d   1       2.878   1.002   1.639  0.00  0.00     0.002 A 
ATOM      6  C8  UNL d   1       2.961   1.928   0.597  0.00  0.00     0.002 A 
ENDROOT
BRANCH   1   7
ATOM      7  C2  UNL d   1       1.922   3.240  -1.296  0.00  0.00     0.056 C 
BRANCH   7   8
ATOM      8  C1  UNL d   1       2.826   4.435  -0.976  0.00  0.00     0.007 C 
ATOM      9  C   UNL d   1       2.536   5.655  -1.840  0.00  0.00     0.009 C 
ENDBRANCH   7   8
ENDBRANCH   1   7
TORSDOF 2
ENDMDL
