MODEL 1
REMARK minimizedAffinity 1.04320157
REMARK minimizedRMSD -1
REMARK  2 active torsions:
REMARK  status: ('A' for Active; 'I' for Inactive)
REMARK    1  A    between atoms: C1_2  and  C2_3 
REMARK    2  A    between atoms: C2_3  and  C3_4 
ROOT
ATOM      1  C3  UNL d   1       1.572  -0.930   2.640  0.00  0.00    -0.075 A 
ATOM      2  C4  UNL d   1       1.289  -2.268   2.951  0.00  0.00     0.002 A 
ATOM      3  C5  UNL d   1       0.412  -3.009   2.160  0.00  0.00     0.002 A 
ATOM      4  C6  UNL d   1      -0.200  -2.422   1.054  0.00  0.00    -0.004 A 
ATOM      5  C7  UNL d   1       0.061  -1.089   0.745  0.00  0.00     0.002 A 
ATOM      6  C8  UNL d   1       0.941  -0.346   1.533  0.00  0.00     0.002 A 
ENDROOT
BRANCH   1   7
ATOM      7  C2  UNL d   1       2.542  -0.130   3.475  0.00  0.00     0.056 C 
BRANCH   7   8
ATOM      8  C1  UNL d   1       1.998   1.226   3.937  0.00  0.00     0.007 C 
ATOM      9  C   UNL d   1       2.626   2.405   3.205  0.00  0.00     0.009 C 
ENDBRANCH   7   8
ENDBRANCH   1   7
TORSDOF 2
ENDMDL
