MODEL 1
REMARK minimizedAffinity 0.710437536
REMARK minimizedRMSD -1
REMARK  2 active torsions:
REMARK  status: ('A' for Active; 'I' for Inactive)
REMARK    1  A    between atoms: C1_2  and  C2_3 
REMARK    2  A    between atoms: C2_3  and  C3_4 
ROOT
ATOM      1  C3  UNL d   1       1.123  -1.533   2.863  0.00  0.00    -0.075 A 
ATOM      2  C4  UNL d   1       1.209  -1.613   1.466  0.00  0.00     0.002 A 
ATOM      3  C5  UNL d   1       1.561  -0.493   0.712  0.00  0.00     0.002 A 
ATOM      4  C6  UNL d   1       1.821   0.721   1.343  0.00  0.00    -0.004 A 
ATOM      5  C7  UNL d   1       1.722   0.817   2.730  0.00  0.00     0.002 A 
ATOM      6  C8  UNL d   1       1.374  -0.303   3.487  0.00  0.00     0.002 A 
ENDROOT
BRANCH   1   7
ATOM      7  C2  UNL d   1       0.771  -2.748   3.687  0.00  0.00     0.056 C 
BRANCH   7   8
ATOM      8  C1  UNL d   1       1.753  -3.914   3.529  0.00  0.00     0.007 C 
ATOM      9  C   UNL d   1       3.059  -3.706   4.283  0.00  0.00     0.009 C 
ENDBRANCH   7   8
ENDBRANCH   1   7
TORSDOF 2
ENDMDL
