MODEL 1
REMARK minimizedAffinity -2.46729684
REMARK minimizedRMSD -1
REMARK  0 active torsions:
REMARK  status: ('A' for Active; 'I' for Inactive)
ROOT
ATOM      1  C   UNL d   1       5.930  -0.028  -5.997  0.00  0.00     0.172 C 
ATOM      2  N   UNL d   1       5.143  -1.215  -5.757  0.00  0.00    -0.070 N 
ATOM      3  C1  UNL d   1       3.797  -1.338  -5.980  0.00  0.00    -0.004 A 
ATOM      4  C2  UNL d   1       3.427  -2.618  -5.629  0.00  0.00    -0.047 A 
ATOM      5  C3  UNL d   1       4.590  -3.287  -5.178  0.00  0.00    -0.047 A 
ATOM      6  C4  UNL d   1       5.637  -2.395  -5.268  0.00  0.00    -0.004 A 
ENDROOT
TORSDOF 0
ENDMDL
