MODEL 1
REMARK minimizedAffinity -2.31500793
REMARK minimizedRMSD -1
REMARK  0 active torsions:
REMARK  status: ('A' for Active; 'I' for Inactive)
ROOT
ATOM      1  C   UNL d   1       5.962  -3.148  -4.464  0.00  0.00     0.172 C 
ATOM      2  N   UNL d   1       5.006  -4.159  -4.854  0.00  0.00    -0.070 N 
ATOM      3  C1  UNL d   1       4.253  -4.146  -5.997  0.00  0.00    -0.004 A 
ATOM      4  C2  UNL d   1       3.471  -5.281  -5.999  0.00  0.00    -0.047 A 
ATOM      5  C3  UNL d   1       3.764  -6.000  -4.816  0.00  0.00    -0.047 A 
ATOM      6  C4  UNL d   1       4.718  -5.282  -4.125  0.00  0.00    -0.004 A 
ENDROOT
TORSDOF 0
ENDMDL
