MODEL 1
REMARK minimizedAffinity -2.71237278
REMARK minimizedRMSD -1
REMARK  0 active torsions:
REMARK  status: ('A' for Active; 'I' for Inactive)
ROOT
ATOM      1  C   UNL d   1       4.608  -5.613  -5.725  0.00  0.00     0.172 C 
ATOM      2  N   UNL d   1       4.579  -4.172  -5.630  0.00  0.00    -0.070 N 
ATOM      3  C1  UNL d   1       5.646  -3.337  -5.825  0.00  0.00    -0.004 A 
ATOM      4  C2  UNL d   1       5.208  -2.043  -5.645  0.00  0.00    -0.047 A 
ATOM      5  C3  UNL d   1       3.830  -2.102  -5.330  0.00  0.00    -0.047 A 
ATOM      6  C4  UNL d   1       3.466  -3.433  -5.327  0.00  0.00    -0.004 A 
ENDROOT
TORSDOF 0
ENDMDL
