MODEL 1
REMARK minimizedAffinity -2.84956598
REMARK minimizedRMSD -1
REMARK  0 active torsions:
REMARK  status: ('A' for Active; 'I' for Inactive)
ROOT
ATOM      1  C   UNL d   1       4.876   0.750  -5.960  0.00  0.00     0.172 C 
ATOM      2  N   UNL d   1       5.001  -0.570  -5.389  0.00  0.00    -0.070 N 
ATOM      3  C1  UNL d   1       5.998  -0.985  -4.547  0.00  0.00    -0.004 A 
ATOM      4  C2  UNL d   1       5.759  -2.304  -4.227  0.00  0.00    -0.047 A 
ATOM      5  C3  UNL d   1       4.578  -2.696  -4.900  0.00  0.00    -0.047 A 
ATOM      6  C4  UNL d   1       4.129  -1.603  -5.612  0.00  0.00    -0.004 A 
ENDROOT
TORSDOF 0
ENDMDL
