MODEL 1
REMARK minimizedAffinity -2.89351082
REMARK minimizedRMSD -1
REMARK  0 active torsions:
REMARK  status: ('A' for Active; 'I' for Inactive)
ROOT
ATOM      1  C   UNL d   1       5.964  -5.352  -3.498  0.00  0.00     0.172 C 
ATOM      2  N   UNL d   1       5.231  -4.302  -4.166  0.00  0.00    -0.070 N 
ATOM      3  C1  UNL d   1       5.336  -2.962  -3.901  0.00  0.00    -0.004 A 
ATOM      4  C2  UNL d   1       4.478  -2.296  -4.749  0.00  0.00    -0.047 A 
ATOM      5  C3  UNL d   1       3.834  -3.268  -5.550  0.00  0.00    -0.047 A 
ATOM      6  C4  UNL d   1       4.319  -4.501  -5.168  0.00  0.00    -0.004 A 
ENDROOT
TORSDOF 0
ENDMDL
