MODEL 1
REMARK minimizedAffinity 6.25326824
REMARK minimizedRMSD -1
REMARK  1 active torsions:
REMARK  status: ('A' for Active; 'I' for Inactive)
REMARK    1  A    between atoms: C3_4  and  O_7 
ROOT
ATOM      1  C   UNL d   1      -0.069   2.725  -0.525  0.00  0.00    -0.033 A 
ATOM      2  C1  UNL d   1      -1.403   2.685  -0.115  0.00  0.00     0.039 A 
ATOM      3  C2  UNL d   1      -2.412   2.415  -1.042  0.00  0.00    -0.080 A 
ATOM      4  C3  UNL d   1      -2.075   2.187  -2.373  0.00  0.00     0.150 A 
ATOM      5  C4  UNL d   1      -0.747   2.221  -2.787  0.00  0.00    -0.007 A 
ATOM      6  C5  UNL d   1       0.259   2.491  -1.861  0.00  0.00     0.039 A 
ENDROOT
BRANCH   4   7
ATOM      7  O   UNL d   1      -3.025   1.925  -3.314  0.00  0.00    -0.526 OA
ATOM      8  H5  UNL d   1      -3.898   1.961  -2.889  0.00  0.00     0.418 HD
ENDBRANCH   4   7
TORSDOF 1
ENDMDL
