MODEL 1
REMARK minimizedAffinity 8.6566906
REMARK minimizedRMSD -1
REMARK  1 active torsions:
REMARK  status: ('A' for Active; 'I' for Inactive)
REMARK    1  A    between atoms: C3_4  and  O_7 
ROOT
ATOM      1  C   UNL d   1      -0.684   4.958  -4.310  0.00  0.00    -0.033 A 
ATOM      2  C1  UNL d   1      -0.155   3.823  -3.691  0.00  0.00     0.039 A 
ATOM      3  C2  UNL d   1      -1.009   2.840  -3.186  0.00  0.00    -0.080 A 
ATOM      4  C3  UNL d   1      -2.386   3.003  -3.307  0.00  0.00     0.150 A 
ATOM      5  C4  UNL d   1      -2.919   4.129  -3.926  0.00  0.00    -0.007 A 
ATOM      6  C5  UNL d   1      -2.065   5.110  -4.429  0.00  0.00     0.039 A 
ENDROOT
BRANCH   4   7
ATOM      7  O   UNL d   1      -3.258   2.073  -2.825  0.00  0.00    -0.526 OA
ATOM      8  H5  UNL d   1      -2.748   1.365  -2.398  0.00  0.00     0.418 HD
ENDBRANCH   4   7
TORSDOF 1
ENDMDL
