MODEL 1
REMARK minimizedAffinity 15.6303024
REMARK minimizedRMSD -1
REMARK  1 active torsions:
REMARK  status: ('A' for Active; 'I' for Inactive)
REMARK    1  A    between atoms: C3_4  and  O_7 
ROOT
ATOM      1  C   UNL d   1      -0.873   2.353   1.406  0.00  0.00    -0.033 A 
ATOM      2  C1  UNL d   1      -0.729   2.327   2.794  0.00  0.00     0.039 A 
ATOM      3  C2  UNL d   1       0.534   2.478   3.370  0.00  0.00    -0.080 A 
ATOM      4  C3  UNL d   1       1.643   2.654   2.547  0.00  0.00     0.150 A 
ATOM      5  C4  UNL d   1       1.506   2.685   1.163  0.00  0.00    -0.007 A 
ATOM      6  C5  UNL d   1       0.244   2.533   0.590  0.00  0.00     0.039 A 
ENDROOT
BRANCH   4   7
ATOM      7  O   UNL d   1       2.897   2.801   3.062  0.00  0.00    -0.526 OA
ATOM      8  H5  UNL d   1       2.842   2.730   4.030  0.00  0.00     0.418 HD
ENDBRANCH   4   7
TORSDOF 1
ENDMDL
