MODEL 1
REMARK minimizedAffinity 2.59703207
REMARK minimizedRMSD -1
REMARK  1 active torsions:
REMARK  status: ('A' for Active; 'I' for Inactive)
REMARK    1  A    between atoms: C3_4  and  O_7 
ROOT
ATOM      1  C   UNL d   1      -2.105  -1.235  -1.242  0.00  0.00    -0.033 A 
ATOM      2  C1  UNL d   1      -0.740  -1.027  -1.448  0.00  0.00     0.039 A 
ATOM      3  C2  UNL d   1      -0.265   0.250  -1.754  0.00  0.00    -0.080 A 
ATOM      4  C3  UNL d   1      -1.164   1.309  -1.850  0.00  0.00     0.150 A 
ATOM      5  C4  UNL d   1      -2.525   1.109  -1.642  0.00  0.00    -0.007 A 
ATOM      6  C5  UNL d   1      -2.998  -0.166  -1.338  0.00  0.00     0.039 A 
ENDROOT
BRANCH   4   7
ATOM      7  O   UNL d   1      -0.748   2.572  -2.151  0.00  0.00    -0.526 OA
ATOM      8  H5  UNL d   1       0.213   2.553  -2.296  0.00  0.00     0.418 HD
ENDBRANCH   4   7
TORSDOF 1
ENDMDL
