MODEL 1
REMARK minimizedAffinity 10.6691132
REMARK minimizedRMSD -1
REMARK  1 active torsions:
REMARK  status: ('A' for Active; 'I' for Inactive)
REMARK    1  A    between atoms: C3_4  and  O_7 
ROOT
ATOM      1  C   UNL d   1       3.749  -6.000  -1.562  0.00  0.00    -0.033 A 
ATOM      2  C1  UNL d   1       4.835  -5.275  -1.067  0.00  0.00     0.039 A 
ATOM      3  C2  UNL d   1       4.649  -3.977  -0.588  0.00  0.00    -0.080 A 
ATOM      4  C3  UNL d   1       3.375  -3.416  -0.607  0.00  0.00     0.150 A 
ATOM      5  C4  UNL d   1       2.288  -4.135  -1.095  0.00  0.00    -0.007 A 
ATOM      6  C5  UNL d   1       2.475  -5.430  -1.574  0.00  0.00     0.039 A 
ENDROOT
BRANCH   4   7
ATOM      7  O   UNL d   1       3.146  -2.151  -0.154  0.00  0.00    -0.526 OA
ATOM      8  H5  UNL d   1       3.993  -1.766   0.125  0.00  0.00     0.418 HD
ENDBRANCH   4   7
TORSDOF 1
ENDMDL
