MODEL 1
REMARK minimizedAffinity 9.02453327
REMARK minimizedRMSD -1
REMARK  0 active torsions:
REMARK  status: ('A' for Active; 'I' for Inactive)
ROOT
ATOM      1  C   UNL d   1       1.559   0.307   0.344  0.00  0.00     0.023 A 
ATOM      2  C1  UNL d   1       2.120   0.036  -0.904  0.00  0.00     0.003 A 
ATOM      3  C2  UNL d   1       3.237   0.751  -1.340  0.00  0.00     0.048 A 
ATOM      4  C3  UNL d   1       3.790   1.736  -0.521  0.00  0.00     0.023 A 
ATOM      5  C4  UNL d   1       3.233   2.010   0.729  0.00  0.00     0.048 A 
ATOM      6  C5  UNL d   1       2.115   1.293   1.159  0.00  0.00     0.003 A 
ATOM      7  I   UNL d   1       5.453   2.801  -1.167  0.00  0.00    -0.146 I 
ENDROOT
TORSDOF 0
ENDMDL
