MODEL 1
REMARK minimizedAffinity 8.24615192
REMARK minimizedRMSD -1
REMARK  0 active torsions:
REMARK  status: ('A' for Active; 'I' for Inactive)
ROOT
ATOM      1  C   UNL d   1       1.696   0.515  -3.644  0.00  0.00     0.023 A 
ATOM      2  C1  UNL d   1       0.773   1.460  -3.197  0.00  0.00     0.003 A 
ATOM      3  C2  UNL d   1       0.753   1.837  -1.853  0.00  0.00     0.048 A 
ATOM      4  C3  UNL d   1       1.660   1.265  -0.961  0.00  0.00     0.023 A 
ATOM      5  C4  UNL d   1       2.586   0.320  -1.404  0.00  0.00     0.048 A 
ATOM      6  C5  UNL d   1       2.602  -0.054  -2.749  0.00  0.00     0.003 A 
ATOM      7  I   UNL d   1       1.633   1.825   1.040  0.00  0.00    -0.146 I 
ENDROOT
TORSDOF 0
ENDMDL
