MODEL 1
REMARK minimizedAffinity 10.8186884
REMARK minimizedRMSD -1
REMARK  0 active torsions:
REMARK  status: ('A' for Active; 'I' for Inactive)
ROOT
ATOM      1  C   UNL d   1       2.838  -0.650  -2.312  0.00  0.00     0.023 A 
ATOM      2  C1  UNL d   1       3.292   0.619  -2.673  0.00  0.00     0.003 A 
ATOM      3  C2  UNL d   1       2.377   1.638  -2.946  0.00  0.00     0.048 A 
ATOM      4  C3  UNL d   1       1.009   1.382  -2.854  0.00  0.00     0.023 A 
ATOM      5  C4  UNL d   1       0.550   0.115  -2.492  0.00  0.00     0.048 A 
ATOM      6  C5  UNL d   1       1.469  -0.901  -2.221  0.00  0.00     0.003 A 
ATOM      7  I   UNL d   1      -0.355   2.897  -3.258  0.00  0.00    -0.146 I 
ENDROOT
TORSDOF 0
ENDMDL
