MODEL 1
REMARK minimizedAffinity 13.7564859
REMARK minimizedRMSD -1
REMARK  0 active torsions:
REMARK  status: ('A' for Active; 'I' for Inactive)
ROOT
ATOM      1  C   UNL d   1       3.370   2.029   0.790  0.00  0.00     0.023 A 
ATOM      2  C1  UNL d   1       3.029   2.733   1.945  0.00  0.00     0.003 A 
ATOM      3  C2  UNL d   1       1.703   2.756   2.384  0.00  0.00     0.048 A 
ATOM      4  C3  UNL d   1       0.725   2.071   1.664  0.00  0.00     0.023 A 
ATOM      5  C4  UNL d   1       1.062   1.365   0.508  0.00  0.00     0.048 A 
ATOM      6  C5  UNL d   1       2.389   1.346   0.072  0.00  0.00     0.003 A 
ATOM      7  I   UNL d   1      -1.249   2.103   2.315  0.00  0.00    -0.146 I 
ENDROOT
TORSDOF 0
ENDMDL
