MODEL 1
REMARK minimizedAffinity 8.9939003
REMARK minimizedRMSD -1
REMARK  0 active torsions:
REMARK  status: ('A' for Active; 'I' for Inactive)
ROOT
ATOM      1  C   UNL d   1       2.077   2.117   1.992  0.00  0.00     0.023 A 
ATOM      2  C1  UNL d   1       3.316   2.386   1.409  0.00  0.00     0.003 A 
ATOM      3  C2  UNL d   1       3.621   1.872   0.148  0.00  0.00     0.048 A 
ATOM      4  C3  UNL d   1       2.684   1.091  -0.526  0.00  0.00     0.023 A 
ATOM      5  C4  UNL d   1       1.443   0.819   0.053  0.00  0.00     0.048 A 
ATOM      6  C5  UNL d   1       1.142   1.334   1.315  0.00  0.00     0.003 A 
ATOM      7  I   UNL d   1       3.136   0.324  -2.405  0.00  0.00    -0.146 I 
ENDROOT
TORSDOF 0
ENDMDL
