MODEL 1
REMARK minimizedAffinity 11.5832291
REMARK minimizedRMSD -1
REMARK  0 active torsions:
REMARK  status: ('A' for Active; 'I' for Inactive)
ROOT
ATOM      1  C   UNL d   1       2.555  -0.117  -3.763  0.00  0.00     0.023 A 
ATOM      2  C1  UNL d   1       1.465   0.713  -3.501  0.00  0.00     0.003 A 
ATOM      3  C2  UNL d   1       1.200   1.126  -2.194  0.00  0.00     0.048 A 
ATOM      4  C3  UNL d   1       2.029   0.707  -1.154  0.00  0.00     0.023 A 
ATOM      5  C4  UNL d   1       3.121  -0.123  -1.412  0.00  0.00     0.048 A 
ATOM      6  C5  UNL d   1       3.382  -0.534  -2.720  0.00  0.00     0.003 A 
ATOM      7  I   UNL d   1       1.636   1.321   0.792  0.00  0.00    -0.146 I 
ENDROOT
TORSDOF 0
ENDMDL
