MODEL 1
REMARK minimizedAffinity 1.51035011
REMARK minimizedRMSD -1
REMARK  0 active torsions:
REMARK  status: ('A' for Active; 'I' for Inactive)
ROOT
ATOM      1  C   UNL d   1       0.669   1.036   1.062  0.00  0.00     0.023 A 
ATOM      2  C1  UNL d   1       0.298   2.036   1.962  0.00  0.00     0.003 A 
ATOM      3  C2  UNL d   1       1.264   2.889   2.499  0.00  0.00     0.048 A 
ATOM      4  C3  UNL d   1       2.601   2.737   2.131  0.00  0.00     0.023 A 
ATOM      5  C4  UNL d   1       2.977   1.739   1.231  0.00  0.00     0.048 A 
ATOM      6  C5  UNL d   1       2.007   0.888   0.697  0.00  0.00     0.003 A 
ATOM      7  I   UNL d   1       4.041   4.005   2.928  0.00  0.00    -0.146 I 
ENDROOT
TORSDOF 0
ENDMDL
