MODEL 1
REMARK minimizedAffinity 9.68342876
REMARK minimizedRMSD -1
REMARK  0 active torsions:
REMARK  status: ('A' for Active; 'I' for Inactive)
ROOT
ATOM      1  C   UNL d   1       1.388   2.330   3.073  0.00  0.00     0.023 A 
ATOM      2  C1  UNL d   1       2.683   2.109   2.603  0.00  0.00     0.003 A 
ATOM      3  C2  UNL d   1       2.882   1.478   1.374  0.00  0.00     0.048 A 
ATOM      4  C3  UNL d   1       1.783   1.071   0.619  0.00  0.00     0.023 A 
ATOM      5  C4  UNL d   1       0.485   1.291   1.085  0.00  0.00     0.048 A 
ATOM      6  C5  UNL d   1       0.291   1.922   2.315  0.00  0.00     0.003 A 
ATOM      7  I   UNL d   1       2.077   0.132  -1.212  0.00  0.00    -0.146 I 
ENDROOT
TORSDOF 0
ENDMDL
