MODEL 1
REMARK minimizedAffinity 6.58798027
REMARK minimizedRMSD -1
REMARK  0 active torsions:
REMARK  status: ('A' for Active; 'I' for Inactive)
ROOT
ATOM      1  C   UNL d   1       2.524   2.220   2.558  0.00  0.00     0.023 A 
ATOM      2  C1  UNL d   1       3.651   2.551   1.806  0.00  0.00     0.003 A 
ATOM      3  C2  UNL d   1       3.790   2.068   0.504  0.00  0.00     0.048 A 
ATOM      4  C3  UNL d   1       2.797   1.254  -0.041  0.00  0.00     0.023 A 
ATOM      5  C4  UNL d   1       1.667   0.921   0.707  0.00  0.00     0.048 A 
ATOM      6  C5  UNL d   1       1.533   1.406   2.010  0.00  0.00     0.003 A 
ATOM      7  I   UNL d   1       3.001   0.533  -1.980  0.00  0.00    -0.146 I 
ENDROOT
TORSDOF 0
ENDMDL
