MODEL 1
REMARK minimizedAffinity 8.20211506
REMARK minimizedRMSD -1
REMARK  0 active torsions:
REMARK  status: ('A' for Active; 'I' for Inactive)
ROOT
ATOM      1  C   UNL d   1      -4.135   0.843   1.126  0.00  0.00     0.023 A 
ATOM      2  C1  UNL d   1      -5.456   0.979   0.699  0.00  0.00     0.003 A 
ATOM      3  C2  UNL d   1      -5.992   2.249   0.477  0.00  0.00     0.048 A 
ATOM      4  C3  UNL d   1      -5.201   3.379   0.684  0.00  0.00     0.023 A 
ATOM      5  C4  UNL d   1      -3.879   3.248   1.111  0.00  0.00     0.048 A 
ATOM      6  C5  UNL d   1      -3.347   1.976   1.332  0.00  0.00     0.003 A 
ATOM      7  I   UNL d   1      -5.997   5.270   0.354  0.00  0.00    -0.146 I 
ENDROOT
TORSDOF 0
ENDMDL
