MODEL 1
REMARK minimizedAffinity 6.29593801
REMARK minimizedRMSD -1
REMARK  0 active torsions:
REMARK  status: ('A' for Active; 'I' for Inactive)
ROOT
ATOM      1  C   UNL d   1       1.801  -0.105  -0.022  0.00  0.00     0.023 A 
ATOM      2  C1  UNL d   1       2.078   0.763   1.034  0.00  0.00     0.003 A 
ATOM      3  C2  UNL d   1       3.080   1.728   0.903  0.00  0.00     0.048 A 
ATOM      4  C3  UNL d   1       3.800   1.819  -0.288  0.00  0.00     0.023 A 
ATOM      5  C4  UNL d   1       3.525   0.953  -1.348  0.00  0.00     0.048 A 
ATOM      6  C5  UNL d   1       2.523  -0.010  -1.212  0.00  0.00     0.003 A 
ATOM      7  I   UNL d   1       5.291   3.253  -0.486  0.00  0.00    -0.146 I 
ENDROOT
TORSDOF 0
ENDMDL
