MODEL 1
REMARK minimizedAffinity 10.9609966
REMARK minimizedRMSD -1
REMARK  0 active torsions:
REMARK  status: ('A' for Active; 'I' for Inactive)
ROOT
ATOM      1  C   UNL d   1       3.237   0.572   0.148  0.00  0.00     0.023 A 
ATOM      2  C1  UNL d   1       2.129  -0.059  -0.417  0.00  0.00     0.003 A 
ATOM      3  C2  UNL d   1       0.844   0.234   0.046  0.00  0.00     0.048 A 
ATOM      4  C3  UNL d   1       0.675   1.161   1.074  0.00  0.00     0.023 A 
ATOM      5  C4  UNL d   1       1.781   1.796   1.642  0.00  0.00     0.048 A 
ATOM      6  C5  UNL d   1       3.063   1.499   1.176  0.00  0.00     0.003 A 
ATOM      7  I   UNL d   1      -1.235   1.601   1.764  0.00  0.00    -0.146 I 
ENDROOT
TORSDOF 0
ENDMDL
