MODEL 1
REMARK minimizedAffinity 10.964529
REMARK minimizedRMSD -1
REMARK  0 active torsions:
REMARK  status: ('A' for Active; 'I' for Inactive)
ROOT
ATOM      1  C   UNL d   1       2.688  -0.401  -3.463  0.00  0.00     0.023 A 
ATOM      2  C1  UNL d   1       3.408  -0.731  -2.315  0.00  0.00     0.003 A 
ATOM      3  C2  UNL d   1       3.019  -0.223  -1.074  0.00  0.00     0.048 A 
ATOM      4  C3  UNL d   1       1.908   0.615  -0.988  0.00  0.00     0.023 A 
ATOM      5  C4  UNL d   1       1.183   0.947  -2.133  0.00  0.00     0.048 A 
ATOM      6  C5  UNL d   1       1.576   0.437  -3.372  0.00  0.00     0.003 A 
ATOM      7  I   UNL d   1       1.327   1.372   0.858  0.00  0.00    -0.146 I 
ENDROOT
TORSDOF 0
ENDMDL
