MODEL 1
REMARK minimizedAffinity 8.04489326
REMARK minimizedRMSD -1
REMARK  0 active torsions:
REMARK  status: ('A' for Active; 'I' for Inactive)
ROOT
ATOM      1  C   UNL d   1      -1.887   2.652   3.013  0.00  0.00     0.023 A 
ATOM      2  C1  UNL d   1      -0.718   2.308   3.692  0.00  0.00     0.003 A 
ATOM      3  C2  UNL d   1       0.380   1.812   2.987  0.00  0.00     0.048 A 
ATOM      4  C3  UNL d   1       0.303   1.663   1.603  0.00  0.00     0.023 A 
ATOM      5  C4  UNL d   1      -0.865   2.006   0.919  0.00  0.00     0.048 A 
ATOM      6  C5  UNL d   1      -1.960   2.502   1.629  0.00  0.00     0.003 A 
ATOM      7  I   UNL d   1       1.936   0.924   0.551  0.00  0.00    -0.146 I 
ENDROOT
TORSDOF 0
ENDMDL
