MODEL 1
REMARK minimizedAffinity 8.49795437
REMARK minimizedRMSD -1
REMARK  0 active torsions:
REMARK  status: ('A' for Active; 'I' for Inactive)
ROOT
ATOM      1  C   UNL d   1       3.200  -1.499  -1.233  0.00  0.00     0.023 A 
ATOM      2  C1  UNL d   1       2.741  -0.317  -1.815  0.00  0.00     0.003 A 
ATOM      3  C2  UNL d   1       1.978   0.580  -1.065  0.00  0.00     0.048 A 
ATOM      4  C3  UNL d   1       1.679   0.290   0.265  0.00  0.00     0.023 A 
ATOM      5  C4  UNL d   1       2.136  -0.891   0.852  0.00  0.00     0.048 A 
ATOM      6  C5  UNL d   1       2.898  -1.786   0.098  0.00  0.00     0.003 A 
ATOM      7  I   UNL d   1       0.543   1.625   1.383  0.00  0.00    -0.146 I 
ENDROOT
TORSDOF 0
ENDMDL
