MODEL 1
REMARK minimizedAffinity 7.32676506
REMARK minimizedRMSD -1
REMARK  0 active torsions:
REMARK  status: ('A' for Active; 'I' for Inactive)
ROOT
ATOM      1  C   UNL d   1       1.498   0.859  -4.146  0.00  0.00     0.023 A 
ATOM      2  C1  UNL d   1       2.263  -0.051  -3.416  0.00  0.00     0.003 A 
ATOM      3  C2  UNL d   1       2.354   0.066  -2.028  0.00  0.00     0.048 A 
ATOM      4  C3  UNL d   1       1.677   1.096  -1.375  0.00  0.00     0.023 A 
ATOM      5  C4  UNL d   1       0.910   2.009  -2.102  0.00  0.00     0.048 A 
ATOM      6  C5  UNL d   1       0.822   1.887  -3.490  0.00  0.00     0.003 A 
ATOM      7  I   UNL d   1       1.810   1.274   0.691  0.00  0.00    -0.146 I 
ENDROOT
TORSDOF 0
ENDMDL
