MODEL 1
REMARK minimizedAffinity 8.16890907
REMARK minimizedRMSD -1
REMARK  0 active torsions:
REMARK  status: ('A' for Active; 'I' for Inactive)
ROOT
ATOM      1  C   UNL d   1       2.452  -1.176  -1.283  0.00  0.00     0.023 A 
ATOM      2  C1  UNL d   1       2.419   0.172  -1.641  0.00  0.00     0.003 A 
ATOM      3  C2  UNL d   1       1.774   1.098  -0.819  0.00  0.00     0.048 A 
ATOM      4  C3  UNL d   1       1.165   0.670   0.360  0.00  0.00     0.023 A 
ATOM      5  C4  UNL d   1       1.196  -0.678   0.723  0.00  0.00     0.048 A 
ATOM      6  C5  UNL d   1       1.841  -1.600  -0.103  0.00  0.00     0.003 A 
ATOM      7  I   UNL d   1       0.205   2.047   1.586  0.00  0.00    -0.146 I 
ENDROOT
TORSDOF 0
ENDMDL
