MODEL 1
REMARK minimizedAffinity -2.484483
REMARK minimizedRMSD -1
REMARK  0 active torsions:
REMARK  status: ('A' for Active; 'I' for Inactive)
ROOT
ATOM      1  C   UNL d   1       1.050  -1.643   0.622  0.00  0.00     0.023 A 
ATOM      2  C1  UNL d   1      -0.280  -1.245   0.491  0.00  0.00     0.003 A 
ATOM      3  C2  UNL d   1      -0.592   0.103   0.300  0.00  0.00     0.048 A 
ATOM      4  C3  UNL d   1       0.432   1.047   0.241  0.00  0.00     0.023 A 
ATOM      5  C4  UNL d   1       1.765   0.654   0.371  0.00  0.00     0.048 A 
ATOM      6  C5  UNL d   1       2.072  -0.695   0.562  0.00  0.00     0.003 A 
ATOM      7  I   UNL d   1      -0.029   3.054  -0.043  0.00  0.00    -0.146 I 
ENDROOT
TORSDOF 0
ENDMDL
