MODEL 1
REMARK minimizedAffinity -5.16942501
REMARK minimizedRMSD -1
REMARK  0 active torsions:
REMARK  status: ('A' for Active; 'I' for Inactive)
ROOT
ATOM      1  C   UNL d   1       0.957  -1.413   0.402  0.00  0.00     0.023 A 
ATOM      2  C1  UNL d   1       2.068  -0.570   0.360  0.00  0.00     0.003 A 
ATOM      3  C2  UNL d   1       1.895   0.814   0.303  0.00  0.00     0.048 A 
ATOM      4  C3  UNL d   1       0.607   1.349   0.289  0.00  0.00     0.023 A 
ATOM      5  C4  UNL d   1      -0.508   0.510   0.331  0.00  0.00     0.048 A 
ATOM      6  C5  UNL d   1      -0.329  -0.873   0.387  0.00  0.00     0.003 A 
ATOM      7  I   UNL d   1       0.346   3.409   0.204  0.00  0.00    -0.146 I 
ENDROOT
TORSDOF 0
ENDMDL
