MODEL 1
REMARK minimizedAffinity -4.53761673
REMARK minimizedRMSD -1
REMARK  0 active torsions:
REMARK  status: ('A' for Active; 'I' for Inactive)
ROOT
ATOM      1  C   UNL d   1       0.490   3.150   0.265  0.00  0.00     0.023 A 
ATOM      2  C1  UNL d   1       1.386   2.399  -0.497  0.00  0.00     0.003 A 
ATOM      3  C2  UNL d   1       1.178   1.029  -0.671  0.00  0.00     0.048 A 
ATOM      4  C3  UNL d   1       0.072   0.417  -0.082  0.00  0.00     0.023 A 
ATOM      5  C4  UNL d   1      -0.827   1.165   0.680  0.00  0.00     0.048 A 
ATOM      6  C5  UNL d   1      -0.615   2.534   0.852  0.00  0.00     0.003 A 
ATOM      7  I   UNL d   1      -0.239  -1.622  -0.340  0.00  0.00    -0.146 I 
ENDROOT
TORSDOF 0
ENDMDL
