MODEL 1
REMARK minimizedAffinity -4.48196888
REMARK minimizedRMSD -1
REMARK  0 active torsions:
REMARK  status: ('A' for Active; 'I' for Inactive)
ROOT
ATOM      1  C   UNL d   1      -0.276   2.809   0.351  0.00  0.00     0.023 A 
ATOM      2  C1  UNL d   1       0.855   2.313  -0.297  0.00  0.00     0.003 A 
ATOM      3  C2  UNL d   1       0.972   0.945  -0.551  0.00  0.00     0.048 A 
ATOM      4  C3  UNL d   1      -0.047   0.078  -0.155  0.00  0.00     0.023 A 
ATOM      5  C4  UNL d   1      -1.181   0.571   0.494  0.00  0.00     0.048 A 
ATOM      6  C5  UNL d   1      -1.293   1.939   0.746  0.00  0.00     0.003 A 
ATOM      7  I   UNL d   1       0.124  -1.958  -0.532  0.00  0.00    -0.146 I 
ENDROOT
TORSDOF 0
ENDMDL
