MODEL 1
REMARK minimizedAffinity -2.79670691
REMARK minimizedRMSD -1
REMARK  0 active torsions:
REMARK  status: ('A' for Active; 'I' for Inactive)
ROOT
ATOM      1  C   UNL d   1       1.319   1.917   0.405  0.00  0.00     0.023 A 
ATOM      2  C1  UNL d   1      -0.017   1.771   0.034  0.00  0.00     0.003 A 
ATOM      3  C2  UNL d   1      -0.514   0.513  -0.314  0.00  0.00     0.048 A 
ATOM      4  C3  UNL d   1       0.332  -0.595  -0.287  0.00  0.00     0.023 A 
ATOM      5  C4  UNL d   1       1.670  -0.455   0.085  0.00  0.00     0.048 A 
ATOM      6  C5  UNL d   1       2.162   0.805   0.431  0.00  0.00     0.003 A 
ATOM      7  I   UNL d   1      -0.404  -2.469  -0.803  0.00  0.00    -0.146 I 
ENDROOT
TORSDOF 0
ENDMDL
