MODEL 1
REMARK minimizedAffinity -4.73799706
REMARK minimizedRMSD -1
REMARK  0 active torsions:
REMARK  status: ('A' for Active; 'I' for Inactive)
ROOT
ATOM      1  C   UNL d   1       0.983   3.354   0.852  0.00  0.00     0.023 A 
ATOM      2  C1  UNL d   1       2.084   2.500   0.918  0.00  0.00     0.003 A 
ATOM      3  C2  UNL d   1       1.929   1.138   0.653  0.00  0.00     0.048 A 
ATOM      4  C3  UNL d   1       0.671   0.636   0.322  0.00  0.00     0.023 A 
ATOM      5  C4  UNL d   1      -0.433   1.487   0.253  0.00  0.00     0.048 A 
ATOM      6  C5  UNL d   1      -0.274   2.848   0.520  0.00  0.00     0.003 A 
ATOM      7  I   UNL d   1       0.438  -1.391  -0.073  0.00  0.00    -0.146 I 
ENDROOT
TORSDOF 0
ENDMDL
