MODEL 1
REMARK minimizedAffinity -3.67497611
REMARK minimizedRMSD -1
REMARK  0 active torsions:
REMARK  status: ('A' for Active; 'I' for Inactive)
ROOT
ATOM      1  C   UNL d   1       1.919   1.576  -0.250  0.00  0.00     0.023 A 
ATOM      2  C1  UNL d   1       0.840   1.514  -1.132  0.00  0.00     0.003 A 
ATOM      3  C2  UNL d   1       0.070   0.352  -1.214  0.00  0.00     0.048 A 
ATOM      4  C3  UNL d   1       0.384  -0.744  -0.410  0.00  0.00     0.023 A 
ATOM      5  C4  UNL d   1       1.462  -0.685   0.475  0.00  0.00     0.048 A 
ATOM      6  C5  UNL d   1       2.229   0.478   0.553  0.00  0.00     0.003 A 
ATOM      7  I   UNL d   1      -0.761  -2.474  -0.529  0.00  0.00    -0.146 I 
ENDROOT
TORSDOF 0
ENDMDL
