MODEL 1
REMARK minimizedAffinity -3.82219863
REMARK minimizedRMSD -1
REMARK  0 active torsions:
REMARK  status: ('A' for Active; 'I' for Inactive)
ROOT
ATOM      1  C   UNL d   1      -0.053   3.023  -0.034  0.00  0.00     0.023 A 
ATOM      2  C1  UNL d   1       1.104   2.303  -0.334  0.00  0.00     0.003 A 
ATOM      3  C2  UNL d   1       1.064   0.908  -0.392  0.00  0.00     0.048 A 
ATOM      4  C3  UNL d   1      -0.136   0.240  -0.149  0.00  0.00     0.023 A 
ATOM      5  C4  UNL d   1      -1.296   0.957   0.151  0.00  0.00     0.048 A 
ATOM      6  C5  UNL d   1      -1.251   2.351   0.208  0.00  0.00     0.003 A 
ATOM      7  I   UNL d   1      -0.198  -1.836  -0.234  0.00  0.00    -0.146 I 
ENDROOT
TORSDOF 0
ENDMDL
