MODEL 1
REMARK minimizedAffinity -2.72854257
REMARK minimizedRMSD -1
REMARK  0 active torsions:
REMARK  status: ('A' for Active; 'I' for Inactive)
ROOT
ATOM      1  C   UNL d   1      -0.320   2.911  -0.003  0.00  0.00     0.023 A 
ATOM      2  C1  UNL d   1       0.637   2.264  -0.784  0.00  0.00     0.003 A 
ATOM      3  C2  UNL d   1       0.700   0.869  -0.800  0.00  0.00     0.048 A 
ATOM      4  C3  UNL d   1      -0.197   0.128  -0.033  0.00  0.00     0.023 A 
ATOM      5  C4  UNL d   1      -1.158   0.771   0.750  0.00  0.00     0.048 A 
ATOM      6  C5  UNL d   1      -1.216   2.166   0.763  0.00  0.00     0.003 A 
ATOM      7  I   UNL d   1      -0.105  -1.948  -0.055  0.00  0.00    -0.146 I 
ENDROOT
TORSDOF 0
ENDMDL
