MODEL 1
REMARK minimizedAffinity -4.45456696
REMARK minimizedRMSD -1
REMARK  0 active torsions:
REMARK  status: ('A' for Active; 'I' for Inactive)
ROOT
ATOM      1  C   UNL d   1       0.856  -1.447   0.626  0.00  0.00     0.023 A 
ATOM      2  C1  UNL d   1      -0.473  -1.031   0.704  0.00  0.00     0.003 A 
ATOM      3  C2  UNL d   1      -0.796   0.316   0.524  0.00  0.00     0.048 A 
ATOM      4  C3  UNL d   1       0.215   1.241   0.265  0.00  0.00     0.023 A 
ATOM      5  C4  UNL d   1       1.546   0.828   0.185  0.00  0.00     0.048 A 
ATOM      6  C5  UNL d   1       1.864  -0.519   0.367  0.00  0.00     0.003 A 
ATOM      7  I   UNL d   1      -0.263   3.245  -0.004  0.00  0.00    -0.146 I 
ENDROOT
TORSDOF 0
ENDMDL
