MODEL 1
REMARK minimizedAffinity -3.73861504
REMARK minimizedRMSD -1
REMARK  0 active torsions:
REMARK  status: ('A' for Active; 'I' for Inactive)
ROOT
ATOM      1  C   UNL d   1      -0.188   2.015   0.276  0.00  0.00     0.023 A 
ATOM      2  C1  UNL d   1       0.903   1.385  -0.322  0.00  0.00     0.003 A 
ATOM      3  C2  UNL d   1       0.845   0.023  -0.624  0.00  0.00     0.048 A 
ATOM      4  C3  UNL d   1      -0.308  -0.703  -0.326  0.00  0.00     0.023 A 
ATOM      5  C4  UNL d   1      -1.403  -0.076   0.271  0.00  0.00     0.048 A 
ATOM      6  C5  UNL d   1      -1.340   1.286   0.571  0.00  0.00     0.003 A 
ATOM      7  I   UNL d   1      -0.398  -2.730  -0.775  0.00  0.00    -0.146 I 
ENDROOT
TORSDOF 0
ENDMDL
