MODEL 1
REMARK minimizedAffinity -4.33019495
REMARK minimizedRMSD -1
REMARK  0 active torsions:
REMARK  status: ('A' for Active; 'I' for Inactive)
ROOT
ATOM      1  C   UNL d   1      -0.011   3.094   0.192  0.00  0.00     0.023 A 
ATOM      2  C1  UNL d   1      -1.182   2.377   0.439  0.00  0.00     0.003 A 
ATOM      3  C2  UNL d   1      -1.183   0.984   0.343  0.00  0.00     0.048 A 
ATOM      4  C3  UNL d   1      -0.009   0.315  -0.001  0.00  0.00     0.023 A 
ATOM      5  C4  UNL d   1       1.165   1.028  -0.248  0.00  0.00     0.048 A 
ATOM      6  C5  UNL d   1       1.161   2.420  -0.151  0.00  0.00     0.003 A 
ATOM      7  I   UNL d   1      -0.008  -1.759  -0.145  0.00  0.00    -0.146 I 
ENDROOT
TORSDOF 0
ENDMDL
