MODEL 1
REMARK minimizedAffinity -3.38902473
REMARK minimizedRMSD -1
REMARK  0 active torsions:
REMARK  status: ('A' for Active; 'I' for Inactive)
ROOT
ATOM      1  C   UNL d   1      -0.098   2.763   0.185  0.00  0.00     0.023 A 
ATOM      2  C1  UNL d   1      -1.289   2.042   0.275  0.00  0.00     0.003 A 
ATOM      3  C2  UNL d   1      -1.297   0.670   0.014  0.00  0.00     0.048 A 
ATOM      4  C3  UNL d   1      -0.111   0.025  -0.336  0.00  0.00     0.023 A 
ATOM      5  C4  UNL d   1       1.083   0.743  -0.427  0.00  0.00     0.048 A 
ATOM      6  C5  UNL d   1       1.086   2.114  -0.166  0.00  0.00     0.003 A 
ATOM      7  I   UNL d   1      -0.121  -2.016  -0.725  0.00  0.00    -0.146 I 
ENDROOT
TORSDOF 0
ENDMDL
