MODEL 1
REMARK minimizedAffinity -2.63963032
REMARK minimizedRMSD -1
REMARK  0 active torsions:
REMARK  status: ('A' for Active; 'I' for Inactive)
ROOT
ATOM      1  C   UNL d   1      -0.264   3.312   0.345  0.00  0.00     0.023 A 
ATOM      2  C1  UNL d   1       0.606   2.750  -0.590  0.00  0.00     0.003 A 
ATOM      3  C2  UNL d   1       0.641   1.366  -0.769  0.00  0.00     0.048 A 
ATOM      4  C3  UNL d   1      -0.198   0.549  -0.012  0.00  0.00     0.023 A 
ATOM      5  C4  UNL d   1      -1.071   1.107   0.924  0.00  0.00     0.048 A 
ATOM      6  C5  UNL d   1      -1.101   2.491   1.101  0.00  0.00     0.003 A 
ATOM      7  I   UNL d   1      -0.148  -1.512  -0.277  0.00  0.00    -0.146 I 
ENDROOT
TORSDOF 0
ENDMDL
