MODEL 1
REMARK minimizedAffinity -3.37264609
REMARK minimizedRMSD -1
REMARK  0 active torsions:
REMARK  status: ('A' for Active; 'I' for Inactive)
ROOT
ATOM      1  C   UNL d   1       0.870  -1.683   0.199  0.00  0.00     0.023 A 
ATOM      2  C1  UNL d   1      -0.447  -1.230   0.121  0.00  0.00     0.003 A 
ATOM      3  C2  UNL d   1      -0.711   0.138   0.020  0.00  0.00     0.048 A 
ATOM      4  C3  UNL d   1       0.346   1.047  -0.003  0.00  0.00     0.023 A 
ATOM      5  C4  UNL d   1       1.665   0.598   0.074  0.00  0.00     0.048 A 
ATOM      6  C5  UNL d   1       1.925  -0.770   0.175  0.00  0.00     0.003 A 
ATOM      7  I   UNL d   1      -0.046   3.082  -0.152  0.00  0.00    -0.146 I 
ENDROOT
TORSDOF 0
ENDMDL
