MODEL 1
REMARK minimizedAffinity -2.65240741
REMARK minimizedRMSD -1
REMARK  0 active torsions:
REMARK  status: ('A' for Active; 'I' for Inactive)
ROOT
ATOM      1  C   UNL d   1      -0.140   2.898   0.250  0.00  0.00     0.023 A 
ATOM      2  C1  UNL d   1      -1.287   2.132   0.452  0.00  0.00     0.003 A 
ATOM      3  C2  UNL d   1      -1.258   0.755   0.223  0.00  0.00     0.048 A 
ATOM      4  C3  UNL d   1      -0.077   0.150  -0.206  0.00  0.00     0.023 A 
ATOM      5  C4  UNL d   1       1.074   0.913  -0.409  0.00  0.00     0.048 A 
ATOM      6  C5  UNL d   1       1.040   2.290  -0.180  0.00  0.00     0.003 A 
ATOM      7  I   UNL d   1      -0.031  -1.899  -0.547  0.00  0.00    -0.146 I 
ENDROOT
TORSDOF 0
ENDMDL
