MODEL 1
REMARK minimizedAffinity -4.73551178
REMARK minimizedRMSD -1
REMARK  3 active torsions:
REMARK  status: ('A' for Active; 'I' for Inactive)
REMARK    1  A    between atoms: C3'_2  and  C2'_3 
REMARK    2  A    between atoms: C2'_3  and  C1'_4 
REMARK    3  A    between atoms: C1'_4  and  C1_5 
ROOT
ATOM      1  C1  N4B d   1       0.402   0.050   0.254  0.00  0.00    -0.075 A 
ATOM      2  C2  N4B d   1      -0.437  -1.023   0.626  0.00  0.00     0.002 A 
ATOM      3  C3  N4B d   1       0.038  -2.311   0.590  0.00  0.00     0.002 A 
ATOM      4  C4  N4B d   1       1.338  -2.551   0.170  0.00  0.00    -0.004 A 
ATOM      5  C5  N4B d   1       2.150  -1.507  -0.163  0.00  0.00     0.002 A 
ATOM      6  C6  N4B d   1       1.687  -0.207  -0.128  0.00  0.00     0.002 A 
ENDROOT
BRANCH   1   7
ATOM      7  C1' N4B d   1      -0.099   1.467   0.194  0.00  0.00     0.057 C 
BRANCH   7   8
ATOM      8  C2' N4B d   1      -0.433   1.820  -1.252  0.00  0.00     0.009 C 
BRANCH   8   9
ATOM      9  C3' N4B d   1      -1.627   1.035  -1.767  0.00  0.00     0.004 C 
ATOM     10  C4' N4B d   1      -2.035   1.440  -3.152  0.00  0.00     0.003 C 
ENDBRANCH   8   9
ENDBRANCH   7   8
ENDBRANCH   1   7
TORSDOF 3
ENDMDL
