MODEL 1
REMARK minimizedAffinity -5.03697538
REMARK minimizedRMSD -1
REMARK  3 active torsions:
REMARK  status: ('A' for Active; 'I' for Inactive)
REMARK    1  A    between atoms: C3'_2  and  C2'_3 
REMARK    2  A    between atoms: C2'_3  and  C1'_4 
REMARK    3  A    between atoms: C1'_4  and  C1_5 
ROOT
ATOM      1  C1  N4B d   1       0.117   0.255   0.205  0.00  0.00    -0.075 A 
ATOM      2  C2  N4B d   1       0.125  -0.730   1.217  0.00  0.00     0.002 A 
ATOM      3  C3  N4B d   1       0.930  -1.835   1.093  0.00  0.00     0.002 A 
ATOM      4  C4  N4B d   1       1.718  -1.986  -0.038  0.00  0.00    -0.004 A 
ATOM      5  C5  N4B d   1       1.724  -1.018  -0.999  0.00  0.00     0.002 A 
ATOM      6  C6  N4B d   1       0.923   0.100  -0.885  0.00  0.00     0.002 A 
ENDROOT
BRANCH   1   7
ATOM      7  C1' N4B d   1      -0.810   1.439   0.256  0.00  0.00     0.057 C 
BRANCH   7   8
ATOM      8  C2' N4B d   1      -1.114   1.899  -1.167  0.00  0.00     0.009 C 
BRANCH   8   9
ATOM      9  C3' N4B d   1      -2.235   1.091  -1.798  0.00  0.00     0.004 C 
ATOM     10  C4' N4B d   1      -1.933   0.682  -3.209  0.00  0.00     0.003 C 
ENDBRANCH   8   9
ENDBRANCH   7   8
ENDBRANCH   1   7
TORSDOF 3
ENDMDL
