MODEL 1
REMARK minimizedAffinity -4.86061716
REMARK minimizedRMSD -1
REMARK  3 active torsions:
REMARK  status: ('A' for Active; 'I' for Inactive)
REMARK    1  A    between atoms: C3'_2  and  C2'_3 
REMARK    2  A    between atoms: C2'_3  and  C1'_4 
REMARK    3  A    between atoms: C1'_4  and  C1_5 
ROOT
ATOM      1  C1  N4B d   1       0.134   0.469   0.061  0.00  0.00    -0.075 A 
ATOM      2  C2  N4B d   1       1.456   0.512  -0.435  0.00  0.00     0.002 A 
ATOM      3  C3  N4B d   1       2.272  -0.585  -0.311  0.00  0.00     0.002 A 
ATOM      4  C4  N4B d   1       1.797  -1.725   0.320  0.00  0.00    -0.004 A 
ATOM      5  C5  N4B d   1       0.511  -1.768   0.773  0.00  0.00     0.002 A 
ATOM      6  C6  N4B d   1      -0.322  -0.673   0.652  0.00  0.00     0.002 A 
ENDROOT
BRANCH   1   7
ATOM      7  C1' N4B d   1      -0.767   1.673   0.025  0.00  0.00     0.057 C 
BRANCH   7   8
ATOM      8  C2' N4B d   1      -0.962   2.110  -1.424  0.00  0.00     0.009 C 
BRANCH   8   9
ATOM      9  C3' N4B d   1      -2.391   1.898  -1.894  0.00  0.00     0.004 C 
ATOM     10  C4' N4B d   1      -2.472   1.117  -3.172  0.00  0.00     0.003 C 
ENDBRANCH   8   9
ENDBRANCH   7   8
ENDBRANCH   1   7
TORSDOF 3
ENDMDL
