MODEL 1
REMARK minimizedAffinity -3.45197415
REMARK minimizedRMSD -1
REMARK  3 active torsions:
REMARK  status: ('A' for Active; 'I' for Inactive)
REMARK    1  A    between atoms: C3'_2  and  C2'_3 
REMARK    2  A    between atoms: C2'_3  and  C1'_4 
REMARK    3  A    between atoms: C1'_4  and  C1_5 
ROOT
ATOM      1  C1  N4B d   1      -0.099   0.062  -0.026  0.00  0.00    -0.075 A 
ATOM      2  C2  N4B d   1       1.306  -0.068  -0.069  0.00  0.00     0.002 A 
ATOM      3  C3  N4B d   1       1.904  -1.214   0.397  0.00  0.00     0.002 A 
ATOM      4  C4  N4B d   1       1.121  -2.230   0.924  0.00  0.00    -0.004 A 
ATOM      5  C5  N4B d   1      -0.237  -2.107   0.937  0.00  0.00     0.002 A 
ATOM      6  C6  N4B d   1      -0.852  -0.963   0.470  0.00  0.00     0.002 A 
ENDROOT
BRANCH   1   7
ATOM      7  C1' N4B d   1      -0.792   1.330  -0.444  0.00  0.00     0.057 C 
BRANCH   7   8
ATOM      8  C2' N4B d   1      -1.872   0.996  -1.468  0.00  0.00     0.009 C 
BRANCH   8   9
ATOM      9  C3' N4B d   1      -1.776   1.876  -2.703  0.00  0.00     0.004 C 
ATOM     10  C4' N4B d   1      -2.671   1.416  -3.815  0.00  0.00     0.003 C 
ENDBRANCH   8   9
ENDBRANCH   7   8
ENDBRANCH   1   7
TORSDOF 3
ENDMDL
