MODEL 1
REMARK minimizedAffinity -3.51127958
REMARK minimizedRMSD -1
REMARK  3 active torsions:
REMARK  status: ('A' for Active; 'I' for Inactive)
REMARK    1  A    between atoms: C3'_2  and  C2'_3 
REMARK    2  A    between atoms: C2'_3  and  C1'_4 
REMARK    3  A    between atoms: C1'_4  and  C1_5 
ROOT
ATOM      1  C1  N4B d   1      -0.577  -0.005   0.251  0.00  0.00    -0.075 A 
ATOM      2  C2  N4B d   1       0.715   0.026  -0.317  0.00  0.00     0.002 A 
ATOM      3  C3  N4B d   1       1.588  -1.011  -0.093  0.00  0.00     0.002 A 
ATOM      4  C4  N4B d   1       1.199  -2.074   0.707  0.00  0.00    -0.004 A 
ATOM      5  C5  N4B d   1      -0.060  -2.108   1.232  0.00  0.00     0.002 A 
ATOM      6  C6  N4B d   1      -0.949  -1.075   1.012  0.00  0.00     0.002 A 
ENDROOT
BRANCH   1   7
ATOM      7  C1' N4B d   1      -1.536   1.145   0.105  0.00  0.00     0.057 C 
BRANCH   7   8
ATOM      8  C2' N4B d   1      -1.324   1.805  -1.254  0.00  0.00     0.009 C 
BRANCH   8   9
ATOM      9  C3' N4B d   1      -2.585   1.780  -2.101  0.00  0.00     0.004 C 
ATOM     10  C4' N4B d   1      -2.296   1.776  -3.572  0.00  0.00     0.003 C 
ENDBRANCH   8   9
ENDBRANCH   7   8
ENDBRANCH   1   7
TORSDOF 3
ENDMDL
