MODEL 1
REMARK minimizedAffinity -6.00753641
REMARK minimizedRMSD -1
REMARK  3 active torsions:
REMARK  status: ('A' for Active; 'I' for Inactive)
REMARK    1  A    between atoms: C3'_2  and  C2'_3 
REMARK    2  A    between atoms: C2'_3  and  C1'_4 
REMARK    3  A    between atoms: C1'_4  and  C1_5 
ROOT
ATOM      1  C1  N4B d   1      -0.121   0.198  -0.090  0.00  0.00    -0.075 A 
ATOM      2  C2  N4B d   1       1.218   0.167  -0.538  0.00  0.00     0.002 A 
ATOM      3  C3  N4B d   1       1.934  -1.003  -0.484  0.00  0.00     0.002 A 
ATOM      4  C4  N4B d   1       1.340  -2.147   0.030  0.00  0.00    -0.004 A 
ATOM      5  C5  N4B d   1       0.038  -2.115   0.437  0.00  0.00     0.002 A 
ATOM      6  C6  N4B d   1      -0.694  -0.946   0.384  0.00  0.00     0.002 A 
ENDROOT
BRANCH   1   7
ATOM      7  C1' N4B d   1      -0.916   1.474  -0.050  0.00  0.00     0.057 C 
BRANCH   7   8
ATOM      8  C2' N4B d   1      -1.060   2.019  -1.468  0.00  0.00     0.009 C 
BRANCH   8   9
ATOM      9  C3' N4B d   1      -2.137   1.288  -2.251  0.00  0.00     0.004 C 
ATOM     10  C4' N4B d   1      -1.768   1.081  -3.690  0.00  0.00     0.003 C 
ENDBRANCH   8   9
ENDBRANCH   7   8
ENDBRANCH   1   7
TORSDOF 3
ENDMDL
