MODEL 1
REMARK minimizedAffinity -5.69540262
REMARK minimizedRMSD -1
REMARK  3 active torsions:
REMARK  status: ('A' for Active; 'I' for Inactive)
REMARK    1  A    between atoms: C3'_2  and  C2'_3 
REMARK    2  A    between atoms: C2'_3  and  C1'_4 
REMARK    3  A    between atoms: C1'_4  and  C1_5 
ROOT
ATOM      1  C1  N4B d   1       0.210   0.127   0.085  0.00  0.00    -0.075 A 
ATOM      2  C2  N4B d   1      -0.660  -0.734   0.790  0.00  0.00     0.002 A 
ATOM      3  C3  N4B d   1      -0.180  -1.902   1.331  0.00  0.00     0.002 A 
ATOM      4  C4  N4B d   1       1.155  -2.237   1.166  0.00  0.00    -0.004 A 
ATOM      5  C5  N4B d   1       1.994  -1.387   0.506  0.00  0.00     0.002 A 
ATOM      6  C6  N4B d   1       1.527  -0.209  -0.040  0.00  0.00     0.002 A 
ENDROOT
BRANCH   1   7
ATOM      7  C1' N4B d   1      -0.287   1.372  -0.598  0.00  0.00     0.057 C 
BRANCH   7   8
ATOM      8  C2' N4B d   1      -1.617   1.071  -1.282  0.00  0.00     0.009 C 
BRANCH   8   9
ATOM      9  C3' N4B d   1      -1.761   1.818  -2.597  0.00  0.00     0.004 C 
ATOM     10  C4' N4B d   1      -2.640   1.103  -3.578  0.00  0.00     0.003 C 
ENDBRANCH   8   9
ENDBRANCH   7   8
ENDBRANCH   1   7
TORSDOF 3
ENDMDL
