MODEL 1
REMARK minimizedAffinity -3.63564157
REMARK minimizedRMSD -1
REMARK  3 active torsions:
REMARK  status: ('A' for Active; 'I' for Inactive)
REMARK    1  A    between atoms: C3'_2  and  C2'_3 
REMARK    2  A    between atoms: C2'_3  and  C1'_4 
REMARK    3  A    between atoms: C1'_4  and  C1_5 
ROOT
ATOM      1  C1  N4B d   1       0.038   0.044  -0.415  0.00  0.00    -0.075 A 
ATOM      2  C2  N4B d   1      -0.386  -0.969   0.474  0.00  0.00     0.002 A 
ATOM      3  C3  N4B d   1       0.505  -1.921   0.904  0.00  0.00     0.002 A 
ATOM      4  C4  N4B d   1       1.814  -1.893   0.447  0.00  0.00    -0.004 A 
ATOM      5  C5  N4B d   1       2.221  -0.897  -0.392  0.00  0.00     0.002 A 
ATOM      6  C6  N4B d   1       1.338   0.070  -0.829  0.00  0.00     0.002 A 
ENDROOT
BRANCH   1   7
ATOM      7  C1' N4B d   1      -0.921   1.056  -0.980  0.00  0.00     0.057 C 
BRANCH   7   8
ATOM      8  C2' N4B d   1      -2.308   0.430  -1.081  0.00  0.00     0.009 C 
BRANCH   8   9
ATOM      9  C3' N4B d   1      -2.990   0.769  -2.395  0.00  0.00     0.004 C 
ATOM     10  C4' N4B d   1      -2.064   1.417  -3.380  0.00  0.00     0.003 C 
ENDBRANCH   8   9
ENDBRANCH   7   8
ENDBRANCH   1   7
TORSDOF 3
ENDMDL
