MODEL 1
REMARK minimizedAffinity -6.51954031
REMARK minimizedRMSD -1
REMARK  3 active torsions:
REMARK  status: ('A' for Active; 'I' for Inactive)
REMARK    1  A    between atoms: C3'_2  and  C2'_3 
REMARK    2  A    between atoms: C2'_3  and  C1'_4 
REMARK    3  A    between atoms: C1'_4  and  C1_5 
ROOT
ATOM      1  C1  N4B d   1       0.306  -0.178  -0.362  0.00  0.00    -0.075 A 
ATOM      2  C2  N4B d   1      -0.507  -1.094   0.342  0.00  0.00     0.002 A 
ATOM      3  C3  N4B d   1       0.035  -2.255   0.835  0.00  0.00     0.002 A 
ATOM      4  C4  N4B d   1       1.378  -2.530   0.623  0.00  0.00    -0.004 A 
ATOM      5  C5  N4B d   1       2.162  -1.628  -0.036  0.00  0.00     0.002 A 
ATOM      6  C6  N4B d   1       1.631  -0.455  -0.534  0.00  0.00     0.002 A 
ENDROOT
BRANCH   1   7
ATOM      7  C1' N4B d   1      -0.260   1.064  -0.994  0.00  0.00     0.057 C 
BRANCH   7   8
ATOM      8  C2' N4B d   1      -1.729   1.200  -0.603  0.00  0.00     0.009 C 
BRANCH   8   9
ATOM      9  C3' N4B d   1      -2.649   1.111  -1.808  0.00  0.00     0.004 C 
ATOM     10  C4' N4B d   1      -1.906   1.159  -3.110  0.00  0.00     0.003 C 
ENDBRANCH   8   9
ENDBRANCH   7   8
ENDBRANCH   1   7
TORSDOF 3
ENDMDL
