MODEL 1
REMARK minimizedAffinity -0.6240623
REMARK minimizedRMSD -1
REMARK  1 active torsions:
REMARK  status: ('A' for Active; 'I' for Inactive)
REMARK    1  A    between atoms: C1_2  and  C2_3 
ROOT
ATOM      1  C2  UNL d   1       0.132  -0.009  -1.060  0.00  0.00    -0.073 A 
ATOM      2  C3  UNL d   1      -1.211  -0.247  -0.745  0.00  0.00    -0.002 A 
ATOM      3  C4  UNL d   1      -2.078   0.819  -0.500  0.00  0.00     0.004 A 
ATOM      4  C5  UNL d   1      -1.614   2.132  -0.575  0.00  0.00    -0.004 A 
ATOM      5  C6  UNL d   1      -0.279   2.391  -0.900  0.00  0.00    -0.075 A 
ATOM      6  C7  UNL d   1       0.237   3.798  -0.982  0.00  0.00     0.076 C 
ATOM      7  C8  UNL d   1       0.586   1.315  -1.141  0.00  0.00     0.001 A 
ENDROOT
BRANCH   1   8
ATOM      8  C1  UNL d   1       1.070  -1.157  -1.330  0.00  0.00     0.053 C 
ATOM      9  C   UNL d   1       0.333  -2.483  -1.435  0.00  0.00     0.018 C 
ENDBRANCH   1   8
TORSDOF 1
ENDMDL
