MODEL 1
REMARK minimizedAffinity 6.43722296
REMARK minimizedRMSD -1
REMARK  1 active torsions:
REMARK  status: ('A' for Active; 'I' for Inactive)
REMARK    1  A    between atoms: C1_2  and  C2_3 
ROOT
ATOM      1  C2  UNL d   1       0.782  -1.360  -1.618  0.00  0.00    -0.073 A 
ATOM      2  C3  UNL d   1       1.415  -2.132  -0.637  0.00  0.00    -0.002 A 
ATOM      3  C4  UNL d   1       1.112  -3.488  -0.503  0.00  0.00     0.004 A 
ATOM      4  C5  UNL d   1       0.181  -4.087  -1.351  0.00  0.00    -0.004 A 
ATOM      5  C6  UNL d   1      -0.453  -3.335  -2.345  0.00  0.00    -0.075 A 
ATOM      6  C7  UNL d   1      -1.459  -3.963  -3.264  0.00  0.00     0.076 C 
ATOM      7  C8  UNL d   1      -0.146  -1.973  -2.472  0.00  0.00     0.001 A 
ENDROOT
BRANCH   1   8
ATOM      8  C1  UNL d   1       1.110   0.103  -1.771  0.00  0.00     0.053 C 
ATOM      9  C   UNL d   1       0.178   0.984  -0.954  0.00  0.00     0.018 C 
ENDBRANCH   1   8
TORSDOF 1
ENDMDL
