MODEL 1
REMARK minimizedAffinity 7.79567194
REMARK minimizedRMSD -1
REMARK  1 active torsions:
REMARK  status: ('A' for Active; 'I' for Inactive)
REMARK    1  A    between atoms: C1_2  and  C2_3 
ROOT
ATOM      1  C2  UNL d   1       0.119   2.218   0.390  0.00  0.00    -0.073 A 
ATOM      2  C3  UNL d   1      -1.163   2.643   0.756  0.00  0.00    -0.002 A 
ATOM      3  C4  UNL d   1      -1.489   2.822   2.101  0.00  0.00     0.004 A 
ATOM      4  C5  UNL d   1      -0.536   2.585   3.092  0.00  0.00    -0.004 A 
ATOM      5  C6  UNL d   1       0.754   2.171   2.745  0.00  0.00    -0.075 A 
ATOM      6  C7  UNL d   1       1.790   1.910   3.798  0.00  0.00     0.076 C 
ATOM      7  C8  UNL d   1       1.073   1.991   1.392  0.00  0.00     0.001 A 
ENDROOT
BRANCH   1   8
ATOM      8  C1  UNL d   1       0.477   2.030  -1.062  0.00  0.00     0.053 C 
ATOM      9  C   UNL d   1       0.755   0.573  -1.395  0.00  0.00     0.018 C 
ENDBRANCH   1   8
TORSDOF 1
ENDMDL
