MODEL 1
REMARK minimizedAffinity 10.2669163
REMARK minimizedRMSD -1
REMARK  1 active torsions:
REMARK  status: ('A' for Active; 'I' for Inactive)
REMARK    1  A    between atoms: C1_2  and  C2_3 
ROOT
ATOM      1  C2  UNL d   1      -3.831   4.492  -2.761  0.00  0.00    -0.073 A 
ATOM      2  C3  UNL d   1      -4.387   3.439  -2.026  0.00  0.00    -0.002 A 
ATOM      3  C4  UNL d   1      -5.462   2.712  -2.538  0.00  0.00     0.004 A 
ATOM      4  C5  UNL d   1      -5.987   3.025  -3.792  0.00  0.00    -0.004 A 
ATOM      5  C6  UNL d   1      -5.438   4.066  -4.547  0.00  0.00    -0.075 A 
ATOM      6  C7  UNL d   1      -5.992   4.416  -5.896  0.00  0.00     0.076 C 
ATOM      7  C8  UNL d   1      -4.360   4.793  -4.024  0.00  0.00     0.001 A 
ENDROOT
BRANCH   1   8
ATOM      8  C1  UNL d   1      -2.665   5.276  -2.215  0.00  0.00     0.053 C 
ATOM      9  C   UNL d   1      -2.876   5.672  -0.762  0.00  0.00     0.018 C 
ENDBRANCH   1   8
TORSDOF 1
ENDMDL
