MODEL 1
REMARK minimizedAffinity 7.59700966
REMARK minimizedRMSD -1
REMARK  1 active torsions:
REMARK  status: ('A' for Active; 'I' for Inactive)
REMARK    1  A    between atoms: C1_2  and  C2_3 
ROOT
ATOM      1  C2  UNL d   1       0.776  -2.235  -1.270  0.00  0.00    -0.073 A 
ATOM      2  C3  UNL d   1      -0.592  -2.167  -1.558  0.00  0.00    -0.002 A 
ATOM      3  C4  UNL d   1      -1.349  -3.335  -1.663  0.00  0.00     0.004 A 
ATOM      4  C5  UNL d   1      -0.749  -4.580  -1.474  0.00  0.00    -0.004 A 
ATOM      5  C6  UNL d   1       0.614  -4.668  -1.174  0.00  0.00    -0.075 A 
ATOM      6  C7  UNL d   1       1.274  -6.000  -0.970  0.00  0.00     0.076 C 
ATOM      7  C8  UNL d   1       1.368  -3.491  -1.073  0.00  0.00     0.001 A 
ENDROOT
BRANCH   1   8
ATOM      8  C1  UNL d   1       1.597  -0.977  -1.150  0.00  0.00     0.053 C 
ATOM      9  C   UNL d   1       0.822   0.253  -1.595  0.00  0.00     0.018 C 
ENDBRANCH   1   8
TORSDOF 1
ENDMDL
