MODEL 1
REMARK minimizedAffinity 1.78337097
REMARK minimizedRMSD -1
REMARK  1 active torsions:
REMARK  status: ('A' for Active; 'I' for Inactive)
REMARK    1  A    between atoms: C1_2  and  C2_3 
ROOT
ATOM      1  C2  UNL d   1      -5.254   2.454  -2.634  0.00  0.00    -0.073 A 
ATOM      2  C3  UNL d   1      -3.872   2.255  -2.731  0.00  0.00    -0.002 A 
ATOM      3  C4  UNL d   1      -3.185   2.636  -3.884  0.00  0.00     0.004 A 
ATOM      4  C5  UNL d   1      -3.870   3.224  -4.947  0.00  0.00    -0.004 A 
ATOM      5  C6  UNL d   1      -5.249   3.442  -4.864  0.00  0.00    -0.075 A 
ATOM      6  C7  UNL d   1      -6.000   4.072  -6.000  0.00  0.00     0.076 C 
ATOM      7  C8  UNL d   1      -5.932   3.055  -3.704  0.00  0.00     0.001 A 
ENDROOT
BRANCH   1   8
ATOM      8  C1  UNL d   1      -6.000   2.050  -1.388  0.00  0.00     0.053 C 
ATOM      9  C   UNL d   1      -5.158   1.167  -0.481  0.00  0.00     0.018 C 
ENDBRANCH   1   8
TORSDOF 1
ENDMDL
