MODEL 1
REMARK minimizedAffinity 0.56850934
REMARK minimizedRMSD -1
REMARK  0 active torsions:
REMARK  status: ('A' for Active; 'I' for Inactive)
ROOT
ATOM      1  C   UNL d   1      -3.698   4.672  -5.999  0.00  0.00     0.023 A 
ATOM      2  C1  UNL d   1      -2.617   3.791  -5.998  0.00  0.00     0.003 A 
ATOM      3  C2  UNL d   1      -2.837   2.412  -5.996  0.00  0.00     0.048 A 
ATOM      4  C3  UNL d   1      -4.142   1.921  -5.998  0.00  0.00     0.023 A 
ATOM      5  C4  UNL d   1      -5.228   2.798  -6.000  0.00  0.00     0.048 A 
ATOM      6  C5  UNL d   1      -5.002   4.176  -6.000  0.00  0.00     0.003 A 
ATOM      7  I   UNL d   1      -4.473  -0.131  -5.996  0.00  0.00    -0.146 I 
ENDROOT
TORSDOF 0
ENDMDL
