MODEL 1
REMARK minimizedAffinity -1.60776389
REMARK minimizedRMSD -1
REMARK  0 active torsions:
REMARK  status: ('A' for Active; 'I' for Inactive)
ROOT
ATOM      1  C   UNL d   1      -3.796   4.299  -5.997  0.00  0.00     0.023 A 
ATOM      2  C1  UNL d   1      -4.974   3.551  -5.999  0.00  0.00     0.003 A 
ATOM      3  C2  UNL d   1      -4.917   2.156  -5.999  0.00  0.00     0.048 A 
ATOM      4  C3  UNL d   1      -3.678   1.515  -5.995  0.00  0.00     0.023 A 
ATOM      5  C4  UNL d   1      -2.497   2.258  -5.992  0.00  0.00     0.048 A 
ATOM      6  C5  UNL d   1      -2.559   3.653  -5.993  0.00  0.00     0.003 A 
ATOM      7  I   UNL d   1      -3.591  -0.562  -5.994  0.00  0.00    -0.146 I 
ENDROOT
TORSDOF 0
ENDMDL
