MODEL 1
REMARK minimizedAffinity -0.618357956
REMARK minimizedRMSD -1
REMARK  0 active torsions:
REMARK  status: ('A' for Active; 'I' for Inactive)
ROOT
ATOM      1  C   UNL d   1      -3.869   4.088  -5.996  0.00  0.00     0.023 A 
ATOM      2  C1  UNL d   1      -5.113   3.456  -5.997  0.00  0.00     0.003 A 
ATOM      3  C2  UNL d   1      -5.190   2.062  -5.997  0.00  0.00     0.048 A 
ATOM      4  C3  UNL d   1      -4.019   1.305  -5.997  0.00  0.00     0.023 A 
ATOM      5  C4  UNL d   1      -2.772   1.933  -5.995  0.00  0.00     0.048 A 
ATOM      6  C5  UNL d   1      -2.700   3.327  -5.996  0.00  0.00     0.003 A 
ATOM      7  I   UNL d   1      -4.131  -0.770  -5.997  0.00  0.00    -0.146 I 
ENDROOT
TORSDOF 0
ENDMDL
