MODEL 1
REMARK minimizedAffinity -1.29912961
REMARK minimizedRMSD -1
REMARK  0 active torsions:
REMARK  status: ('A' for Active; 'I' for Inactive)
ROOT
ATOM      1  C   UNL d   1      -4.875   4.881  -5.992  0.00  0.00     0.023 A 
ATOM      2  C1  UNL d   1      -5.672   3.737  -5.995  0.00  0.00     0.003 A 
ATOM      3  C2  UNL d   1      -5.081   2.472  -5.998  0.00  0.00     0.048 A 
ATOM      4  C3  UNL d   1      -3.691   2.359  -5.996  0.00  0.00     0.023 A 
ATOM      5  C4  UNL d   1      -2.889   3.501  -5.992  0.00  0.00     0.048 A 
ATOM      6  C5  UNL d   1      -3.485   4.763  -5.990  0.00  0.00     0.003 A 
ATOM      7  I   UNL d   1      -2.808   0.477  -5.999  0.00  0.00    -0.146 I 
ENDROOT
TORSDOF 0
ENDMDL
