MODEL 1
REMARK minimizedAffinity 9.55579758
REMARK minimizedRMSD -1
REMARK  0 active torsions:
REMARK  status: ('A' for Active; 'I' for Inactive)
ROOT
ATOM      1  C   UNL d   1      -4.888  -4.889  -6.000  0.00  0.00     0.023 A 
ATOM      2  C1  UNL d   1      -4.949  -3.723  -5.237  0.00  0.00     0.003 A 
ATOM      3  C2  UNL d   1      -3.849  -3.331  -4.470  0.00  0.00     0.048 A 
ATOM      4  C3  UNL d   1      -2.692  -4.109  -4.473  0.00  0.00     0.023 A 
ATOM      5  C4  UNL d   1      -2.626  -5.276  -5.236  0.00  0.00     0.048 A 
ATOM      6  C5  UNL d   1      -3.729  -5.664  -6.000  0.00  0.00     0.003 A 
ATOM      7  I   UNL d   1      -1.054  -3.527  -3.333  0.00  0.00    -0.146 I 
ENDROOT
TORSDOF 0
ENDMDL
