MODEL 1
REMARK minimizedAffinity 4.58435249
REMARK minimizedRMSD -1
REMARK  0 active torsions:
REMARK  status: ('A' for Active; 'I' for Inactive)
ROOT
ATOM      1  C   UNL d   1       3.072  -1.387  -2.370  0.00  0.00     0.023 A 
ATOM      2  C1  UNL d   1       1.784  -1.414  -2.903  0.00  0.00     0.003 A 
ATOM      3  C2  UNL d   1       0.752  -0.715  -2.274  0.00  0.00     0.048 A 
ATOM      4  C3  UNL d   1       1.016   0.010  -1.113  0.00  0.00     0.023 A 
ATOM      5  C4  UNL d   1       2.304   0.041  -0.576  0.00  0.00     0.048 A 
ATOM      6  C5  UNL d   1       3.332  -0.661  -1.208  0.00  0.00     0.003 A 
ATOM      7  I   UNL d   1      -0.519   1.052  -0.174  0.00  0.00    -0.146 I 
ENDROOT
TORSDOF 0
ENDMDL
