MODEL 1
REMARK minimizedAffinity -2.11786795
REMARK minimizedRMSD -1
REMARK  0 active torsions:
REMARK  status: ('A' for Active; 'I' for Inactive)
ROOT
ATOM      1  C   UNL d   1      -4.360  -2.202  -6.000  0.00  0.00     0.023 A 
ATOM      2  C1  UNL d   1      -3.039  -1.762  -5.913  0.00  0.00     0.003 A 
ATOM      3  C2  UNL d   1      -1.997  -2.687  -5.824  0.00  0.00     0.048 A 
ATOM      4  C3  UNL d   1      -2.283  -4.052  -5.824  0.00  0.00     0.023 A 
ATOM      5  C4  UNL d   1      -3.603  -4.498  -5.912  0.00  0.00     0.048 A 
ATOM      6  C5  UNL d   1      -4.641  -3.569  -5.999  0.00  0.00     0.003 A 
ATOM      7  I   UNL d   1      -0.734  -5.432  -5.692  0.00  0.00    -0.146 I 
ENDROOT
TORSDOF 0
ENDMDL
