MODEL 1
REMARK minimizedAffinity 0.61002183
REMARK minimizedRMSD -1
REMARK  0 active torsions:
REMARK  status: ('A' for Active; 'I' for Inactive)
ROOT
ATOM      1  C   UNL d   1      -4.108   3.332  -5.995  0.00  0.00     0.023 A 
ATOM      2  C1  UNL d   1      -5.395   2.793  -5.995  0.00  0.00     0.003 A 
ATOM      3  C2  UNL d   1      -5.573   1.408  -5.996  0.00  0.00     0.048 A 
ATOM      4  C3  UNL d   1      -4.460   0.567  -5.995  0.00  0.00     0.023 A 
ATOM      5  C4  UNL d   1      -3.171   1.102  -5.994  0.00  0.00     0.048 A 
ATOM      6  C5  UNL d   1      -2.997   2.488  -5.995  0.00  0.00     0.003 A 
ATOM      7  I   UNL d   1      -4.722  -1.494  -5.995  0.00  0.00    -0.146 I 
ENDROOT
TORSDOF 0
ENDMDL
