MODEL 1
REMARK minimizedAffinity -3.64184785
REMARK minimizedRMSD -1
REMARK  0 active torsions:
REMARK  status: ('A' for Active; 'I' for Inactive)
ROOT
ATOM      1  C   UNL d   1      -4.134   2.977  -5.994  0.00  0.00     0.023 A 
ATOM      2  C1  UNL d   1      -5.427   2.453  -5.995  0.00  0.00     0.003 A 
ATOM      3  C2  UNL d   1      -5.622   1.071  -5.997  0.00  0.00     0.048 A 
ATOM      4  C3  UNL d   1      -4.520   0.217  -5.997  0.00  0.00     0.023 A 
ATOM      5  C4  UNL d   1      -3.224   0.736  -5.996  0.00  0.00     0.048 A 
ATOM      6  C5  UNL d   1      -3.034   2.119  -5.995  0.00  0.00     0.003 A 
ATOM      7  I   UNL d   1      -4.807  -1.841  -6.000  0.00  0.00    -0.146 I 
ENDROOT
TORSDOF 0
ENDMDL
