MODEL 1
REMARK minimizedAffinity -3.63054609
REMARK minimizedRMSD -1
REMARK  0 active torsions:
REMARK  status: ('A' for Active; 'I' for Inactive)
ROOT
ATOM      1  C   UNL d   1      -3.298   3.343  -5.736  0.00  0.00     0.023 A 
ATOM      2  C1  UNL d   1      -2.479   2.228  -5.918  0.00  0.00     0.003 A 
ATOM      3  C2  UNL d   1      -3.041   0.952  -5.993  0.00  0.00     0.048 A 
ATOM      4  C3  UNL d   1      -4.423   0.798  -5.887  0.00  0.00     0.023 A 
ATOM      5  C4  UNL d   1      -5.246   1.911  -5.706  0.00  0.00     0.048 A 
ATOM      6  C5  UNL d   1      -4.679   3.185  -5.630  0.00  0.00     0.003 A 
ATOM      7  I   UNL d   1      -5.262  -1.100  -6.000  0.00  0.00    -0.146 I 
ENDROOT
TORSDOF 0
ENDMDL
