MODEL 1
REMARK minimizedAffinity -2.26547575
REMARK minimizedRMSD -1
REMARK  0 active torsions:
REMARK  status: ('A' for Active; 'I' for Inactive)
ROOT
ATOM      1  C   UNL d   1      -4.576  -0.923  -5.989  0.00  0.00     0.023 A 
ATOM      2  C1  UNL d   1      -3.362  -0.235  -5.997  0.00  0.00     0.003 A 
ATOM      3  C2  UNL d   1      -3.349   1.161  -6.000  0.00  0.00     0.048 A 
ATOM      4  C3  UNL d   1      -4.553   1.864  -5.995  0.00  0.00     0.023 A 
ATOM      5  C4  UNL d   1      -5.770   1.180  -5.986  0.00  0.00     0.048 A 
ATOM      6  C5  UNL d   1      -5.779  -0.216  -5.984  0.00  0.00     0.003 A 
ATOM      7  I   UNL d   1      -4.537   3.942  -5.999  0.00  0.00    -0.146 I 
ENDROOT
TORSDOF 0
ENDMDL
