MODEL 1
REMARK minimizedAffinity -3.49093223
REMARK minimizedRMSD -1
REMARK  0 active torsions:
REMARK  status: ('A' for Active; 'I' for Inactive)
ROOT
ATOM      1  C   UNL d   1      -3.627   2.746  -5.781  0.00  0.00     0.023 A 
ATOM      2  C1  UNL d   1      -2.443   2.026  -5.938  0.00  0.00     0.003 A 
ATOM      3  C2  UNL d   1      -2.476   0.631  -6.000  0.00  0.00     0.048 A 
ATOM      4  C3  UNL d   1      -3.696  -0.037  -5.906  0.00  0.00     0.023 A 
ATOM      5  C4  UNL d   1      -4.884   0.680  -5.750  0.00  0.00     0.048 A 
ATOM      6  C5  UNL d   1      -4.846   2.074  -5.688  0.00  0.00     0.003 A 
ATOM      7  I   UNL d   1      -3.748  -2.112  -5.999  0.00  0.00    -0.146 I 
ENDROOT
TORSDOF 0
ENDMDL
