MODEL 1
REMARK minimizedAffinity 0.213080585
REMARK minimizedRMSD -1
REMARK  0 active torsions:
REMARK  status: ('A' for Active; 'I' for Inactive)
ROOT
ATOM      1  C   UNL d   1      -3.766   4.071  -5.992  0.00  0.00     0.023 A 
ATOM      2  C1  UNL d   1      -2.568   3.357  -5.986  0.00  0.00     0.003 A 
ATOM      3  C2  UNL d   1      -2.585   1.960  -5.986  0.00  0.00     0.048 A 
ATOM      4  C3  UNL d   1      -3.805   1.284  -5.993  0.00  0.00     0.023 A 
ATOM      5  C4  UNL d   1      -5.007   1.995  -6.000  0.00  0.00     0.048 A 
ATOM      6  C5  UNL d   1      -4.984   3.391  -5.999  0.00  0.00     0.003 A 
ATOM      7  I   UNL d   1      -3.834  -0.794  -5.994  0.00  0.00    -0.146 I 
ENDROOT
TORSDOF 0
ENDMDL
