MODEL 1
REMARK minimizedAffinity -5.0744276
REMARK minimizedRMSD -1
REMARK  3 active torsions:
REMARK  status: ('A' for Active; 'I' for Inactive)
REMARK    1  A    between atoms: C3'_2  and  C2'_3 
REMARK    2  A    between atoms: C2'_3  and  C1'_4 
REMARK    3  A    between atoms: C1'_4  and  C1_5 
ROOT
ATOM      1  C1  N4B d   1      -0.205   0.904   0.463  0.00  0.00    -0.075 A 
ATOM      2  C2  N4B d   1      -0.126   1.300   1.816  0.00  0.00     0.002 A 
ATOM      3  C3  N4B d   1       0.802   2.236   2.204  0.00  0.00     0.002 A 
ATOM      4  C4  N4B d   1       1.669   2.773   1.265  0.00  0.00    -0.004 A 
ATOM      5  C5  N4B d   1       1.569   2.403  -0.045  0.00  0.00     0.002 A 
ATOM      6  C6  N4B d   1       0.639   1.467  -0.450  0.00  0.00     0.002 A 
ENDROOT
BRANCH   1   7
ATOM      7  C1' N4B d   1      -1.145  -0.179   0.007  0.00  0.00     0.057 C 
BRANCH   7   8
ATOM      8  C2' N4B d   1      -0.525  -0.913  -1.178  0.00  0.00     0.009 C 
BRANCH   8   9
ATOM      9  C3' N4B d   1      -1.578  -1.572  -2.052  0.00  0.00     0.004 C 
ATOM     10  C4' N4B d   1      -2.847  -1.868  -1.310  0.00  0.00     0.003 C 
ENDBRANCH   8   9
ENDBRANCH   7   8
ENDBRANCH   1   7
TORSDOF 3
ENDMDL
