MODEL 1
REMARK minimizedAffinity -5.80008316
REMARK minimizedRMSD -1
REMARK  3 active torsions:
REMARK  status: ('A' for Active; 'I' for Inactive)
REMARK    1  A    between atoms: C3'_2  and  C2'_3 
REMARK    2  A    between atoms: C2'_3  and  C1'_4 
REMARK    3  A    between atoms: C1'_4  and  C1_5 
ROOT
ATOM      1  C1  N4B d   1      -0.224   0.544  -0.104  0.00  0.00    -0.075 A 
ATOM      2  C2  N4B d   1      -0.815   1.257   0.963  0.00  0.00     0.002 A 
ATOM      3  C3  N4B d   1      -0.110   2.249   1.599  0.00  0.00     0.002 A 
ATOM      4  C4  N4B d   1       1.188   2.532   1.201  0.00  0.00    -0.004 A 
ATOM      5  C5  N4B d   1       1.742   1.856   0.153  0.00  0.00     0.002 A 
ATOM      6  C6  N4B d   1       1.044   0.859  -0.498  0.00  0.00     0.002 A 
ENDROOT
BRANCH   1   7
ATOM      7  C1' N4B d   1      -0.924  -0.607  -0.774  0.00  0.00     0.057 C 
BRANCH   7   8
ATOM      8  C2' N4B d   1      -0.075  -1.097  -1.943  0.00  0.00     0.009 C 
BRANCH   8   9
ATOM      9  C3' N4B d   1      -0.898  -1.270  -3.209  0.00  0.00     0.004 C 
ATOM     10  C4' N4B d   1      -2.273  -1.803  -2.939  0.00  0.00     0.003 C 
ENDBRANCH   8   9
ENDBRANCH   7   8
ENDBRANCH   1   7
TORSDOF 3
ENDMDL
