MODEL 1
REMARK minimizedAffinity -5.77789783
REMARK minimizedRMSD -1
REMARK  3 active torsions:
REMARK  status: ('A' for Active; 'I' for Inactive)
REMARK    1  A    between atoms: C3'_2  and  C2'_3 
REMARK    2  A    between atoms: C2'_3  and  C1'_4 
REMARK    3  A    between atoms: C1'_4  and  C1_5 
ROOT
ATOM      1  C1  N4B d   1       0.322   0.333   0.291  0.00  0.00    -0.075 A 
ATOM      2  C2  N4B d   1       0.061   0.681   1.634  0.00  0.00     0.002 A 
ATOM      3  C3  N4B d   1       0.470   1.899   2.120  0.00  0.00     0.002 A 
ATOM      4  C4  N4B d   1       1.156   2.773   1.290  0.00  0.00    -0.004 A 
ATOM      5  C5  N4B d   1       1.382   2.439  -0.014  0.00  0.00     0.002 A 
ATOM      6  C6  N4B d   1       0.972   1.220  -0.516  0.00  0.00     0.002 A 
ENDROOT
BRANCH   1   7
ATOM      7  C1' N4B d   1      -0.031  -1.021  -0.261  0.00  0.00     0.057 C 
BRANCH   7   8
ATOM      8  C2' N4B d   1      -0.701  -0.848  -1.621  0.00  0.00     0.009 C 
BRANCH   8   9
ATOM      9  C3' N4B d   1      -1.779  -1.892  -1.860  0.00  0.00     0.004 C 
ATOM     10  C4' N4B d   1      -3.047  -1.303  -2.403  0.00  0.00     0.003 C 
ENDBRANCH   8   9
ENDBRANCH   7   8
ENDBRANCH   1   7
TORSDOF 3
ENDMDL
