MODEL 1
REMARK minimizedAffinity -3.83780313
REMARK minimizedRMSD -1
REMARK  3 active torsions:
REMARK  status: ('A' for Active; 'I' for Inactive)
REMARK    1  A    between atoms: C3'_2  and  C2'_3 
REMARK    2  A    between atoms: C2'_3  and  C1'_4 
REMARK    3  A    between atoms: C1'_4  and  C1_5 
ROOT
ATOM      1  C1  N4B d   1      -0.376   0.429   0.083  0.00  0.00    -0.075 A 
ATOM      2  C2  N4B d   1       0.479   1.397  -0.488  0.00  0.00     0.002 A 
ATOM      3  C3  N4B d   1       0.895   2.472   0.259  0.00  0.00     0.002 A 
ATOM      4  C4  N4B d   1       0.455   2.609   1.567  0.00  0.00    -0.004 A 
ATOM      5  C5  N4B d   1      -0.351   1.657   2.119  0.00  0.00     0.002 A 
ATOM      6  C6  N4B d   1      -0.773   0.569   1.381  0.00  0.00     0.002 A 
ENDROOT
BRANCH   1   7
ATOM      7  C1' N4B d   1      -0.926  -0.717  -0.721  0.00  0.00     0.057 C 
BRANCH   7   8
ATOM      8  C2' N4B d   1      -1.031  -0.298  -2.184  0.00  0.00     0.009 C 
BRANCH   8   9
ATOM      9  C3' N4B d   1      -2.281  -0.853  -2.846  0.00  0.00     0.004 C 
ATOM     10  C4' N4B d   1      -2.914  -1.959  -2.056  0.00  0.00     0.003 C 
ENDBRANCH   8   9
ENDBRANCH   7   8
ENDBRANCH   1   7
TORSDOF 3
ENDMDL
