MODEL 1
REMARK minimizedAffinity -4.59031343
REMARK minimizedRMSD -1
REMARK  3 active torsions:
REMARK  status: ('A' for Active; 'I' for Inactive)
REMARK    1  A    between atoms: C3'_2  and  C2'_3 
REMARK    2  A    between atoms: C2'_3  and  C1'_4 
REMARK    3  A    between atoms: C1'_4  and  C1_5 
ROOT
ATOM      1  C1  N4B d   1      -0.077  -0.912  -0.261  0.00  0.00    -0.075 A 
ATOM      2  C2  N4B d   1       1.123  -0.181  -0.401  0.00  0.00     0.002 A 
ATOM      3  C3  N4B d   1       1.390   0.869   0.443  0.00  0.00     0.002 A 
ATOM      4  C4  N4B d   1       0.466   1.218   1.417  0.00  0.00    -0.004 A 
ATOM      5  C5  N4B d   1      -0.679   0.491   1.562  0.00  0.00     0.002 A 
ATOM      6  C6  N4B d   1      -0.958  -0.570   0.723  0.00  0.00     0.002 A 
ENDROOT
BRANCH   1   7
ATOM      7  C1' N4B d   1      -0.452  -2.014  -1.215  0.00  0.00     0.057 C 
BRANCH   7   8
ATOM      8  C2' N4B d   1      -1.971  -2.142  -1.259  0.00  0.00     0.009 C 
BRANCH   8   9
ATOM      9  C3' N4B d   1      -2.597  -1.160  -2.235  0.00  0.00     0.004 C 
ATOM     10  C4' N4B d   1      -1.908  -1.146  -3.567  0.00  0.00     0.003 C 
ENDBRANCH   8   9
ENDBRANCH   7   8
ENDBRANCH   1   7
TORSDOF 3
ENDMDL
