MODEL 1
REMARK minimizedAffinity -5.58315372
REMARK minimizedRMSD -1
REMARK  3 active torsions:
REMARK  status: ('A' for Active; 'I' for Inactive)
REMARK    1  A    between atoms: C3'_2  and  C2'_3 
REMARK    2  A    between atoms: C2'_3  and  C1'_4 
REMARK    3  A    between atoms: C1'_4  and  C1_5 
ROOT
ATOM      1  C1  N4B d   1       0.325   0.450   0.356  0.00  0.00    -0.075 A 
ATOM      2  C2  N4B d   1       0.365   1.616   1.153  0.00  0.00     0.002 A 
ATOM      3  C3  N4B d   1       1.503   2.383   1.189  0.00  0.00     0.002 A 
ATOM      4  C4  N4B d   1       2.614   1.997   0.455  0.00  0.00    -0.004 A 
ATOM      5  C5  N4B d   1       2.559   0.884  -0.332  0.00  0.00     0.002 A 
ATOM      6  C6  N4B d   1       1.420   0.105  -0.381  0.00  0.00     0.002 A 
ENDROOT
BRANCH   1   7
ATOM      7  C1' N4B d   1      -0.867  -0.468   0.351  0.00  0.00     0.057 C 
BRANCH   7   8
ATOM      8  C2' N4B d   1      -0.754  -1.429  -0.828  0.00  0.00     0.009 C 
BRANCH   8   9
ATOM      9  C3' N4B d   1      -2.095  -1.660  -1.504  0.00  0.00     0.004 C 
ATOM     10  C4' N4B d   1      -2.084  -1.288  -2.956  0.00  0.00     0.003 C 
ENDBRANCH   8   9
ENDBRANCH   7   8
ENDBRANCH   1   7
TORSDOF 3
ENDMDL
