MODEL 1
REMARK minimizedAffinity -2.46891236
REMARK minimizedRMSD -1
REMARK  3 active torsions:
REMARK  status: ('A' for Active; 'I' for Inactive)
REMARK    1  A    between atoms: C3'_2  and  C2'_3 
REMARK    2  A    between atoms: C2'_3  and  C1'_4 
REMARK    3  A    between atoms: C1'_4  and  C1_5 
ROOT
ATOM      1  C1  N4B d   1      -0.745  -0.138  -0.380  0.00  0.00    -0.075 A 
ATOM      2  C2  N4B d   1      -1.495  -0.108  -1.576  0.00  0.00     0.002 A 
ATOM      3  C3  N4B d   1      -1.517  -1.207  -2.399  0.00  0.00     0.002 A 
ATOM      4  C4  N4B d   1      -0.785  -2.334  -2.059  0.00  0.00    -0.004 A 
ATOM      5  C5  N4B d   1      -0.084  -2.364  -0.889  0.00  0.00     0.002 A 
ATOM      6  C6  N4B d   1      -0.056  -1.268  -0.050  0.00  0.00     0.002 A 
ENDROOT
BRANCH   1   7
ATOM      7  C1' N4B d   1      -0.621   1.069   0.510  0.00  0.00     0.057 C 
BRANCH   7   8
ATOM      8  C2' N4B d   1       0.765   1.081   1.148  0.00  0.00     0.009 C 
BRANCH   8   9
ATOM      9  C3' N4B d   1       0.789   1.882   2.438  0.00  0.00     0.004 C 
ATOM     10  C4' N4B d   1       1.408   1.129   3.578  0.00  0.00     0.003 C 
ENDBRANCH   8   9
ENDBRANCH   7   8
ENDBRANCH   1   7
TORSDOF 3
ENDMDL
