MODEL 1
REMARK minimizedAffinity -3.10156655
REMARK minimizedRMSD -1
REMARK  3 active torsions:
REMARK  status: ('A' for Active; 'I' for Inactive)
REMARK    1  A    between atoms: C3'_2  and  C2'_3 
REMARK    2  A    between atoms: C2'_3  and  C1'_4 
REMARK    3  A    between atoms: C1'_4  and  C1_5 
ROOT
ATOM      1  C1  N4B d   1      -1.127  -1.242  -1.486  0.00  0.00    -0.075 A 
ATOM      2  C2  N4B d   1      -2.500  -0.948  -1.636  0.00  0.00     0.002 A 
ATOM      3  C3  N4B d   1      -3.093  -1.054  -2.870  0.00  0.00     0.002 A 
ATOM      4  C4  N4B d   1      -2.333  -1.431  -3.967  0.00  0.00    -0.004 A 
ATOM      5  C5  N4B d   1      -1.013  -1.737  -3.809  0.00  0.00     0.002 A 
ATOM      6  C6  N4B d   1      -0.404  -1.640  -2.573  0.00  0.00     0.002 A 
ENDROOT
BRANCH   1   7
ATOM      7  C1' N4B d   1      -0.415  -1.059  -0.173  0.00  0.00     0.057 C 
BRANCH   7   8
ATOM      8  C2' N4B d   1      -0.194   0.431   0.073  0.00  0.00     0.009 C 
BRANCH   8   9
ATOM      9  C3' N4B d   1      -0.756   0.875   1.412  0.00  0.00     0.004 C 
ATOM     10  C4' N4B d   1       0.275   1.519   2.290  0.00  0.00     0.003 C 
ENDBRANCH   8   9
ENDBRANCH   7   8
ENDBRANCH   1   7
TORSDOF 3
ENDMDL
