MODEL 1
REMARK minimizedAffinity -2.51892781
REMARK minimizedRMSD -1
REMARK  3 active torsions:
REMARK  status: ('A' for Active; 'I' for Inactive)
REMARK    1  A    between atoms: C3'_2  and  C2'_3 
REMARK    2  A    between atoms: C2'_3  and  C1'_4 
REMARK    3  A    between atoms: C1'_4  and  C1_5 
ROOT
ATOM      1  C1  N4B d   1      -0.297   0.376   0.497  0.00  0.00    -0.075 A 
ATOM      2  C2  N4B d   1      -0.556   0.949   1.761  0.00  0.00     0.002 A 
ATOM      3  C3  N4B d   1       0.292   1.901   2.271  0.00  0.00     0.002 A 
ATOM      4  C4  N4B d   1       1.412   2.281   1.545  0.00  0.00    -0.004 A 
ATOM      5  C5  N4B d   1       1.641   1.741   0.314  0.00  0.00     0.002 A 
ATOM      6  C6  N4B d   1       0.795   0.786  -0.213  0.00  0.00     0.002 A 
ENDROOT
BRANCH   1   7
ATOM      7  C1' N4B d   1      -1.148  -0.730  -0.064  0.00  0.00     0.057 C 
BRANCH   7   8
ATOM      8  C2' N4B d   1      -0.376  -1.445  -1.169  0.00  0.00     0.009 C 
BRANCH   8   9
ATOM      9  C3' N4B d   1      -1.305  -2.101  -2.177  0.00  0.00     0.004 C 
ATOM     10  C4' N4B d   1      -1.084  -1.609  -3.576  0.00  0.00     0.003 C 
ENDBRANCH   8   9
ENDBRANCH   7   8
ENDBRANCH   1   7
TORSDOF 3
ENDMDL
