MODEL 1
REMARK minimizedAffinity -5.4014678
REMARK minimizedRMSD -1
REMARK  3 active torsions:
REMARK  status: ('A' for Active; 'I' for Inactive)
REMARK    1  A    between atoms: C3'_2  and  C2'_3 
REMARK    2  A    between atoms: C2'_3  and  C1'_4 
REMARK    3  A    between atoms: C1'_4  and  C1_5 
ROOT
ATOM      1  C1  N4B d   1       0.750   0.016   0.073  0.00  0.00    -0.075 A 
ATOM      2  C2  N4B d   1       2.015   0.642   0.028  0.00  0.00     0.002 A 
ATOM      3  C3  N4B d   1       2.241   1.788   0.749  0.00  0.00     0.002 A 
ATOM      4  C4  N4B d   1       1.215   2.336   1.505  0.00  0.00    -0.004 A 
ATOM      5  C5  N4B d   1       0.003   1.712   1.563  0.00  0.00     0.002 A 
ATOM      6  C6  N4B d   1      -0.236   0.557   0.846  0.00  0.00     0.002 A 
ENDROOT
BRANCH   1   7
ATOM      7  C1' N4B d   1       0.430  -1.191  -0.766  0.00  0.00     0.057 C 
BRANCH   7   8
ATOM      8  C2' N4B d   1      -1.082  -1.299  -0.932  0.00  0.00     0.009 C 
BRANCH   8   9
ATOM      9  C3' N4B d   1      -1.479  -1.553  -2.376  0.00  0.00     0.004 C 
ATOM     10  C4' N4B d   1      -2.953  -1.402  -2.609  0.00  0.00     0.003 C 
ENDBRANCH   8   9
ENDBRANCH   7   8
ENDBRANCH   1   7
TORSDOF 3
ENDMDL
