MODEL 1
REMARK minimizedAffinity -5.29245758
REMARK minimizedRMSD -1
REMARK  3 active torsions:
REMARK  status: ('A' for Active; 'I' for Inactive)
REMARK    1  A    between atoms: C3'_2  and  C2'_3 
REMARK    2  A    between atoms: C2'_3  and  C1'_4 
REMARK    3  A    between atoms: C1'_4  and  C1_5 
ROOT
ATOM      1  C1  N4B d   1       0.894   0.186   0.419  0.00  0.00    -0.075 A 
ATOM      2  C2  N4B d   1       2.234   0.632   0.405  0.00  0.00     0.002 A 
ATOM      3  C3  N4B d   1       2.589   1.761   1.101  0.00  0.00     0.002 A 
ATOM      4  C4  N4B d   1       1.623   2.468   1.801  0.00  0.00    -0.004 A 
ATOM      5  C5  N4B d   1       0.336   2.016   1.831  0.00  0.00     0.002 A 
ATOM      6  C6  N4B d   1      -0.035   0.881   1.139  0.00  0.00     0.002 A 
ENDROOT
BRANCH   1   7
ATOM      7  C1' N4B d   1       0.441  -0.993  -0.397  0.00  0.00     0.057 C 
BRANCH   7   8
ATOM      8  C2' N4B d   1      -0.846  -0.630  -1.131  0.00  0.00     0.009 C 
BRANCH   8   9
ATOM      9  C3' N4B d   1      -1.381  -1.792  -1.950  0.00  0.00     0.004 C 
ATOM     10  C4' N4B d   1      -2.182  -1.346  -3.137  0.00  0.00     0.003 C 
ENDBRANCH   8   9
ENDBRANCH   7   8
ENDBRANCH   1   7
TORSDOF 3
ENDMDL
