MODEL 1
REMARK minimizedAffinity 0.275955826
REMARK minimizedRMSD -1
REMARK  3 active torsions:
REMARK  status: ('A' for Active; 'I' for Inactive)
REMARK    1  A    between atoms: C3'_2  and  C2'_3 
REMARK    2  A    between atoms: C2'_3  and  C1'_4 
REMARK    3  A    between atoms: C1'_4  and  C1_5 
ROOT
ATOM      1  C1  N4B d   1       0.277   2.227   0.607  0.00  0.00    -0.075 A 
ATOM      2  C2  N4B d   1       0.287   2.525   1.988  0.00  0.00     0.002 A 
ATOM      3  C3  N4B d   1      -0.177   1.603   2.893  0.00  0.00     0.002 A 
ATOM      4  C4  N4B d   1      -0.673   0.389   2.442  0.00  0.00    -0.004 A 
ATOM      5  C5  N4B d   1      -0.656   0.098   1.110  0.00  0.00     0.002 A 
ATOM      6  C6  N4B d   1      -0.188   1.014   0.189  0.00  0.00     0.002 A 
ENDROOT
BRANCH   1   7
ATOM      7  C1' N4B d   1       0.695   3.236  -0.427  0.00  0.00     0.057 C 
BRANCH   7   8
ATOM      8  C2' N4B d   1       1.550   2.545  -1.485  0.00  0.00     0.009 C 
BRANCH   8   9
ATOM      9  C3' N4B d   1       1.788   3.434  -2.693  0.00  0.00     0.004 C 
ATOM     10  C4' N4B d   1       3.241   3.562  -3.042  0.00  0.00     0.003 C 
ENDBRANCH   8   9
ENDBRANCH   7   8
ENDBRANCH   1   7
TORSDOF 3
ENDMDL
