MODEL 1
REMARK minimizedAffinity -5.19389153
REMARK minimizedRMSD -1
REMARK  3 active torsions:
REMARK  status: ('A' for Active; 'I' for Inactive)
REMARK    1  A    between atoms: C3'_2  and  C2'_3 
REMARK    2  A    between atoms: C2'_3  and  C1'_4 
REMARK    3  A    between atoms: C1'_4  and  C1_5 
ROOT
ATOM      1  C1  N4B d   1       1.872   5.457  -4.054  0.00  0.00    -0.075 A 
ATOM      2  C2  N4B d   1       2.398   4.704  -2.982  0.00  0.00     0.002 A 
ATOM      3  C3  N4B d   1       3.667   4.185  -3.065  0.00  0.00     0.002 A 
ATOM      4  C4  N4B d   1       4.418   4.389  -4.213  0.00  0.00    -0.004 A 
ATOM      5  C5  N4B d   1       3.912   5.139  -5.234  0.00  0.00     0.002 A 
ATOM      6  C6  N4B d   1       2.640   5.670  -5.163  0.00  0.00     0.002 A 
ENDROOT
BRANCH   1   7
ATOM      7  C1' N4B d   1       0.458   5.972  -4.045  0.00  0.00     0.057 C 
BRANCH   7   8
ATOM      8  C2' N4B d   1      -0.127   5.802  -2.646  0.00  0.00     0.009 C 
BRANCH   8   9
ATOM      9  C3' N4B d   1      -1.634   5.996  -2.634  0.00  0.00     0.004 C 
ATOM     10  C4' N4B d   1      -2.231   5.992  -4.009  0.00  0.00     0.003 C 
ENDBRANCH   8   9
ENDBRANCH   7   8
ENDBRANCH   1   7
TORSDOF 3
ENDMDL
