MODEL 1
REMARK minimizedAffinity -2.40663862
REMARK minimizedRMSD -1
REMARK  1 active torsions:
REMARK  status: ('A' for Active; 'I' for Inactive)
REMARK    1  A    between atoms: N_2  and  C1_3 
ROOT
ATOM      1  C1  UNL d   1       5.910   1.050   3.611  0.00  0.00     0.143 A 
ATOM      2  C2  UNL d   1       5.907  -0.192   2.968  0.00  0.00    -0.057 A 
ATOM      3  C3  UNL d   1       5.921  -1.387   3.698  0.00  0.00     0.033 A 
ATOM      4  C4  UNL d   1       5.967  -1.360   5.088  0.00  0.00    -0.042 A 
ATOM      5  C5  UNL d   1       5.996  -0.137   5.747  0.00  0.00     0.033 A 
ATOM      6  C6  UNL d   1       5.975   1.053   5.014  0.00  0.00    -0.057 A 
ENDROOT
BRANCH   1   7
ATOM      7  N   UNL d   1       5.996   2.273   2.941  0.00  0.00    -0.732 N 
ATOM      8  C   UNL d   1       5.997   3.519   3.677  0.00  0.00     0.284 C 
ATOM      9  H3  UNL d   1       6.658   2.246   2.168  0.00  0.00     0.395 HD
ENDBRANCH   1   7
TORSDOF 1
ENDMDL
