MODEL 1
REMARK minimizedAffinity -1.60848927
REMARK minimizedRMSD -1
REMARK  1 active torsions:
REMARK  status: ('A' for Active; 'I' for Inactive)
REMARK    1  A    between atoms: N_2  and  C1_3 
ROOT
ATOM      1  C1  UNL d   1       5.756   3.573   3.013  0.00  0.00     0.143 A 
ATOM      2  C2  UNL d   1       5.461   4.772   3.669  0.00  0.00    -0.057 A 
ATOM      3  C3  UNL d   1       5.326   5.973   2.962  0.00  0.00     0.033 A 
ATOM      4  C4  UNL d   1       5.514   6.000   1.584  0.00  0.00    -0.042 A 
ATOM      5  C5  UNL d   1       5.833   4.824   0.914  0.00  0.00     0.033 A 
ATOM      6  C6  UNL d   1       5.959   3.627   1.625  0.00  0.00    -0.057 A 
ENDROOT
BRANCH   1   7
ATOM      7  N   UNL d   1       6.000   2.365   3.672  0.00  0.00    -0.732 N 
ATOM      8  C   UNL d   1       5.935   1.109   2.957  0.00  0.00     0.284 C 
ATOM      9  H3  UNL d   1       6.775   2.430   4.328  0.00  0.00     0.395 HD
ENDBRANCH   1   7
TORSDOF 1
ENDMDL
