MODEL 1
REMARK minimizedAffinity -3.41626716
REMARK minimizedRMSD -1
REMARK  1 active torsions:
REMARK  status: ('A' for Active; 'I' for Inactive)
REMARK    1  A    between atoms: N_2  and  C1_3 
ROOT
ATOM      1  C1  UNL d   1       5.684   0.903   4.931  0.00  0.00     0.143 A 
ATOM      2  C2  UNL d   1       5.614   2.142   5.577  0.00  0.00    -0.057 A 
ATOM      3  C3  UNL d   1       5.708   3.341   4.861  0.00  0.00     0.033 A 
ATOM      4  C4  UNL d   1       5.902   3.322   3.484  0.00  0.00    -0.042 A 
ATOM      5  C5  UNL d   1       5.999   2.102   2.824  0.00  0.00     0.033 A 
ATOM      6  C6  UNL d   1       5.898   0.908   3.544  0.00  0.00    -0.057 A 
ENDROOT
BRANCH   1   7
ATOM      7  N   UNL d   1       5.696  -0.323   5.600  0.00  0.00    -0.732 N 
ATOM      8  C   UNL d   1       6.000  -1.547   4.889  0.00  0.00     0.284 C 
ATOM      9  H3  UNL d   1       6.124  -0.259   6.520  0.00  0.00     0.395 HD
ENDBRANCH   1   7
TORSDOF 1
ENDMDL
