MODEL 1
REMARK minimizedAffinity -3.34909439
REMARK minimizedRMSD -1
REMARK  1 active torsions:
REMARK  status: ('A' for Active; 'I' for Inactive)
REMARK    1  A    between atoms: N_2  and  C1_3 
ROOT
ATOM      1  C1  UNL d   1       5.666   1.678   4.531  0.00  0.00     0.143 A 
ATOM      2  C2  UNL d   1       5.819   0.940   5.709  0.00  0.00    -0.057 A 
ATOM      3  C3  UNL d   1       5.999  -0.449   5.678  0.00  0.00     0.033 A 
ATOM      4  C4  UNL d   1       5.999  -1.129   4.464  0.00  0.00    -0.042 A 
ATOM      5  C5  UNL d   1       5.823  -0.419   3.282  0.00  0.00     0.033 A 
ATOM      6  C6  UNL d   1       5.651   0.969   3.320  0.00  0.00    -0.057 A 
ENDROOT
BRANCH   1   7
ATOM      7  N   UNL d   1       5.385   3.046   4.501  0.00  0.00    -0.732 N 
ATOM      8  C   UNL d   1       5.996   3.903   3.508  0.00  0.00     0.284 C 
ATOM      9  H3  UNL d   1       4.402   3.245   4.674  0.00  0.00     0.395 HD
ENDBRANCH   1   7
TORSDOF 1
ENDMDL
