MODEL 1
REMARK minimizedAffinity -3.24784327
REMARK minimizedRMSD -1
REMARK  1 active torsions:
REMARK  status: ('A' for Active; 'I' for Inactive)
REMARK    1  A    between atoms: N_2  and  C1_3 
ROOT
ATOM      1  C1  UNL d   1       5.109   1.585   4.444  0.00  0.00     0.143 A 
ATOM      2  C2  UNL d   1       4.926   0.580   3.488  0.00  0.00    -0.057 A 
ATOM      3  C3  UNL d   1       5.244  -0.754   3.768  0.00  0.00     0.033 A 
ATOM      4  C4  UNL d   1       5.780  -1.104   5.002  0.00  0.00    -0.042 A 
ATOM      5  C5  UNL d   1       5.995  -0.118   5.959  0.00  0.00     0.033 A 
ATOM      6  C6  UNL d   1       5.669   1.212   5.676  0.00  0.00    -0.057 A 
ENDROOT
BRANCH   1   7
ATOM      7  N   UNL d   1       4.905   2.944   4.193  0.00  0.00    -0.732 N 
ATOM      8  C   UNL d   1       5.994   3.782   3.740  0.00  0.00     0.284 C 
ATOM      9  H3  UNL d   1       4.019   3.124   3.724  0.00  0.00     0.395 HD
ENDBRANCH   1   7
TORSDOF 1
ENDMDL
