MODEL 1
REMARK minimizedAffinity -2.84606767
REMARK minimizedRMSD -1
REMARK  1 active torsions:
REMARK  status: ('A' for Active; 'I' for Inactive)
REMARK    1  A    between atoms: N_2  and  C1_3 
ROOT
ATOM      1  C1  UNL d   1       5.423   0.552   4.862  0.00  0.00     0.143 A 
ATOM      2  C2  UNL d   1       5.455   1.875   5.314  0.00  0.00    -0.057 A 
ATOM      3  C3  UNL d   1       5.726   2.935   4.440  0.00  0.00     0.033 A 
ATOM      4  C4  UNL d   1       6.000   2.686   3.100  0.00  0.00    -0.042 A 
ATOM      5  C5  UNL d   1       5.998   1.377   2.633  0.00  0.00     0.033 A 
ATOM      6  C6  UNL d   1       5.720   0.323   3.509  0.00  0.00    -0.057 A 
ENDROOT
BRANCH   1   7
ATOM      7  N   UNL d   1       5.257  -0.553   5.700  0.00  0.00    -0.732 N 
ATOM      8  C   UNL d   1       5.633  -1.878   5.257  0.00  0.00     0.284 C 
ATOM      9  H3  UNL d   1       5.510  -0.350   6.665  0.00  0.00     0.395 HD
ENDBRANCH   1   7
TORSDOF 1
ENDMDL
