MODEL 1
REMARK minimizedAffinity 0.366416633
REMARK minimizedRMSD -1
REMARK  1 active torsions:
REMARK  status: ('A' for Active; 'I' for Inactive)
REMARK    1  A    between atoms: N_2  and  C1_3 
ROOT
ATOM      1  C1  UNL d   1       5.906  -0.824   4.552  0.00  0.00     0.143 A 
ATOM      2  C2  UNL d   1       5.971  -0.122   5.760  0.00  0.00    -0.057 A 
ATOM      3  C3  UNL d   1       5.999   1.278   5.786  0.00  0.00     0.033 A 
ATOM      4  C4  UNL d   1       5.992   2.001   4.598  0.00  0.00    -0.042 A 
ATOM      5  C5  UNL d   1       5.953   1.324   3.385  0.00  0.00     0.033 A 
ATOM      6  C6  UNL d   1       5.918  -0.074   3.365  0.00  0.00    -0.057 A 
ENDROOT
BRANCH   1   7
ATOM      7  N   UNL d   1       5.975  -2.216   4.456  0.00  0.00    -0.732 N 
ATOM      8  C   UNL d   1       6.000  -3.036   5.648  0.00  0.00     0.284 C 
ATOM      9  H3  UNL d   1       5.388  -2.584   3.711  0.00  0.00     0.395 HD
ENDBRANCH   1   7
TORSDOF 1
ENDMDL
