MODEL 1
REMARK minimizedAffinity 9.43399525
REMARK minimizedRMSD -1
REMARK  1 active torsions:
REMARK  status: ('A' for Active; 'I' for Inactive)
REMARK    1  A    between atoms: N_2  and  C1_3 
ROOT
ATOM      1  C1  UNL d   1       4.333   2.608  -4.772  0.00  0.00     0.143 A 
ATOM      2  C2  UNL d   1       3.532   1.577  -5.274  0.00  0.00    -0.057 A 
ATOM      3  C3  UNL d   1       2.307   1.847  -5.896  0.00  0.00     0.033 A 
ATOM      4  C4  UNL d   1       1.846   3.155  -5.999  0.00  0.00    -0.042 A 
ATOM      5  C5  UNL d   1       2.613   4.193  -5.484  0.00  0.00     0.033 A 
ATOM      6  C6  UNL d   1       3.839   3.918  -4.871  0.00  0.00    -0.057 A 
ENDROOT
BRANCH   1   7
ATOM      7  N   UNL d   1       5.514   2.397  -4.056  0.00  0.00    -0.732 N 
ATOM      8  C   UNL d   1       6.000   1.056  -3.813  0.00  0.00     0.284 C 
ATOM      9  H3  UNL d   1       6.242   3.065  -4.302  0.00  0.00     0.395 HD
ENDBRANCH   1   7
TORSDOF 1
ENDMDL
