MODEL 1
REMARK minimizedAffinity -3.31925678
REMARK minimizedRMSD -1
REMARK  1 active torsions:
REMARK  status: ('A' for Active; 'I' for Inactive)
REMARK    1  A    between atoms: N_2  and  C1_3 
ROOT
ATOM      1  C1  UNL d   1       5.846   1.485   4.675  0.00  0.00     0.143 A 
ATOM      2  C2  UNL d   1       5.464   0.548   5.640  0.00  0.00    -0.057 A 
ATOM      3  C3  UNL d   1       5.286  -0.802   5.312  0.00  0.00     0.033 A 
ATOM      4  C4  UNL d   1       5.461  -1.234   4.001  0.00  0.00    -0.042 A 
ATOM      5  C5  UNL d   1       5.817  -0.315   3.020  0.00  0.00     0.033 A 
ATOM      6  C6  UNL d   1       5.999   1.030   3.356  0.00  0.00    -0.057 A 
ENDROOT
BRANCH   1   7
ATOM      7  N   UNL d   1       5.942   2.857   4.918  0.00  0.00    -0.732 N 
ATOM      8  C   UNL d   1       5.998   3.799   3.820  0.00  0.00     0.284 C 
ATOM      9  H3  UNL d   1       5.355   3.157   5.693  0.00  0.00     0.395 HD
ENDBRANCH   1   7
TORSDOF 1
ENDMDL
