MODEL 1
REMARK minimizedAffinity 3.27040887
REMARK minimizedRMSD -1
REMARK  1 active torsions:
REMARK  status: ('A' for Active; 'I' for Inactive)
REMARK    1  A    between atoms: N_2  and  C1_3 
ROOT
ATOM      1  C1  UNL d   1       5.905   1.675   3.301  0.00  0.00     0.143 A 
ATOM      2  C2  UNL d   1       5.992   1.390   4.667  0.00  0.00    -0.057 A 
ATOM      3  C3  UNL d   1       5.853   0.082   5.146  0.00  0.00     0.033 A 
ATOM      4  C4  UNL d   1       5.595  -0.964   4.266  0.00  0.00    -0.042 A 
ATOM      5  C5  UNL d   1       5.479  -0.700   2.906  0.00  0.00     0.033 A 
ATOM      6  C6  UNL d   1       5.625   0.608   2.433  0.00  0.00    -0.057 A 
ENDROOT
BRANCH   1   7
ATOM      7  N   UNL d   1       5.936   2.968   2.772  0.00  0.00    -0.732 N 
ATOM      8  C   UNL d   1       5.998   4.120   3.646  0.00  0.00     0.284 C 
ATOM      9  H3  UNL d   1       6.531   3.038   1.950  0.00  0.00     0.395 HD
ENDBRANCH   1   7
TORSDOF 1
ENDMDL
