MODEL 1
REMARK minimizedAffinity -1.52099907
REMARK minimizedRMSD -1
REMARK  1 active torsions:
REMARK  status: ('A' for Active; 'I' for Inactive)
REMARK    1  A    between atoms: N_2  and  C1_3 
ROOT
ATOM      1  C1  UNL d   1       5.980  -1.157   4.239  0.00  0.00     0.143 A 
ATOM      2  C2  UNL d   1       5.970  -0.311   3.125  0.00  0.00    -0.057 A 
ATOM      3  C3  UNL d   1       5.994   1.081   3.271  0.00  0.00     0.033 A 
ATOM      4  C4  UNL d   1       6.000   1.654   4.538  0.00  0.00    -0.042 A 
ATOM      5  C5  UNL d   1       5.985   0.833   5.660  0.00  0.00     0.033 A 
ATOM      6  C6  UNL d   1       5.967  -0.557   5.508  0.00  0.00    -0.057 A 
ENDROOT
BRANCH   1   7
ATOM      7  N   UNL d   1       5.858  -2.547   4.162  0.00  0.00    -0.732 N 
ATOM      8  C   UNL d   1       6.000  -3.367   5.346  0.00  0.00     0.284 C 
ATOM      9  H3  UNL d   1       5.103  -2.836   3.544  0.00  0.00     0.395 HD
ENDBRANCH   1   7
TORSDOF 1
ENDMDL
