MODEL 1
REMARK minimizedAffinity -2.14851069
REMARK minimizedRMSD -1
REMARK  1 active torsions:
REMARK  status: ('A' for Active; 'I' for Inactive)
REMARK    1  A    between atoms: N_2  and  C1_3 
ROOT
ATOM      1  C1  UNL d   1       5.396   3.079   4.895  0.00  0.00     0.143 A 
ATOM      2  C2  UNL d   1       5.360   2.221   6.000  0.00  0.00    -0.057 A 
ATOM      3  C3  UNL d   1       5.664   0.861   5.872  0.00  0.00     0.033 A 
ATOM      4  C4  UNL d   1       5.982   0.327   4.628  0.00  0.00    -0.042 A 
ATOM      5  C5  UNL d   1       5.999   1.156   3.512  0.00  0.00     0.033 A 
ATOM      6  C6  UNL d   1       5.701   2.515   3.647  0.00  0.00    -0.057 A 
ENDROOT
BRANCH   1   7
ATOM      7  N   UNL d   1       5.008   4.421   4.940  0.00  0.00    -0.732 N 
ATOM      8  C   UNL d   1       5.995   5.476   4.861  0.00  0.00     0.284 C 
ATOM      9  H3  UNL d   1       4.164   4.600   4.400  0.00  0.00     0.395 HD
ENDBRANCH   1   7
TORSDOF 1
ENDMDL
