MODEL 1
REMARK minimizedAffinity -1.84674072
REMARK minimizedRMSD -1
REMARK  1 active torsions:
REMARK  status: ('A' for Active; 'I' for Inactive)
REMARK    1  A    between atoms: N_2  and  C1_3 
ROOT
ATOM      1  C1  UNL d   1       5.385   2.705   4.658  0.00  0.00     0.143 A 
ATOM      2  C2  UNL d   1       5.327   1.708   5.638  0.00  0.00    -0.057 A 
ATOM      3  C3  UNL d   1       5.624   0.373   5.334  0.00  0.00     0.033 A 
ATOM      4  C4  UNL d   1       5.958   0.007   4.035  0.00  0.00    -0.042 A 
ATOM      5  C5  UNL d   1       5.998   0.977   3.040  0.00  0.00     0.033 A 
ATOM      6  C6  UNL d   1       5.707   2.309   3.350  0.00  0.00    -0.057 A 
ENDROOT
BRANCH   1   7
ATOM      7  N   UNL d   1       5.006   4.032   4.875  0.00  0.00    -0.732 N 
ATOM      8  C   UNL d   1       5.999   5.082   4.933  0.00  0.00     0.284 C 
ATOM      9  H3  UNL d   1       4.164   4.284   4.362  0.00  0.00     0.395 HD
ENDBRANCH   1   7
TORSDOF 1
ENDMDL
