MODEL 1
REMARK minimizedAffinity -0.363977939
REMARK minimizedRMSD -1
REMARK  1 active torsions:
REMARK  status: ('A' for Active; 'I' for Inactive)
REMARK    1  A    between atoms: N_2  and  C1_3 
ROOT
ATOM      1  C1  UNL d   1       5.995   2.807   3.880  0.00  0.00     0.143 A 
ATOM      2  C2  UNL d   1       5.980   3.586   2.718  0.00  0.00    -0.057 A 
ATOM      3  C3  UNL d   1       5.995   4.985   2.781  0.00  0.00     0.033 A 
ATOM      4  C4  UNL d   1       5.995   5.631   4.013  0.00  0.00    -0.042 A 
ATOM      5  C5  UNL d   1       5.984   4.877   5.181  0.00  0.00     0.033 A 
ATOM      6  C6  UNL d   1       5.977   3.481   5.111  0.00  0.00    -0.057 A 
ENDROOT
BRANCH   1   7
ATOM      7  N   UNL d   1       5.882   1.415   3.885  0.00  0.00    -0.732 N 
ATOM      8  C   UNL d   1       5.887   0.679   5.131  0.00  0.00     0.284 C 
ATOM      9  H3  UNL d   1       5.204   1.078   3.206  0.00  0.00     0.395 HD
ENDBRANCH   1   7
TORSDOF 1
ENDMDL
