MODEL 1
REMARK minimizedAffinity -1.35391831
REMARK minimizedRMSD -1
REMARK  1 active torsions:
REMARK  status: ('A' for Active; 'I' for Inactive)
REMARK    1  A    between atoms: N_2  and  C1_3 
ROOT
ATOM      1  C1  UNL d   1       5.901   0.616   4.564  0.00  0.00     0.143 A 
ATOM      2  C2  UNL d   1       5.937   1.135   3.265  0.00  0.00    -0.057 A 
ATOM      3  C3  UNL d   1       6.000   2.515   3.036  0.00  0.00     0.033 A 
ATOM      4  C4  UNL d   1       5.999   3.404   4.106  0.00  0.00    -0.042 A 
ATOM      5  C5  UNL d   1       5.939   2.912   5.405  0.00  0.00     0.033 A 
ATOM      6  C6  UNL d   1       5.883   1.532   5.627  0.00  0.00    -0.057 A 
ENDROOT
BRANCH   1   7
ATOM      7  N   UNL d   1       5.739  -0.741   4.855  0.00  0.00    -0.732 N 
ATOM      8  C   UNL d   1       5.998  -1.747   3.847  0.00  0.00     0.284 C 
ATOM      9  H3  UNL d   1       6.080  -0.983   5.782  0.00  0.00     0.395 HD
ENDBRANCH   1   7
TORSDOF 1
ENDMDL
