MODEL 1
REMARK minimizedAffinity 11.342
REMARK minimizedRMSD -1
REMARK  0 active torsions:
REMARK  status: ('A' for Active; 'I' for Inactive)
ROOT
ATOM      1  C   UNL d   1      -0.023  -2.260   1.910  0.00  0.00     0.077 C 
ATOM      2  C1  UNL d   1      -1.015  -1.190   2.257  0.00  0.00    -0.074 A 
ATOM      3  C2  UNL d   1      -0.980  -0.554   3.502  0.00  0.00    -0.005 A 
ATOM      4  C3  UNL d   1      -1.903   0.446   3.807  0.00  0.00     0.006 A 
ATOM      5  C4  UNL d   1      -2.869   0.820   2.872  0.00  0.00    -0.005 A 
ATOM      6  C5  UNL d   1      -2.919   0.195   1.622  0.00  0.00    -0.074 A 
ATOM      7  C6  UNL d   1      -3.945   0.592   0.601  0.00  0.00     0.077 C 
ATOM      8  C7  UNL d   1      -1.984  -0.804   1.320  0.00  0.00    -0.001 A 
ENDROOT
TORSDOF 0
ENDMDL
