MODEL 1
REMARK minimizedAffinity 15.3753567
REMARK minimizedRMSD -1
REMARK  0 active torsions:
REMARK  status: ('A' for Active; 'I' for Inactive)
ROOT
ATOM      1  C   UNL d   1       1.623  -1.894   3.704  0.00  0.00     0.077 C 
ATOM      2  C1  UNL d   1       0.245  -1.420   3.349  0.00  0.00    -0.074 A 
ATOM      3  C2  UNL d   1      -0.415  -1.911   2.219  0.00  0.00    -0.005 A 
ATOM      4  C3  UNL d   1      -1.700  -1.467   1.907  0.00  0.00     0.006 A 
ATOM      5  C4  UNL d   1      -2.337  -0.530   2.721  0.00  0.00    -0.005 A 
ATOM      6  C5  UNL d   1      -1.693  -0.028   3.856  0.00  0.00    -0.074 A 
ATOM      7  C6  UNL d   1      -2.367   0.973   4.747  0.00  0.00     0.077 C 
ATOM      8  C7  UNL d   1      -0.404  -0.484   4.167  0.00  0.00    -0.001 A 
ENDROOT
TORSDOF 0
ENDMDL
