MODEL 1
REMARK minimizedAffinity 4.2883749
REMARK minimizedRMSD -1
REMARK  0 active torsions:
REMARK  status: ('A' for Active; 'I' for Inactive)
ROOT
ATOM      1  C   UNL d   1       5.999   4.961  -2.982  0.00  0.00     0.077 C 
ATOM      2  C1  UNL d   1       5.475   5.024  -1.578  0.00  0.00    -0.074 A 
ATOM      3  C2  UNL d   1       4.499   5.959  -1.217  0.00  0.00    -0.005 A 
ATOM      4  C3  UNL d   1       4.014   5.999   0.090  0.00  0.00     0.006 A 
ATOM      5  C4  UNL d   1       4.499   5.108   1.048  0.00  0.00    -0.005 A 
ATOM      6  C5  UNL d   1       5.474   4.166   0.704  0.00  0.00    -0.074 A 
ATOM      7  C6  UNL d   1       5.999   3.193   1.719  0.00  0.00     0.077 C 
ATOM      8  C7  UNL d   1       5.952   4.126  -0.613  0.00  0.00    -0.001 A 
ENDROOT
TORSDOF 0
ENDMDL
