MODEL 1
REMARK minimizedAffinity 15.9647789
REMARK minimizedRMSD -1
REMARK  0 active torsions:
REMARK  status: ('A' for Active; 'I' for Inactive)
ROOT
ATOM      1  C   UNL d   1      -5.150  -0.385   0.850  0.00  0.00     0.077 C 
ATOM      2  C1  UNL d   1      -3.913  -0.321   1.696  0.00  0.00    -0.074 A 
ATOM      3  C2  UNL d   1      -2.803  -1.122   1.408  0.00  0.00    -0.005 A 
ATOM      4  C3  UNL d   1      -1.656  -1.044   2.198  0.00  0.00     0.006 A 
ATOM      5  C4  UNL d   1      -1.608  -0.166   3.282  0.00  0.00    -0.005 A 
ATOM      6  C5  UNL d   1      -2.708   0.643   3.584  0.00  0.00    -0.074 A 
ATOM      7  C6  UNL d   1      -2.669   1.599   4.739  0.00  0.00     0.077 C 
ATOM      8  C7  UNL d   1      -3.854   0.564   2.781  0.00  0.00    -0.001 A 
ENDROOT
TORSDOF 0
ENDMDL
