MODEL 1
REMARK minimizedAffinity 5.82389307
REMARK minimizedRMSD -1
REMARK  0 active torsions:
REMARK  status: ('A' for Active; 'I' for Inactive)
ROOT
ATOM      1  C   UNL d   1       2.318  -1.972   3.457  0.00  0.00     0.077 C 
ATOM      2  C1  UNL d   1       0.905  -1.537   3.204  0.00  0.00    -0.074 A 
ATOM      3  C2  UNL d   1       0.114  -2.183   2.248  0.00  0.00    -0.005 A 
ATOM      4  C3  UNL d   1      -1.201  -1.773   2.031  0.00  0.00     0.006 A 
ATOM      5  C4  UNL d   1      -1.738  -0.715   2.765  0.00  0.00    -0.005 A 
ATOM      6  C5  UNL d   1      -0.963  -0.058   3.726  0.00  0.00    -0.074 A 
ATOM      7  C6  UNL d   1      -1.527   1.074   4.531  0.00  0.00     0.077 C 
ATOM      8  C7  UNL d   1       0.356  -0.480   3.943  0.00  0.00    -0.001 A 
ENDROOT
TORSDOF 0
ENDMDL
