MODEL 1
REMARK minimizedAffinity 3.4108808
REMARK minimizedRMSD -1
REMARK  0 active torsions:
REMARK  status: ('A' for Active; 'I' for Inactive)
ROOT
ATOM      1  C   UNL d   1       5.994  -5.997  -0.420  0.00  0.00     0.077 C 
ATOM      2  C1  UNL d   1       5.271  -4.683  -0.454  0.00  0.00    -0.074 A 
ATOM      3  C2  UNL d   1       5.885  -3.538  -0.970  0.00  0.00    -0.005 A 
ATOM      4  C3  UNL d   1       5.197  -2.325  -1.004  0.00  0.00     0.006 A 
ATOM      5  C4  UNL d   1       3.889  -2.246  -0.523  0.00  0.00    -0.005 A 
ATOM      6  C5  UNL d   1       3.258  -3.381  -0.005  0.00  0.00    -0.074 A 
ATOM      7  C6  UNL d   1       1.850  -3.316   0.507  0.00  0.00     0.077 C 
ATOM      8  C7  UNL d   1       3.954  -4.598   0.020  0.00  0.00    -0.001 A 
ENDROOT
TORSDOF 0
ENDMDL
