MODEL 1
REMARK minimizedAffinity 10.0368195
REMARK minimizedRMSD -1
REMARK  0 active torsions:
REMARK  status: ('A' for Active; 'I' for Inactive)
ROOT
ATOM      1  C   UNL d   1      -4.954  -0.720   1.174  0.00  0.00     0.077 C 
ATOM      2  C1  UNL d   1      -4.117  -0.095   2.251  0.00  0.00    -0.074 A 
ATOM      3  C2  UNL d   1      -2.737  -0.315   2.307  0.00  0.00    -0.005 A 
ATOM      4  C3  UNL d   1      -1.970   0.281   3.308  0.00  0.00     0.006 A 
ATOM      5  C4  UNL d   1      -2.575   1.102   4.262  0.00  0.00    -0.005 A 
ATOM      6  C5  UNL d   1      -3.953   1.334   4.221  0.00  0.00    -0.074 A 
ATOM      7  C6  UNL d   1      -4.617   2.221   5.232  0.00  0.00     0.077 C 
ATOM      8  C7  UNL d   1      -4.716   0.737   3.207  0.00  0.00    -0.001 A 
ENDROOT
TORSDOF 0
ENDMDL
