MODEL 1
REMARK minimizedAffinity 18.4205952
REMARK minimizedRMSD -1
REMARK  0 active torsions:
REMARK  status: ('A' for Active; 'I' for Inactive)
ROOT
ATOM      1  C   UNL d   1      -6.000  -0.705  -3.092  0.00  0.00     0.077 C 
ATOM      2  C1  UNL d   1      -5.681   0.043  -1.832  0.00  0.00    -0.074 A 
ATOM      3  C2  UNL d   1      -5.529  -0.629  -0.615  0.00  0.00    -0.005 A 
ATOM      4  C3  UNL d   1      -5.223   0.079   0.546  0.00  0.00     0.006 A 
ATOM      5  C4  UNL d   1      -5.066   1.465   0.503  0.00  0.00    -0.005 A 
ATOM      6  C5  UNL d   1      -5.214   2.155  -0.704  0.00  0.00    -0.074 A 
ATOM      7  C6  UNL d   1      -5.039   3.643  -0.770  0.00  0.00     0.077 C 
ATOM      8  C7  UNL d   1      -5.514   1.435  -1.869  0.00  0.00    -0.001 A 
ENDROOT
TORSDOF 0
ENDMDL
