MODEL 1
REMARK minimizedAffinity 11.6272764
REMARK minimizedRMSD -1
REMARK  0 active torsions:
REMARK  status: ('A' for Active; 'I' for Inactive)
ROOT
ATOM      1  C   UNL d   1      -3.616  -1.386  -0.083  0.00  0.00     0.077 C 
ATOM      2  C1  UNL d   1      -2.487  -1.656   0.868  0.00  0.00    -0.074 A 
ATOM      3  C2  UNL d   1      -1.797  -2.872   0.836  0.00  0.00    -0.005 A 
ATOM      4  C3  UNL d   1      -0.743  -3.105   1.720  0.00  0.00     0.006 A 
ATOM      5  C4  UNL d   1      -0.370  -2.127   2.642  0.00  0.00    -0.005 A 
ATOM      6  C5  UNL d   1      -1.049  -0.905   2.688  0.00  0.00    -0.074 A 
ATOM      7  C6  UNL d   1      -0.654   0.160   3.667  0.00  0.00     0.077 C 
ATOM      8  C7  UNL d   1      -2.102  -0.675   1.792  0.00  0.00    -0.001 A 
ENDROOT
TORSDOF 0
ENDMDL
