MODEL 1
REMARK minimizedAffinity 5.61893988
REMARK minimizedRMSD -1
REMARK  0 active torsions:
REMARK  status: ('A' for Active; 'I' for Inactive)
ROOT
ATOM      1  C   UNL d   1      -4.738   0.008   1.312  0.00  0.00     0.077 C 
ATOM      2  C1  UNL d   1      -3.962   0.422   2.527  0.00  0.00    -0.074 A 
ATOM      3  C2  UNL d   1      -2.598   0.133   2.641  0.00  0.00    -0.005 A 
ATOM      4  C3  UNL d   1      -1.887   0.532   3.773  0.00  0.00     0.006 A 
ATOM      5  C4  UNL d   1      -2.531   1.223   4.800  0.00  0.00    -0.005 A 
ATOM      6  C5  UNL d   1      -3.893   1.521   4.703  0.00  0.00    -0.074 A 
ATOM      7  C6  UNL d   1      -4.599   2.271   5.794  0.00  0.00     0.077 C 
ATOM      8  C7  UNL d   1      -4.600   1.123   3.560  0.00  0.00    -0.001 A 
ENDROOT
TORSDOF 0
ENDMDL
