MODEL 1
REMARK minimizedAffinity 10.2129107
REMARK minimizedRMSD -1
REMARK  0 active torsions:
REMARK  status: ('A' for Active; 'I' for Inactive)
ROOT
ATOM      1  C   UNL d   1      -5.158  -0.748   1.024  0.00  0.00     0.077 C 
ATOM      2  C1  UNL d   1      -3.886  -0.552   1.793  0.00  0.00    -0.074 A 
ATOM      3  C2  UNL d   1      -2.700  -1.176   1.391  0.00  0.00    -0.005 A 
ATOM      4  C3  UNL d   1      -1.522  -0.977   2.111  0.00  0.00     0.006 A 
ATOM      5  C4  UNL d   1      -1.517  -0.153   3.237  0.00  0.00    -0.005 A 
ATOM      6  C5  UNL d   1      -2.693   0.480   3.653  0.00  0.00    -0.074 A 
ATOM      7  C6  UNL d   1      -2.703   1.376   4.856  0.00  0.00     0.077 C 
ATOM      8  C7  UNL d   1      -3.871   0.280   2.921  0.00  0.00    -0.001 A 
ENDROOT
TORSDOF 0
ENDMDL
