MODEL 1
REMARK minimizedAffinity 7.90855646
REMARK minimizedRMSD -1
REMARK  0 active torsions:
REMARK  status: ('A' for Active; 'I' for Inactive)
ROOT
ATOM      1  C   UNL d   1       2.028   1.844   0.735  0.00  0.00     0.077 C 
ATOM      2  C1  UNL d   1       1.915   2.508  -0.605  0.00  0.00    -0.074 A 
ATOM      3  C2  UNL d   1       2.075   1.776  -1.786  0.00  0.00    -0.005 A 
ATOM      4  C3  UNL d   1       1.957   2.405  -3.025  0.00  0.00     0.006 A 
ATOM      5  C4  UNL d   1       1.679   3.771  -3.096  0.00  0.00    -0.005 A 
ATOM      6  C5  UNL d   1       1.515   4.519  -1.926  0.00  0.00    -0.074 A 
ATOM      7  C6  UNL d   1       1.207   5.985  -1.984  0.00  0.00     0.077 C 
ATOM      8  C7  UNL d   1       1.628   3.878  -0.684  0.00  0.00    -0.001 A 
ENDROOT
TORSDOF 0
ENDMDL
