MODEL 1
REMARK minimizedAffinity 0.353496701
REMARK minimizedRMSD -1
REMARK  0 active torsions:
REMARK  status: ('A' for Active; 'I' for Inactive)
ROOT
ATOM      1  C   UNL d   1      -4.950   0.005   1.337  0.00  0.00     0.077 C 
ATOM      2  C1  UNL d   1      -4.477   0.405   2.703  0.00  0.00    -0.074 A 
ATOM      3  C2  UNL d   1      -3.115   0.407   3.020  0.00  0.00    -0.005 A 
ATOM      4  C3  UNL d   1      -2.689   0.790   4.292  0.00  0.00     0.006 A 
ATOM      5  C4  UNL d   1      -3.620   1.175   5.258  0.00  0.00    -0.005 A 
ATOM      6  C5  UNL d   1      -4.986   1.181   4.958  0.00  0.00    -0.074 A 
ATOM      7  C6  UNL d   1      -5.999   1.602   5.981  0.00  0.00     0.077 C 
ATOM      8  C7  UNL d   1      -5.405   0.801   3.676  0.00  0.00    -0.001 A 
ENDROOT
TORSDOF 0
ENDMDL
