MODEL 1
REMARK minimizedAffinity 9.98351479
REMARK minimizedRMSD -1
REMARK  0 active torsions:
REMARK  status: ('A' for Active; 'I' for Inactive)
ROOT
ATOM      1  C   UNL d   1       0.347   5.940  -2.093  0.00  0.00     0.077 C 
ATOM      2  C1  UNL d   1       0.422   4.445  -2.174  0.00  0.00    -0.074 A 
ATOM      3  C2  UNL d   1      -0.225   3.747  -3.199  0.00  0.00    -0.005 A 
ATOM      4  C3  UNL d   1      -0.139   2.357  -3.267  0.00  0.00     0.006 A 
ATOM      5  C4  UNL d   1       0.593   1.651  -2.312  0.00  0.00    -0.005 A 
ATOM      6  C5  UNL d   1       1.247   2.331  -1.280  0.00  0.00    -0.074 A 
ATOM      7  C6  UNL d   1       2.047   1.588  -0.251  0.00  0.00     0.077 C 
ATOM      8  C7  UNL d   1       1.162   3.729  -1.222  0.00  0.00    -0.001 A 
ENDROOT
TORSDOF 0
ENDMDL
