MODEL 1
REMARK minimizedAffinity 8.57480812
REMARK minimizedRMSD -1
REMARK  0 active torsions:
REMARK  status: ('A' for Active; 'I' for Inactive)
ROOT
ATOM      1  C   UNL d   1       5.999   3.836   1.241  0.00  0.00     0.077 C 
ATOM      2  C1  UNL d   1       4.759   3.051   0.931  0.00  0.00    -0.074 A 
ATOM      3  C2  UNL d   1       3.870   2.682   1.945  0.00  0.00    -0.005 A 
ATOM      4  C3  UNL d   1       2.716   1.960   1.640  0.00  0.00     0.006 A 
ATOM      5  C4  UNL d   1       2.440   1.601   0.321  0.00  0.00    -0.005 A 
ATOM      6  C5  UNL d   1       3.317   1.962  -0.707  0.00  0.00    -0.074 A 
ATOM      7  C6  UNL d   1       3.031   1.592  -2.132  0.00  0.00     0.077 C 
ATOM      8  C7  UNL d   1       4.471   2.693  -0.393  0.00  0.00    -0.001 A 
ENDROOT
TORSDOF 0
ENDMDL
