MODEL 1
REMARK minimizedAffinity 11.2958221
REMARK minimizedRMSD -1
REMARK  0 active torsions:
REMARK  status: ('A' for Active; 'I' for Inactive)
ROOT
ATOM      1  C   UNL d   1       4.873   5.109   2.320  0.00  0.00     0.077 C 
ATOM      2  C1  UNL d   1       4.878   3.867   1.479  0.00  0.00    -0.074 A 
ATOM      3  C2  UNL d   1       5.999   3.518   0.720  0.00  0.00    -0.005 A 
ATOM      4  C3  UNL d   1       5.993   2.355  -0.050  0.00  0.00     0.006 A 
ATOM      5  C4  UNL d   1       4.867   1.530  -0.068  0.00  0.00    -0.005 A 
ATOM      6  C5  UNL d   1       3.737   1.863   0.685  0.00  0.00    -0.074 A 
ATOM      7  C6  UNL d   1       2.522   0.983   0.684  0.00  0.00     0.077 C 
ATOM      8  C7  UNL d   1       3.753   3.030   1.462  0.00  0.00    -0.001 A 
ENDROOT
TORSDOF 0
ENDMDL
