MODEL 1
REMARK minimizedAffinity 10.1453638
REMARK minimizedRMSD -1
REMARK  0 active torsions:
REMARK  status: ('A' for Active; 'I' for Inactive)
ROOT
ATOM      1  C   UNL d   1       0.465   5.996  -2.819  0.00  0.00     0.077 C 
ATOM      2  C1  UNL d   1      -0.441   5.565  -3.935  0.00  0.00    -0.074 A 
ATOM      3  C2  UNL d   1       0.033   4.758  -4.974  0.00  0.00    -0.005 A 
ATOM      4  C3  UNL d   1      -0.824   4.357  -5.999  0.00  0.00     0.006 A 
ATOM      5  C4  UNL d   1      -2.160   4.758  -5.996  0.00  0.00    -0.005 A 
ATOM      6  C5  UNL d   1      -2.652   5.565  -4.965  0.00  0.00    -0.074 A 
ATOM      7  C6  UNL d   1      -4.087   5.998  -4.941  0.00  0.00     0.077 C 
ATOM      8  C7  UNL d   1      -1.787   5.958  -3.934  0.00  0.00    -0.001 A 
ENDROOT
TORSDOF 0
ENDMDL
