MODEL 1
REMARK minimizedAffinity 0.497603506
REMARK minimizedRMSD -1
REMARK  0 active torsions:
REMARK  status: ('A' for Active; 'I' for Inactive)
ROOT
ATOM      1  C   UNL d   1       1.610   0.440   1.994  0.00  0.00    -0.002 A 
ATOM      2  C1  UNL d   1       2.123   0.856   0.773  0.00  0.00     0.010 A 
ATOM      3  C2  UNL d   1       1.268   1.176  -0.284  0.00  0.00     0.041 A 
ATOM      4  C3  UNL d   1      -0.123   1.073  -0.091  0.00  0.00    -0.075 A 
ATOM      5  S   UNL d   1      -1.360   1.414  -1.243  0.00  0.00     0.015 SA
ATOM      6  C4  UNL d   1      -2.599   1.016  -0.141  0.00  0.00     0.022 A 
ATOM      7  C5  UNL d   1      -2.098   0.630   1.080  0.00  0.00     0.026 A 
ATOM      8  C6  UNL d   1      -0.664   0.657   1.129  0.00  0.00    -0.082 A 
ATOM      9  C7  UNL d   1       0.229   0.338   2.181  0.00  0.00     0.045 A 
ENDROOT
TORSDOF 0
ENDMDL
