MODEL 1
REMARK minimizedAffinity 1.44626474
REMARK minimizedRMSD -1
REMARK  0 active torsions:
REMARK  status: ('A' for Active; 'I' for Inactive)
ROOT
ATOM      1  C   UNL d   1       1.700   0.484   2.314  0.00  0.00    -0.002 A 
ATOM      2  C1  UNL d   1       0.493   0.579   2.990  0.00  0.00     0.010 A 
ATOM      3  C2  UNL d   1      -0.716   0.574   2.291  0.00  0.00     0.041 A 
ATOM      4  C3  UNL d   1      -0.689   0.470   0.886  0.00  0.00    -0.075 A 
ATOM      5  S   UNL d   1      -2.044   0.443  -0.180  0.00  0.00     0.015 SA
ATOM      6  C4  UNL d   1      -1.052   0.304  -1.558  0.00  0.00     0.022 A 
ATOM      7  C5  UNL d   1       0.283   0.278  -1.232  0.00  0.00     0.026 A 
ATOM      8  C6  UNL d   1       0.514   0.372   0.182  0.00  0.00    -0.082 A 
ATOM      9  C7  UNL d   1       1.722   0.381   0.920  0.00  0.00     0.045 A 
ENDROOT
TORSDOF 0
ENDMDL
