MODEL 1
REMARK minimizedAffinity -1.79608083
REMARK minimizedRMSD -1
REMARK  0 active torsions:
REMARK  status: ('A' for Active; 'I' for Inactive)
ROOT
ATOM      1  C   UNL d   1       0.177   0.375   1.047  0.00  0.00    -0.002 A 
ATOM      2  C1  UNL d   1      -0.855  -0.530   0.850  0.00  0.00     0.010 A 
ATOM      3  C2  UNL d   1      -1.005  -1.181  -0.376  0.00  0.00     0.041 A 
ATOM      4  C3  UNL d   1      -0.090  -0.905  -1.410  0.00  0.00    -0.075 A 
ATOM      5  S   UNL d   1      -0.076  -1.583  -2.995  0.00  0.00     0.015 SA
ATOM      6  C4  UNL d   1       1.301  -0.687  -3.448  0.00  0.00     0.022 A 
ATOM      7  C5  UNL d   1       1.752   0.115  -2.428  0.00  0.00     0.026 A 
ATOM      8  C6  UNL d   1       0.959   0.003  -1.236  0.00  0.00    -0.082 A 
ATOM      9  C7  UNL d   1       1.083   0.647   0.018  0.00  0.00     0.045 A 
ENDROOT
TORSDOF 0
ENDMDL
