MODEL 1
REMARK minimizedAffinity -1.60729539
REMARK minimizedRMSD -1
REMARK  0 active torsions:
REMARK  status: ('A' for Active; 'I' for Inactive)
ROOT
ATOM      1  C   UNL d   1       1.660  -0.093   2.481  0.00  0.00    -0.002 A 
ATOM      2  C1  UNL d   1       0.343   0.310   2.651  0.00  0.00     0.010 A 
ATOM      3  C2  UNL d   1      -0.487   0.509   1.546  0.00  0.00     0.041 A 
ATOM      4  C3  UNL d   1       0.033   0.292   0.255  0.00  0.00    -0.075 A 
ATOM      5  S   UNL d   1      -0.799   0.471  -1.245  0.00  0.00     0.015 SA
ATOM      6  C4  UNL d   1       0.575   0.017  -2.146  0.00  0.00     0.022 A 
ATOM      7  C5  UNL d   1       1.650  -0.268  -1.339  0.00  0.00     0.026 A 
ATOM      8  C6  UNL d   1       1.356  -0.115   0.058  0.00  0.00    -0.082 A 
ATOM      9  C7  UNL d   1       2.173  -0.307   1.198  0.00  0.00     0.045 A 
ENDROOT
TORSDOF 0
ENDMDL
