MODEL 1
REMARK minimizedAffinity -1.1876601
REMARK minimizedRMSD -1
REMARK  0 active torsions:
REMARK  status: ('A' for Active; 'I' for Inactive)
ROOT
ATOM      1  C   UNL d   1      -0.754   0.158   2.683  0.00  0.00    -0.002 A 
ATOM      2  C1  UNL d   1       0.621   0.286   2.549  0.00  0.00     0.010 A 
ATOM      3  C2  UNL d   1       1.207   0.367   1.284  0.00  0.00     0.041 A 
ATOM      4  C3  UNL d   1       0.379   0.319   0.145  0.00  0.00    -0.075 A 
ATOM      5  S   UNL d   1       0.874   0.401  -1.504  0.00  0.00     0.015 SA
ATOM      6  C4  UNL d   1      -0.728   0.270  -2.069  0.00  0.00     0.022 A 
ATOM      7  C5  UNL d   1      -1.632   0.164  -1.039  0.00  0.00     0.026 A 
ATOM      8  C6  UNL d   1      -1.009   0.191   0.255  0.00  0.00    -0.082 A 
ATOM      9  C7  UNL d   1      -1.572   0.111   1.551  0.00  0.00     0.045 A 
ENDROOT
TORSDOF 0
ENDMDL
