MODEL 1
REMARK minimizedAffinity -0.462617308
REMARK minimizedRMSD -1
REMARK  0 active torsions:
REMARK  status: ('A' for Active; 'I' for Inactive)
ROOT
ATOM      1  C   UNL d   1       5.249  -2.085   3.374  0.00  0.00    -0.002 A 
ATOM      2  C1  UNL d   1       4.386  -2.600   2.417  0.00  0.00     0.010 A 
ATOM      3  C2  UNL d   1       3.726  -3.811   2.635  0.00  0.00     0.041 A 
ATOM      4  C3  UNL d   1       3.948  -4.501   3.843  0.00  0.00    -0.075 A 
ATOM      5  S   UNL d   1       3.247  -6.000   4.327  0.00  0.00     0.015 SA
ATOM      6  C4  UNL d   1       4.077  -5.992   5.816  0.00  0.00     0.022 A 
ATOM      7  C5  UNL d   1       4.873  -4.880   5.957  0.00  0.00     0.026 A 
ATOM      8  C6  UNL d   1       4.812  -4.002   4.822  0.00  0.00    -0.082 A 
ATOM      9  C7  UNL d   1       5.467  -2.773   4.571  0.00  0.00     0.045 A 
ENDROOT
TORSDOF 0
ENDMDL
