MODEL 1
REMARK minimizedAffinity 1.31456637
REMARK minimizedRMSD -1
REMARK  0 active torsions:
REMARK  status: ('A' for Active; 'I' for Inactive)
ROOT
ATOM      1  C   UNL d   1       1.280  -0.627   0.651  0.00  0.00     0.023 A 
ATOM      2  C1  UNL d   1       1.353   0.628   1.256  0.00  0.00     0.003 A 
ATOM      3  C2  UNL d   1       1.337   1.784   0.474  0.00  0.00     0.048 A 
ATOM      4  C3  UNL d   1       1.247   1.678  -0.914  0.00  0.00     0.023 A 
ATOM      5  C4  UNL d   1       1.173   0.425  -1.524  0.00  0.00     0.048 A 
ATOM      6  C5  UNL d   1       1.190  -0.728  -0.737  0.00  0.00     0.003 A 
ATOM      7  I   UNL d   1       1.222   3.398  -2.081  0.00  0.00    -0.146 I 
ENDROOT
TORSDOF 0
ENDMDL
