MODEL 1
REMARK minimizedAffinity -0.408213466
REMARK minimizedRMSD -1
REMARK  0 active torsions:
REMARK  status: ('A' for Active; 'I' for Inactive)
ROOT
ATOM      1  C   UNL d   1       0.977  -0.051   0.004  0.00  0.00     0.023 A 
ATOM      2  C1  UNL d   1       1.066   0.260  -1.353  0.00  0.00     0.003 A 
ATOM      3  C2  UNL d   1       1.242   1.585  -1.756  0.00  0.00     0.048 A 
ATOM      4  C3  UNL d   1       1.328   2.594  -0.798  0.00  0.00     0.023 A 
ATOM      5  C4  UNL d   1       1.240   2.287   0.561  0.00  0.00     0.048 A 
ATOM      6  C5  UNL d   1       1.064   0.961   0.960  0.00  0.00     0.003 A 
ATOM      7  I   UNL d   1       1.589   4.568  -1.396  0.00  0.00    -0.146 I 
ENDROOT
TORSDOF 0
ENDMDL
