MODEL 1
REMARK minimizedAffinity 9.18663502
REMARK minimizedRMSD -1
REMARK  0 active torsions:
REMARK  status: ('A' for Active; 'I' for Inactive)
ROOT
ATOM      1  C   UNL d   1       0.578  -0.674  -1.507  0.00  0.00     0.023 A 
ATOM      2  C1  UNL d   1       0.522   0.715  -1.617  0.00  0.00     0.003 A 
ATOM      3  C2  UNL d   1       1.040   1.519  -0.600  0.00  0.00     0.048 A 
ATOM      4  C3  UNL d   1       1.614   0.927   0.524  0.00  0.00     0.023 A 
ATOM      5  C4  UNL d   1       1.673  -0.463   0.639  0.00  0.00     0.048 A 
ATOM      6  C5  UNL d   1       1.153  -1.263  -0.380  0.00  0.00     0.003 A 
ATOM      7  I   UNL d   1       2.387   2.122   2.039  0.00  0.00    -0.146 I 
ENDROOT
TORSDOF 0
ENDMDL
