MODEL 1
REMARK minimizedAffinity -2.14246011
REMARK minimizedRMSD -1
REMARK  0 active torsions:
REMARK  status: ('A' for Active; 'I' for Inactive)
ROOT
ATOM      1  C   UNL d   1       0.989   0.535  -0.660  0.00  0.00     0.023 A 
ATOM      2  C1  UNL d   1       1.181   1.108  -1.918  0.00  0.00     0.003 A 
ATOM      3  C2  UNL d   1       1.519   2.458  -2.028  0.00  0.00     0.048 A 
ATOM      4  C3  UNL d   1       1.664   3.230  -0.876  0.00  0.00     0.023 A 
ATOM      5  C4  UNL d   1       1.473   2.662   0.385  0.00  0.00     0.048 A 
ATOM      6  C5  UNL d   1       1.135   1.311   0.489  0.00  0.00     0.003 A 
ATOM      7  I   UNL d   1       2.167   5.240  -1.037  0.00  0.00    -0.146 I 
ENDROOT
TORSDOF 0
ENDMDL
