MODEL 1
REMARK minimizedAffinity -0.93913579
REMARK minimizedRMSD -1
REMARK  0 active torsions:
REMARK  status: ('A' for Active; 'I' for Inactive)
ROOT
ATOM      1  C   UNL d   1       0.823   0.617  -0.366  0.00  0.00     0.023 A 
ATOM      2  C1  UNL d   1       0.961   1.471   0.728  0.00  0.00     0.003 A 
ATOM      3  C2  UNL d   1       1.246   2.824   0.528  0.00  0.00     0.048 A 
ATOM      4  C3  UNL d   1       1.390   3.315  -0.769  0.00  0.00     0.023 A 
ATOM      5  C4  UNL d   1       1.252   2.464  -1.866  0.00  0.00     0.048 A 
ATOM      6  C5  UNL d   1       0.968   1.113  -1.661  0.00  0.00     0.003 A 
ATOM      7  I   UNL d   1       1.814   5.328  -1.069  0.00  0.00    -0.146 I 
ENDROOT
TORSDOF 0
ENDMDL
