MODEL 1
REMARK minimizedAffinity 1.40047932
REMARK minimizedRMSD -1
REMARK  0 active torsions:
REMARK  status: ('A' for Active; 'I' for Inactive)
ROOT
ATOM      1  C   UNL d   1      -0.136  -4.027  -1.559  0.00  0.00     0.023 A 
ATOM      2  C1  UNL d   1      -0.977  -2.937  -1.783  0.00  0.00     0.003 A 
ATOM      3  C2  UNL d   1      -0.508  -1.638  -1.579  0.00  0.00     0.048 A 
ATOM      4  C3  UNL d   1       0.803  -1.435  -1.151  0.00  0.00     0.023 A 
ATOM      5  C4  UNL d   1       1.649  -2.523  -0.925  0.00  0.00     0.048 A 
ATOM      6  C5  UNL d   1       1.176  -3.820  -1.130  0.00  0.00     0.003 A 
ATOM      7  I   UNL d   1       1.503   0.498  -0.846  0.00  0.00    -0.146 I 
ENDROOT
TORSDOF 0
ENDMDL
