MODEL 1
REMARK minimizedAffinity 6.79864693
REMARK minimizedRMSD -1
REMARK  0 active torsions:
REMARK  status: ('A' for Active; 'I' for Inactive)
ROOT
ATOM      1  C   UNL d   1       1.013   1.268  -0.386  0.00  0.00     0.023 A 
ATOM      2  C1  UNL d   1       0.890   2.182   0.660  0.00  0.00     0.003 A 
ATOM      3  C2  UNL d   1       1.119   3.541   0.433  0.00  0.00     0.048 A 
ATOM      4  C3  UNL d   1       1.472   3.978  -0.844  0.00  0.00     0.023 A 
ATOM      5  C4  UNL d   1       1.595   3.067  -1.894  0.00  0.00     0.048 A 
ATOM      6  C5  UNL d   1       1.366   1.709  -1.661  0.00  0.00     0.003 A 
ATOM      7  I   UNL d   1       1.814   5.999  -1.185  0.00  0.00    -0.146 I 
ENDROOT
TORSDOF 0
ENDMDL
