MODEL 1
REMARK minimizedAffinity 6.61521912
REMARK minimizedRMSD -1
REMARK  0 active torsions:
REMARK  status: ('A' for Active; 'I' for Inactive)
ROOT
ATOM      1  C   UNL d   1       0.902  -0.403  -1.096  0.00  0.00     0.023 A 
ATOM      2  C1  UNL d   1       1.623   0.230  -0.083  0.00  0.00     0.003 A 
ATOM      3  C2  UNL d   1       1.985   1.572  -0.215  0.00  0.00     0.048 A 
ATOM      4  C3  UNL d   1       1.621   2.276  -1.362  0.00  0.00     0.023 A 
ATOM      5  C4  UNL d   1       0.899   1.648  -2.378  0.00  0.00     0.048 A 
ATOM      6  C5  UNL d   1       0.540   0.305  -2.242  0.00  0.00     0.003 A 
ATOM      7  I   UNL d   1       2.157   4.275  -1.561  0.00  0.00    -0.146 I 
ENDROOT
TORSDOF 0
ENDMDL
