MODEL 1
REMARK minimizedAffinity -4.32914877
REMARK minimizedRMSD -1
REMARK  0 active torsions:
REMARK  status: ('A' for Active; 'I' for Inactive)
ROOT
ATOM      1  C   UNL d   1       0.617   0.164   0.055  0.00  0.00     0.023 A 
ATOM      2  C1  UNL d   1       0.673   1.113   1.076  0.00  0.00     0.003 A 
ATOM      3  C2  UNL d   1       0.948   2.449   0.775  0.00  0.00     0.048 A 
ATOM      4  C3  UNL d   1       1.164   2.829  -0.550  0.00  0.00     0.023 A 
ATOM      5  C4  UNL d   1       1.107   1.883  -1.574  0.00  0.00     0.048 A 
ATOM      6  C5  UNL d   1       0.834   0.548  -1.268  0.00  0.00     0.003 A 
ATOM      7  I   UNL d   1       1.571   4.816  -1.001  0.00  0.00    -0.146 I 
ENDROOT
TORSDOF 0
ENDMDL
