MODEL 1
REMARK minimizedAffinity 4.44787264
REMARK minimizedRMSD -1
REMARK  0 active torsions:
REMARK  status: ('A' for Active; 'I' for Inactive)
ROOT
ATOM      1  C   UNL d   1       3.134   0.801   1.091  0.00  0.00     0.023 A 
ATOM      2  C1  UNL d   1       2.396   1.931   1.444  0.00  0.00     0.003 A 
ATOM      3  C2  UNL d   1       1.634   2.597   0.481  0.00  0.00     0.048 A 
ATOM      4  C3  UNL d   1       1.614   2.128  -0.831  0.00  0.00     0.023 A 
ATOM      5  C4  UNL d   1       2.350   0.997  -1.188  0.00  0.00     0.048 A 
ATOM      6  C5  UNL d   1       3.111   0.335  -0.223  0.00  0.00     0.003 A 
ATOM      7  I   UNL d   1       0.480   3.117  -2.265  0.00  0.00    -0.146 I 
ENDROOT
TORSDOF 0
ENDMDL
