MODEL 1
REMARK minimizedAffinity 5.40387297
REMARK minimizedRMSD -1
REMARK  0 active torsions:
REMARK  status: ('A' for Active; 'I' for Inactive)
ROOT
ATOM      1  C   UNL d   1       1.852   0.288   0.793  0.00  0.00     0.023 A 
ATOM      2  C1  UNL d   1       1.476   1.621   0.960  0.00  0.00     0.003 A 
ATOM      3  C2  UNL d   1       0.899   2.324  -0.100  0.00  0.00     0.048 A 
ATOM      4  C3  UNL d   1       0.699   1.687  -1.324  0.00  0.00     0.023 A 
ATOM      5  C4  UNL d   1       1.073   0.353  -1.496  0.00  0.00     0.048 A 
ATOM      6  C5  UNL d   1       1.651  -0.345  -0.434  0.00  0.00     0.003 A 
ATOM      7  I   UNL d   1      -0.160   2.730  -2.903  0.00  0.00    -0.146 I 
ENDROOT
TORSDOF 0
ENDMDL
