MODEL 1
REMARK minimizedAffinity 7.64104891
REMARK minimizedRMSD -1
REMARK  0 active torsions:
REMARK  status: ('A' for Active; 'I' for Inactive)
ROOT
ATOM      1  C   UNL d   1       0.707   0.692  -2.129  0.00  0.00     0.023 A 
ATOM      2  C1  UNL d   1       1.599   0.932  -1.083  0.00  0.00     0.003 A 
ATOM      3  C2  UNL d   1       1.742   2.222  -0.567  0.00  0.00     0.048 A 
ATOM      4  C3  UNL d   1       0.989   3.267  -1.101  0.00  0.00     0.023 A 
ATOM      5  C4  UNL d   1       0.094   3.032  -2.146  0.00  0.00     0.048 A 
ATOM      6  C5  UNL d   1      -0.044   1.741  -2.659  0.00  0.00     0.003 A 
ATOM      7  I   UNL d   1       1.199   5.187  -0.334  0.00  0.00    -0.146 I 
ENDROOT
TORSDOF 0
ENDMDL
