MODEL 1
REMARK minimizedAffinity 5.49260998
REMARK minimizedRMSD -1
REMARK  0 active torsions:
REMARK  status: ('A' for Active; 'I' for Inactive)
ROOT
ATOM      1  C   UNL d   1       0.664   0.217  -1.440  0.00  0.00     0.023 A 
ATOM      2  C1  UNL d   1       0.126   1.227  -2.236  0.00  0.00     0.003 A 
ATOM      3  C2  UNL d   1       0.402   2.566  -1.950  0.00  0.00     0.048 A 
ATOM      4  C3  UNL d   1       1.219   2.887  -0.866  0.00  0.00     0.023 A 
ATOM      5  C4  UNL d   1       1.760   1.879  -0.067  0.00  0.00     0.048 A 
ATOM      6  C5  UNL d   1       1.480   0.542  -0.356  0.00  0.00     0.003 A 
ATOM      7  I   UNL d   1       1.632   4.878  -0.438  0.00  0.00    -0.146 I 
ENDROOT
TORSDOF 0
ENDMDL
