MODEL 1
REMARK minimizedAffinity -0.631992698
REMARK minimizedRMSD -1
REMARK  0 active torsions:
REMARK  status: ('A' for Active; 'I' for Inactive)
ROOT
ATOM      1  N1  IND d   1       5.256  -3.239   4.406  0.00  0.00    -0.196 N 
ATOM      2  C2  IND d   1       5.747  -2.494   3.369  0.00  0.00     0.054 A 
ATOM      3  C3  IND d   1       4.734  -2.025   2.607  0.00  0.00    -0.031 A 
ATOM      4  C4  IND d   1       2.192  -2.271   2.932  0.00  0.00     0.051 A 
ATOM      5  C5  IND d   1       1.261  -2.893   3.716  0.00  0.00    -0.031 A 
ATOM      6  C6  IND d   1       1.622  -3.676   4.794  0.00  0.00     0.015 A 
ATOM      7  C7  IND d   1       2.932  -3.857   5.135  0.00  0.00    -0.016 A 
ATOM      8  C8  IND d   1       3.880  -3.233   4.337  0.00  0.00    -0.047 A 
ATOM      9  C9  IND d   1       3.522  -2.472   3.217  0.00  0.00    -0.096 A 
ATOM     10  HN1 IND d   1       5.728  -3.643   5.000  0.00  0.00     0.298 HD
ENDROOT
TORSDOF 0
ENDMDL
