MODEL 1
REMARK minimizedAffinity 10.5349274
REMARK minimizedRMSD -1
REMARK  0 active torsions:
REMARK  status: ('A' for Active; 'I' for Inactive)
ROOT
ATOM      1  N1  IND d   1      -2.103  -0.336  -1.892  0.00  0.00    -0.196 N 
ATOM      2  C2  IND d   1      -1.578  -1.234  -1.006  0.00  0.00     0.054 A 
ATOM      3  C3  IND d   1      -1.420  -0.660   0.208  0.00  0.00    -0.031 A 
ATOM      4  C4  IND d   1      -2.052   1.709   0.991  0.00  0.00     0.051 A 
ATOM      5  C5  IND d   1      -2.528   2.905   0.530  0.00  0.00    -0.031 A 
ATOM      6  C6  IND d   1      -2.897   3.084  -0.787  0.00  0.00     0.015 A 
ATOM      7  C7  IND d   1      -2.814   2.066  -1.695  0.00  0.00    -0.016 A 
ATOM      8  C8  IND d   1      -2.324   0.853  -1.232  0.00  0.00    -0.047 A 
ATOM      9  C9  IND d   1      -1.908   0.678   0.094  0.00  0.00    -0.096 A 
ATOM     10  HN1 IND d   1      -2.268  -0.488  -2.722  0.00  0.00     0.298 HD
ENDROOT
TORSDOF 0
ENDMDL
