MODEL 1
REMARK minimizedAffinity 16.3493958
REMARK minimizedRMSD -1
REMARK  0 active torsions:
REMARK  status: ('A' for Active; 'I' for Inactive)
ROOT
ATOM      1  N1  IND d   1       2.853   0.245  -3.647  0.00  0.00    -0.196 N 
ATOM      2  C2  IND d   1       3.350  -0.933  -3.165  0.00  0.00     0.054 A 
ATOM      3  C3  IND d   1       4.575  -1.175  -3.683  0.00  0.00    -0.031 A 
ATOM      4  C4  IND d   1       5.999   0.279  -5.260  0.00  0.00     0.051 A 
ATOM      5  C5  IND d   1       5.955   1.427  -6.000  0.00  0.00    -0.031 A 
ATOM      6  C6  IND d   1       4.854   2.258  -5.991  0.00  0.00     0.015 A 
ATOM      7  C7  IND d   1       3.755   1.977  -5.229  0.00  0.00    -0.016 A 
ATOM      8  C8  IND d   1       3.793   0.808  -4.482  0.00  0.00    -0.047 A 
ATOM      9  C9  IND d   1       4.891  -0.061  -4.520  0.00  0.00    -0.096 A 
ATOM     10  HN1 IND d   1       2.083   0.579  -3.460  0.00  0.00     0.298 HD
ENDROOT
TORSDOF 0
ENDMDL
