MODEL 1
REMARK minimizedAffinity 16.1523457
REMARK minimizedRMSD -1
REMARK  0 active torsions:
REMARK  status: ('A' for Active; 'I' for Inactive)
ROOT
ATOM      1  N1  IND d   1       0.337  -0.246  -0.841  0.00  0.00    -0.196 N 
ATOM      2  C2  IND d   1       1.437  -1.002  -0.549  0.00  0.00     0.054 A 
ATOM      3  C3  IND d   1       2.233  -0.354   0.331  0.00  0.00    -0.031 A 
ATOM      4  C4  IND d   1       1.873   1.911   1.500  0.00  0.00     0.051 A 
ATOM      5  C5  IND d   1       1.032   2.988   1.527  0.00  0.00    -0.031 A 
ATOM      6  C6  IND d   1      -0.109   3.041   0.752  0.00  0.00     0.015 A 
ATOM      7  C7  IND d   1      -0.458   2.011  -0.073  0.00  0.00    -0.016 A 
ATOM      8  C8  IND d   1       0.398   0.919  -0.109  0.00  0.00    -0.047 A 
ATOM      9  C9  IND d   1       1.579   0.877   0.644  0.00  0.00    -0.096 A 
ATOM     10  HN1 IND d   1      -0.289  -0.462  -1.390  0.00  0.00     0.298 HD
ENDROOT
TORSDOF 0
ENDMDL
