MODEL 1
REMARK minimizedAffinity 11.5433807
REMARK minimizedRMSD -1
REMARK  0 active torsions:
REMARK  status: ('A' for Active; 'I' for Inactive)
ROOT
ATOM      1  N1  IND d   1       1.050  -0.247   3.005  0.00  0.00    -0.196 N 
ATOM      2  C2  IND d   1       1.683  -0.108   1.801  0.00  0.00     0.054 A 
ATOM      3  C3  IND d   1       2.444  -1.195   1.541  0.00  0.00    -0.031 A 
ATOM      4  C4  IND d   1       2.718  -3.362   2.903  0.00  0.00     0.051 A 
ATOM      5  C5  IND d   1       2.368  -3.940   4.092  0.00  0.00    -0.031 A 
ATOM      6  C6  IND d   1       1.541  -3.304   4.995  0.00  0.00     0.015 A 
ATOM      7  C7  IND d   1       1.023  -2.066   4.738  0.00  0.00    -0.016 A 
ATOM      8  C8  IND d   1       1.383  -1.474   3.536  0.00  0.00    -0.047 A 
ATOM      9  C9  IND d   1       2.255  -2.096   2.634  0.00  0.00    -0.096 A 
ATOM     10  HN1 IND d   1       0.532   0.335   3.369  0.00  0.00     0.298 HD
ENDROOT
TORSDOF 0
ENDMDL
