MODEL 1
REMARK minimizedAffinity 11.6006184
REMARK minimizedRMSD -1
REMARK  0 active torsions:
REMARK  status: ('A' for Active; 'I' for Inactive)
ROOT
ATOM      1  N1  IND d   1       1.421  -0.762   4.127  0.00  0.00    -0.196 N 
ATOM      2  C2  IND d   1       2.357  -0.273   3.259  0.00  0.00     0.054 A 
ATOM      3  C3  IND d   1       3.084  -1.283   2.732  0.00  0.00    -0.031 A 
ATOM      4  C4  IND d   1       2.842  -3.823   3.074  0.00  0.00     0.051 A 
ATOM      5  C5  IND d   1       2.152  -4.751   3.802  0.00  0.00    -0.031 A 
ATOM      6  C6  IND d   1       1.162  -4.390   4.692  0.00  0.00     0.015 A 
ATOM      7  C7  IND d   1       0.814  -3.082   4.879  0.00  0.00    -0.016 A 
ATOM      8  C8  IND d   1       1.517  -2.136   4.146  0.00  0.00    -0.047 A 
ATOM      9  C9  IND d   1       2.553  -2.494   3.273  0.00  0.00    -0.096 A 
ATOM     10  HN1 IND d   1       0.865  -0.291   4.584  0.00  0.00     0.298 HD
ENDROOT
TORSDOF 0
ENDMDL
