MODEL 1
REMARK minimizedAffinity 4.80658913
REMARK minimizedRMSD -1
REMARK  0 active torsions:
REMARK  status: ('A' for Active; 'I' for Inactive)
ROOT
ATOM      1  N1  IND d   1       1.509  -1.313   4.165  0.00  0.00    -0.196 N 
ATOM      2  C2  IND d   1       1.699  -2.105   3.067  0.00  0.00     0.054 A 
ATOM      3  C3  IND d   1       2.271  -1.396   2.068  0.00  0.00    -0.031 A 
ATOM      4  C4  IND d   1       3.075   1.049   2.052  0.00  0.00     0.051 A 
ATOM      5  C5  IND d   1       3.084   2.186   2.811  0.00  0.00    -0.031 A 
ATOM      6  C6  IND d   1       2.560   2.214   4.087  0.00  0.00     0.015 A 
ATOM      7  C7  IND d   1       2.015   1.098   4.658  0.00  0.00    -0.016 A 
ATOM      8  C8  IND d   1       1.998  -0.056   3.887  0.00  0.00    -0.047 A 
ATOM      9  C9  IND d   1       2.490  -0.079   2.576  0.00  0.00    -0.096 A 
ATOM     10  HN1 IND d   1       1.145  -1.559   4.904  0.00  0.00     0.298 HD
ENDROOT
TORSDOF 0
ENDMDL
