MODEL 1
REMARK minimizedAffinity -4.24640656
REMARK minimizedRMSD -1
REMARK  1 active torsions:
REMARK  status: ('A' for Active; 'I' for Inactive)
REMARK    1  A    between atoms: C1_2  and  C2_3 
ROOT
ATOM      1  C2  UNL d   1       0.871   0.846  -0.947  0.00  0.00    -0.077 A 
ATOM      2  C3  UNL d   1       1.371  -0.363  -0.442  0.00  0.00     0.002 A 
ATOM      3  C4  UNL d   1       0.530  -1.244   0.240  0.00  0.00     0.002 A 
ATOM      4  C5  UNL d   1      -0.815  -0.929   0.420  0.00  0.00    -0.004 A 
ATOM      5  C6  UNL d   1      -1.321   0.271  -0.077  0.00  0.00     0.002 A 
ATOM      6  C7  UNL d   1      -0.482   1.155  -0.758  0.00  0.00     0.002 A 
ENDROOT
BRANCH   1   7
ATOM      7  C1  UNL d   1       1.764   1.776  -1.726  0.00  0.00     0.055 C 
ATOM      8  C   UNL d   1       1.190   2.069  -3.104  0.00  0.00     0.019 C 
ENDBRANCH   1   7
TORSDOF 1
ENDMDL
