MODEL 1
REMARK minimizedAffinity -3.87412548
REMARK minimizedRMSD -1
REMARK  1 active torsions:
REMARK  status: ('A' for Active; 'I' for Inactive)
REMARK    1  A    between atoms: C1_2  and  C2_3 
ROOT
ATOM      1  C2  UNL d   1      -0.989  -0.962   0.668  0.00  0.00    -0.077 A 
ATOM      2  C3  UNL d   1       0.280  -0.599   0.196  0.00  0.00     0.002 A 
ATOM      3  C4  UNL d   1       0.664   0.743   0.163  0.00  0.00     0.002 A 
ATOM      4  C5  UNL d   1      -0.213   1.731   0.604  0.00  0.00    -0.004 A 
ATOM      5  C6  UNL d   1      -1.478   1.380   1.074  0.00  0.00     0.002 A 
ATOM      6  C7  UNL d   1      -1.864   0.040   1.107  0.00  0.00     0.002 A 
ENDROOT
BRANCH   1   7
ATOM      7  C1  UNL d   1      -1.387  -2.413   0.751  0.00  0.00     0.055 C 
ATOM      8  C   UNL d   1      -2.337  -2.661   1.913  0.00  0.00     0.019 C 
ENDBRANCH   1   7
TORSDOF 1
ENDMDL
