MODEL 1
REMARK minimizedAffinity -4.49228764
REMARK minimizedRMSD -1
REMARK  1 active torsions:
REMARK  status: ('A' for Active; 'I' for Inactive)
REMARK    1  A    between atoms: C1_2  and  C2_3 
ROOT
ATOM      1  C2  UNL d   1      -0.192  -0.720   0.457  0.00  0.00    -0.077 A 
ATOM      2  C3  UNL d   1      -1.552  -0.380   0.449  0.00  0.00     0.002 A 
ATOM      3  C4  UNL d   1      -2.462  -1.092   1.234  0.00  0.00     0.002 A 
ATOM      4  C5  UNL d   1      -2.022  -2.144   2.034  0.00  0.00    -0.004 A 
ATOM      5  C6  UNL d   1      -0.671  -2.490   2.047  0.00  0.00     0.002 A 
ATOM      6  C7  UNL d   1       0.240  -1.782   1.263  0.00  0.00     0.002 A 
ENDROOT
BRANCH   1   7
ATOM      7  C1  UNL d   1       0.799   0.077  -0.350  0.00  0.00     0.055 C 
ATOM      8  C   UNL d   1       0.613   1.572  -0.135  0.00  0.00     0.019 C 
ENDBRANCH   1   7
TORSDOF 1
ENDMDL
