MODEL 1
REMARK minimizedAffinity -4.98986149
REMARK minimizedRMSD -1
REMARK  1 active torsions:
REMARK  status: ('A' for Active; 'I' for Inactive)
REMARK    1  A    between atoms: C1_2  and  C2_3 
ROOT
ATOM      1  C2  UNL d   1      -0.221  -0.401   0.448  0.00  0.00    -0.077 A 
ATOM      2  C3  UNL d   1      -1.120   0.613   0.808  0.00  0.00     0.002 A 
ATOM      3  C4  UNL d   1      -2.246   0.317   1.579  0.00  0.00     0.002 A 
ATOM      4  C5  UNL d   1      -2.481  -0.990   1.999  0.00  0.00    -0.004 A 
ATOM      5  C6  UNL d   1      -1.594  -2.006   1.644  0.00  0.00     0.002 A 
ATOM      6  C7  UNL d   1      -0.469  -1.712   0.873  0.00  0.00     0.002 A 
ENDROOT
BRANCH   1   7
ATOM      7  C1  UNL d   1       1.020  -0.075  -0.341  0.00  0.00     0.055 C 
ATOM      8  C   UNL d   1       0.998   1.363  -0.839  0.00  0.00     0.019 C 
ENDBRANCH   1   7
TORSDOF 1
ENDMDL
