MODEL 1
REMARK minimizedAffinity -3.47933531
REMARK minimizedRMSD -1
REMARK  1 active torsions:
REMARK  status: ('A' for Active; 'I' for Inactive)
REMARK    1  A    between atoms: C1_2  and  C2_3 
ROOT
ATOM      1  C2  UNL d   1       0.300   0.123   0.107  0.00  0.00    -0.077 A 
ATOM      2  C3  UNL d   1       0.814  -1.153   0.381  0.00  0.00     0.002 A 
ATOM      3  C4  UNL d   1       0.016  -2.117   0.999  0.00  0.00     0.002 A 
ATOM      4  C5  UNL d   1      -1.300  -1.819   1.344  0.00  0.00    -0.004 A 
ATOM      5  C6  UNL d   1      -1.820  -0.552   1.078  0.00  0.00     0.002 A 
ATOM      6  C7  UNL d   1      -1.024   0.414   0.461  0.00  0.00     0.002 A 
ENDROOT
BRANCH   1   7
ATOM      7  C1  UNL d   1       1.143   1.149  -0.604  0.00  0.00     0.055 C 
ATOM      8  C   UNL d   1       0.543   1.520  -1.952  0.00  0.00     0.019 C 
ENDBRANCH   1   7
TORSDOF 1
ENDMDL
