MODEL 1
REMARK minimizedAffinity -3.93997788
REMARK minimizedRMSD -1
REMARK  1 active torsions:
REMARK  status: ('A' for Active; 'I' for Inactive)
REMARK    1  A    between atoms: C1_2  and  C2_3 
ROOT
ATOM      1  C2  UNL d   1       0.677   1.414  -1.026  0.00  0.00    -0.077 A 
ATOM      2  C3  UNL d   1       0.680   0.039  -0.756  0.00  0.00     0.002 A 
ATOM      3  C4  UNL d   1      -0.026  -0.468   0.337  0.00  0.00     0.002 A 
ATOM      4  C5  UNL d   1      -0.743   0.394   1.165  0.00  0.00    -0.004 A 
ATOM      5  C6  UNL d   1      -0.750   1.764   0.906  0.00  0.00     0.002 A 
ATOM      6  C7  UNL d   1      -0.044   2.272  -0.185  0.00  0.00     0.002 A 
ENDROOT
BRANCH   1   7
ATOM      7  C1  UNL d   1       1.398   1.957  -2.233  0.00  0.00     0.055 C 
ATOM      8  C   UNL d   1       0.428   2.602  -3.213  0.00  0.00     0.019 C 
ENDBRANCH   1   7
TORSDOF 1
ENDMDL
