MODEL 1
REMARK minimizedAffinity -4.26834774
REMARK minimizedRMSD -1
REMARK  1 active torsions:
REMARK  status: ('A' for Active; 'I' for Inactive)
REMARK    1  A    between atoms: C1_2  and  C2_3 
ROOT
ATOM      1  C2  UNL d   1      -0.014   0.219   0.227  0.00  0.00    -0.077 A 
ATOM      2  C3  UNL d   1      -1.273  -0.254   0.625  0.00  0.00     0.002 A 
ATOM      3  C4  UNL d   1      -1.424  -1.564   1.082  0.00  0.00     0.002 A 
ATOM      4  C5  UNL d   1      -0.320  -2.412   1.149  0.00  0.00    -0.004 A 
ATOM      5  C6  UNL d   1       0.936  -1.952   0.753  0.00  0.00     0.002 A 
ATOM      6  C7  UNL d   1       1.088  -0.643   0.295  0.00  0.00     0.002 A 
ENDROOT
BRANCH   1   7
ATOM      7  C1  UNL d   1       0.159   1.647  -0.219  0.00  0.00     0.055 C 
ATOM      8  C   UNL d   1       1.051   1.738  -1.449  0.00  0.00     0.019 C 
ENDBRANCH   1   7
TORSDOF 1
ENDMDL
