MODEL 1
REMARK minimizedAffinity -4.76475573
REMARK minimizedRMSD -1
REMARK  1 active torsions:
REMARK  status: ('A' for Active; 'I' for Inactive)
REMARK    1  A    between atoms: C1_2  and  C2_3 
ROOT
ATOM      1  C2  UNL d   1       1.111   1.809  -1.330  0.00  0.00    -0.077 A 
ATOM      2  C3  UNL d   1       0.153   2.322  -2.215  0.00  0.00     0.002 A 
ATOM      3  C4  UNL d   1       0.478   2.546  -3.555  0.00  0.00     0.002 A 
ATOM      4  C5  UNL d   1       1.758   2.255  -4.021  0.00  0.00    -0.004 A 
ATOM      5  C6  UNL d   1       2.718   1.745  -3.148  0.00  0.00     0.002 A 
ATOM      6  C7  UNL d   1       2.396   1.522  -1.808  0.00  0.00     0.002 A 
ENDROOT
BRANCH   1   7
ATOM      7  C1  UNL d   1       0.749   1.521   0.104  0.00  0.00     0.055 C 
ATOM      8  C   UNL d   1       0.752   0.025   0.386  0.00  0.00     0.019 C 
ENDBRANCH   1   7
TORSDOF 1
ENDMDL
