MODEL 1
REMARK minimizedAffinity -2.42401505
REMARK minimizedRMSD -1
REMARK  1 active torsions:
REMARK  status: ('A' for Active; 'I' for Inactive)
REMARK    1  A    between atoms: C1_2  and  C2_3 
ROOT
ATOM      1  C2  UNL d   1       0.135   0.351   0.290  0.00  0.00    -0.077 A 
ATOM      2  C3  UNL d   1      -0.753  -0.719   0.109  0.00  0.00     0.002 A 
ATOM      3  C4  UNL d   1      -2.132  -0.504   0.139  0.00  0.00     0.002 A 
ATOM      4  C5  UNL d   1      -2.635   0.779   0.345  0.00  0.00    -0.004 A 
ATOM      5  C6  UNL d   1      -1.760   1.848   0.528  0.00  0.00     0.002 A 
ATOM      6  C7  UNL d   1      -0.381   1.636   0.500  0.00  0.00     0.002 A 
ENDROOT
BRANCH   1   7
ATOM      7  C1  UNL d   1       1.623   0.129   0.208  0.00  0.00     0.055 C 
ATOM      8  C   UNL d   1       2.018  -1.208   0.817  0.00  0.00     0.019 C 
ENDBRANCH   1   7
TORSDOF 1
ENDMDL
