MODEL 1
REMARK minimizedAffinity -5.90563393
REMARK minimizedRMSD -1
REMARK  1 active torsions:
REMARK  status: ('A' for Active; 'I' for Inactive)
REMARK    1  A    between atoms: C1_2  and  C2_3 
ROOT
ATOM      1  C2  UNL d   1      -0.749  -1.094   0.428  0.00  0.00    -0.077 A 
ATOM      2  C3  UNL d   1      -1.576   0.010   0.678  0.00  0.00     0.002 A 
ATOM      3  C4  UNL d   1      -2.783  -0.152   1.362  0.00  0.00     0.002 A 
ATOM      4  C5  UNL d   1      -3.170  -1.415   1.805  0.00  0.00    -0.004 A 
ATOM      5  C6  UNL d   1      -2.355  -2.519   1.559  0.00  0.00     0.002 A 
ATOM      6  C7  UNL d   1      -1.149  -2.359   0.875  0.00  0.00     0.002 A 
ENDROOT
BRANCH   1   7
ATOM      7  C1  UNL d   1       0.576  -0.913  -0.267  0.00  0.00     0.055 C 
ATOM      8  C   UNL d   1       0.818   0.546  -0.626  0.00  0.00     0.019 C 
ENDBRANCH   1   7
TORSDOF 1
ENDMDL
