MODEL 1
REMARK minimizedAffinity -3.95400262
REMARK minimizedRMSD -1
REMARK  1 active torsions:
REMARK  status: ('A' for Active; 'I' for Inactive)
REMARK    1  A    between atoms: C1_2  and  C2_3 
ROOT
ATOM      1  C2  UNL d   1       0.036  -0.271   0.120  0.00  0.00    -0.077 A 
ATOM      2  C3  UNL d   1      -1.285  -0.510  -0.282  0.00  0.00     0.002 A 
ATOM      3  C4  UNL d   1      -1.931  -1.693   0.082  0.00  0.00     0.002 A 
ATOM      4  C5  UNL d   1      -1.265  -2.644   0.852  0.00  0.00    -0.004 A 
ATOM      5  C6  UNL d   1       0.051  -2.416   1.255  0.00  0.00     0.002 A 
ATOM      6  C7  UNL d   1       0.698  -1.235   0.891  0.00  0.00     0.002 A 
ENDROOT
BRANCH   1   7
ATOM      7  C1  UNL d   1       0.718   1.026  -0.230  0.00  0.00     0.055 C 
ATOM      8  C   UNL d   1       1.031   1.104  -1.717  0.00  0.00     0.019 C 
ENDBRANCH   1   7
TORSDOF 1
ENDMDL
