MODEL 1
REMARK minimizedAffinity -1.87662446
REMARK minimizedRMSD -1
REMARK  0 active torsions:
REMARK  status: ('A' for Active; 'I' for Inactive)
ROOT
ATOM      1  N1  IND d   1      -0.448  -0.661   1.137  0.00  0.00    -0.196 N 
ATOM      2  C2  IND d   1      -0.092  -1.431   0.065  0.00  0.00     0.054 A 
ATOM      3  C3  IND d   1       0.697  -0.727  -0.778  0.00  0.00    -0.031 A 
ATOM      4  C4  IND d   1       1.614   1.667  -0.545  0.00  0.00     0.051 A 
ATOM      5  C5  IND d   1       1.536   2.778   0.247  0.00  0.00    -0.031 A 
ATOM      6  C6  IND d   1       0.779   2.799   1.400  0.00  0.00     0.015 A 
ATOM      7  C7  IND d   1       0.079   1.701   1.813  0.00  0.00    -0.016 A 
ATOM      8  C8  IND d   1       0.150   0.573   1.008  0.00  0.00    -0.047 A 
ATOM      9  C9  IND d   1       0.882   0.560  -0.186  0.00  0.00    -0.096 A 
ATOM     10  HN1 IND d   1      -0.959  -0.906   1.783  0.00  0.00     0.298 HD
ENDROOT
TORSDOF 0
ENDMDL
