MODEL 1
REMARK minimizedAffinity -1.4337846
REMARK minimizedRMSD -1
REMARK  0 active torsions:
REMARK  status: ('A' for Active; 'I' for Inactive)
ROOT
ATOM      1  N1  IND d   1       0.644   1.950   2.637  0.00  0.00    -0.196 N 
ATOM      2  C2  IND d   1       1.218   2.933   1.880  0.00  0.00     0.054 A 
ATOM      3  C3  IND d   1       1.156   2.612   0.568  0.00  0.00    -0.031 A 
ATOM      4  C4  IND d   1       0.066   0.575  -0.568  0.00  0.00     0.051 A 
ATOM      5  C5  IND d   1      -0.552  -0.611  -0.289  0.00  0.00    -0.031 A 
ATOM      6  C6  IND d   1      -0.810  -1.012   1.006  0.00  0.00     0.015 A 
ATOM      7  C7  IND d   1      -0.469  -0.231   2.075  0.00  0.00    -0.016 A 
ATOM      8  C8  IND d   1       0.165   0.971   1.795  0.00  0.00    -0.047 A 
ATOM      9  C9  IND d   1       0.468   1.363   0.485  0.00  0.00    -0.096 A 
ATOM     10  HN1 IND d   1       0.591   1.945   3.495  0.00  0.00     0.298 HD
ENDROOT
TORSDOF 0
ENDMDL
