MODEL 1
REMARK minimizedAffinity -3.40287399
REMARK minimizedRMSD -1
REMARK  0 active torsions:
REMARK  status: ('A' for Active; 'I' for Inactive)
ROOT
ATOM      1  N1  IND d   1      -0.832  -0.374  -2.823  0.00  0.00    -0.196 N 
ATOM      2  C2  IND d   1      -1.479  -1.578  -2.795  0.00  0.00     0.054 A 
ATOM      3  C3  IND d   1      -1.497  -2.073  -1.537  0.00  0.00    -0.031 A 
ATOM      4  C4  IND d   1      -0.617  -1.027   0.645  0.00  0.00     0.051 A 
ATOM      5  C5  IND d   1       0.085   0.046   1.119  0.00  0.00    -0.031 A 
ATOM      6  C6  IND d   1       0.523   1.056   0.287  0.00  0.00     0.015 A 
ATOM      7  C7  IND d   1       0.265   1.035  -1.055  0.00  0.00    -0.016 A 
ATOM      8  C8  IND d   1      -0.441  -0.056  -1.541  0.00  0.00    -0.047 A 
ATOM      9  C9  IND d   1      -0.851  -1.105  -0.708  0.00  0.00    -0.096 A 
ATOM     10  HN1 IND d   1      -0.692   0.104  -3.524  0.00  0.00     0.298 HD
ENDROOT
TORSDOF 0
ENDMDL
