MODEL 1
REMARK minimizedAffinity -5.17680931
REMARK minimizedRMSD -1
REMARK  0 active torsions:
REMARK  status: ('A' for Active; 'I' for Inactive)
ROOT
ATOM      1  N1  IND d   1       2.284  -0.221  -0.388  0.00  0.00    -0.196 N 
ATOM      2  C2  IND d   1       1.285  -1.132  -0.589  0.00  0.00     0.054 A 
ATOM      3  C3  IND d   1       0.154  -0.736   0.037  0.00  0.00    -0.031 A 
ATOM      4  C4  IND d   1      -0.311   1.421   1.364  0.00  0.00     0.051 A 
ATOM      5  C5  IND d   1       0.304   2.541   1.850  0.00  0.00    -0.031 A 
ATOM      6  C6  IND d   1       1.637   2.804   1.607  0.00  0.00     0.015 A 
ATOM      7  C7  IND d   1       2.405   1.959   0.857  0.00  0.00    -0.016 A 
ATOM      8  C8  IND d   1       1.786   0.817   0.368  0.00  0.00    -0.047 A 
ATOM      9  C9  IND d   1       0.444   0.524   0.646  0.00  0.00    -0.096 A 
ATOM     10  HN1 IND d   1       3.089  -0.286  -0.683  0.00  0.00     0.298 HD
ENDROOT
TORSDOF 0
ENDMDL
