MODEL 1
REMARK minimizedAffinity -2.41725969
REMARK minimizedRMSD -1
REMARK  0 active torsions:
REMARK  status: ('A' for Active; 'I' for Inactive)
ROOT
ATOM      1  N1  IND d   1       0.198   0.503  -1.429  0.00  0.00    -0.196 N 
ATOM      2  C2  IND d   1      -0.486  -0.618  -1.050  0.00  0.00     0.054 A 
ATOM      3  C3  IND d   1      -0.503  -0.725   0.298  0.00  0.00    -0.031 A 
ATOM      4  C4  IND d   1       0.441   0.877   2.078  0.00  0.00     0.051 A 
ATOM      5  C5  IND d   1       1.182   2.017   2.217  0.00  0.00    -0.031 A 
ATOM      6  C6  IND d   1       1.640   2.726   1.125  0.00  0.00     0.015 A 
ATOM      7  C7  IND d   1       1.363   2.326  -0.151  0.00  0.00    -0.016 A 
ATOM      8  C8  IND d   1       0.617   1.165  -0.296  0.00  0.00    -0.047 A 
ATOM      9  C9  IND d   1       0.185   0.418   0.807  0.00  0.00    -0.096 A 
ATOM     10  HN1 IND d   1       0.343   0.752  -2.239  0.00  0.00     0.298 HD
ENDROOT
TORSDOF 0
ENDMDL
