MODEL 1
REMARK minimizedAffinity -4.602139
REMARK minimizedRMSD -1
REMARK  0 active torsions:
REMARK  status: ('A' for Active; 'I' for Inactive)
ROOT
ATOM      1  N1  IND d   1      -0.008  -0.944  -0.312  0.00  0.00    -0.196 N 
ATOM      2  C2  IND d   1      -1.184  -1.094   0.368  0.00  0.00     0.054 A 
ATOM      3  C3  IND d   1      -1.353  -0.078   1.244  0.00  0.00    -0.031 A 
ATOM      4  C4  IND d   1       0.124   1.991   1.655  0.00  0.00     0.051 A 
ATOM      5  C5  IND d   1       1.320   2.548   1.299  0.00  0.00    -0.031 A 
ATOM      6  C6  IND d   1       2.150   1.960   0.366  0.00  0.00     0.015 A 
ATOM      7  C7  IND d   1       1.808   0.793  -0.256  0.00  0.00    -0.016 A 
ATOM      8  C8  IND d   1       0.598   0.220   0.109  0.00  0.00    -0.047 A 
ATOM      9  C9  IND d   1      -0.229   0.790   1.086  0.00  0.00    -0.096 A 
ATOM     10  HN1 IND d   1       0.302  -1.486  -0.904  0.00  0.00     0.298 HD
ENDROOT
TORSDOF 0
ENDMDL
