MODEL 1
REMARK minimizedAffinity -2.80579281
REMARK minimizedRMSD -1
REMARK  0 active torsions:
REMARK  status: ('A' for Active; 'I' for Inactive)
ROOT
ATOM      1  N1  IND d   1       1.003  -1.138   0.737  0.00  0.00    -0.196 N 
ATOM      2  C2  IND d   1       0.008  -1.748   0.026  0.00  0.00     0.054 A 
ATOM      3  C3  IND d   1      -0.614  -0.855  -0.776  0.00  0.00    -0.031 A 
ATOM      4  C4  IND d   1      -0.097   1.638  -1.156  0.00  0.00     0.051 A 
ATOM      5  C5  IND d   1       0.699   2.654  -0.705  0.00  0.00    -0.031 A 
ATOM      6  C6  IND d   1       1.658   2.453   0.267  0.00  0.00     0.015 A 
ATOM      7  C7  IND d   1       1.865   1.221   0.819  0.00  0.00    -0.016 A 
ATOM      8  C8  IND d   1       1.054   0.189   0.369  0.00  0.00    -0.047 A 
ATOM      9  C9  IND d   1       0.051   0.396  -0.587  0.00  0.00    -0.096 A 
ATOM     10  HN1 IND d   1       1.511  -1.518   1.316  0.00  0.00     0.298 HD
ENDROOT
TORSDOF 0
ENDMDL
