MODEL 1
REMARK minimizedAffinity -4.25827026
REMARK minimizedRMSD -1
REMARK  0 active torsions:
REMARK  status: ('A' for Active; 'I' for Inactive)
ROOT
ATOM      1  N1  IND d   1       1.646   0.774  -0.679  0.00  0.00    -0.196 N 
ATOM      2  C2  IND d   1       2.801   1.477  -0.882  0.00  0.00     0.054 A 
ATOM      3  C3  IND d   1       3.100   2.216   0.210  0.00  0.00    -0.031 A 
ATOM      4  C4  IND d   1       1.891   2.345   2.478  0.00  0.00     0.051 A 
ATOM      5  C5  IND d   1       0.769   1.911   3.127  0.00  0.00    -0.031 A 
ATOM      6  C6  IND d   1      -0.134   1.056   2.530  0.00  0.00     0.015 A 
ATOM      7  C7  IND d   1       0.057   0.592   1.259  0.00  0.00    -0.016 A 
ATOM      8  C8  IND d   1       1.191   1.037   0.594  0.00  0.00    -0.047 A 
ATOM      9  C9  IND d   1       2.090   1.938   1.180  0.00  0.00    -0.096 A 
ATOM     10  HN1 IND d   1       1.268   0.255  -1.251  0.00  0.00     0.298 HD
ENDROOT
TORSDOF 0
ENDMDL
