MODEL 1
REMARK minimizedAffinity -5.40115356
REMARK minimizedRMSD -1
REMARK  0 active torsions:
REMARK  status: ('A' for Active; 'I' for Inactive)
ROOT
ATOM      1  N1  IND d   1      -0.613   1.387   1.512  0.00  0.00    -0.196 N 
ATOM      2  C2  IND d   1      -0.065   2.635   1.618  0.00  0.00     0.054 A 
ATOM      3  C3  IND d   1       1.071   2.713   0.889  0.00  0.00    -0.031 A 
ATOM      4  C4  IND d   1       2.160   0.949  -0.637  0.00  0.00     0.051 A 
ATOM      5  C5  IND d   1       2.046  -0.356  -1.026  0.00  0.00    -0.031 A 
ATOM      6  C6  IND d   1       1.018  -1.163  -0.583  0.00  0.00     0.015 A 
ATOM      7  C7  IND d   1       0.054  -0.688   0.261  0.00  0.00    -0.016 A 
ATOM      8  C8  IND d   1       0.170   0.635   0.665  0.00  0.00    -0.047 A 
ATOM      9  C9  IND d   1       1.236   1.445   0.252  0.00  0.00    -0.096 A 
ATOM     10  HN1 IND d   1      -1.327   1.117   1.908  0.00  0.00     0.298 HD
ENDROOT
TORSDOF 0
ENDMDL
