MODEL 1
REMARK minimizedAffinity -0.213984162
REMARK minimizedRMSD -1
REMARK  0 active torsions:
REMARK  status: ('A' for Active; 'I' for Inactive)
ROOT
ATOM      1  N1  IND d   1      -0.391  -0.714   1.029  0.00  0.00    -0.196 N 
ATOM      2  C2  IND d   1      -1.247  -0.195   1.961  0.00  0.00     0.054 A 
ATOM      3  C3  IND d   1      -0.959   1.105   2.192  0.00  0.00    -0.031 A 
ATOM      4  C4  IND d   1       0.807   2.612   1.080  0.00  0.00     0.051 A 
ATOM      5  C5  IND d   1       1.850   2.579   0.197  0.00  0.00    -0.031 A 
ATOM      6  C6  IND d   1       2.204   1.423  -0.469  0.00  0.00     0.015 A 
ATOM      7  C7  IND d   1       1.519   0.256  -0.285  0.00  0.00    -0.016 A 
ATOM      8  C8  IND d   1       0.464   0.284   0.616  0.00  0.00    -0.047 A 
ATOM      9  C9  IND d   1       0.127   1.443   1.327  0.00  0.00    -0.096 A 
ATOM     10  HN1 IND d   1      -0.387  -1.526   0.749  0.00  0.00     0.298 HD
ENDROOT
TORSDOF 0
ENDMDL
