MODEL 1
REMARK minimizedAffinity -4.99194717
REMARK minimizedRMSD -1
REMARK  0 active torsions:
REMARK  status: ('A' for Active; 'I' for Inactive)
ROOT
ATOM      1  N1  IND d   1       2.350   1.441  -0.250  0.00  0.00    -0.196 N 
ATOM      2  C2  IND d   1       1.749   2.574   0.224  0.00  0.00     0.054 A 
ATOM      3  C3  IND d   1       0.468   2.317   0.571  0.00  0.00    -0.031 A 
ATOM      4  C4  IND d   1      -0.819   0.088   0.542  0.00  0.00     0.051 A 
ATOM      5  C5  IND d   1      -0.702  -1.219   0.157  0.00  0.00    -0.031 A 
ATOM      6  C6  IND d   1       0.462  -1.716  -0.392  0.00  0.00     0.015 A 
ATOM      7  C7  IND d   1       1.562  -0.924  -0.567  0.00  0.00    -0.016 A 
ATOM      8  C8  IND d   1       1.445   0.404  -0.183  0.00  0.00    -0.047 A 
ATOM      9  C9  IND d   1       0.252   0.925   0.335  0.00  0.00    -0.096 A 
ATOM     10  HN1 IND d   1       3.157   1.385  -0.541  0.00  0.00     0.298 HD
ENDROOT
TORSDOF 0
ENDMDL
