MODEL 1
REMARK minimizedAffinity -1.52252364
REMARK minimizedRMSD -1
REMARK  0 active torsions:
REMARK  status: ('A' for Active; 'I' for Inactive)
ROOT
ATOM      1  N1  IND d   1       1.571  -1.641  -0.403  0.00  0.00    -0.196 N 
ATOM      2  C2  IND d   1       0.299  -1.877   0.039  0.00  0.00     0.054 A 
ATOM      3  C3  IND d   1      -0.354  -0.711   0.237  0.00  0.00    -0.031 A 
ATOM      4  C4  IND d   1       0.436   1.701  -0.195  0.00  0.00     0.051 A 
ATOM      5  C5  IND d   1       1.535   2.424  -0.565  0.00  0.00    -0.031 A 
ATOM      6  C6  IND d   1       2.726   1.817  -0.909  0.00  0.00     0.015 A 
ATOM      7  C7  IND d   1       2.859   0.457  -0.907  0.00  0.00    -0.016 A 
ATOM      8  C8  IND d   1       1.747  -0.280  -0.525  0.00  0.00    -0.047 A 
ATOM      9  C9  IND d   1       0.549   0.332  -0.134  0.00  0.00    -0.096 A 
ATOM     10  HN1 IND d   1       2.162  -2.241  -0.575  0.00  0.00     0.298 HD
ENDROOT
TORSDOF 0
ENDMDL
