MODEL 1
REMARK minimizedAffinity -2.60729408
REMARK minimizedRMSD -1
REMARK  0 active torsions:
REMARK  status: ('A' for Active; 'I' for Inactive)
ROOT
ATOM      1  N1  IND d   1      -0.813   0.357  -1.265  0.00  0.00    -0.196 N 
ATOM      2  C2  IND d   1      -0.623  -0.951  -0.916  0.00  0.00     0.054 A 
ATOM      3  C3  IND d   1       0.103  -1.033   0.222  0.00  0.00    -0.031 A 
ATOM      4  C4  IND d   1       0.997   0.851   1.732  0.00  0.00     0.051 A 
ATOM      5  C5  IND d   1       1.106   2.211   1.806  0.00  0.00    -0.031 A 
ATOM      6  C6  IND d   1       0.567   3.040   0.843  0.00  0.00     0.015 A 
ATOM      7  C7  IND d   1      -0.113   2.537  -0.229  0.00  0.00    -0.016 A 
ATOM      8  C8  IND d   1      -0.219   1.156  -0.312  0.00  0.00    -0.047 A 
ATOM      9  C9  IND d   1       0.362   0.308   0.640  0.00  0.00    -0.096 A 
ATOM     10  HN1 IND d   1      -1.233   0.634  -1.962  0.00  0.00     0.298 HD
ENDROOT
TORSDOF 0
ENDMDL
