MODEL 1
REMARK minimizedAffinity -1.97250199
REMARK minimizedRMSD -1
REMARK  0 active torsions:
REMARK  status: ('A' for Active; 'I' for Inactive)
ROOT
ATOM      1  N1  IND d   1      -0.209   0.580  -1.011  0.00  0.00    -0.196 N 
ATOM      2  C2  IND d   1       0.216  -0.077   0.110  0.00  0.00     0.054 A 
ATOM      3  C3  IND d   1      -0.331  -1.312   0.168  0.00  0.00    -0.031 A 
ATOM      4  C4  IND d   1      -1.871  -2.499  -1.519  0.00  0.00     0.051 A 
ATOM      5  C5  IND d   1      -2.563  -2.289  -2.679  0.00  0.00    -0.031 A 
ATOM      6  C6  IND d   1      -2.502  -1.089  -3.357  0.00  0.00     0.015 A 
ATOM      7  C7  IND d   1      -1.735  -0.053  -2.905  0.00  0.00    -0.016 A 
ATOM      8  C8  IND d   1      -1.037  -0.260  -1.723  0.00  0.00    -0.047 A 
ATOM      9  C9  IND d   1      -1.128  -1.461  -1.008  0.00  0.00    -0.096 A 
ATOM     10  HN1 IND d   1       0.004   1.383  -1.233  0.00  0.00     0.298 HD
ENDROOT
TORSDOF 0
ENDMDL
