MODEL 1
REMARK minimizedAffinity -6.09800863
REMARK minimizedRMSD -1
REMARK  0 active torsions:
REMARK  status: ('A' for Active; 'I' for Inactive)
ROOT
ATOM      1  N1  IND d   1       0.323  -0.993  -0.423  0.00  0.00    -0.196 N 
ATOM      2  C2  IND d   1      -0.681  -1.548   0.320  0.00  0.00     0.054 A 
ATOM      3  C3  IND d   1      -1.085  -0.687   1.281  0.00  0.00    -0.031 A 
ATOM      4  C4  IND d   1      -0.308   1.723   1.750  0.00  0.00     0.051 A 
ATOM      5  C5  IND d   1       0.614   2.653   1.359  0.00  0.00    -0.031 A 
ATOM      6  C6  IND d   1       1.502   2.411   0.331  0.00  0.00     0.015 A 
ATOM      7  C7  IND d   1       1.494   1.229  -0.355  0.00  0.00    -0.016 A 
ATOM      8  C8  IND d   1       0.564   0.280   0.045  0.00  0.00    -0.047 A 
ATOM      9  C9  IND d   1      -0.312   0.503   1.115  0.00  0.00    -0.096 A 
ATOM     10  HN1 IND d   1       0.735  -1.376  -1.074  0.00  0.00     0.298 HD
ENDROOT
TORSDOF 0
ENDMDL
