MODEL 1
REMARK minimizedAffinity -3.34000492
REMARK minimizedRMSD -1
REMARK  0 active torsions:
REMARK  status: ('A' for Active; 'I' for Inactive)
ROOT
ATOM      1  N1  IND d   1       0.375  -1.545  -0.263  0.00  0.00    -0.196 N 
ATOM      2  C2  IND d   1      -0.658  -1.376  -1.142  0.00  0.00     0.054 A 
ATOM      3  C3  IND d   1      -1.081  -0.092  -1.129  0.00  0.00    -0.031 A 
ATOM      4  C4  IND d   1      -0.157   1.921   0.182  0.00  0.00     0.051 A 
ATOM      5  C5  IND d   1       0.759   2.254   1.141  0.00  0.00    -0.031 A 
ATOM      6  C6  IND d   1       1.612   1.319   1.690  0.00  0.00     0.015 A 
ATOM      7  C7  IND d   1       1.590   0.013   1.290  0.00  0.00    -0.016 A 
ATOM      8  C8  IND d   1       0.656  -0.330   0.322  0.00  0.00    -0.047 A 
ATOM      9  C9  IND d   1      -0.241   0.606  -0.208  0.00  0.00    -0.096 A 
ATOM     10  HN1 IND d   1       0.781  -2.286  -0.102  0.00  0.00     0.298 HD
ENDROOT
TORSDOF 0
ENDMDL
