MODEL 1
REMARK minimizedAffinity -4.40987396
REMARK minimizedRMSD -1
REMARK  0 active torsions:
REMARK  status: ('A' for Active; 'I' for Inactive)
ROOT
ATOM      1  N1  IND d   1      -0.146  -0.437   1.591  0.00  0.00    -0.196 N 
ATOM      2  C2  IND d   1       0.020  -1.319   0.560  0.00  0.00     0.054 A 
ATOM      3  C3  IND d   1       0.740  -0.752  -0.434  0.00  0.00    -0.031 A 
ATOM      4  C4  IND d   1       1.835   1.575  -0.537  0.00  0.00     0.051 A 
ATOM      5  C5  IND d   1       1.931   2.752   0.151  0.00  0.00    -0.031 A 
ATOM      6  C6  IND d   1       1.330   2.929   1.380  0.00  0.00     0.015 A 
ATOM      7  C7  IND d   1       0.616   1.927   1.975  0.00  0.00    -0.016 A 
ATOM      8  C8  IND d   1       0.511   0.733   1.276  0.00  0.00    -0.047 A 
ATOM      9  C9  IND d   1       1.083   0.562   0.009  0.00  0.00    -0.096 A 
ATOM     10  HN1 IND d   1      -0.586  -0.587   2.314  0.00  0.00     0.298 HD
ENDROOT
TORSDOF 0
ENDMDL
