MODEL 1
REMARK minimizedAffinity -5.03468704
REMARK minimizedRMSD -1
REMARK  0 active torsions:
REMARK  status: ('A' for Active; 'I' for Inactive)
ROOT
ATOM      1  N1  IND d   1       0.213   2.326   1.425  0.00  0.00    -0.196 N 
ATOM      2  C2  IND d   1       1.236   2.735   0.615  0.00  0.00     0.054 A 
ATOM      3  C3  IND d   1       1.549   1.765  -0.273  0.00  0.00    -0.031 A 
ATOM      4  C4  IND d   1       0.446  -0.532  -0.642  0.00  0.00     0.051 A 
ATOM      5  C5  IND d   1      -0.503  -1.368  -0.123  0.00  0.00    -0.031 A 
ATOM      6  C6  IND d   1      -1.279  -1.006   0.959  0.00  0.00     0.015 A 
ATOM      7  C7  IND d   1      -1.143   0.214   1.558  0.00  0.00    -0.016 A 
ATOM      8  C8  IND d   1      -0.175   1.062   1.037  0.00  0.00    -0.047 A 
ATOM      9  C9  IND d   1       0.645   0.684  -0.034  0.00  0.00    -0.096 A 
ATOM     10  HN1 IND d   1      -0.130   2.782   2.069  0.00  0.00     0.298 HD
ENDROOT
TORSDOF 0
ENDMDL
