MODEL 1
REMARK minimizedAffinity -4.02885151
REMARK minimizedRMSD -1
REMARK  0 active torsions:
REMARK  status: ('A' for Active; 'I' for Inactive)
ROOT
ATOM      1  N1  IND d   1      -0.215  -0.811   1.372  0.00  0.00    -0.196 N 
ATOM      2  C2  IND d   1      -1.154  -0.192   2.149  0.00  0.00     0.054 A 
ATOM      3  C3  IND d   1      -0.970   1.147   2.131  0.00  0.00    -0.031 A 
ATOM      4  C4  IND d   1       0.745   2.545   0.816  0.00  0.00     0.051 A 
ATOM      5  C5  IND d   1       1.834   2.424  -0.001  0.00  0.00    -0.031 A 
ATOM      6  C6  IND d   1       2.303   1.194  -0.413  0.00  0.00     0.015 A 
ATOM      7  C7  IND d   1       1.691   0.033  -0.031  0.00  0.00    -0.016 A 
ATOM      8  C8  IND d   1       0.590   0.152   0.805  0.00  0.00    -0.047 A 
ATOM      9  C9  IND d   1       0.135   1.396   1.261  0.00  0.00    -0.096 A 
ATOM     10  HN1 IND d   1      -0.140  -1.660   1.257  0.00  0.00     0.298 HD
ENDROOT
TORSDOF 0
ENDMDL
