MODEL 1
REMARK minimizedAffinity -3.03831005
REMARK minimizedRMSD -1
REMARK  0 active torsions:
REMARK  status: ('A' for Active; 'I' for Inactive)
ROOT
ATOM      1  C1  DEN d   1      -2.294   0.681   0.276  0.00  0.00     0.130 A 
ATOM      2  C2  DEN d   1      -2.238   1.199   1.640  0.00  0.00    -0.031 A 
ATOM      3  C3  DEN d   1      -0.883   0.943   2.170  0.00  0.00     0.027 A 
ATOM      4  C4  DEN d   1       1.123  -0.194   1.014  0.00  0.00     0.027 A 
ATOM      5  C5  DEN d   1       1.552  -0.809  -0.141  0.00  0.00    -0.003 A 
ATOM      6  C6  DEN d   1       0.726  -0.999  -1.217  0.00  0.00     0.001 A 
ATOM      7  C7  DEN d   1      -0.561  -0.530  -1.177  0.00  0.00     0.017 A 
ATOM      8  C8  DEN d   1      -1.003   0.085  -0.013  0.00  0.00    -0.094 A 
ATOM      9  C9  DEN d   1      -0.149   0.278   1.060  0.00  0.00    -0.072 A 
ENDROOT
TORSDOF 0
ENDMDL
