MODEL 1
REMARK minimizedAffinity -3.565202
REMARK minimizedRMSD -1
REMARK  0 active torsions:
REMARK  status: ('A' for Active; 'I' for Inactive)
ROOT
ATOM      1  C1  DEN d   1       0.391   0.912   2.118  0.00  0.00     0.130 A 
ATOM      2  C2  DEN d   1      -0.873   1.126   2.818  0.00  0.00    -0.031 A 
ATOM      3  C3  DEN d   1      -1.962   0.629   1.954  0.00  0.00     0.027 A 
ATOM      4  C4  DEN d   1      -1.816  -0.448  -0.385  0.00  0.00     0.027 A 
ATOM      5  C5  DEN d   1      -0.959  -0.829  -1.394  0.00  0.00    -0.003 A 
ATOM      6  C6  DEN d   1       0.394  -0.627  -1.318  0.00  0.00     0.001 A 
ATOM      7  C7  DEN d   1       0.934  -0.069  -0.190  0.00  0.00     0.017 A 
ATOM      8  C8  DEN d   1       0.076   0.325   0.829  0.00  0.00    -0.094 A 
ATOM      9  C9  DEN d   1      -1.287   0.101   0.738  0.00  0.00    -0.072 A 
ENDROOT
TORSDOF 0
ENDMDL
