MODEL 1
REMARK minimizedAffinity -3.70460296
REMARK minimizedRMSD -1
REMARK  0 active torsions:
REMARK  status: ('A' for Active; 'I' for Inactive)
ROOT
ATOM      1  C1  DEN d   1       1.062   0.800  -0.475  0.00  0.00     0.130 A 
ATOM      2  C2  DEN d   1       0.587  -0.186  -1.441  0.00  0.00    -0.031 A 
ATOM      3  C3  DEN d   1      -0.685  -0.742  -0.938  0.00  0.00     0.027 A 
ATOM      4  C4  DEN d   1      -1.960  -0.172   1.231  0.00  0.00     0.027 A 
ATOM      5  C5  DEN d   1      -1.943   0.596   2.374  0.00  0.00    -0.003 A 
ATOM      6  C6  DEN d   1      -0.915   1.454   2.662  0.00  0.00     0.001 A 
ATOM      7  C7  DEN d   1       0.118   1.598   1.774  0.00  0.00     0.017 A 
ATOM      8  C8  DEN d   1       0.111   0.822   0.622  0.00  0.00    -0.094 A 
ATOM      9  C9  DEN d   1      -0.943  -0.031   0.343  0.00  0.00    -0.072 A 
ENDROOT
TORSDOF 0
ENDMDL
