MODEL 1
REMARK minimizedAffinity -5.45404625
REMARK minimizedRMSD -1
REMARK  0 active torsions:
REMARK  status: ('A' for Active; 'I' for Inactive)
ROOT
ATOM      1  C1  DEN d   1      -1.166  -0.346  -0.909  0.00  0.00     0.130 A 
ATOM      2  C2  DEN d   1       0.062  -1.020  -1.320  0.00  0.00    -0.031 A 
ATOM      3  C3  DEN d   1       1.100  -0.733  -0.309  0.00  0.00     0.027 A 
ATOM      4  C4  DEN d   1       0.923   0.677   1.843  0.00  0.00     0.027 A 
ATOM      5  C5  DEN d   1       0.085   1.457   2.608  0.00  0.00    -0.003 A 
ATOM      6  C6  DEN d   1      -1.209   1.716   2.241  0.00  0.00     0.001 A 
ATOM      7  C7  DEN d   1      -1.716   1.153   1.099  0.00  0.00     0.017 A 
ATOM      8  C8  DEN d   1      -0.874   0.373   0.318  0.00  0.00    -0.094 A 
ATOM      9  C9  DEN d   1       0.427   0.112   0.713  0.00  0.00    -0.072 A 
ENDROOT
TORSDOF 0
ENDMDL
