MODEL 1
REMARK minimizedAffinity -4.89162445
REMARK minimizedRMSD -1
REMARK  0 active torsions:
REMARK  status: ('A' for Active; 'I' for Inactive)
ROOT
ATOM      1  C1  DEN d   1       0.805   0.102  -0.585  0.00  0.00     0.130 A 
ATOM      2  C2  DEN d   1       0.073  -1.142  -0.805  0.00  0.00    -0.031 A 
ATOM      3  C3  DEN d   1      -0.943  -1.269   0.259  0.00  0.00     0.027 A 
ATOM      4  C4  DEN d   1      -1.454   0.334   2.214  0.00  0.00     0.027 A 
ATOM      5  C5  DEN d   1      -1.089   1.515   2.822  0.00  0.00    -0.003 A 
ATOM      6  C6  DEN d   1      -0.053   2.283   2.361  0.00  0.00     0.001 A 
ATOM      7  C7  DEN d   1       0.625   1.903   1.233  0.00  0.00     0.017 A 
ATOM      8  C8  DEN d   1       0.267   0.711   0.619  0.00  0.00    -0.094 A 
ATOM      9  C9  DEN d   1      -0.791  -0.046   1.093  0.00  0.00    -0.072 A 
ENDROOT
TORSDOF 0
ENDMDL
