MODEL 1
REMARK minimizedAffinity -2.15887928
REMARK minimizedRMSD -1
REMARK  0 active torsions:
REMARK  status: ('A' for Active; 'I' for Inactive)
ROOT
ATOM      1  C1  DEN d   1      -1.776  -0.389  -0.246  0.00  0.00     0.130 A 
ATOM      2  C2  DEN d   1      -1.662  -1.548   0.636  0.00  0.00    -0.031 A 
ATOM      3  C3  DEN d   1      -0.249  -1.671   1.047  0.00  0.00     0.027 A 
ATOM      4  C4  DEN d   1       1.762  -0.185   0.411  0.00  0.00     0.027 A 
ATOM      5  C5  DEN d   1       2.160   0.911  -0.321  0.00  0.00    -0.003 A 
ATOM      6  C6  DEN d   1       1.288   1.624  -1.101  0.00  0.00     0.001 A 
ATOM      7  C7  DEN d   1      -0.037   1.277  -1.130  0.00  0.00     0.017 A 
ATOM      8  C8  DEN d   1      -0.444   0.168  -0.400  0.00  0.00    -0.094 A 
ATOM      9  C9  DEN d   1       0.450  -0.533   0.392  0.00  0.00    -0.072 A 
ENDROOT
TORSDOF 0
ENDMDL
