MODEL 1
REMARK minimizedAffinity -2.03120017
REMARK minimizedRMSD -1
REMARK  0 active torsions:
REMARK  status: ('A' for Active; 'I' for Inactive)
ROOT
ATOM      1  C1  DEN d   1       1.459   0.229  -0.413  0.00  0.00     0.130 A 
ATOM      2  C2  DEN d   1       0.387   0.863  -1.176  0.00  0.00    -0.031 A 
ATOM      3  C3  DEN d   1      -0.894   0.270  -0.743  0.00  0.00     0.027 A 
ATOM      4  C4  DEN d   1      -1.320  -1.557   1.028  0.00  0.00     0.027 A 
ATOM      5  C5  DEN d   1      -0.721  -2.407   1.931  0.00  0.00    -0.003 A 
ATOM      6  C6  DEN d   1       0.639  -2.461   2.090  0.00  0.00     0.001 A 
ATOM      7  C7  DEN d   1       1.441  -1.619   1.367  0.00  0.00     0.017 A 
ATOM      8  C8  DEN d   1       0.844  -0.764   0.449  0.00  0.00    -0.094 A 
ATOM      9  C9  DEN d   1      -0.532  -0.715   0.311  0.00  0.00    -0.072 A 
ENDROOT
TORSDOF 0
ENDMDL
