MODEL 1
REMARK minimizedAffinity -5.00670815
REMARK minimizedRMSD -1
REMARK  0 active torsions:
REMARK  status: ('A' for Active; 'I' for Inactive)
ROOT
ATOM      1  C1  DEN d   1      -2.288  -1.221   1.978  0.00  0.00     0.130 A 
ATOM      2  C2  DEN d   1      -1.924  -2.609   2.251  0.00  0.00    -0.031 A 
ATOM      3  C3  DEN d   1      -0.658  -2.896   1.548  0.00  0.00     0.027 A 
ATOM      4  C4  DEN d   1       0.770  -1.333   0.074  0.00  0.00     0.027 A 
ATOM      5  C5  DEN d   1       0.861  -0.067  -0.459  0.00  0.00    -0.003 A 
ATOM      6  C6  DEN d   1      -0.100   0.886  -0.247  0.00  0.00     0.001 A 
ATOM      7  C7  DEN d   1      -1.173   0.600   0.556  0.00  0.00     0.017 A 
ATOM      8  C8  DEN d   1      -1.276  -0.677   1.091  0.00  0.00    -0.094 A 
ATOM      9  C9  DEN d   1      -0.287  -1.622   0.874  0.00  0.00    -0.072 A 
ENDROOT
TORSDOF 0
ENDMDL
