MODEL 1
REMARK minimizedAffinity -6.87546635
REMARK minimizedRMSD -1
REMARK  0 active torsions:
REMARK  status: ('A' for Active; 'I' for Inactive)
ROOT
ATOM      1  C1  DEN d   1      -0.110   1.096  -0.534  0.00  0.00     0.130 A 
ATOM      2  C2  DEN d   1       1.015   0.279  -0.980  0.00  0.00    -0.031 A 
ATOM      3  C3  DEN d   1       0.880  -1.058  -0.369  0.00  0.00     0.027 A 
ATOM      4  C4  DEN d   1      -0.956  -1.940   1.214  0.00  0.00     0.027 A 
ATOM      5  C5  DEN d   1      -2.113  -1.611   1.885  0.00  0.00    -0.003 A 
ATOM      6  C6  DEN d   1      -2.660  -0.357   1.824  0.00  0.00     0.001 A 
ATOM      7  C7  DEN d   1      -2.075   0.602   1.040  0.00  0.00     0.017 A 
ATOM      8  C8  DEN d   1      -0.905   0.280   0.366  0.00  0.00    -0.094 A 
ATOM      9  C9  DEN d   1      -0.373  -0.997   0.431  0.00  0.00    -0.072 A 
ENDROOT
TORSDOF 0
ENDMDL
