MODEL 1
REMARK minimizedAffinity -3.39650655
REMARK minimizedRMSD -1
REMARK  0 active torsions:
REMARK  status: ('A' for Active; 'I' for Inactive)
ROOT
ATOM      1  C1  DEN d   1      -1.394   0.577  -0.298  0.00  0.00     0.130 A 
ATOM      2  C2  DEN d   1      -0.066   1.070  -0.653  0.00  0.00    -0.031 A 
ATOM      3  C3  DEN d   1       0.923   0.053  -0.244  0.00  0.00     0.027 A 
ATOM      4  C4  DEN d   1       0.529  -2.227   0.895  0.00  0.00     0.027 A 
ATOM      5  C5  DEN d   1      -0.428  -3.077   1.404  0.00  0.00    -0.003 A 
ATOM      6  C6  DEN d   1      -1.759  -2.757   1.413  0.00  0.00     0.001 A 
ATOM      7  C7  DEN d   1      -2.176  -1.574   0.861  0.00  0.00     0.017 A 
ATOM      8  C8  DEN d   1      -1.217  -0.709   0.352  0.00  0.00    -0.094 A 
ATOM      9  C9  DEN d   1       0.123  -1.056   0.342  0.00  0.00    -0.072 A 
ENDROOT
TORSDOF 0
ENDMDL
