MODEL 1
REMARK minimizedAffinity -4.01991034
REMARK minimizedRMSD -1
REMARK  0 active torsions:
REMARK  status: ('A' for Active; 'I' for Inactive)
ROOT
ATOM      1  C1  DEN d   1      -0.010   0.866  -0.190  0.00  0.00     0.130 A 
ATOM      2  C2  DEN d   1       1.080   0.051  -0.719  0.00  0.00    -0.031 A 
ATOM      3  C3  DEN d   1       0.983  -1.291  -0.110  0.00  0.00     0.027 A 
ATOM      4  C4  DEN d   1      -0.741  -2.183   1.588  0.00  0.00     0.027 A 
ATOM      5  C5  DEN d   1      -1.848  -1.857   2.339  0.00  0.00    -0.003 A 
ATOM      6  C6  DEN d   1      -2.396  -0.601   2.327  0.00  0.00     0.001 A 
ATOM      7  C7  DEN d   1      -1.864   0.363   1.512  0.00  0.00     0.017 A 
ATOM      8  C8  DEN d   1      -0.743   0.044   0.757  0.00  0.00    -0.094 A 
ATOM      9  C9  DEN d   1      -0.212  -1.235   0.774  0.00  0.00    -0.072 A 
ENDROOT
TORSDOF 0
ENDMDL
