MODEL 1
REMARK minimizedAffinity -5.74178886
REMARK minimizedRMSD -1
REMARK  0 active torsions:
REMARK  status: ('A' for Active; 'I' for Inactive)
ROOT
ATOM      1  C1  DEN d   1       1.311  -1.946   0.809  0.00  0.00     0.130 A 
ATOM      2  C2  DEN d   1       0.403  -2.952   1.351  0.00  0.00    -0.031 A 
ATOM      3  C3  DEN d   1      -0.924  -2.325   1.521  0.00  0.00     0.027 A 
ATOM      4  C4  DEN d   1      -1.656   0.091   0.994  0.00  0.00     0.027 A 
ATOM      5  C5  DEN d   1      -1.232   1.316   0.528  0.00  0.00    -0.003 A 
ATOM      6  C6  DEN d   1       0.066   1.547   0.158  0.00  0.00     0.001 A 
ATOM      7  C7  DEN d   1       0.978   0.526   0.205  0.00  0.00     0.017 A 
ATOM      8  C8  DEN d   1       0.560  -0.710   0.681  0.00  0.00    -0.094 A 
ATOM      9  C9  DEN d   1      -0.760  -0.927   1.038  0.00  0.00    -0.072 A 
ENDROOT
TORSDOF 0
ENDMDL
