MODEL 1
REMARK minimizedAffinity -5.73053503
REMARK minimizedRMSD -1
REMARK  0 active torsions:
REMARK  status: ('A' for Active; 'I' for Inactive)
ROOT
ATOM      1  C1  DEN d   1       1.698  -0.848   0.315  0.00  0.00     0.130 A 
ATOM      2  C2  DEN d   1       1.530   0.512  -0.189  0.00  0.00    -0.031 A 
ATOM      3  C3  DEN d   1       0.083   0.781  -0.304  0.00  0.00     0.027 A 
ATOM      4  C4  DEN d   1      -1.904  -0.767   0.251  0.00  0.00     0.027 A 
ATOM      5  C5  DEN d   1      -2.260  -2.021   0.698  0.00  0.00    -0.003 A 
ATOM      6  C6  DEN d   1      -1.329  -2.975   1.014  0.00  0.00     0.001 A 
ATOM      7  C7  DEN d   1       0.005  -2.675   0.930  0.00  0.00     0.017 A 
ATOM      8  C8  DEN d   1       0.372  -1.416   0.473  0.00  0.00    -0.094 A 
ATOM      9  C9  DEN d   1      -0.584  -0.461   0.170  0.00  0.00    -0.072 A 
ENDROOT
TORSDOF 0
ENDMDL
