MODEL 1
REMARK minimizedAffinity -0.720770419
REMARK minimizedRMSD -1
REMARK  0 active torsions:
REMARK  status: ('A' for Active; 'I' for Inactive)
ROOT
ATOM      1  C1  DEN d   1      -1.850   0.361   2.118  0.00  0.00     0.130 A 
ATOM      2  C2  DEN d   1      -2.234  -0.800   2.918  0.00  0.00    -0.031 A 
ATOM      3  C3  DEN d   1      -0.998  -1.466   3.377  0.00  0.00     0.027 A 
ATOM      4  C4  DEN d   1       1.458  -0.815   2.934  0.00  0.00     0.027 A 
ATOM      5  C5  DEN d   1       2.283   0.087   2.299  0.00  0.00    -0.003 A 
ATOM      6  C6  DEN d   1       1.793   1.115   1.538  0.00  0.00     0.001 A 
ATOM      7  C7  DEN d   1       0.439   1.293   1.429  0.00  0.00     0.017 A 
ATOM      8  C8  DEN d   1      -0.400   0.384   2.060  0.00  0.00    -0.094 A 
ATOM      9  C9  DEN d   1       0.115  -0.642   2.835  0.00  0.00    -0.072 A 
ENDROOT
TORSDOF 0
ENDMDL
