MODEL 1
REMARK minimizedAffinity 6.84518623
REMARK minimizedRMSD -1
REMARK  0 active torsions:
REMARK  status: ('A' for Active; 'I' for Inactive)
ROOT
ATOM      1  C1  DEN d   1      -2.666   0.142  -1.365  0.00  0.00     0.130 A 
ATOM      2  C2  DEN d   1      -3.107   0.509  -0.022  0.00  0.00    -0.031 A 
ATOM      3  C3  DEN d   1      -2.505  -0.443   0.932  0.00  0.00     0.027 A 
ATOM      4  C4  DEN d   1      -0.935  -2.435   0.464  0.00  0.00     0.027 A 
ATOM      5  C5  DEN d   1      -0.289  -3.148  -0.522  0.00  0.00    -0.003 A 
ATOM      6  C6  DEN d   1      -0.416  -2.838  -1.850  0.00  0.00     0.001 A 
ATOM      7  C7  DEN d   1      -1.172  -1.758  -2.225  0.00  0.00     0.017 A 
ATOM      8  C8  DEN d   1      -1.832  -1.039  -1.237  0.00  0.00    -0.094 A 
ATOM      9  C9  DEN d   1      -1.681  -1.362   0.101  0.00  0.00    -0.072 A 
ENDROOT
TORSDOF 0
ENDMDL
