MODEL 1
REMARK minimizedAffinity 0.59867084
REMARK minimizedRMSD -1
REMARK  0 active torsions:
REMARK  status: ('A' for Active; 'I' for Inactive)
ROOT
ATOM      1  C1  DEN d   1      -3.038   0.315   3.378  0.00  0.00     0.130 A 
ATOM      2  C2  DEN d   1      -4.073   0.567   2.379  0.00  0.00    -0.031 A 
ATOM      3  C3  DEN d   1      -3.412   0.751   1.072  0.00  0.00     0.027 A 
ATOM      4  C4  DEN d   1      -0.898   0.667   0.499  0.00  0.00     0.027 A 
ATOM      5  C5  DEN d   1       0.366   0.496   1.018  0.00  0.00    -0.003 A 
ATOM      6  C6  DEN d   1       0.585   0.287   2.354  0.00  0.00     0.001 A 
ATOM      7  C7  DEN d   1      -0.480   0.200   3.211  0.00  0.00     0.017 A 
ATOM      8  C8  DEN d   1      -1.757   0.380   2.696  0.00  0.00    -0.094 A 
ATOM      9  C9  DEN d   1      -1.959   0.577   1.341  0.00  0.00    -0.072 A 
ENDROOT
TORSDOF 0
ENDMDL
