MODEL 1
REMARK minimizedAffinity 4.2140069
REMARK minimizedRMSD -1
REMARK  0 active torsions:
REMARK  status: ('A' for Active; 'I' for Inactive)
ROOT
ATOM      1  C1  DEN d   1       0.382   3.233  -5.130  0.00  0.00     0.130 A 
ATOM      2  C2  DEN d   1       1.492   2.856  -6.000  0.00  0.00    -0.031 A 
ATOM      3  C3  DEN d   1       2.270   1.802  -5.317  0.00  0.00     0.027 A 
ATOM      4  C4  DEN d   1       1.862   0.721  -3.011  0.00  0.00     0.027 A 
ATOM      5  C5  DEN d   1       1.049   0.723  -1.899  0.00  0.00    -0.003 A 
ATOM      6  C6  DEN d   1      -0.013   1.577  -1.772  0.00  0.00     0.001 A 
ATOM      7  C7  DEN d   1      -0.320   2.436  -2.794  0.00  0.00     0.017 A 
ATOM      8  C8  DEN d   1       0.499   2.446  -3.916  0.00  0.00    -0.094 A 
ATOM      9  C9  DEN d   1       1.562   1.566  -4.030  0.00  0.00    -0.072 A 
ENDROOT
TORSDOF 0
ENDMDL
