MODEL 1
REMARK minimizedAffinity 9.10802174
REMARK minimizedRMSD -1
REMARK  0 active torsions:
REMARK  status: ('A' for Active; 'I' for Inactive)
ROOT
ATOM      1  C1  DEN d   1      -2.284   1.172   1.169  0.00  0.00     0.130 A 
ATOM      2  C2  DEN d   1      -3.300   0.169   1.476  0.00  0.00    -0.031 A 
ATOM      3  C3  DEN d   1      -2.685  -0.852   2.347  0.00  0.00     0.027 A 
ATOM      4  C4  DEN d   1      -0.271  -0.975   3.249  0.00  0.00     0.027 A 
ATOM      5  C5  DEN d   1       0.959  -0.356   3.250  0.00  0.00    -0.003 A 
ATOM      6  C6  DEN d   1       1.203   0.787   2.536  0.00  0.00     0.001 A 
ATOM      7  C7  DEN d   1       0.188   1.373   1.827  0.00  0.00     0.017 A 
ATOM      8  C8  DEN d   1      -1.054   0.751   1.815  0.00  0.00    -0.094 A 
ATOM      9  C9  DEN d   1      -1.283  -0.398   2.553  0.00  0.00    -0.072 A 
ENDROOT
TORSDOF 0
ENDMDL
