MODEL 1
REMARK minimizedAffinity -2.63298631
REMARK minimizedRMSD -1
REMARK  0 active torsions:
REMARK  status: ('A' for Active; 'I' for Inactive)
ROOT
ATOM      1  C1  DEN d   1      -1.684   0.454   0.489  0.00  0.00     0.130 A 
ATOM      2  C2  DEN d   1      -3.057   0.782   0.116  0.00  0.00    -0.031 A 
ATOM      3  C3  DEN d   1      -3.946   0.332   1.206  0.00  0.00     0.027 A 
ATOM      4  C4  DEN d   1      -3.332  -0.829   3.425  0.00  0.00     0.027 A 
ATOM      5  C5  DEN d   1      -2.294  -1.326   4.183  0.00  0.00    -0.003 A 
ATOM      6  C6  DEN d   1      -0.995  -1.295   3.751  0.00  0.00     0.001 A 
ATOM      7  C7  DEN d   1      -0.693  -0.715   2.547  0.00  0.00     0.017 A 
ATOM      8  C8  DEN d   1      -1.735  -0.219   1.774  0.00  0.00    -0.094 A 
ATOM      9  C9  DEN d   1      -3.041  -0.248   2.234  0.00  0.00    -0.072 A 
ENDROOT
TORSDOF 0
ENDMDL
