MODEL 1
REMARK minimizedAffinity 3.84578514
REMARK minimizedRMSD -1
REMARK  0 active torsions:
REMARK  status: ('A' for Active; 'I' for Inactive)
ROOT
ATOM      1  C1  DEN d   1      -0.633   0.215  -0.410  0.00  0.00     0.130 A 
ATOM      2  C2  DEN d   1      -1.848   0.451  -1.186  0.00  0.00    -0.031 A 
ATOM      3  C3  DEN d   1      -2.984   0.519  -0.245  0.00  0.00     0.027 A 
ATOM      4  C4  DEN d   1      -2.979   0.288   2.324  0.00  0.00     0.027 A 
ATOM      5  C5  DEN d   1      -2.188   0.068   3.430  0.00  0.00    -0.003 A 
ATOM      6  C6  DEN d   1      -0.839  -0.150   3.331  0.00  0.00     0.001 A 
ATOM      7  C7  DEN d   1      -0.233  -0.108   2.103  0.00  0.00     0.017 A 
ATOM      8  C8  DEN d   1      -1.026   0.105   0.983  0.00  0.00    -0.094 A 
ATOM      9  C9  DEN d   1      -2.385   0.336   1.105  0.00  0.00    -0.072 A 
ENDROOT
TORSDOF 0
ENDMDL
