MODEL 1
REMARK minimizedAffinity 7.10854721
REMARK minimizedRMSD -1
REMARK  0 active torsions:
REMARK  status: ('A' for Active; 'I' for Inactive)
ROOT
ATOM      1  C1  DEN d   1       0.961  -0.602   3.483  0.00  0.00     0.130 A 
ATOM      2  C2  DEN d   1      -0.289   0.146   3.384  0.00  0.00    -0.031 A 
ATOM      3  C3  DEN d   1      -0.072   1.277   2.460  0.00  0.00     0.027 A 
ATOM      4  C4  DEN d   1       2.065   1.936   1.175  0.00  0.00     0.027 A 
ATOM      5  C5  DEN d   1       3.384   1.609   0.948  0.00  0.00    -0.003 A 
ATOM      6  C6  DEN d   1       3.992   0.552   1.571  0.00  0.00     0.001 A 
ATOM      7  C7  DEN d   1       3.268  -0.245   2.418  0.00  0.00     0.017 A 
ATOM      8  C8  DEN d   1       1.940   0.082   2.658  0.00  0.00    -0.094 A 
ATOM      9  C9  DEN d   1       1.340   1.148   2.009  0.00  0.00    -0.072 A 
ENDROOT
TORSDOF 0
ENDMDL
