MODEL 1
REMARK minimizedAffinity 14.1049747
REMARK minimizedRMSD -1
REMARK  0 active torsions:
REMARK  status: ('A' for Active; 'I' for Inactive)
ROOT
ATOM      1  C1  DEN d   1       5.597  -0.003   1.869  0.00  0.00     0.130 A 
ATOM      2  C2  DEN d   1       6.000  -0.999   2.856  0.00  0.00    -0.031 A 
ATOM      3  C3  DEN d   1       4.777  -1.562   3.463  0.00  0.00     0.027 A 
ATOM      4  C4  DEN d   1       2.310  -0.992   2.968  0.00  0.00     0.027 A 
ATOM      5  C5  DEN d   1       1.470  -0.201   2.216  0.00  0.00    -0.003 A 
ATOM      6  C6  DEN d   1       1.943   0.729   1.328  0.00  0.00     0.001 A 
ATOM      7  C7  DEN d   1       3.293   0.859   1.136  0.00  0.00     0.017 A 
ATOM      8  C8  DEN d   1       4.147   0.069   1.896  0.00  0.00    -0.094 A 
ATOM      9  C9  DEN d   1       3.649  -0.873   2.779  0.00  0.00    -0.072 A 
ENDROOT
TORSDOF 0
ENDMDL
