MODEL 1
REMARK minimizedAffinity 20.1315117
REMARK minimizedRMSD -1
REMARK  0 active torsions:
REMARK  status: ('A' for Active; 'I' for Inactive)
ROOT
ATOM      1  C1  DEN d   1      -0.127   2.258   3.512  0.00  0.00     0.130 A 
ATOM      2  C2  DEN d   1      -1.159   1.372   4.046  0.00  0.00    -0.031 A 
ATOM      3  C3  DEN d   1      -1.577   0.455   2.967  0.00  0.00     0.027 A 
ATOM      4  C4  DEN d   1      -0.728   0.318   0.535  0.00  0.00     0.027 A 
ATOM      5  C5  DEN d   1       0.134   0.871  -0.386  0.00  0.00    -0.003 A 
ATOM      6  C6  DEN d   1       0.938   1.938  -0.084  0.00  0.00     0.001 A 
ATOM      7  C7  DEN d   1       0.930   2.458   1.183  0.00  0.00     0.017 A 
ATOM      8  C8  DEN d   1       0.058   1.910   2.115  0.00  0.00    -0.094 A 
ATOM      9  C9  DEN d   1      -0.738   0.824   1.794  0.00  0.00    -0.072 A 
ENDROOT
TORSDOF 0
ENDMDL
