MODEL 1
REMARK minimizedAffinity 3.23580599
REMARK minimizedRMSD -1
REMARK  0 active torsions:
REMARK  status: ('A' for Active; 'I' for Inactive)
ROOT
ATOM      1  C1  DEN d   1      -1.163  -1.282  -1.148  0.00  0.00     0.130 A 
ATOM      2  C2  DEN d   1      -2.033  -1.478  -2.304  0.00  0.00    -0.031 A 
ATOM      3  C3  DEN d   1      -3.276  -0.714  -2.076  0.00  0.00     0.027 A 
ATOM      4  C4  DEN d   1      -3.933   0.749  -0.056  0.00  0.00     0.027 A 
ATOM      5  C5  DEN d   1      -3.525   1.211   1.176  0.00  0.00    -0.003 A 
ATOM      6  C6  DEN d   1      -2.326   0.849   1.730  0.00  0.00     0.001 A 
ATOM      7  C7  DEN d   1      -1.472   0.038   1.031  0.00  0.00     0.017 A 
ATOM      8  C8  DEN d   1      -1.879  -0.437  -0.208  0.00  0.00    -0.094 A 
ATOM      9  C9  DEN d   1      -3.090  -0.051  -0.757  0.00  0.00    -0.072 A 
ENDROOT
TORSDOF 0
ENDMDL
