MODEL 1
REMARK minimizedAffinity 9.43008232
REMARK minimizedRMSD -1
REMARK  0 active torsions:
REMARK  status: ('A' for Active; 'I' for Inactive)
ROOT
ATOM      1  C1  DEN d   1      -4.122  -0.326  -1.608  0.00  0.00     0.130 A 
ATOM      2  C2  DEN d   1      -3.989   0.066  -0.208  0.00  0.00    -0.031 A 
ATOM      3  C3  DEN d   1      -2.742  -0.526   0.316  0.00  0.00     0.027 A 
ATOM      4  C4  DEN d   1      -1.011  -2.002  -0.900  0.00  0.00     0.027 A 
ATOM      5  C5  DEN d   1      -0.698  -2.613  -2.094  0.00  0.00    -0.003 A 
ATOM      6  C6  DEN d   1      -1.514  -2.533  -3.191  0.00  0.00     0.001 A 
ATOM      7  C7  DEN d   1      -2.663  -1.789  -3.130  0.00  0.00     0.017 A 
ATOM      8  C8  DEN d   1      -2.989  -1.176  -1.927  0.00  0.00    -0.094 A 
ATOM      9  C9  DEN d   1      -2.144  -1.258  -0.833  0.00  0.00    -0.072 A 
ENDROOT
TORSDOF 0
ENDMDL
