MODEL 1
REMARK minimizedAffinity 2.48225141
REMARK minimizedRMSD -1
REMARK  1 active torsions:
REMARK  status: ('A' for Active; 'I' for Inactive)
REMARK    1  A    between atoms: C1_2  and  C2_3 
ROOT
ATOM      1  C2  UNL d   1       0.472  -1.425  -0.242  0.00  0.00    -0.076 A 
ATOM      2  C3  UNL d   1       0.535  -2.824  -0.121  0.00  0.00     0.004 A 
ATOM      3  C4  UNL d   1      -0.234  -3.650  -0.938  0.00  0.00    -0.003 A 
ATOM      4  C5  UNL d   1      -1.078  -3.091  -1.891  0.00  0.00     0.000 A 
ATOM      5  C6  UNL d   1      -1.140  -1.706  -2.038  0.00  0.00     0.000 A 
ATOM      6  C7  UNL d   1      -0.359  -0.859  -1.232  0.00  0.00    -0.073 A 
ATOM      7  C8  UNL d   1      -0.469   0.628  -1.429  0.00  0.00     0.078 C 
ENDROOT
BRANCH   1   8
ATOM      8  C1  UNL d   1       1.309  -0.579   0.691  0.00  0.00     0.053 C 
ATOM      9  C   UNL d   1       0.517  -0.071   1.885  0.00  0.00     0.018 C 
ENDBRANCH   1   8
TORSDOF 1
ENDMDL
