MODEL 1
REMARK minimizedAffinity -1.84725165
REMARK minimizedRMSD -1
REMARK  1 active torsions:
REMARK  status: ('A' for Active; 'I' for Inactive)
REMARK    1  A    between atoms: C1_2  and  C2_3 
ROOT
ATOM      1  C2  UNL d   1       0.287  -0.612  -0.360  0.00  0.00    -0.076 A 
ATOM      2  C3  UNL d   1      -0.207  -0.616   0.956  0.00  0.00     0.004 A 
ATOM      3  C4  UNL d   1      -0.368   0.573   1.666  0.00  0.00    -0.003 A 
ATOM      4  C5  UNL d   1      -0.038   1.786   1.070  0.00  0.00     0.000 A 
ATOM      5  C6  UNL d   1       0.437   1.809  -0.241  0.00  0.00     0.000 A 
ATOM      6  C7  UNL d   1       0.589   0.621  -0.976  0.00  0.00    -0.073 A 
ATOM      7  C8  UNL d   1       1.111   0.705  -2.384  0.00  0.00     0.078 C 
ENDROOT
BRANCH   1   8
ATOM      8  C1  UNL d   1       0.465  -1.935  -1.070  0.00  0.00     0.053 C 
ATOM      9  C   UNL d   1      -0.792  -2.790  -1.034  0.00  0.00     0.018 C 
ENDBRANCH   1   8
TORSDOF 1
ENDMDL
