MODEL 1
REMARK minimizedAffinity -0.825381339
REMARK minimizedRMSD -1
REMARK  1 active torsions:
REMARK  status: ('A' for Active; 'I' for Inactive)
REMARK    1  A    between atoms: C1_2  and  C2_3 
ROOT
ATOM      1  C2  UNL d   1       0.030  -0.387  -0.115  0.00  0.00    -0.076 A 
ATOM      2  C3  UNL d   1      -0.122  -0.689   1.250  0.00  0.00     0.004 A 
ATOM      3  C4  UNL d   1      -0.243   0.324   2.199  0.00  0.00    -0.003 A 
ATOM      4  C5  UNL d   1      -0.216   1.656   1.799  0.00  0.00     0.000 A 
ATOM      5  C6  UNL d   1      -0.085   1.973   0.448  0.00  0.00     0.000 A 
ATOM      6  C7  UNL d   1       0.023   0.964  -0.524  0.00  0.00    -0.073 A 
ATOM      7  C8  UNL d   1       0.169   1.363  -1.967  0.00  0.00     0.078 C 
ENDROOT
BRANCH   1   8
ATOM      8  C1  UNL d   1       0.185  -1.527  -1.096  0.00  0.00     0.053 C 
ATOM      9  C   UNL d   1       0.501  -2.847  -0.410  0.00  0.00     0.018 C 
ENDBRANCH   1   8
TORSDOF 1
ENDMDL
