MODEL 1
REMARK minimizedAffinity -0.588258922
REMARK minimizedRMSD -1
REMARK  1 active torsions:
REMARK  status: ('A' for Active; 'I' for Inactive)
REMARK    1  A    between atoms: C1_2  and  C2_3 
ROOT
ATOM      1  C2  UNL d   1      -0.217   1.525   0.038  0.00  0.00    -0.076 A 
ATOM      2  C3  UNL d   1      -0.353   1.677  -1.353  0.00  0.00     0.004 A 
ATOM      3  C4  UNL d   1      -0.392   2.943  -1.936  0.00  0.00    -0.003 A 
ATOM      4  C5  UNL d   1      -0.294   4.077  -1.137  0.00  0.00     0.000 A 
ATOM      5  C6  UNL d   1      -0.140   3.944   0.242  0.00  0.00     0.000 A 
ATOM      6  C7  UNL d   1      -0.083   2.675   0.844  0.00  0.00    -0.073 A 
ATOM      7  C8  UNL d   1       0.077   2.591   2.337  0.00  0.00     0.078 C 
ENDROOT
BRANCH   1   8
ATOM      8  C1  UNL d   1      -0.209   0.128   0.616  0.00  0.00     0.053 C 
ATOM      9  C   UNL d   1       0.885  -0.743   0.019  0.00  0.00     0.018 C 
ENDBRANCH   1   8
TORSDOF 1
ENDMDL
