MODEL 1
REMARK minimizedAffinity -3.76849461
REMARK minimizedRMSD -1
REMARK  1 active torsions:
REMARK  status: ('A' for Active; 'I' for Inactive)
REMARK    1  A    between atoms: C1_2  and  C2_3 
ROOT
ATOM      1  C2  UNL d   1      -0.140  -1.766  -0.089  0.00  0.00    -0.076 A 
ATOM      2  C3  UNL d   1      -0.805  -1.962   1.133  0.00  0.00     0.004 A 
ATOM      3  C4  UNL d   1      -0.904  -0.933   2.069  0.00  0.00    -0.003 A 
ATOM      4  C5  UNL d   1      -0.339   0.308   1.797  0.00  0.00     0.000 A 
ATOM      5  C6  UNL d   1       0.309   0.525   0.581  0.00  0.00     0.000 A 
ATOM      6  C7  UNL d   1       0.404  -0.497  -0.380  0.00  0.00    -0.073 A 
ATOM      7  C8  UNL d   1       1.120  -0.209  -1.671  0.00  0.00     0.078 C 
ENDROOT
BRANCH   1   8
ATOM      8  C1  UNL d   1      -0.040  -2.927  -1.053  0.00  0.00     0.053 C 
ATOM      9  C   UNL d   1       0.306  -4.234  -0.358  0.00  0.00     0.018 C 
ENDBRANCH   1   8
TORSDOF 1
ENDMDL
