MODEL 1
REMARK minimizedAffinity -2.86873722
REMARK minimizedRMSD -1
REMARK  1 active torsions:
REMARK  status: ('A' for Active; 'I' for Inactive)
REMARK    1  A    between atoms: C1_2  and  C2_3 
ROOT
ATOM      1  C2  UNL d   1       0.017   0.819  -0.392  0.00  0.00    -0.076 A 
ATOM      2  C3  UNL d   1       0.258   0.337   0.906  0.00  0.00     0.004 A 
ATOM      3  C4  UNL d   1       0.174   1.182   2.012  0.00  0.00    -0.003 A 
ATOM      4  C5  UNL d   1      -0.153   2.522   1.837  0.00  0.00     0.000 A 
ATOM      5  C6  UNL d   1      -0.413   3.013   0.558  0.00  0.00     0.000 A 
ATOM      6  C7  UNL d   1      -0.348   2.171  -0.566  0.00  0.00    -0.073 A 
ATOM      7  C8  UNL d   1      -0.632   2.756  -1.922  0.00  0.00     0.078 C 
ENDROOT
BRANCH   1   8
ATOM      8  C1  UNL d   1       0.149  -0.137  -1.556  0.00  0.00     0.053 C 
ATOM      9  C   UNL d   1       0.482  -1.553  -1.112  0.00  0.00     0.018 C 
ENDBRANCH   1   8
TORSDOF 1
ENDMDL
