MODEL 1
REMARK minimizedAffinity 1.01663172
REMARK minimizedRMSD -1
REMARK  1 active torsions:
REMARK  status: ('A' for Active; 'I' for Inactive)
REMARK    1  A    between atoms: C1_2  and  C2_3 
ROOT
ATOM      1  C2  UNL d   1       0.612   2.705   1.578  0.00  0.00    -0.076 A 
ATOM      2  C3  UNL d   1       1.040   2.283   2.848  0.00  0.00     0.004 A 
ATOM      3  C4  UNL d   1       1.999   3.003   3.559  0.00  0.00    -0.003 A 
ATOM      4  C5  UNL d   1       2.547   4.157   3.009  0.00  0.00     0.000 A 
ATOM      5  C6  UNL d   1       2.122   4.600   1.757  0.00  0.00     0.000 A 
ATOM      6  C7  UNL d   1       1.143   3.895   1.035  0.00  0.00    -0.073 A 
ATOM      7  C8  UNL d   1       0.727   4.415  -0.313  0.00  0.00     0.078 C 
ENDROOT
BRANCH   1   8
ATOM      8  C1  UNL d   1      -0.411   1.870   0.843  0.00  0.00     0.053 C 
ATOM      9  C   UNL d   1       0.157   0.544   0.361  0.00  0.00     0.018 C 
ENDBRANCH   1   8
TORSDOF 1
ENDMDL
