MODEL 1
REMARK minimizedAffinity 3.87068844
REMARK minimizedRMSD -1
REMARK  1 active torsions:
REMARK  status: ('A' for Active; 'I' for Inactive)
REMARK    1  A    between atoms: C1_2  and  C2_3 
ROOT
ATOM      1  C2  UNL d   1       0.074   0.318  -1.969  0.00  0.00    -0.081 A 
ATOM      2  C3  UNL d   1      -0.673  -0.865  -2.018  0.00  0.00     0.006 A 
ATOM      3  C4  UNL d   1      -1.523  -1.210  -0.965  0.00  0.00     0.002 A 
ATOM      4  C5  UNL d   1      -1.646  -0.375   0.150  0.00  0.00    -0.080 A 
ATOM      5  C6  UNL d   1      -2.578  -0.718   1.274  0.00  0.00     0.076 C 
ATOM      6  C7  UNL d   1      -0.887   0.799   0.207  0.00  0.00     0.002 A 
ATOM      7  C8  UNL d   1      -0.036   1.144  -0.845  0.00  0.00     0.006 A 
ENDROOT
BRANCH   1   8
ATOM      8  C1  UNL d   1       0.943   0.725  -3.132  0.00  0.00     0.054 C 
ATOM      9  C   UNL d   1       0.225   1.714  -4.039  0.00  0.00     0.018 C 
ENDBRANCH   1   8
TORSDOF 1
ENDMDL
