MODEL 1
REMARK minimizedAffinity 1.0175513
REMARK minimizedRMSD -1
REMARK  1 active torsions:
REMARK  status: ('A' for Active; 'I' for Inactive)
REMARK    1  A    between atoms: C1_2  and  C2_3 
ROOT
ATOM      1  C2  UNL d   1       0.055   2.129  -2.216  0.00  0.00    -0.081 A 
ATOM      2  C3  UNL d   1       0.420   0.807  -1.935  0.00  0.00     0.006 A 
ATOM      3  C4  UNL d   1      -0.084   0.158  -0.805  0.00  0.00     0.002 A 
ATOM      4  C5  UNL d   1      -0.966   0.818   0.058  0.00  0.00    -0.080 A 
ATOM      5  C6  UNL d   1      -1.538   0.123   1.258  0.00  0.00     0.076 C 
ATOM      6  C7  UNL d   1      -1.317   2.145  -0.213  0.00  0.00     0.002 A 
ATOM      7  C8  UNL d   1      -0.813   2.794  -1.342  0.00  0.00     0.006 A 
ENDROOT
BRANCH   1   8
ATOM      8  C1  UNL d   1       0.545   2.810  -3.468  0.00  0.00     0.054 C 
ATOM      9  C   UNL d   1       1.211   1.819  -4.412  0.00  0.00     0.018 C 
ENDBRANCH   1   8
TORSDOF 1
ENDMDL
