MODEL 1
REMARK minimizedAffinity -2.7228508
REMARK minimizedRMSD -1
REMARK  1 active torsions:
REMARK  status: ('A' for Active; 'I' for Inactive)
REMARK    1  A    between atoms: C1_2  and  C2_3 
ROOT
ATOM      1  C2  UNL d   1       0.269   0.382  -0.396  0.00  0.00    -0.081 A 
ATOM      2  C3  UNL d   1      -1.127   0.423  -0.295  0.00  0.00     0.006 A 
ATOM      3  C4  UNL d   1      -1.824  -0.628   0.307  0.00  0.00     0.002 A 
ATOM      4  C5  UNL d   1      -1.137  -1.731   0.824  0.00  0.00    -0.080 A 
ATOM      5  C6  UNL d   1      -1.870  -2.851   1.500  0.00  0.00     0.076 C 
ATOM      6  C7  UNL d   1       0.257  -1.780   0.707  0.00  0.00     0.002 A 
ATOM      7  C8  UNL d   1       0.954  -0.730   0.105  0.00  0.00     0.006 A 
ENDROOT
BRANCH   1   8
ATOM      8  C1  UNL d   1       1.028   1.543  -0.987  0.00  0.00     0.054 C 
ATOM      9  C   UNL d   1       0.873   1.593  -2.500  0.00  0.00     0.018 C 
ENDBRANCH   1   8
TORSDOF 1
ENDMDL
