MODEL 1
REMARK minimizedAffinity -1.33615923
REMARK minimizedRMSD -1
REMARK  1 active torsions:
REMARK  status: ('A' for Active; 'I' for Inactive)
REMARK    1  A    between atoms: C1_2  and  C2_3 
ROOT
ATOM      1  C2  UNL d   1       0.916   0.763   0.193  0.00  0.00    -0.081 A 
ATOM      2  C3  UNL d   1       1.282  -0.579   0.352  0.00  0.00     0.006 A 
ATOM      3  C4  UNL d   1       2.550  -0.915   0.833  0.00  0.00     0.002 A 
ATOM      4  C5  UNL d   1       3.469   0.085   1.169  0.00  0.00    -0.080 A 
ATOM      5  C6  UNL d   1       4.822  -0.262   1.715  0.00  0.00     0.076 C 
ATOM      6  C7  UNL d   1       3.109   1.426   0.993  0.00  0.00     0.002 A 
ATOM      7  C8  UNL d   1       1.842   1.762   0.512  0.00  0.00     0.006 A 
ENDROOT
BRANCH   1   8
ATOM      8  C1  UNL d   1      -0.473   1.130  -0.264  0.00  0.00     0.054 C 
ATOM      9  C   UNL d   1      -1.533   0.386   0.536  0.00  0.00     0.018 C 
ENDBRANCH   1   8
TORSDOF 1
ENDMDL
