MODEL 1
REMARK minimizedAffinity 1.05380023
REMARK minimizedRMSD -1
REMARK  1 active torsions:
REMARK  status: ('A' for Active; 'I' for Inactive)
REMARK    1  A    between atoms: C1_2  and  C2_3 
ROOT
ATOM      1  C2  UNL d   1       3.922   1.916   1.765  0.00  0.00    -0.081 A 
ATOM      2  C3  UNL d   1       3.724   2.197   0.407  0.00  0.00     0.006 A 
ATOM      3  C4  UNL d   1       3.720   3.517  -0.049  0.00  0.00     0.002 A 
ATOM      4  C5  UNL d   1       3.922   4.577   0.842  0.00  0.00    -0.080 A 
ATOM      5  C6  UNL d   1       3.951   5.997   0.360  0.00  0.00     0.076 C 
ATOM      6  C7  UNL d   1       4.103   4.297   2.200  0.00  0.00     0.002 A 
ATOM      7  C8  UNL d   1       4.106   2.978   2.658  0.00  0.00     0.006 A 
ENDROOT
BRANCH   1   8
ATOM      8  C1  UNL d   1       3.990   0.491   2.250  0.00  0.00     0.054 C 
ATOM      9  C   UNL d   1       5.290   0.222   2.996  0.00  0.00     0.018 C 
ENDBRANCH   1   8
TORSDOF 1
ENDMDL
