MODEL 1
REMARK minimizedAffinity -3.15207577
REMARK minimizedRMSD -1
REMARK  1 active torsions:
REMARK  status: ('A' for Active; 'I' for Inactive)
REMARK    1  A    between atoms: C1_2  and  C2_3 
ROOT
ATOM      1  C2  UNL d   1      -0.253   0.891  -0.459  0.00  0.00    -0.081 A 
ATOM      2  C3  UNL d   1       0.543  -0.259  -0.406  0.00  0.00     0.006 A 
ATOM      3  C4  UNL d   1       0.070  -1.420   0.210  0.00  0.00     0.002 A 
ATOM      4  C5  UNL d   1      -1.209  -1.452   0.776  0.00  0.00    -0.080 A 
ATOM      5  C6  UNL d   1      -1.741  -2.701   1.414  0.00  0.00     0.076 C 
ATOM      6  C7  UNL d   1      -1.998  -0.297   0.738  0.00  0.00     0.002 A 
ATOM      7  C8  UNL d   1      -1.525   0.864   0.123  0.00  0.00     0.006 A 
ENDROOT
BRANCH   1   8
ATOM      8  C1  UNL d   1       0.230   2.124  -1.179  0.00  0.00     0.054 C 
ATOM      9  C   UNL d   1       0.250   1.913  -2.686  0.00  0.00     0.018 C 
ENDBRANCH   1   8
TORSDOF 1
ENDMDL
