MODEL 1
REMARK minimizedAffinity -5.69758654
REMARK minimizedRMSD -1
REMARK  1 active torsions:
REMARK  status: ('A' for Active; 'I' for Inactive)
REMARK    1  A    between atoms: C1_2  and  C2_3 
ROOT
ATOM      1  C2  UNL d   1       1.563  -0.022   1.063  0.00  0.00    -0.081 A 
ATOM      2  C3  UNL d   1       0.278   0.457   0.783  0.00  0.00     0.006 A 
ATOM      3  C4  UNL d   1      -0.798  -0.428   0.669  0.00  0.00     0.002 A 
ATOM      4  C5  UNL d   1      -0.607  -1.803   0.841  0.00  0.00    -0.080 A 
ATOM      5  C6  UNL d   1      -1.759  -2.760   0.752  0.00  0.00     0.076 C 
ATOM      6  C7  UNL d   1       0.680  -2.283   1.104  0.00  0.00     0.002 A 
ATOM      7  C8  UNL d   1       1.756  -1.399   1.217  0.00  0.00     0.006 A 
ENDROOT
BRANCH   1   8
ATOM      8  C1  UNL d   1       2.713   0.935   1.251  0.00  0.00     0.054 C 
ATOM      9  C   UNL d   1       3.927   0.232   1.842  0.00  0.00     0.018 C 
ENDBRANCH   1   8
TORSDOF 1
ENDMDL
