MODEL 1
REMARK minimizedAffinity -2.11982083
REMARK minimizedRMSD -1
REMARK  1 active torsions:
REMARK  status: ('A' for Active; 'I' for Inactive)
REMARK    1  A    between atoms: C1_2  and  C2_3 
ROOT
ATOM      1  C2  UNL d   1       1.387   0.941  -2.255  0.00  0.00    -0.081 A 
ATOM      2  C3  UNL d   1       0.421   1.475  -1.393  0.00  0.00     0.006 A 
ATOM      3  C4  UNL d   1      -0.207   0.666  -0.444  0.00  0.00     0.002 A 
ATOM      4  C5  UNL d   1       0.125  -0.689  -0.335  0.00  0.00    -0.080 A 
ATOM      5  C6  UNL d   1      -0.520  -1.562   0.700  0.00  0.00     0.076 C 
ATOM      6  C7  UNL d   1       1.077  -1.227  -1.207  0.00  0.00     0.002 A 
ATOM      7  C8  UNL d   1       1.705  -0.418  -2.157  0.00  0.00     0.006 A 
ENDROOT
BRANCH   1   8
ATOM      8  C1  UNL d   1       2.113   1.825  -3.236  0.00  0.00     0.054 C 
ATOM      9  C   UNL d   1       3.615   1.801  -2.997  0.00  0.00     0.018 C 
ENDBRANCH   1   8
TORSDOF 1
ENDMDL
