MODEL 1
REMARK minimizedAffinity -4.0373435
REMARK minimizedRMSD -1
REMARK  1 active torsions:
REMARK  status: ('A' for Active; 'I' for Inactive)
REMARK    1  A    between atoms: C1_2  and  C2_3 
ROOT
ATOM      1  C2  UNL d   1       2.061   0.807   0.856  0.00  0.00    -0.081 A 
ATOM      2  C3  UNL d   1       1.023   1.548   0.278  0.00  0.00     0.006 A 
ATOM      3  C4  UNL d   1      -0.163   0.920  -0.111  0.00  0.00     0.002 A 
ATOM      4  C5  UNL d   1      -0.333  -0.456   0.078  0.00  0.00    -0.080 A 
ATOM      5  C6  UNL d   1      -1.612  -1.137  -0.308  0.00  0.00     0.076 C 
ATOM      6  C7  UNL d   1       0.711  -1.199   0.639  0.00  0.00     0.002 A 
ATOM      7  C8  UNL d   1       1.897  -0.572   1.028  0.00  0.00     0.006 A 
ENDROOT
BRANCH   1   8
ATOM      8  C1  UNL d   1       3.316   1.492   1.336  0.00  0.00     0.054 C 
ATOM      9  C   UNL d   1       4.069   0.628   2.338  0.00  0.00     0.018 C 
ENDBRANCH   1   8
TORSDOF 1
ENDMDL
