MODEL 1
REMARK minimizedAffinity -5.07737303
REMARK minimizedRMSD -1
REMARK  1 active torsions:
REMARK  status: ('A' for Active; 'I' for Inactive)
REMARK    1  A    between atoms: C1_2  and  C2_3 
ROOT
ATOM      1  C2  UNL d   1       1.774   0.282   0.968  0.00  0.00    -0.081 A 
ATOM      2  C3  UNL d   1       0.566   0.954   0.746  0.00  0.00     0.006 A 
ATOM      3  C4  UNL d   1      -0.625   0.239   0.597  0.00  0.00     0.002 A 
ATOM      4  C5  UNL d   1      -0.629  -1.158   0.676  0.00  0.00    -0.080 A 
ATOM      5  C6  UNL d   1      -1.905  -1.935   0.548  0.00  0.00     0.076 C 
ATOM      6  C7  UNL d   1       0.580  -1.830   0.881  0.00  0.00     0.002 A 
ATOM      7  C8  UNL d   1       1.772  -1.116   1.029  0.00  0.00     0.006 A 
ENDROOT
BRANCH   1   8
ATOM      8  C1  UNL d   1       3.050   1.052   1.194  0.00  0.00     0.054 C 
ATOM      9  C   UNL d   1       3.740   0.617   2.479  0.00  0.00     0.018 C 
ENDBRANCH   1   8
TORSDOF 1
ENDMDL
