MODEL 1
REMARK minimizedAffinity 3.25261831
REMARK minimizedRMSD -1
REMARK  0 active torsions:
REMARK  status: ('A' for Active; 'I' for Inactive)
ROOT
ATOM      1  C4' PXY d   1       5.997  -2.462   4.858  0.00  0.00     0.077 C 
ATOM      2  C1' PXY d   1       5.977   3.037   3.077  0.00  0.00     0.077 C 
ATOM      3  C1  PXY d   1       5.987   1.599   3.555  0.00  0.00    -0.082 A 
ATOM      4  C2  PXY d   1       5.996   0.615   2.670  0.00  0.00     0.003 A 
ATOM      5  C3  PXY d   1       5.973  -0.692   3.086  0.00  0.00     0.003 A 
ATOM      6  C4  PXY d   1       5.996  -0.995   4.421  0.00  0.00    -0.082 A 
ATOM      7  C5  PXY d   1       5.998   0.003   5.330  0.00  0.00     0.003 A 
ATOM      8  C6  PXY d   1       5.979   1.323   4.888  0.00  0.00     0.003 A 
ENDROOT
TORSDOF 0
ENDMDL
