MODEL 1
REMARK minimizedAffinity -2.087708
REMARK minimizedRMSD -1
REMARK  0 active torsions:
REMARK  status: ('A' for Active; 'I' for Inactive)
ROOT
ATOM      1  C4' PXY d   1       5.997  -1.480   4.894  0.00  0.00     0.077 C 
ATOM      2  C1' PXY d   1       5.975   3.994   3.036  0.00  0.00     0.077 C 
ATOM      3  C1  PXY d   1       5.986   2.562   3.535  0.00  0.00    -0.082 A 
ATOM      4  C2  PXY d   1       5.992   1.566   2.664  0.00  0.00     0.003 A 
ATOM      5  C3  PXY d   1       5.970   0.266   3.097  0.00  0.00     0.003 A 
ATOM      6  C4  PXY d   1       5.995  -0.019   4.436  0.00  0.00    -0.082 A 
ATOM      7  C5  PXY d   1       6.000   0.992   5.331  0.00  0.00     0.003 A 
ATOM      8  C6  PXY d   1       5.980   2.305   4.871  0.00  0.00     0.003 A 
ENDROOT
TORSDOF 0
ENDMDL
