MODEL 1
REMARK minimizedAffinity -2.1254344
REMARK minimizedRMSD -1
REMARK  0 active torsions:
REMARK  status: ('A' for Active; 'I' for Inactive)
ROOT
ATOM      1  C4' PXY d   1       5.987  -2.299   4.869  0.00  0.00     0.077 C 
ATOM      2  C1' PXY d   1       5.627   3.409   4.027  0.00  0.00     0.077 C 
ATOM      3  C1  PXY d   1       5.725   1.914   4.260  0.00  0.00    -0.082 A 
ATOM      4  C2  PXY d   1       5.940   1.105   3.236  0.00  0.00     0.003 A 
ATOM      5  C3  PXY d   1       5.999  -0.252   3.424  0.00  0.00     0.003 A 
ATOM      6  C4  PXY d   1       5.890  -0.782   4.682  0.00  0.00    -0.082 A 
ATOM      7  C5  PXY d   1       5.681   0.038   5.734  0.00  0.00     0.003 A 
ATOM      8  C6  PXY d   1       5.583   1.409   5.515  0.00  0.00     0.003 A 
ENDROOT
TORSDOF 0
ENDMDL
