MODEL 1
REMARK minimizedAffinity -3.22227764
REMARK minimizedRMSD -1
REMARK  0 active torsions:
REMARK  status: ('A' for Active; 'I' for Inactive)
ROOT
ATOM      1  C4' PXY d   1       5.800   3.581   4.484  0.00  0.00     0.077 C 
ATOM      2  C1' PXY d   1       5.779  -2.173   5.034  0.00  0.00     0.077 C 
ATOM      3  C1  PXY d   1       5.778  -0.663   4.901  0.00  0.00    -0.082 A 
ATOM      4  C2  PXY d   1       5.960  -0.111   3.712  0.00  0.00     0.003 A 
ATOM      5  C3  PXY d   1       5.993   1.253   3.578  0.00  0.00     0.003 A 
ATOM      6  C4  PXY d   1       5.785   2.061   4.664  0.00  0.00    -0.082 A 
ATOM      7  C5  PXY d   1       5.588   1.506   5.879  0.00  0.00     0.003 A 
ATOM      8  C6  PXY d   1       5.598   0.119   6.000  0.00  0.00     0.003 A 
ENDROOT
TORSDOF 0
ENDMDL
