MODEL 1
REMARK minimizedAffinity -3.3661921
REMARK minimizedRMSD -1
REMARK  0 active torsions:
REMARK  status: ('A' for Active; 'I' for Inactive)
ROOT
ATOM      1  C4' PXY d   1       5.625  -1.073   5.258  0.00  0.00     0.077 C 
ATOM      2  C1' PXY d   1       5.591   4.503   3.735  0.00  0.00     0.077 C 
ATOM      3  C1  PXY d   1       5.599   3.038   4.122  0.00  0.00    -0.082 A 
ATOM      4  C2  PXY d   1       5.222   2.680   5.339  0.00  0.00     0.003 A 
ATOM      5  C3  PXY d   1       5.254   1.362   5.715  0.00  0.00     0.003 A 
ATOM      6  C4  PXY d   1       5.624   0.395   4.820  0.00  0.00    -0.082 A 
ATOM      7  C5  PXY d   1       5.999   0.750   3.573  0.00  0.00     0.003 A 
ATOM      8  C6  PXY d   1       6.000   2.097   3.224  0.00  0.00     0.003 A 
ENDROOT
TORSDOF 0
ENDMDL
