MODEL 1
REMARK minimizedAffinity -1.51037788
REMARK minimizedRMSD -1
REMARK  0 active torsions:
REMARK  status: ('A' for Active; 'I' for Inactive)
ROOT
ATOM      1  C4' PXY d   1       6.000   6.000   2.876  0.00  0.00     0.077 C 
ATOM      2  C1' PXY d   1       5.635   0.581   4.855  0.00  0.00     0.077 C 
ATOM      3  C1  PXY d   1       5.727   2.006   4.348  0.00  0.00    -0.082 A 
ATOM      4  C2  PXY d   1       5.628   2.247   3.050  0.00  0.00     0.003 A 
ATOM      5  C3  PXY d   1       5.741   3.527   2.571  0.00  0.00     0.003 A 
ATOM      6  C4  PXY d   1       5.903   4.577   3.434  0.00  0.00    -0.082 A 
ATOM      7  C5  PXY d   1       5.995   4.341   4.760  0.00  0.00     0.003 A 
ATOM      8  C6  PXY d   1       5.919   3.031   5.222  0.00  0.00     0.003 A 
ENDROOT
TORSDOF 0
ENDMDL
