MODEL 1
REMARK minimizedAffinity 3.3363204
REMARK minimizedRMSD -1
REMARK  0 active torsions:
REMARK  status: ('A' for Active; 'I' for Inactive)
ROOT
ATOM      1  C4' PXY d   1       5.958   2.067   5.997  0.00  0.00     0.077 C 
ATOM      2  C1' PXY d   1       6.000   6.000   1.761  0.00  0.00     0.077 C 
ATOM      3  C1  PXY d   1       5.994   4.977   2.880  0.00  0.00    -0.082 A 
ATOM      4  C2  PXY d   1       6.000   3.687   2.587  0.00  0.00     0.003 A 
ATOM      5  C3  PXY d   1       5.963   2.748   3.586  0.00  0.00     0.003 A 
ATOM      6  C4  PXY d   1       5.973   3.134   4.900  0.00  0.00    -0.082 A 
ATOM      7  C5  PXY d   1       5.978   4.449   5.207  0.00  0.00     0.003 A 
ATOM      8  C6  PXY d   1       5.974   5.386   4.178  0.00  0.00     0.003 A 
ENDROOT
TORSDOF 0
ENDMDL
