MODEL 1
REMARK minimizedAffinity -0.273021996
REMARK minimizedRMSD -1
REMARK  0 active torsions:
REMARK  status: ('A' for Active; 'I' for Inactive)
ROOT
ATOM      1  C4' PXY d   1       6.000   5.958   4.637  0.00  0.00     0.077 C 
ATOM      2  C1' PXY d   1       5.978   0.648   2.355  0.00  0.00     0.077 C 
ATOM      3  C1  PXY d   1       5.989   2.045   2.942  0.00  0.00    -0.082 A 
ATOM      4  C2  PXY d   1       5.999   2.202   4.256  0.00  0.00     0.003 A 
ATOM      5  C3  PXY d   1       5.977   3.459   4.804  0.00  0.00     0.003 A 
ATOM      6  C4  PXY d   1       5.998   4.566   4.000  0.00  0.00    -0.082 A 
ATOM      7  C5  PXY d   1       5.999   4.414   2.659  0.00  0.00     0.003 A 
ATOM      8  C6  PXY d   1       5.980   3.130   2.122  0.00  0.00     0.003 A 
ENDROOT
TORSDOF 0
ENDMDL
