MODEL 1
REMARK minimizedAffinity -3.48790264
REMARK minimizedRMSD -1
REMARK  0 active torsions:
REMARK  status: ('A' for Active; 'I' for Inactive)
ROOT
ATOM      1  C4' PXY d   1       5.626  -1.304   5.965  0.00  0.00     0.077 C 
ATOM      2  C1' PXY d   1       6.000   3.500   2.771  0.00  0.00     0.077 C 
ATOM      3  C1  PXY d   1       5.898   2.233   3.598  0.00  0.00    -0.082 A 
ATOM      4  C2  PXY d   1       5.719   2.319   4.906  0.00  0.00     0.003 A 
ATOM      5  C3  PXY d   1       5.657   1.185   5.674  0.00  0.00     0.003 A 
ATOM      6  C4  PXY d   1       5.725  -0.052   5.089  0.00  0.00    -0.082 A 
ATOM      7  C5  PXY d   1       5.897  -0.148   3.754  0.00  0.00     0.003 A 
ATOM      8  C6  PXY d   1       5.999   1.017   2.998  0.00  0.00     0.003 A 
ENDROOT
TORSDOF 0
ENDMDL
