MODEL 1
REMARK minimizedAffinity -3.2278161
REMARK minimizedRMSD -1
REMARK  0 active torsions:
REMARK  status: ('A' for Active; 'I' for Inactive)
ROOT
ATOM      1  C4' PXY d   1       5.999   3.042   4.126  0.00  0.00     0.077 C 
ATOM      2  C1' PXY d   1       5.528  -2.603   5.281  0.00  0.00     0.077 C 
ATOM      3  C1  PXY d   1       5.644  -1.120   4.989  0.00  0.00    -0.082 A 
ATOM      4  C2  PXY d   1       5.859  -0.712   3.749  0.00  0.00     0.003 A 
ATOM      5  C3  PXY d   1       5.999   0.623   3.472  0.00  0.00     0.003 A 
ATOM      6  C4  PXY d   1       5.865   1.555   4.466  0.00  0.00    -0.082 A 
ATOM      7  C5  PXY d   1       5.635   1.147   5.733  0.00  0.00     0.003 A 
ATOM      8  C6  PXY d   1       5.537  -0.215   6.000  0.00  0.00     0.003 A 
ENDROOT
TORSDOF 0
ENDMDL
