MODEL 1
REMARK minimizedAffinity -1.37927318
REMARK minimizedRMSD -1
REMARK  0 active torsions:
REMARK  status: ('A' for Active; 'I' for Inactive)
ROOT
ATOM      1  C4' PXY d   1      -1.232   4.810   4.313  0.00  0.00     0.077 C 
ATOM      2  C1' PXY d   1      -2.288  -0.777   3.270  0.00  0.00     0.077 C 
ATOM      3  C1  PXY d   1      -1.999   0.688   3.537  0.00  0.00    -0.082 A 
ATOM      4  C2  PXY d   1      -2.568   1.288   4.570  0.00  0.00     0.003 A 
ATOM      5  C3  PXY d   1      -2.343   2.620   4.807  0.00  0.00     0.003 A 
ATOM      6  C4  PXY d   1      -1.487   3.331   4.010  0.00  0.00    -0.082 A 
ATOM      7  C5  PXY d   1      -0.894   2.723   2.961  0.00  0.00     0.003 A 
ATOM      8  C6  PXY d   1      -1.168   1.381   2.713  0.00  0.00     0.003 A 
ENDROOT
TORSDOF 0
ENDMDL
