MODEL 1
REMARK minimizedAffinity -1.34490263
REMARK minimizedRMSD -1
REMARK  0 active torsions:
REMARK  status: ('A' for Active; 'I' for Inactive)
ROOT
ATOM      1  C4' PXY d   1       6.000  -1.736   4.860  0.00  0.00     0.077 C 
ATOM      2  C1' PXY d   1       5.973   3.841   3.342  0.00  0.00     0.077 C 
ATOM      3  C1  PXY d   1       5.975   2.375   3.729  0.00  0.00    -0.082 A 
ATOM      4  C2  PXY d   1       5.962   2.036   5.008  0.00  0.00     0.003 A 
ATOM      5  C3  PXY d   1       5.996   0.715   5.375  0.00  0.00     0.003 A 
ATOM      6  C4  PXY d   1       5.989  -0.269   4.423  0.00  0.00    -0.082 A 
ATOM      7  C5  PXY d   1       5.992   0.069   3.116  0.00  0.00     0.003 A 
ATOM      8  C6  PXY d   1       5.999   1.416   2.764  0.00  0.00     0.003 A 
ENDROOT
TORSDOF 0
ENDMDL
