MODEL 1
REMARK minimizedAffinity -1.71405339
REMARK minimizedRMSD -1
REMARK  0 active torsions:
REMARK  status: ('A' for Active; 'I' for Inactive)
ROOT
ATOM      1  C4' PXY d   1       5.990  -1.705   5.193  0.00  0.00     0.077 C 
ATOM      2  C1' PXY d   1       5.984   3.983   4.164  0.00  0.00     0.077 C 
ATOM      3  C1  PXY d   1       5.991   2.493   4.445  0.00  0.00    -0.082 A 
ATOM      4  C2  PXY d   1       6.000   1.637   3.437  0.00  0.00     0.003 A 
ATOM      5  C3  PXY d   1       5.974   0.287   3.673  0.00  0.00     0.003 A 
ATOM      6  C4  PXY d   1       5.993  -0.193   4.956  0.00  0.00    -0.082 A 
ATOM      7  C5  PXY d   1       5.994   0.675   5.990  0.00  0.00     0.003 A 
ATOM      8  C6  PXY d   1       5.979   2.042   5.729  0.00  0.00     0.003 A 
ENDROOT
TORSDOF 0
ENDMDL
