MODEL 1
REMARK minimizedAffinity -3.42268801
REMARK minimizedRMSD -1
REMARK  0 active torsions:
REMARK  status: ('A' for Active; 'I' for Inactive)
ROOT
ATOM      1  C4' PXY d   1       5.630  -0.788   4.672  0.00  0.00     0.077 C 
ATOM      2  C1' PXY d   1       5.975   4.912   3.779  0.00  0.00     0.077 C 
ATOM      3  C1  PXY d   1       5.891   3.419   4.024  0.00  0.00    -0.082 A 
ATOM      4  C2  PXY d   1       5.706   2.598   3.003  0.00  0.00     0.003 A 
ATOM      5  C3  PXY d   1       5.596   1.247   3.211  0.00  0.00     0.003 A 
ATOM      6  C4  PXY d   1       5.730   0.726   4.470  0.00  0.00    -0.082 A 
ATOM      7  C5  PXY d   1       5.930   1.557   5.516  0.00  0.00     0.003 A 
ATOM      8  C6  PXY d   1       5.998   2.928   5.289  0.00  0.00     0.003 A 
ENDROOT
TORSDOF 0
ENDMDL
