MODEL 1
REMARK minimizedAffinity -3.1258812
REMARK minimizedRMSD -1
REMARK  0 active torsions:
REMARK  status: ('A' for Active; 'I' for Inactive)
ROOT
ATOM      1  C4' PXY d   1       5.949   4.263   3.000  0.00  0.00     0.077 C 
ATOM      2  C1' PXY d   1       5.971  -0.688   5.983  0.00  0.00     0.077 C 
ATOM      3  C1  PXY d   1       5.971   0.605   5.190  0.00  0.00    -0.082 A 
ATOM      4  C2  PXY d   1       5.949   1.763   5.829  0.00  0.00     0.003 A 
ATOM      5  C3  PXY d   1       5.917   2.941   5.127  0.00  0.00     0.003 A 
ATOM      6  C4  PXY d   1       5.960   2.934   3.759  0.00  0.00    -0.082 A 
ATOM      7  C5  PXY d   1       5.993   1.756   3.101  0.00  0.00     0.003 A 
ATOM      8  C6  PXY d   1       5.984   0.571   3.830  0.00  0.00     0.003 A 
ENDROOT
TORSDOF 0
ENDMDL
