MODEL 1
REMARK minimizedAffinity -1.99792373
REMARK minimizedRMSD -1
REMARK  0 active torsions:
REMARK  status: ('A' for Active; 'I' for Inactive)
ROOT
ATOM      1  C4' PXY d   1       6.000  -2.614   4.806  0.00  0.00     0.077 C 
ATOM      2  C1' PXY d   1       5.977   3.080   3.809  0.00  0.00     0.077 C 
ATOM      3  C1  PXY d   1       5.988   1.588   4.082  0.00  0.00    -0.082 A 
ATOM      4  C2  PXY d   1       5.999   0.738   3.069  0.00  0.00     0.003 A 
ATOM      5  C3  PXY d   1       5.978  -0.614   3.298  0.00  0.00     0.003 A 
ATOM      6  C4  PXY d   1       5.998  -1.100   4.577  0.00  0.00    -0.082 A 
ATOM      7  C5  PXY d   1       5.997  -0.239   5.617  0.00  0.00     0.003 A 
ATOM      8  C6  PXY d   1       5.978   1.129   5.363  0.00  0.00     0.003 A 
ENDROOT
TORSDOF 0
ENDMDL
