MODEL 1
REMARK minimizedAffinity -1.57739246
REMARK minimizedRMSD -1
REMARK  0 active torsions:
REMARK  status: ('A' for Active; 'I' for Inactive)
ROOT
ATOM      1  C4' PXY d   1       5.356  -0.388   4.866  0.00  0.00     0.077 C 
ATOM      2  C1' PXY d   1       5.321   5.183   3.324  0.00  0.00     0.077 C 
ATOM      3  C1  PXY d   1       5.332   3.719   3.716  0.00  0.00    -0.082 A 
ATOM      4  C2  PXY d   1       4.706   3.331   4.815  0.00  0.00     0.003 A 
ATOM      5  C3  PXY d   1       4.733   2.015   5.201  0.00  0.00     0.003 A 
ATOM      6  C4  PXY d   1       5.363   1.079   4.426  0.00  0.00    -0.082 A 
ATOM      7  C5  PXY d   1       5.996   1.465   3.298  0.00  0.00     0.003 A 
ATOM      8  C6  PXY d   1       5.992   2.811   2.945  0.00  0.00     0.003 A 
ENDROOT
TORSDOF 0
ENDMDL
