MODEL 1
REMARK minimizedAffinity -2.1064117
REMARK minimizedRMSD -1
REMARK  0 active torsions:
REMARK  status: ('A' for Active; 'I' for Inactive)
ROOT
ATOM      1  C4' PXY d   1       5.996  -2.239   4.510  0.00  0.00     0.077 C 
ATOM      2  C1' PXY d   1       5.971   3.449   3.480  0.00  0.00     0.077 C 
ATOM      3  C1  PXY d   1       5.983   1.960   3.762  0.00  0.00    -0.082 A 
ATOM      4  C2  PXY d   1       5.999   1.103   2.754  0.00  0.00     0.003 A 
ATOM      5  C3  PXY d   1       5.977  -0.247   2.990  0.00  0.00     0.003 A 
ATOM      6  C4  PXY d   1       5.993  -0.726   4.273  0.00  0.00    -0.082 A 
ATOM      7  C5  PXY d   1       5.988   0.142   5.307  0.00  0.00     0.003 A 
ATOM      8  C6  PXY d   1       5.968   1.508   5.046  0.00  0.00     0.003 A 
ENDROOT
TORSDOF 0
ENDMDL
