MODEL 1
REMARK minimizedAffinity 0.0254716054
REMARK minimizedRMSD -1
REMARK  0 active torsions:
REMARK  status: ('A' for Active; 'I' for Inactive)
ROOT
ATOM      1  C4' PXY d   1       4.691   4.872   3.606  0.00  0.00     0.077 C 
ATOM      2  C1' PXY d   1       4.159   4.837  -2.150  0.00  0.00     0.077 C 
ATOM      3  C1  PXY d   1       4.293   4.834  -0.640  0.00  0.00    -0.082 A 
ATOM      4  C2  PXY d   1       4.330   5.983   0.016  0.00  0.00     0.003 A 
ATOM      5  C3  PXY d   1       4.483   6.000   1.378  0.00  0.00     0.003 A 
ATOM      6  C4  PXY d   1       4.546   4.827   2.082  0.00  0.00    -0.082 A 
ATOM      7  C5  PXY d   1       4.499   3.651   1.422  0.00  0.00     0.003 A 
ATOM      8  C6  PXY d   1       4.384   3.656   0.035  0.00  0.00     0.003 A 
ENDROOT
TORSDOF 0
ENDMDL
