MODEL 1
REMARK minimizedAffinity -3.39478922
REMARK minimizedRMSD -1
REMARK  1 active torsions:
REMARK  status: ('A' for Active; 'I' for Inactive)
REMARK    1  A    between atoms: N_2  and  C1_3 
ROOT
ATOM      1  C1  UNL d   1       1.283   0.720   0.523  0.00  0.00     0.143 A 
ATOM      2  C2  UNL d   1       1.756   1.554   1.541  0.00  0.00    -0.057 A 
ATOM      3  C3  UNL d   1       2.912   1.236   2.263  0.00  0.00     0.033 A 
ATOM      4  C4  UNL d   1       3.603   0.058   1.998  0.00  0.00    -0.042 A 
ATOM      5  C5  UNL d   1       3.137  -0.800   1.007  0.00  0.00     0.033 A 
ATOM      6  C6  UNL d   1       1.985  -0.472   0.285  0.00  0.00    -0.057 A 
ENDROOT
BRANCH   1   7
ATOM      7  N   UNL d   1       0.085   0.932  -0.163  0.00  0.00    -0.732 N 
ATOM      8  C   UNL d   1      -0.969  -0.060  -0.131  0.00  0.00     0.284 C 
ATOM      9  H3  UNL d   1      -0.245   1.891  -0.082  0.00  0.00     0.395 HD
ENDBRANCH   1   7
TORSDOF 1
ENDMDL
