MODEL 1
REMARK minimizedAffinity 0.234022275
REMARK minimizedRMSD -1
REMARK  1 active torsions:
REMARK  status: ('A' for Active; 'I' for Inactive)
REMARK    1  A    between atoms: N_2  and  C1_3 
ROOT
ATOM      1  C1  UNL d   1       2.083   0.949   1.591  0.00  0.00     0.143 A 
ATOM      2  C2  UNL d   1       2.569  -0.333   1.311  0.00  0.00    -0.057 A 
ATOM      3  C3  UNL d   1       1.937  -1.161   0.376  0.00  0.00     0.033 A 
ATOM      4  C4  UNL d   1       0.786  -0.731  -0.277  0.00  0.00    -0.042 A 
ATOM      5  C5  UNL d   1       0.271   0.529   0.004  0.00  0.00     0.033 A 
ATOM      6  C6  UNL d   1       0.910   1.354   0.934  0.00  0.00    -0.057 A 
ENDROOT
BRANCH   1   7
ATOM      7  N   UNL d   1       2.609   1.781   2.582  0.00  0.00    -0.732 N 
ATOM      8  C   UNL d   1       2.212   1.623   3.965  0.00  0.00     0.284 C 
ATOM      9  H3  UNL d   1       3.603   1.959   2.453  0.00  0.00     0.395 HD
ENDBRANCH   1   7
TORSDOF 1
ENDMDL
