MODEL 1
REMARK minimizedAffinity 1.46665668
REMARK minimizedRMSD -1
REMARK  1 active torsions:
REMARK  status: ('A' for Active; 'I' for Inactive)
REMARK    1  A    between atoms: N_2  and  C1_3 
ROOT
ATOM      1  C1  UNL d   1      -1.098   0.395  -1.372  0.00  0.00     0.143 A 
ATOM      2  C2  UNL d   1      -0.958  -0.776  -0.619  0.00  0.00    -0.057 A 
ATOM      3  C3  UNL d   1      -0.284  -0.774   0.608  0.00  0.00     0.033 A 
ATOM      4  C4  UNL d   1       0.289   0.398   1.092  0.00  0.00    -0.042 A 
ATOM      5  C5  UNL d   1       0.184   1.568   0.348  0.00  0.00     0.033 A 
ATOM      6  C6  UNL d   1      -0.497   1.561  -0.873  0.00  0.00    -0.057 A 
ENDROOT
BRANCH   1   7
ATOM      7  N   UNL d   1      -1.671   0.437  -2.645  0.00  0.00    -0.732 N 
ATOM      8  C   UNL d   1      -2.928   1.120  -2.866  0.00  0.00     0.284 C 
ATOM      9  H3  UNL d   1      -0.981   0.588  -3.377  0.00  0.00     0.395 HD
ENDBRANCH   1   7
TORSDOF 1
ENDMDL
