MODEL 1
REMARK minimizedAffinity -3.65913677
REMARK minimizedRMSD -1
REMARK  1 active torsions:
REMARK  status: ('A' for Active; 'I' for Inactive)
REMARK    1  A    between atoms: N_2  and  C1_3 
ROOT
ATOM      1  C1  UNL d   1       1.248   0.489   0.479  0.00  0.00     0.143 A 
ATOM      2  C2  UNL d   1       0.421  -0.635   0.378  0.00  0.00    -0.057 A 
ATOM      3  C3  UNL d   1      -0.953  -0.507   0.142  0.00  0.00     0.033 A 
ATOM      4  C4  UNL d   1      -1.531   0.753   0.030  0.00  0.00    -0.042 A 
ATOM      5  C5  UNL d   1      -0.732   1.885   0.152  0.00  0.00     0.033 A 
ATOM      6  C6  UNL d   1       0.640   1.750   0.381  0.00  0.00    -0.057 A 
ENDROOT
BRANCH   1   7
ATOM      7  N   UNL d   1       2.604   0.430   0.811  0.00  0.00    -0.732 N 
ATOM      8  C   UNL d   1       3.416  -0.694   0.396  0.00  0.00     0.284 C 
ATOM      9  H3  UNL d   1       3.065   1.332   0.722  0.00  0.00     0.395 HD
ENDBRANCH   1   7
TORSDOF 1
ENDMDL
