MODEL 1
REMARK minimizedAffinity -4.77629042
REMARK minimizedRMSD -1
REMARK  1 active torsions:
REMARK  status: ('A' for Active; 'I' for Inactive)
REMARK    1  A    between atoms: N_2  and  C1_3 
ROOT
ATOM      1  C1  UNL d   1       0.104   0.447   0.215  0.00  0.00     0.143 A 
ATOM      2  C2  UNL d   1       0.979   1.538   0.231  0.00  0.00    -0.057 A 
ATOM      3  C3  UNL d   1       2.344   1.370   0.497  0.00  0.00     0.033 A 
ATOM      4  C4  UNL d   1       2.853   0.107   0.781  0.00  0.00    -0.042 A 
ATOM      5  C5  UNL d   1       1.997  -0.988   0.796  0.00  0.00     0.033 A 
ATOM      6  C6  UNL d   1       0.636  -0.815   0.523  0.00  0.00    -0.057 A 
ENDROOT
BRANCH   1   7
ATOM      7  N   UNL d   1      -1.279   0.561   0.055  0.00  0.00    -0.732 N 
ATOM      8  C   UNL d   1      -1.901   0.263  -1.218  0.00  0.00     0.284 C 
ATOM      9  H3  UNL d   1      -1.794   0.214   0.860  0.00  0.00     0.395 HD
ENDBRANCH   1   7
TORSDOF 1
ENDMDL
