MODEL 1
REMARK minimizedAffinity -2.28674841
REMARK minimizedRMSD -1
REMARK  1 active torsions:
REMARK  status: ('A' for Active; 'I' for Inactive)
REMARK    1  A    between atoms: N_2  and  C1_3 
ROOT
ATOM      1  C1  UNL d   1       1.421   0.421   0.820  0.00  0.00     0.143 A 
ATOM      2  C2  UNL d   1       0.572   1.443   0.382  0.00  0.00    -0.057 A 
ATOM      3  C3  UNL d   1      -0.741   1.173  -0.024  0.00  0.00     0.033 A 
ATOM      4  C4  UNL d   1      -1.220  -0.133  -0.027  0.00  0.00    -0.042 A 
ATOM      5  C5  UNL d   1      -0.386  -1.168   0.381  0.00  0.00     0.033 A 
ATOM      6  C6  UNL d   1       0.922  -0.891   0.791  0.00  0.00    -0.057 A 
ENDROOT
BRANCH   1   7
ATOM      7  N   UNL d   1       2.766   0.612   1.142  0.00  0.00    -0.732 N 
ATOM      8  C   UNL d   1       3.711  -0.480   1.042  0.00  0.00     0.284 C 
ATOM      9  H3  UNL d   1       3.124   1.503   0.805  0.00  0.00     0.395 HD
ENDBRANCH   1   7
TORSDOF 1
ENDMDL
