MODEL 1
REMARK minimizedAffinity -3.91356826
REMARK minimizedRMSD -1
REMARK  1 active torsions:
REMARK  status: ('A' for Active; 'I' for Inactive)
REMARK    1  A    between atoms: N_2  and  C1_3 
ROOT
ATOM      1  C1  UNL d   1      -0.419  -0.240  -0.025  0.00  0.00     0.143 A 
ATOM      2  C2  UNL d   1       0.443  -1.315   0.214  0.00  0.00    -0.057 A 
ATOM      3  C3  UNL d   1       1.798  -1.110   0.501  0.00  0.00     0.033 A 
ATOM      4  C4  UNL d   1       2.322   0.178   0.526  0.00  0.00    -0.042 A 
ATOM      5  C5  UNL d   1       1.489   1.261   0.267  0.00  0.00     0.033 A 
ATOM      6  C6  UNL d   1       0.136   1.050  -0.012  0.00  0.00    -0.057 A 
ENDROOT
BRANCH   1   7
ATOM      7  N   UNL d   1      -1.753  -0.384  -0.412  0.00  0.00    -0.732 N 
ATOM      8  C   UNL d   1      -2.109  -0.471  -1.813  0.00  0.00     0.284 C 
ATOM      9  H3  UNL d   1      -2.265  -1.027   0.187  0.00  0.00     0.395 HD
ENDBRANCH   1   7
TORSDOF 1
ENDMDL
