MODEL 1
REMARK minimizedAffinity -5.19089985
REMARK minimizedRMSD -1
REMARK  1 active torsions:
REMARK  status: ('A' for Active; 'I' for Inactive)
REMARK    1  A    between atoms: N_2  and  C1_3 
ROOT
ATOM      1  C1  UNL d   1       0.785   0.028  -0.039  0.00  0.00     0.143 A 
ATOM      2  C2  UNL d   1       1.459   1.139   0.481  0.00  0.00    -0.057 A 
ATOM      3  C3  UNL d   1       2.629   0.990   1.236  0.00  0.00     0.033 A 
ATOM      4  C4  UNL d   1       3.131  -0.278   1.509  0.00  0.00    -0.042 A 
ATOM      5  C5  UNL d   1       2.464  -1.397   1.024  0.00  0.00     0.033 A 
ATOM      6  C6  UNL d   1       1.300  -1.242   0.266  0.00  0.00    -0.057 A 
ENDROOT
BRANCH   1   7
ATOM      7  N   UNL d   1      -0.436   0.105  -0.713  0.00  0.00    -0.732 N 
ATOM      8  C   UNL d   1      -1.668   0.322   0.016  0.00  0.00     0.284 C 
ATOM      9  H3  UNL d   1      -0.368   0.631  -1.581  0.00  0.00     0.395 HD
ENDBRANCH   1   7
TORSDOF 1
ENDMDL
