MODEL 1
REMARK minimizedAffinity -3.11872935
REMARK minimizedRMSD -1
REMARK  1 active torsions:
REMARK  status: ('A' for Active; 'I' for Inactive)
REMARK    1  A    between atoms: N_2  and  C1_3 
ROOT
ATOM      1  C1  UNL d   1      -1.568  -0.435  -0.827  0.00  0.00     0.143 A 
ATOM      2  C2  UNL d   1      -1.108  -1.309   0.164  0.00  0.00    -0.057 A 
ATOM      3  C3  UNL d   1      -0.059  -0.950   1.019  0.00  0.00     0.033 A 
ATOM      4  C4  UNL d   1       0.570   0.282   0.878  0.00  0.00    -0.042 A 
ATOM      5  C5  UNL d   1       0.146   1.157  -0.116  0.00  0.00     0.033 A 
ATOM      6  C6  UNL d   1      -0.906   0.795  -0.962  0.00  0.00    -0.057 A 
ENDROOT
BRANCH   1   7
ATOM      7  N   UNL d   1      -2.541  -0.772  -1.771  0.00  0.00    -0.732 N 
ATOM      8  C   UNL d   1      -3.001   0.203  -2.736  0.00  0.00     0.284 C 
ATOM      9  H3  UNL d   1      -2.403  -1.704  -2.155  0.00  0.00     0.395 HD
ENDBRANCH   1   7
TORSDOF 1
ENDMDL
