MODEL 1
REMARK minimizedAffinity 5.6892395
REMARK minimizedRMSD -1
REMARK  1 active torsions:
REMARK  status: ('A' for Active; 'I' for Inactive)
REMARK    1  A    between atoms: C3_4  and  O_7 
ROOT
ATOM      1  C   UNL d   1      -1.017  -1.000   3.843  0.00  0.00    -0.033 A 
ATOM      2  C1  UNL d   1       0.321  -0.964   4.239  0.00  0.00     0.039 A 
ATOM      3  C2  UNL d   1       1.262  -1.773   3.600  0.00  0.00    -0.080 A 
ATOM      4  C3  UNL d   1       0.854  -2.611   2.567  0.00  0.00     0.150 A 
ATOM      5  C4  UNL d   1      -0.477  -2.650   2.164  0.00  0.00    -0.007 A 
ATOM      6  C5  UNL d   1      -1.416  -1.842   2.804  0.00  0.00     0.039 A 
ENDROOT
BRANCH   4   7
ATOM      7  O   UNL d   1       1.736  -3.422   1.916  0.00  0.00    -0.526 OA
ATOM      8  H5  UNL d   1       2.612  -3.311   2.321  0.00  0.00     0.418 HD
ENDBRANCH   4   7
TORSDOF 1
ENDMDL
