MODEL 1
REMARK minimizedAffinity 2.25645685
REMARK minimizedRMSD -1
REMARK  1 active torsions:
REMARK  status: ('A' for Active; 'I' for Inactive)
REMARK    1  A    between atoms: C3_4  and  O_7 
ROOT
ATOM      1  C   UNL d   1      -1.819   3.619  -5.676  0.00  0.00    -0.033 A 
ATOM      2  C1  UNL d   1      -2.371   4.896  -5.551  0.00  0.00     0.039 A 
ATOM      3  C2  UNL d   1      -3.754   5.052  -5.434  0.00  0.00    -0.080 A 
ATOM      4  C3  UNL d   1      -4.571   3.925  -5.442  0.00  0.00     0.150 A 
ATOM      5  C4  UNL d   1      -4.027   2.650  -5.562  0.00  0.00    -0.007 A 
ATOM      6  C5  UNL d   1      -2.647   2.497  -5.680  0.00  0.00     0.039 A 
ENDROOT
BRANCH   4   7
ATOM      7  O   UNL d   1      -5.926   4.027  -5.335  0.00  0.00    -0.526 OA
ATOM      8  H5  UNL d   1      -6.161   4.969  -5.288  0.00  0.00     0.418 HD
ENDBRANCH   4   7
TORSDOF 1
ENDMDL
