MODEL 1
REMARK minimizedAffinity 6.77099895
REMARK minimizedRMSD -1
REMARK  1 active torsions:
REMARK  status: ('A' for Active; 'I' for Inactive)
REMARK    1  A    between atoms: C3_4  and  O_7 
ROOT
ATOM      1  C   UNL d   1      -4.693  -1.103  -4.521  0.00  0.00    -0.033 A 
ATOM      2  C1  UNL d   1      -4.853  -2.351  -3.916  0.00  0.00     0.039 A 
ATOM      3  C2  UNL d   1      -4.292  -2.597  -2.662  0.00  0.00    -0.080 A 
ATOM      4  C3  UNL d   1      -3.574  -1.589  -2.024  0.00  0.00     0.150 A 
ATOM      5  C4  UNL d   1      -3.414  -0.342  -2.620  0.00  0.00    -0.007 A 
ATOM      6  C5  UNL d   1      -3.975  -0.098  -3.873  0.00  0.00     0.039 A 
ENDROOT
BRANCH   4   7
ATOM      7  O   UNL d   1      -3.004  -1.784  -0.801  0.00  0.00    -0.526 OA
ATOM      8  H5  UNL d   1      -3.172  -2.700  -0.526  0.00  0.00     0.418 HD
ENDBRANCH   4   7
TORSDOF 1
ENDMDL
