MODEL 1
REMARK minimizedAffinity 7.44122601
REMARK minimizedRMSD -1
REMARK  1 active torsions:
REMARK  status: ('A' for Active; 'I' for Inactive)
REMARK    1  A    between atoms: C3_4  and  O_7 
ROOT
ATOM      1  C   UNL d   1      -5.394  -1.063  -4.085  0.00  0.00    -0.033 A 
ATOM      2  C1  UNL d   1      -5.110  -0.022  -3.199  0.00  0.00     0.039 A 
ATOM      3  C2  UNL d   1      -4.175  -0.207  -2.179  0.00  0.00    -0.080 A 
ATOM      4  C3  UNL d   1      -3.530  -1.435  -2.057  0.00  0.00     0.150 A 
ATOM      5  C4  UNL d   1      -3.806  -2.475  -2.939  0.00  0.00    -0.007 A 
ATOM      6  C5  UNL d   1      -4.741  -2.289  -3.956  0.00  0.00     0.039 A 
ENDROOT
BRANCH   4   7
ATOM      7  O   UNL d   1      -2.613  -1.664  -1.075  0.00  0.00    -0.526 OA
ATOM      8  H5  UNL d   1      -2.547  -0.866  -0.524  0.00  0.00     0.418 HD
ENDBRANCH   4   7
TORSDOF 1
ENDMDL
