MODEL 1
REMARK minimizedAffinity 9.27143383
REMARK minimizedRMSD -1
REMARK  1 active torsions:
REMARK  status: ('A' for Active; 'I' for Inactive)
REMARK    1  A    between atoms: C3_4  and  O_7 
ROOT
ATOM      1  C   UNL d   1      -3.993   0.364  -1.760  0.00  0.00    -0.033 A 
ATOM      2  C1  UNL d   1      -3.115  -0.717  -1.665  0.00  0.00     0.039 A 
ATOM      3  C2  UNL d   1      -3.352  -1.878  -2.402  0.00  0.00    -0.080 A 
ATOM      4  C3  UNL d   1      -4.469  -1.945  -3.231  0.00  0.00     0.150 A 
ATOM      5  C4  UNL d   1      -5.346  -0.870  -3.334  0.00  0.00    -0.007 A 
ATOM      6  C5  UNL d   1      -5.107   0.288  -2.595  0.00  0.00     0.039 A 
ENDROOT
BRANCH   4   7
ATOM      7  O   UNL d   1      -4.744  -3.059  -3.967  0.00  0.00    -0.526 OA
ATOM      8  H5  UNL d   1      -4.069  -3.731  -3.773  0.00  0.00     0.418 HD
ENDBRANCH   4   7
TORSDOF 1
ENDMDL
