MODEL 1
REMARK minimizedAffinity 8.43748188
REMARK minimizedRMSD -1
REMARK  1 active torsions:
REMARK  status: ('A' for Active; 'I' for Inactive)
REMARK    1  A    between atoms: C3_4  and  O_7 
ROOT
ATOM      1  C   UNL d   1       1.048   1.638  -1.062  0.00  0.00    -0.033 A 
ATOM      2  C1  UNL d   1       1.859   1.504   0.066  0.00  0.00     0.039 A 
ATOM      3  C2  UNL d   1       1.878   0.303   0.777  0.00  0.00    -0.080 A 
ATOM      4  C3  UNL d   1       1.083  -0.757   0.348  0.00  0.00     0.150 A 
ATOM      5  C4  UNL d   1       0.275  -0.632  -0.777  0.00  0.00    -0.007 A 
ATOM      6  C5  UNL d   1       0.257   0.569  -1.485  0.00  0.00     0.039 A 
ENDROOT
BRANCH   4   7
ATOM      7  O   UNL d   1       1.064  -1.947   1.012  0.00  0.00    -0.526 OA
ATOM      8  H5  UNL d   1       1.648  -1.878   1.785  0.00  0.00     0.418 HD
ENDBRANCH   4   7
TORSDOF 1
ENDMDL
