MODEL 1
REMARK minimizedAffinity 5.61982012
REMARK minimizedRMSD -1
REMARK  1 active torsions:
REMARK  status: ('A' for Active; 'I' for Inactive)
REMARK    1  A    between atoms: C3_4  and  O_7 
ROOT
ATOM      1  C   UNL d   1       6.000  -4.817   0.072  0.00  0.00    -0.033 A 
ATOM      2  C1  UNL d   1       5.887  -3.601   0.749  0.00  0.00     0.039 A 
ATOM      3  C2  UNL d   1       4.641  -3.169   1.208  0.00  0.00    -0.080 A 
ATOM      4  C3  UNL d   1       3.518  -3.962   0.985  0.00  0.00     0.150 A 
ATOM      5  C4  UNL d   1       3.624  -5.176   0.315  0.00  0.00    -0.007 A 
ATOM      6  C5  UNL d   1       4.869  -5.605  -0.144  0.00  0.00     0.039 A 
ENDROOT
BRANCH   4   7
ATOM      7  O   UNL d   1       2.281  -3.580   1.411  0.00  0.00    -0.526 OA
ATOM      8  H5  UNL d   1       2.356  -2.707   1.832  0.00  0.00     0.418 HD
ENDBRANCH   4   7
TORSDOF 1
ENDMDL
