MODEL 1
REMARK minimizedAffinity -1.52907813
REMARK minimizedRMSD -1
REMARK  0 active torsions:
REMARK  status: ('A' for Active; 'I' for Inactive)
ROOT
ATOM      1  C1  BNZ d   1      -3.654  -3.596  -5.999  0.00  0.00     0.000 A 
ATOM      2  C2  BNZ d   1      -4.347  -4.777  -6.000  0.00  0.00     0.000 A 
ATOM      3  C3  BNZ d   1      -3.689  -5.975  -5.975  0.00  0.00     0.000 A 
ATOM      4  C4  BNZ d   1      -2.340  -5.991  -5.989  0.00  0.00     0.000 A 
ATOM      5  C5  BNZ d   1      -1.627  -4.809  -5.998  0.00  0.00     0.000 A 
ATOM      6  C6  BNZ d   1      -2.293  -3.605  -5.984  0.00  0.00     0.000 A 
ENDROOT
TORSDOF 0
ENDMDL
