MODEL 1
REMARK minimizedAffinity 0.648549139
REMARK minimizedRMSD -1
REMARK  0 active torsions:
REMARK  status: ('A' for Active; 'I' for Inactive)
ROOT
ATOM      1  C1  BNZ d   1      -1.115   5.126  -1.432  0.00  0.00     0.000 A 
ATOM      2  C2  BNZ d   1      -2.374   4.907  -1.925  0.00  0.00     0.000 A 
ATOM      3  C3  BNZ d   1      -2.560   4.530  -3.226  0.00  0.00     0.000 A 
ATOM      4  C4  BNZ d   1      -1.493   4.412  -4.041  0.00  0.00     0.000 A 
ATOM      5  C5  BNZ d   1      -0.218   4.638  -3.562  0.00  0.00     0.000 A 
ATOM      6  C6  BNZ d   1      -0.031   4.979  -2.242  0.00  0.00     0.000 A 
ENDROOT
TORSDOF 0
ENDMDL
