MODEL 1
REMARK minimizedAffinity 1.12507224
REMARK minimizedRMSD -1
REMARK  0 active torsions:
REMARK  status: ('A' for Active; 'I' for Inactive)
ROOT
ATOM      1  C1  BNZ d   1      -0.689  -4.826  -5.958  0.00  0.00     0.000 A 
ATOM      2  C2  BNZ d   1      -1.324  -3.614  -6.000  0.00  0.00     0.000 A 
ATOM      3  C3  BNZ d   1      -2.689  -3.538  -5.998  0.00  0.00     0.000 A 
ATOM      4  C4  BNZ d   1      -3.416  -4.674  -5.995  0.00  0.00     0.000 A 
ATOM      5  C5  BNZ d   1      -2.791  -5.904  -5.962  0.00  0.00     0.000 A 
ATOM      6  C6  BNZ d   1      -1.417  -5.976  -5.925  0.00  0.00     0.000 A 
ENDROOT
TORSDOF 0
ENDMDL
