MODEL 1
REMARK minimizedAffinity 0.323137254
REMARK minimizedRMSD -1
REMARK  0 active torsions:
REMARK  status: ('A' for Active; 'I' for Inactive)
ROOT
ATOM      1  C1  BNZ d   1      -2.843  -3.616  -5.998  0.00  0.00     0.000 A 
ATOM      2  C2  BNZ d   1      -3.504  -4.812  -5.903  0.00  0.00     0.000 A 
ATOM      3  C3  BNZ d   1      -2.814  -5.986  -5.791  0.00  0.00     0.000 A 
ATOM      4  C4  BNZ d   1      -1.466  -5.968  -5.815  0.00  0.00     0.000 A 
ATOM      5  C5  BNZ d   1      -0.785  -4.771  -5.919  0.00  0.00     0.000 A 
ATOM      6  C6  BNZ d   1      -1.482  -3.588  -5.992  0.00  0.00     0.000 A 
ENDROOT
TORSDOF 0
ENDMDL
