MODEL 1
REMARK minimizedAffinity -2.21858907
REMARK minimizedRMSD -1
REMARK  0 active torsions:
REMARK  status: ('A' for Active; 'I' for Inactive)
ROOT
ATOM      1  C1  BNZ d   1      -6.000  -1.440   5.068  0.00  0.00     0.000 A 
ATOM      2  C2  BNZ d   1      -5.992  -1.548   3.703  0.00  0.00     0.000 A 
ATOM      3  C3  BNZ d   1      -5.992  -2.774   3.098  0.00  0.00     0.000 A 
ATOM      4  C4  BNZ d   1      -5.961  -3.888   3.858  0.00  0.00     0.000 A 
ATOM      5  C5  BNZ d   1      -5.959  -3.795   5.235  0.00  0.00     0.000 A 
ATOM      6  C6  BNZ d   1      -5.998  -2.560   5.841  0.00  0.00     0.000 A 
ENDROOT
TORSDOF 0
ENDMDL
