MODEL 1
REMARK minimizedAffinity -1.89150941
REMARK minimizedRMSD -1
REMARK  0 active torsions:
REMARK  status: ('A' for Active; 'I' for Inactive)
ROOT
ATOM      1  C1  BNZ d   1      -2.691  -3.578  -5.998  0.00  0.00     0.000 A 
ATOM      2  C2  BNZ d   1      -3.486  -4.693  -6.000  0.00  0.00     0.000 A 
ATOM      3  C3  BNZ d   1      -3.058  -5.859  -5.430  0.00  0.00     0.000 A 
ATOM      4  C4  BNZ d   1      -1.821  -5.921  -4.896  0.00  0.00     0.000 A 
ATOM      5  C5  BNZ d   1      -1.004  -4.809  -4.894  0.00  0.00     0.000 A 
ATOM      6  C6  BNZ d   1      -1.453  -3.625  -5.434  0.00  0.00     0.000 A 
ENDROOT
TORSDOF 0
ENDMDL
