MODEL 1
REMARK minimizedAffinity 0.864756644
REMARK minimizedRMSD -1
REMARK  0 active torsions:
REMARK  status: ('A' for Active; 'I' for Inactive)
ROOT
ATOM      1  C1  BNZ d   1      -4.295  -3.596  -5.978  0.00  0.00     0.000 A 
ATOM      2  C2  BNZ d   1      -2.926  -3.547  -5.972  0.00  0.00     0.000 A 
ATOM      3  C3  BNZ d   1      -2.185  -4.696  -5.999  0.00  0.00     0.000 A 
ATOM      4  C4  BNZ d   1      -2.812  -5.890  -5.991  0.00  0.00     0.000 A 
ATOM      5  C5  BNZ d   1      -4.191  -5.955  -5.987  0.00  0.00     0.000 A 
ATOM      6  C6  BNZ d   1      -4.934  -4.797  -5.999  0.00  0.00     0.000 A 
ENDROOT
TORSDOF 0
ENDMDL
