MODEL 1
REMARK minimizedAffinity 1.98250771
REMARK minimizedRMSD -1
REMARK  0 active torsions:
REMARK  status: ('A' for Active; 'I' for Inactive)
ROOT
ATOM      1  C1  BNZ d   1      -1.474  -2.750  -5.999  0.00  0.00     0.000 A 
ATOM      2  C2  BNZ d   1      -2.590  -3.544  -5.999  0.00  0.00     0.000 A 
ATOM      3  C3  BNZ d   1      -2.480  -4.906  -5.972  0.00  0.00     0.000 A 
ATOM      4  C4  BNZ d   1      -1.256  -5.472  -5.986  0.00  0.00     0.000 A 
ATOM      5  C5  BNZ d   1      -0.121  -4.685  -5.995  0.00  0.00     0.000 A 
ATOM      6  C6  BNZ d   1      -0.236  -3.314  -5.983  0.00  0.00     0.000 A 
ENDROOT
TORSDOF 0
ENDMDL
