MODEL 1
REMARK minimizedAffinity 1.69537878
REMARK minimizedRMSD -1
REMARK  0 active torsions:
REMARK  status: ('A' for Active; 'I' for Inactive)
ROOT
ATOM      1  C1  BNZ d   1      -2.221  -5.900  -5.542  0.00  0.00     0.000 A 
ATOM      2  C2  BNZ d   1      -1.469  -4.769  -5.716  0.00  0.00     0.000 A 
ATOM      3  C3  BNZ d   1      -2.066  -3.549  -5.875  0.00  0.00     0.000 A 
ATOM      4  C4  BNZ d   1      -3.412  -3.468  -5.899  0.00  0.00     0.000 A 
ATOM      5  C5  BNZ d   1      -4.184  -4.600  -5.734  0.00  0.00     0.000 A 
ATOM      6  C6  BNZ d   1      -3.580  -5.821  -5.536  0.00  0.00     0.000 A 
ENDROOT
TORSDOF 0
ENDMDL
