MODEL 1
REMARK minimizedAffinity -5.08119535
REMARK minimizedRMSD -1
REMARK  0 active torsions:
REMARK  status: ('A' for Active; 'I' for Inactive)
ROOT
ATOM      1  C2' OXE d   1      -0.703   1.187  -0.415  0.00  0.00     0.078 C 
ATOM      2  C1' OXE d   1       1.734   1.748   0.860  0.00  0.00     0.078 C 
ATOM      3  C1  OXE d   1       1.470   0.322   0.443  0.00  0.00    -0.078 A 
ATOM      4  C2  OXE d   1       0.256   0.049  -0.139  0.00  0.00    -0.078 A 
ATOM      5  C3  OXE d   1      -0.017  -1.239  -0.592  0.00  0.00     0.003 A 
ATOM      6  C4  OXE d   1       0.871  -2.288  -0.324  0.00  0.00    -0.002 A 
ATOM      7  C5  OXE d   1       2.096  -2.038   0.303  0.00  0.00    -0.002 A 
ATOM      8  C6  OXE d   1       2.429  -0.734   0.653  0.00  0.00     0.003 A 
ENDROOT
TORSDOF 0
ENDMDL
