MODEL 1
REMARK minimizedAffinity -5.44147205
REMARK minimizedRMSD -1
REMARK  0 active torsions:
REMARK  status: ('A' for Active; 'I' for Inactive)
ROOT
ATOM      1  C2' OXE d   1      -0.592  -2.004  -1.155  0.00  0.00     0.078 C 
ATOM      2  C1' OXE d   1      -0.884   0.631  -0.231  0.00  0.00     0.078 C 
ATOM      3  C1  OXE d   1       0.403  -0.089   0.089  0.00  0.00    -0.078 A 
ATOM      4  C2  OXE d   1       0.518  -1.394  -0.326  0.00  0.00    -0.078 A 
ATOM      5  C3  OXE d   1       1.705  -2.085  -0.105  0.00  0.00     0.003 A 
ATOM      6  C4  OXE d   1       2.723  -1.517   0.670  0.00  0.00    -0.002 A 
ATOM      7  C5  OXE d   1       2.610  -0.203   1.137  0.00  0.00    -0.002 A 
ATOM      8  C6  OXE d   1       1.476   0.538   0.820  0.00  0.00     0.003 A 
ENDROOT
TORSDOF 0
ENDMDL
