MODEL 1
REMARK minimizedAffinity -5.67442274
REMARK minimizedRMSD -1
REMARK  0 active torsions:
REMARK  status: ('A' for Active; 'I' for Inactive)
ROOT
ATOM      1  C2' OXE d   1       1.898   2.401   0.261  0.00  0.00     0.078 C 
ATOM      2  C1' OXE d   1      -0.354   0.825  -0.310  0.00  0.00     0.078 C 
ATOM      3  C1  OXE d   1       0.879   0.128   0.207  0.00  0.00    -0.078 A 
ATOM      4  C2  OXE d   1       1.992   0.901   0.439  0.00  0.00    -0.078 A 
ATOM      5  C3  OXE d   1       3.139   0.316   0.968  0.00  0.00     0.003 A 
ATOM      6  C4  OXE d   1       3.221  -1.073   1.121  0.00  0.00    -0.002 A 
ATOM      7  C5  OXE d   1       2.113  -1.883   0.852  0.00  0.00    -0.002 A 
ATOM      8  C6  OXE d   1       0.923  -1.295   0.436  0.00  0.00     0.003 A 
ENDROOT
TORSDOF 0
ENDMDL
