MODEL 1
REMARK minimizedAffinity -3.1247654
REMARK minimizedRMSD -1
REMARK  0 active torsions:
REMARK  status: ('A' for Active; 'I' for Inactive)
ROOT
ATOM      1  C2' OXE d   1      -0.286  -3.149  -0.922  0.00  0.00     0.078 C 
ATOM      2  C1' OXE d   1       2.171  -2.043  -0.135  0.00  0.00     0.078 C 
ATOM      3  C1  OXE d   1       0.983  -1.119  -0.236  0.00  0.00    -0.078 A 
ATOM      4  C2  OXE d   1      -0.204  -1.660  -0.667  0.00  0.00    -0.078 A 
ATOM      5  C3  OXE d   1      -1.344  -0.863  -0.725  0.00  0.00     0.003 A 
ATOM      6  C4  OXE d   1      -1.258   0.515  -0.497  0.00  0.00    -0.002 A 
ATOM      7  C5  OXE d   1      -0.049   1.094  -0.095  0.00  0.00    -0.002 A 
ATOM      8  C6  OXE d   1       1.068   0.286   0.081  0.00  0.00     0.003 A 
ENDROOT
TORSDOF 0
ENDMDL
