MODEL 1
REMARK minimizedAffinity -5.01652622
REMARK minimizedRMSD -1
REMARK  0 active torsions:
REMARK  status: ('A' for Active; 'I' for Inactive)
ROOT
ATOM      1  C2' OXE d   1       3.879  -1.106   0.287  0.00  0.00     0.078 C 
ATOM      2  C1' OXE d   1       2.706  -2.286  -1.974  0.00  0.00     0.078 C 
ATOM      3  C1  OXE d   1       1.835  -1.415  -1.103  0.00  0.00    -0.078 A 
ATOM      4  C2  OXE d   1       2.405  -0.880   0.027  0.00  0.00    -0.078 A 
ATOM      5  C3  OXE d   1       1.661  -0.026   0.836  0.00  0.00     0.003 A 
ATOM      6  C4  OXE d   1       0.296   0.170   0.594  0.00  0.00    -0.002 A 
ATOM      7  C5  OXE d   1      -0.314  -0.398  -0.529  0.00  0.00    -0.002 A 
ATOM      8  C6  OXE d   1       0.449  -1.157  -1.409  0.00  0.00     0.003 A 
ENDROOT
TORSDOF 0
ENDMDL
