MODEL 1
REMARK minimizedAffinity -2.07944512
REMARK minimizedRMSD -1
REMARK  0 active torsions:
REMARK  status: ('A' for Active; 'I' for Inactive)
ROOT
ATOM      1  C2' OXE d   1      -0.980   0.773  -0.154  0.00  0.00     0.078 C 
ATOM      2  C1' OXE d   1       1.793   1.201  -0.045  0.00  0.00     0.078 C 
ATOM      3  C1  OXE d   1       1.305  -0.219  -0.197  0.00  0.00    -0.078 A 
ATOM      4  C2  OXE d   1      -0.054  -0.423  -0.202  0.00  0.00    -0.078 A 
ATOM      5  C3  OXE d   1      -0.557  -1.707  -0.394  0.00  0.00     0.003 A 
ATOM      6  C4  OXE d   1       0.306  -2.809  -0.427  0.00  0.00    -0.002 A 
ATOM      7  C5  OXE d   1       1.693  -2.626  -0.384  0.00  0.00    -0.002 A 
ATOM      8  C6  OXE d   1       2.208  -1.337  -0.311  0.00  0.00     0.003 A 
ENDROOT
TORSDOF 0
ENDMDL
