MODEL 1
REMARK minimizedAffinity -1.10288346
REMARK minimizedRMSD -1
REMARK  0 active torsions:
REMARK  status: ('A' for Active; 'I' for Inactive)
ROOT
ATOM      1  C2' OXE d   1       2.178  -1.772  -1.431  0.00  0.00     0.078 C 
ATOM      2  C1' OXE d   1       2.874  -0.065   0.686  0.00  0.00     0.078 C 
ATOM      3  C1  OXE d   1       1.407  -0.315   0.437  0.00  0.00    -0.078 A 
ATOM      4  C2  OXE d   1       1.075  -1.115  -0.630  0.00  0.00    -0.078 A 
ATOM      5  C3  OXE d   1      -0.261  -1.423  -0.870  0.00  0.00     0.003 A 
ATOM      6  C4  OXE d   1      -1.276  -0.803  -0.131  0.00  0.00    -0.002 A 
ATOM      7  C5  OXE d   1      -0.960   0.046   0.935  0.00  0.00    -0.002 A 
ATOM      8  C6  OXE d   1       0.374   0.266   1.258  0.00  0.00     0.003 A 
ENDROOT
TORSDOF 0
ENDMDL
