MODEL 1
REMARK minimizedAffinity -5.31730175
REMARK minimizedRMSD -1
REMARK  0 active torsions:
REMARK  status: ('A' for Active; 'I' for Inactive)
ROOT
ATOM      1  C2' OXE d   1      -0.092  -2.033  -1.643  0.00  0.00     0.078 C 
ATOM      2  C1' OXE d   1      -0.996   0.144  -0.119  0.00  0.00     0.078 C 
ATOM      3  C1  OXE d   1       0.428  -0.311   0.079  0.00  0.00    -0.078 A 
ATOM      4  C2  OXE d   1       0.848  -1.406  -0.637  0.00  0.00    -0.078 A 
ATOM      5  C3  OXE d   1       2.169  -1.833  -0.532  0.00  0.00     0.003 A 
ATOM      6  C4  OXE d   1       3.029  -1.253   0.408  0.00  0.00    -0.002 A 
ATOM      7  C5  OXE d   1       2.609  -0.162   1.176  0.00  0.00    -0.002 A 
ATOM      8  C6  OXE d   1       1.329   0.348   0.994  0.00  0.00     0.003 A 
ENDROOT
TORSDOF 0
ENDMDL
