MODEL 1
REMARK minimizedAffinity -1.37936473
REMARK minimizedRMSD -1
REMARK  0 active torsions:
REMARK  status: ('A' for Active; 'I' for Inactive)
ROOT
ATOM      1  C2' OXE d   1      -1.107   0.287  -0.304  0.00  0.00     0.078 C 
ATOM      2  C1' OXE d   1       1.495   1.237   0.151  0.00  0.00     0.078 C 
ATOM      3  C1  OXE d   1       1.321  -0.238  -0.111  0.00  0.00    -0.078 A 
ATOM      4  C2  OXE d   1       0.039  -0.702  -0.287  0.00  0.00    -0.078 A 
ATOM      5  C3  OXE d   1      -0.173  -2.045  -0.586  0.00  0.00     0.003 A 
ATOM      6  C4  OXE d   1       0.891  -2.954  -0.558  0.00  0.00    -0.002 A 
ATOM      7  C5  OXE d   1       2.200  -2.509  -0.342  0.00  0.00    -0.002 A 
ATOM      8  C6  OXE d   1       2.436  -1.151  -0.160  0.00  0.00     0.003 A 
ENDROOT
TORSDOF 0
ENDMDL
