MODEL 1
REMARK minimizedAffinity -2.42792034
REMARK minimizedRMSD -1
REMARK  0 active torsions:
REMARK  status: ('A' for Active; 'I' for Inactive)
ROOT
ATOM      1  C2' OXE d   1       2.466  -1.651  -0.850  0.00  0.00     0.078 C 
ATOM      2  C1' OXE d   1      -0.217  -1.848  -1.654  0.00  0.00     0.078 C 
ATOM      3  C1  OXE d   1       0.219  -0.581  -0.960  0.00  0.00    -0.078 A 
ATOM      4  C2  OXE d   1       1.522  -0.513  -0.528  0.00  0.00    -0.078 A 
ATOM      5  C3  OXE d   1       1.989   0.654   0.069  0.00  0.00     0.003 A 
ATOM      6  C4  OXE d   1       1.107   1.699   0.371  0.00  0.00    -0.002 A 
ATOM      7  C5  OXE d   1      -0.233   1.633  -0.024  0.00  0.00    -0.002 A 
ATOM      8  C6  OXE d   1      -0.682   0.520  -0.727  0.00  0.00     0.003 A 
ENDROOT
TORSDOF 0
ENDMDL
