MODEL 1
REMARK minimizedAffinity -1.65787494
REMARK minimizedRMSD -1
REMARK  0 active torsions:
REMARK  status: ('A' for Active; 'I' for Inactive)
ROOT
ATOM      1  C2' OXE d   1       2.269  -0.074  -0.694  0.00  0.00     0.078 C 
ATOM      2  C1' OXE d   1      -0.422  -0.069  -1.494  0.00  0.00     0.078 C 
ATOM      3  C1  OXE d   1       0.253  -1.404  -1.305  0.00  0.00    -0.078 A 
ATOM      4  C2  OXE d   1       1.583  -1.397  -0.959  0.00  0.00    -0.078 A 
ATOM      5  C3  OXE d   1       2.240  -2.601  -0.718  0.00  0.00     0.003 A 
ATOM      6  C4  OXE d   1       1.601  -3.820  -0.975  0.00  0.00    -0.002 A 
ATOM      7  C5  OXE d   1       0.258  -3.849  -1.367  0.00  0.00    -0.002 A 
ATOM      8  C6  OXE d   1      -0.441  -2.654  -1.495  0.00  0.00     0.003 A 
ENDROOT
TORSDOF 0
ENDMDL
