MODEL 1
REMARK minimizedAffinity 14.1910934
REMARK minimizedRMSD -1
REMARK  2 active torsions:
REMARK  status: ('A' for Active; 'I' for Inactive)
REMARK    1  A    between atoms: C2'_3  and  C1'_4 
REMARK    2  A    between atoms: C1'_4  and  C1_5 
ROOT
ATOM      1  C1  I4B d   1       2.960  -0.604  -0.761  0.00  0.00    -0.075 A 
ATOM      2  C2  I4B d   1       3.865   0.092  -1.524  0.00  0.00     0.003 A 
ATOM      3  C3  I4B d   1       3.926  -0.116  -2.923  0.00  0.00     0.002 A 
ATOM      4  C4  I4B d   1       3.105  -1.059  -3.507  0.00  0.00    -0.004 A 
ATOM      5  C5  I4B d   1       2.172  -1.746  -2.736  0.00  0.00     0.002 A 
ATOM      6  C6  I4B d   1       2.090  -1.509  -1.356  0.00  0.00     0.003 A 
ENDROOT
BRANCH   1   7
ATOM      7  C1' I4B d   1       2.944  -0.384   0.718  0.00  0.00     0.060 C 
BRANCH   7   8
ATOM      8  C2' I4B d   1       1.526  -0.595   1.207  0.00  0.00    -0.013 C 
ATOM      9  C4' I4B d   1       1.425  -1.821   2.076  0.00  0.00     0.013 C 
ATOM     10  C3' I4B d   1       1.105   0.635   1.954  0.00  0.00     0.013 C 
ENDBRANCH   7   8
ENDBRANCH   1   7
TORSDOF 2
ENDMDL
