MODEL 1
REMARK minimizedAffinity 16.4392681
REMARK minimizedRMSD -1
REMARK  2 active torsions:
REMARK  status: ('A' for Active; 'I' for Inactive)
REMARK    1  A    between atoms: C2'_3  and  C1'_4 
REMARK    2  A    between atoms: C1'_4  and  C1_5 
ROOT
ATOM      1  C1  I4B d   1       4.424   5.802  -3.151  0.00  0.00    -0.075 A 
ATOM      2  C2  I4B d   1       5.722   5.843  -3.594  0.00  0.00     0.003 A 
ATOM      3  C3  I4B d   1       6.000   5.969  -4.976  0.00  0.00     0.002 A 
ATOM      4  C4  I4B d   1       4.957   5.999  -5.879  0.00  0.00    -0.004 A 
ATOM      5  C5  I4B d   1       3.641   5.981  -5.427  0.00  0.00     0.002 A 
ATOM      6  C6  I4B d   1       3.372   5.894  -4.053  0.00  0.00     0.003 A 
ENDROOT
BRANCH   1   7
ATOM      7  C1' I4B d   1       4.166   5.635  -1.687  0.00  0.00     0.060 C 
BRANCH   7   8
ATOM      8  C2' I4B d   1       2.971   4.719  -1.524  0.00  0.00    -0.013 C 
ATOM      9  C4' I4B d   1       3.285   3.572  -0.600  0.00  0.00     0.013 C 
ATOM     10  C3' I4B d   1       1.828   5.538  -1.002  0.00  0.00     0.013 C 
ENDBRANCH   7   8
ENDBRANCH   1   7
TORSDOF 2
ENDMDL
