MODEL 1
REMARK minimizedAffinity 9.16908073
REMARK minimizedRMSD -1
REMARK  2 active torsions:
REMARK  status: ('A' for Active; 'I' for Inactive)
REMARK    1  A    between atoms: C2'_3  and  C1'_4 
REMARK    2  A    between atoms: C1'_4  and  C1_5 
ROOT
ATOM      1  C1  I4B d   1      -5.143  -1.369  -3.216  0.00  0.00    -0.075 A 
ATOM      2  C2  I4B d   1      -3.789  -1.295  -3.001  0.00  0.00     0.003 A 
ATOM      3  C3  I4B d   1      -3.194  -0.067  -2.624  0.00  0.00     0.002 A 
ATOM      4  C4  I4B d   1      -3.976   1.065  -2.524  0.00  0.00    -0.004 A 
ATOM      5  C5  I4B d   1      -5.352   0.983  -2.720  0.00  0.00     0.002 A 
ATOM      6  C6  I4B d   1      -5.941  -0.244  -3.056  0.00  0.00     0.003 A 
ENDROOT
BRANCH   1   7
ATOM      7  C1' I4B d   1      -5.734  -2.675  -3.645  0.00  0.00     0.060 C 
BRANCH   7   8
ATOM      8  C2' I4B d   1      -5.239  -2.974  -5.045  0.00  0.00    -0.013 C 
ATOM      9  C4' I4B d   1      -5.417  -4.430  -5.387  0.00  0.00     0.013 C 
ATOM     10  C3' I4B d   1      -5.995  -2.098  -6.000  0.00  0.00     0.013 C 
ENDBRANCH   7   8
ENDBRANCH   1   7
TORSDOF 2
ENDMDL
