MODEL 1
REMARK minimizedAffinity 10.6785221
REMARK minimizedRMSD -1
REMARK  2 active torsions:
REMARK  status: ('A' for Active; 'I' for Inactive)
REMARK    1  A    between atoms: C2'_3  and  C1'_4 
REMARK    2  A    between atoms: C1'_4  and  C1_5 
ROOT
ATOM      1  C1  I4B d   1      -2.375   1.980  -0.607  0.00  0.00    -0.075 A 
ATOM      2  C2  I4B d   1      -3.286   2.942  -0.964  0.00  0.00     0.003 A 
ATOM      3  C3  I4B d   1      -4.035   2.807  -2.159  0.00  0.00     0.002 A 
ATOM      4  C4  I4B d   1      -3.805   1.726  -2.986  0.00  0.00    -0.004 A 
ATOM      5  C5  I4B d   1      -2.897   0.740  -2.610  0.00  0.00     0.002 A 
ATOM      6  C6  I4B d   1      -2.186   0.861  -1.408  0.00  0.00     0.003 A 
ENDROOT
BRANCH   1   7
ATOM      7  C1' I4B d   1      -1.578   2.171   0.644  0.00  0.00     0.060 C 
BRANCH   7   8
ATOM      8  C2' I4B d   1      -1.292   0.803   1.229  0.00  0.00    -0.013 C 
ATOM      9  C4' I4B d   1       0.064   0.762   1.883  0.00  0.00     0.013 C 
ATOM     10  C3' I4B d   1      -2.377   0.485   2.214  0.00  0.00     0.013 C 
ENDBRANCH   7   8
ENDBRANCH   1   7
TORSDOF 2
ENDMDL
