MODEL 1
REMARK minimizedAffinity 12.1568747
REMARK minimizedRMSD -1
REMARK  2 active torsions:
REMARK  status: ('A' for Active; 'I' for Inactive)
REMARK    1  A    between atoms: C2'_3  and  C1'_4 
REMARK    2  A    between atoms: C1'_4  and  C1_5 
ROOT
ATOM      1  C1  I4B d   1      -4.795  -3.253  -4.481  0.00  0.00    -0.075 A 
ATOM      2  C2  I4B d   1      -4.663  -3.729  -5.762  0.00  0.00     0.003 A 
ATOM      3  C3  I4B d   1      -4.572  -5.122  -5.999  0.00  0.00     0.002 A 
ATOM      4  C4  I4B d   1      -4.568  -5.994  -4.930  0.00  0.00    -0.004 A 
ATOM      5  C5  I4B d   1      -4.725  -5.512  -3.634  0.00  0.00     0.002 A 
ATOM      6  C6  I4B d   1      -4.852  -4.133  -3.409  0.00  0.00     0.003 A 
ENDROOT
BRANCH   1   7
ATOM      7  C1' I4B d   1      -4.855  -1.774  -4.264  0.00  0.00     0.060 C 
BRANCH   7   8
ATOM      8  C2' I4B d   1      -3.655  -1.376  -3.430  0.00  0.00    -0.013 C 
ATOM      9  C4' I4B d   1      -3.614   0.114  -3.210  0.00  0.00     0.013 C 
ATOM     10  C3' I4B d   1      -3.730  -2.114  -2.127  0.00  0.00     0.013 C 
ENDBRANCH   7   8
ENDBRANCH   1   7
TORSDOF 2
ENDMDL
