MODEL 1
REMARK minimizedAffinity 4.25984144
REMARK minimizedRMSD -1
REMARK  0 active torsions:
REMARK  status: ('A' for Active; 'I' for Inactive)
ROOT
ATOM      1  C   UNL d   1      -2.792   0.229   1.772  0.00  0.00     0.020 A 
ATOM      2  C1  UNL d   1      -2.409   0.121   0.436  0.00  0.00     0.020 A 
ATOM      3  C2  UNL d   1      -1.109  -0.273   0.112  0.00  0.00     0.034 A 
ATOM      4  C3  UNL d   1      -0.187  -0.561   1.125  0.00  0.00     0.017 A 
ATOM      5  C4  UNL d   1      -0.572  -0.452   2.466  0.00  0.00     0.017 A 
ATOM      6  C5  UNL d   1      -1.875  -0.057   2.785  0.00  0.00     0.034 A 
ATOM      7 Cl   UNL d   1       0.509  -0.791   3.771  0.00  0.00    -0.070 Cl
ATOM      8 Cl1  UNL d   1       1.403  -1.043   0.651  0.00  0.00    -0.070 Cl
ENDROOT
TORSDOF 0
ENDMDL
