MODEL 1
REMARK minimizedAffinity 7.1042695
REMARK minimizedRMSD -1
REMARK  0 active torsions:
REMARK  status: ('A' for Active; 'I' for Inactive)
ROOT
ATOM      1  C   UNL d   1      -3.193   0.803   0.477  0.00  0.00     0.020 A 
ATOM      2  C1  UNL d   1      -3.691   0.600   1.763  0.00  0.00     0.020 A 
ATOM      3  C2  UNL d   1      -2.921  -0.077   2.711  0.00  0.00     0.034 A 
ATOM      4  C3  UNL d   1      -1.650  -0.555   2.374  0.00  0.00     0.017 A 
ATOM      5  C4  UNL d   1      -1.151  -0.351   1.083  0.00  0.00     0.017 A 
ATOM      6  C5  UNL d   1      -1.926   0.328   0.137  0.00  0.00     0.034 A 
ATOM      7 Cl   UNL d   1       0.409  -0.912   0.593  0.00  0.00    -0.070 Cl
ATOM      8 Cl1  UNL d   1      -0.753  -1.384   3.597  0.00  0.00    -0.070 Cl
ENDROOT
TORSDOF 0
ENDMDL
