MODEL 1
REMARK minimizedAffinity -1.0184021
REMARK minimizedRMSD -1
REMARK  0 active torsions:
REMARK  status: ('A' for Active; 'I' for Inactive)
ROOT
ATOM      1  C   UNL d   1       4.459   0.093  -2.524  0.00  0.00     0.020 A 
ATOM      2  C1  UNL d   1       4.098  -0.496  -1.313  0.00  0.00     0.020 A 
ATOM      3  C2  UNL d   1       3.673   0.301  -0.248  0.00  0.00     0.034 A 
ATOM      4  C3  UNL d   1       3.608   1.692  -0.392  0.00  0.00     0.017 A 
ATOM      5  C4  UNL d   1       3.970   2.282  -1.609  0.00  0.00     0.017 A 
ATOM      6  C5  UNL d   1       4.395   1.479  -2.672  0.00  0.00     0.034 A 
ATOM      7 Cl   UNL d   1       3.916   3.991  -1.862  0.00  0.00    -0.070 Cl
ATOM      8 Cl1  UNL d   1       3.074   2.616   0.966  0.00  0.00    -0.070 Cl
ENDROOT
TORSDOF 0
ENDMDL
