MODEL 1
REMARK minimizedAffinity -0.387958258
REMARK minimizedRMSD -1
REMARK  0 active torsions:
REMARK  status: ('A' for Active; 'I' for Inactive)
ROOT
ATOM      1  C   UNL d   1       0.610  -1.666   4.791  0.00  0.00     0.020 A 
ATOM      2  C1  UNL d   1      -0.449  -2.143   5.563  0.00  0.00     0.020 A 
ATOM      3  C2  UNL d   1      -1.750  -2.119   5.054  0.00  0.00     0.034 A 
ATOM      4  C3  UNL d   1      -1.995  -1.616   3.771  0.00  0.00     0.017 A 
ATOM      5  C4  UNL d   1      -0.931  -1.137   2.998  0.00  0.00     0.017 A 
ATOM      6  C5  UNL d   1       0.369  -1.164   3.512  0.00  0.00     0.034 A 
ATOM      7 Cl   UNL d   1      -1.155  -0.501   1.406  0.00  0.00    -0.070 Cl
ATOM      8 Cl1  UNL d   1      -3.628  -1.616   3.206  0.00  0.00    -0.070 Cl
ENDROOT
TORSDOF 0
ENDMDL
