MODEL 1
REMARK minimizedAffinity -0.82443285
REMARK minimizedRMSD -1
REMARK  0 active torsions:
REMARK  status: ('A' for Active; 'I' for Inactive)
ROOT
ATOM      1  C   UNL d   1      -0.352  -0.200   2.567  0.00  0.00     0.020 A 
ATOM      2  C1  UNL d   1      -1.643   0.214   2.890  0.00  0.00     0.020 A 
ATOM      3  C2  UNL d   1      -2.584   0.418   1.878  0.00  0.00     0.034 A 
ATOM      4  C3  UNL d   1      -2.235   0.207   0.539  0.00  0.00     0.017 A 
ATOM      5  C4  UNL d   1      -0.938  -0.209   0.217  0.00  0.00     0.017 A 
ATOM      6  C5  UNL d   1      -0.000  -0.412   1.234  0.00  0.00     0.034 A 
ATOM      7 Cl   UNL d   1      -0.433  -0.490  -1.412  0.00  0.00    -0.070 Cl
ATOM      8 Cl1  UNL d   1      -3.449   0.478  -0.660  0.00  0.00    -0.070 Cl
ENDROOT
TORSDOF 0
ENDMDL
