MODEL 1
REMARK minimizedAffinity 10.4019337
REMARK minimizedRMSD -1
REMARK  0 active torsions:
REMARK  status: ('A' for Active; 'I' for Inactive)
ROOT
ATOM      1  C   UNL d   1       5.601   3.714   4.302  0.00  0.00     0.020 A 
ATOM      2  C1  UNL d   1       4.753   2.680   4.696  0.00  0.00     0.020 A 
ATOM      3  C2  UNL d   1       3.588   2.418   3.972  0.00  0.00     0.034 A 
ATOM      4  C3  UNL d   1       3.268   3.191   2.850  0.00  0.00     0.017 A 
ATOM      5  C4  UNL d   1       4.120   4.229   2.455  0.00  0.00     0.017 A 
ATOM      6  C5  UNL d   1       5.285   4.487   3.184  0.00  0.00     0.034 A 
ATOM      7 Cl   UNL d   1       3.792   5.226   1.082  0.00  0.00    -0.070 Cl
ATOM      8 Cl1  UNL d   1       1.812   2.811   2.001  0.00  0.00    -0.070 Cl
ENDROOT
TORSDOF 0
ENDMDL
