MODEL 1
REMARK minimizedAffinity -1.38556671
REMARK minimizedRMSD -1
REMARK  0 active torsions:
REMARK  status: ('A' for Active; 'I' for Inactive)
ROOT
ATOM      1  C   UNL d   1       1.389  -1.004   0.542  0.00  0.00     0.020 A 
ATOM      2  C1  UNL d   1       0.973  -1.497  -0.694  0.00  0.00     0.020 A 
ATOM      3  C2  UNL d   1      -0.378  -1.447  -1.046  0.00  0.00     0.034 A 
ATOM      4  C3  UNL d   1      -1.316  -0.903  -0.162  0.00  0.00     0.017 A 
ATOM      5  C4  UNL d   1      -0.897  -0.408   1.078  0.00  0.00     0.017 A 
ATOM      6  C5  UNL d   1       0.457  -0.460   1.426  0.00  0.00     0.034 A 
ATOM      7 Cl   UNL d   1      -1.996   0.278   2.222  0.00  0.00    -0.070 Cl
ATOM      8 Cl1  UNL d   1      -2.969  -0.873  -0.663  0.00  0.00    -0.070 Cl
ENDROOT
TORSDOF 0
ENDMDL
