MODEL 1
REMARK minimizedAffinity 4.52056026
REMARK minimizedRMSD -1
REMARK  0 active torsions:
REMARK  status: ('A' for Active; 'I' for Inactive)
ROOT
ATOM      1  C   UNL d   1      -0.398   1.006   1.673  0.00  0.00     0.020 A 
ATOM      2  C1  UNL d   1      -1.727   1.356   1.907  0.00  0.00     0.020 A 
ATOM      3  C2  UNL d   1      -2.739   0.838   1.096  0.00  0.00     0.034 A 
ATOM      4  C3  UNL d   1      -2.423  -0.033   0.047  0.00  0.00     0.017 A 
ATOM      5  C4  UNL d   1      -1.089  -0.384  -0.187  0.00  0.00     0.017 A 
ATOM      6  C5  UNL d   1      -0.080   0.138   0.628  0.00  0.00     0.034 A 
ATOM      7 Cl   UNL d   1      -0.621  -1.453  -1.462  0.00  0.00    -0.070 Cl
ATOM      8 Cl1  UNL d   1      -3.725  -0.637  -0.916  0.00  0.00    -0.070 Cl
ENDROOT
TORSDOF 0
ENDMDL
