MODEL 1
REMARK minimizedAffinity 10.054141
REMARK minimizedRMSD -1
REMARK  1 active torsions:
REMARK  status: ('A' for Active; 'I' for Inactive)
REMARK    1  A    between atoms: C1_2  and  C2_3 
ROOT
ATOM      1  C2  UNL d   1       0.832   2.778   2.387  0.00  0.00    -0.076 A 
ATOM      2  C3  UNL d   1       2.172   3.025   2.729  0.00  0.00     0.004 A 
ATOM      3  C4  UNL d   1       3.057   3.583   1.808  0.00  0.00    -0.003 A 
ATOM      4  C5  UNL d   1       2.615   3.904   0.529  0.00  0.00     0.000 A 
ATOM      5  C6  UNL d   1       1.284   3.682   0.178  0.00  0.00     0.000 A 
ATOM      6  C7  UNL d   1       0.375   3.135   1.100  0.00  0.00    -0.073 A 
ATOM      7  C8  UNL d   1      -1.048   2.912   0.666  0.00  0.00     0.078 C 
ENDROOT
BRANCH   1   8
ATOM      8  C1  UNL d   1      -0.075   2.146   3.419  0.00  0.00     0.053 C 
ATOM      9  C   UNL d   1       0.655   1.144   4.300  0.00  0.00     0.018 C 
ENDBRANCH   1   8
TORSDOF 1
ENDMDL
