MODEL 1
REMARK minimizedAffinity 6.5760746
REMARK minimizedRMSD -1
REMARK  1 active torsions:
REMARK  status: ('A' for Active; 'I' for Inactive)
REMARK    1  A    between atoms: C1_2  and  C2_3 
ROOT
ATOM      1  C2  UNL d   1      -0.027   3.761  -0.856  0.00  0.00    -0.076 A 
ATOM      2  C3  UNL d   1      -1.188   3.797  -1.648  0.00  0.00     0.004 A 
ATOM      3  C4  UNL d   1      -1.485   4.907  -2.437  0.00  0.00    -0.003 A 
ATOM      4  C5  UNL d   1      -0.625   6.000  -2.447  0.00  0.00     0.000 A 
ATOM      5  C6  UNL d   1       0.540   5.974  -1.682  0.00  0.00     0.000 A 
ATOM      6  C7  UNL d   1       0.862   4.856  -0.894  0.00  0.00    -0.073 A 
ATOM      7  C8  UNL d   1       2.129   4.885  -0.083  0.00  0.00     0.078 C 
ENDROOT
BRANCH   1   8
ATOM      8  C1  UNL d   1       0.228   2.541  -0.000  0.00  0.00     0.053 C 
ATOM      9  C   UNL d   1      -0.402   2.655   1.379  0.00  0.00     0.018 C 
ENDBRANCH   1   8
TORSDOF 1
ENDMDL
