MODEL 1
REMARK minimizedAffinity 13.5232153
REMARK minimizedRMSD -1
REMARK  1 active torsions:
REMARK  status: ('A' for Active; 'I' for Inactive)
REMARK    1  A    between atoms: C1_2  and  C2_3 
ROOT
ATOM      1  C2  UNL d   1       0.146   4.053  -0.313  0.00  0.00    -0.076 A 
ATOM      2  C3  UNL d   1       1.453   4.374   0.090  0.00  0.00     0.004 A 
ATOM      3  C4  UNL d   1       2.209   5.316  -0.606  0.00  0.00    -0.003 A 
ATOM      4  C5  UNL d   1       1.668   5.953  -1.718  0.00  0.00     0.000 A 
ATOM      5  C6  UNL d   1       0.366   5.660  -2.122  0.00  0.00     0.000 A 
ATOM      6  C7  UNL d   1      -0.415   4.725  -1.421  0.00  0.00    -0.073 A 
ATOM      7  C8  UNL d   1      -1.811   4.443  -1.904  0.00  0.00     0.078 C 
ENDROOT
BRANCH   1   8
ATOM      8  C1  UNL d   1      -0.616   3.004   0.465  0.00  0.00     0.053 C 
ATOM      9  C   UNL d   1       0.221   2.376   1.569  0.00  0.00     0.018 C 
ENDBRANCH   1   8
TORSDOF 1
ENDMDL
