MODEL 1
REMARK minimizedAffinity 14.3548965
REMARK minimizedRMSD -1
REMARK  1 active torsions:
REMARK  status: ('A' for Active; 'I' for Inactive)
REMARK    1  A    between atoms: C1_2  and  C2_3 
ROOT
ATOM      1  C2  UNL d   1      -0.280   1.925  -0.615  0.00  0.00    -0.076 A 
ATOM      2  C3  UNL d   1      -0.026   2.473  -1.884  0.00  0.00     0.004 A 
ATOM      3  C4  UNL d   1      -0.103   3.847  -2.101  0.00  0.00    -0.003 A 
ATOM      4  C5  UNL d   1      -0.436   4.697  -1.052  0.00  0.00     0.000 A 
ATOM      5  C6  UNL d   1      -0.674   4.173   0.218  0.00  0.00     0.000 A 
ATOM      6  C7  UNL d   1      -0.584   2.791   0.457  0.00  0.00    -0.073 A 
ATOM      7  C8  UNL d   1      -0.857   2.280   1.845  0.00  0.00     0.078 C 
ENDROOT
BRANCH   1   8
ATOM      8  C1  UNL d   1      -0.207   0.425  -0.445  0.00  0.00     0.053 C 
ATOM      9  C   UNL d   1       0.217  -0.286  -1.721  0.00  0.00     0.018 C 
ENDBRANCH   1   8
TORSDOF 1
ENDMDL
