MODEL 1
REMARK minimizedAffinity 7.33621311
REMARK minimizedRMSD -1
REMARK  1 active torsions:
REMARK  status: ('A' for Active; 'I' for Inactive)
REMARK    1  A    between atoms: C1_2  and  C2_3 
ROOT
ATOM      1  C2  UNL d   1      -0.114  -3.345  -1.341  0.00  0.00    -0.076 A 
ATOM      2  C3  UNL d   1      -0.052  -1.970  -1.058  0.00  0.00     0.004 A 
ATOM      3  C4  UNL d   1       0.963  -1.447  -0.258  0.00  0.00    -0.003 A 
ATOM      4  C5  UNL d   1       1.932  -2.291   0.272  0.00  0.00     0.000 A 
ATOM      5  C6  UNL d   1       1.896  -3.656  -0.013  0.00  0.00     0.000 A 
ATOM      6  C7  UNL d   1       0.889  -4.197  -0.831  0.00  0.00    -0.073 A 
ATOM      7  C8  UNL d   1       0.895  -5.677  -1.100  0.00  0.00     0.078 C 
ENDROOT
BRANCH   1   8
ATOM      8  C1  UNL d   1      -1.253  -3.859  -2.192  0.00  0.00     0.053 C 
ATOM      9  C   UNL d   1      -1.131  -3.434  -3.647  0.00  0.00     0.018 C 
ENDBRANCH   1   8
TORSDOF 1
ENDMDL
