MODEL 1
REMARK minimizedAffinity 8.96053982
REMARK minimizedRMSD -1
REMARK  1 active torsions:
REMARK  status: ('A' for Active; 'I' for Inactive)
REMARK    1  A    between atoms: C1_2  and  C2_3 
ROOT
ATOM      1  C2  UNL d   1       5.080  -4.960  -2.350  0.00  0.00    -0.076 A 
ATOM      2  C3  UNL d   1       5.785  -4.676  -3.533  0.00  0.00     0.004 A 
ATOM      3  C4  UNL d   1       5.277  -5.046  -4.777  0.00  0.00    -0.003 A 
ATOM      4  C5  UNL d   1       4.055  -5.705  -4.859  0.00  0.00     0.000 A 
ATOM      5  C6  UNL d   1       3.334  -5.979  -3.697  0.00  0.00     0.000 A 
ATOM      6  C7  UNL d   1       3.825  -5.598  -2.436  0.00  0.00    -0.073 A 
ATOM      7  C8  UNL d   1       3.008  -5.924  -1.215  0.00  0.00     0.078 C 
ENDROOT
BRANCH   1   8
ATOM      8  C1  UNL d   1       5.694  -4.559  -1.028  0.00  0.00     0.053 C 
ATOM      9  C   UNL d   1       5.466  -3.091  -0.701  0.00  0.00     0.018 C 
ENDBRANCH   1   8
TORSDOF 1
ENDMDL
