MODEL 1
REMARK minimizedAffinity -0.548806727
REMARK minimizedRMSD -1
REMARK  0 active torsions:
REMARK  status: ('A' for Active; 'I' for Inactive)
ROOT
ATOM      1  C   UNL d   1       1.637  -5.939   3.490  0.00  0.00     0.078 C 
ATOM      2  C1  UNL d   1       3.016  -5.952   4.079  0.00  0.00    -0.077 A 
ATOM      3  C2  UNL d   1       3.208  -5.998   5.465  0.00  0.00    -0.001 A 
ATOM      4  C3  UNL d   1       4.497  -5.999   6.000  0.00  0.00     0.003 A 
ATOM      5  C4  UNL d   1       5.605  -5.954   5.155  0.00  0.00    -0.005 A 
ATOM      6  C5  UNL d   1       5.424  -5.905   3.774  0.00  0.00     0.003 A 
ATOM      7  C6  UNL d   1       4.135  -5.903   3.238  0.00  0.00    -0.001 A 
ENDROOT
TORSDOF 0
ENDMDL
