MODEL 1
REMARK minimizedAffinity 4.38102293
REMARK minimizedRMSD -1
REMARK  0 active torsions:
REMARK  status: ('A' for Active; 'I' for Inactive)
ROOT
ATOM      1  C   UNL d   1      -5.734  -2.267  -1.960  0.00  0.00     0.078 C 
ATOM      2  C1  UNL d   1      -5.327  -3.554  -1.307  0.00  0.00    -0.077 A 
ATOM      3  C2  UNL d   1      -4.566  -3.557  -0.132  0.00  0.00    -0.001 A 
ATOM      4  C3  UNL d   1      -4.185  -4.762   0.460  0.00  0.00     0.003 A 
ATOM      5  C4  UNL d   1      -4.560  -5.974  -0.117  0.00  0.00    -0.005 A 
ATOM      6  C5  UNL d   1      -5.316  -5.981  -1.287  0.00  0.00     0.003 A 
ATOM      7  C6  UNL d   1      -5.697  -4.777  -1.881  0.00  0.00    -0.001 A 
ENDROOT
TORSDOF 0
ENDMDL
