MODEL 1
REMARK minimizedAffinity 1.07635677
REMARK minimizedRMSD -1
REMARK  0 active torsions:
REMARK  status: ('A' for Active; 'I' for Inactive)
ROOT
ATOM      1  C   UNL d   1      -0.761  -3.559  -5.344  0.00  0.00     0.078 C 
ATOM      2  C1  UNL d   1      -0.377  -2.282  -4.658  0.00  0.00    -0.077 A 
ATOM      3  C2  UNL d   1       0.550  -2.277  -3.609  0.00  0.00    -0.001 A 
ATOM      4  C3  UNL d   1       0.891  -1.083  -2.973  0.00  0.00     0.003 A 
ATOM      5  C4  UNL d   1       0.307   0.116  -3.378  0.00  0.00    -0.005 A 
ATOM      6  C5  UNL d   1      -0.618   0.122  -4.419  0.00  0.00     0.003 A 
ATOM      7  C6  UNL d   1      -0.960  -1.072  -5.056  0.00  0.00    -0.001 A 
ENDROOT
TORSDOF 0
ENDMDL
