MODEL 1
REMARK minimizedAffinity 9.44559765
REMARK minimizedRMSD -1
REMARK  0 active torsions:
REMARK  status: ('A' for Active; 'I' for Inactive)
ROOT
ATOM      1  C   UNL d   1       2.291   2.888  -1.595  0.00  0.00     0.078 C 
ATOM      2  C1  UNL d   1       2.745   3.381  -2.937  0.00  0.00    -0.077 A 
ATOM      3  C2  UNL d   1       1.882   3.365  -4.040  0.00  0.00    -0.001 A 
ATOM      4  C3  UNL d   1       2.321   3.818  -5.285  0.00  0.00     0.003 A 
ATOM      5  C4  UNL d   1       3.623   4.287  -5.440  0.00  0.00    -0.005 A 
ATOM      6  C5  UNL d   1       4.490   4.304  -4.349  0.00  0.00     0.003 A 
ATOM      7  C6  UNL d   1       4.053   3.852  -3.103  0.00  0.00    -0.001 A 
ENDROOT
TORSDOF 0
ENDMDL
