MODEL 1
REMARK minimizedAffinity 10.2396717
REMARK minimizedRMSD -1
REMARK  0 active torsions:
REMARK  status: ('A' for Active; 'I' for Inactive)
ROOT
ATOM      1  C   UNL d   1      -0.073  -3.033  -5.110  0.00  0.00     0.078 C 
ATOM      2  C1  UNL d   1       0.781  -1.936  -4.548  0.00  0.00    -0.077 A 
ATOM      3  C2  UNL d   1       0.349  -1.173  -3.456  0.00  0.00    -0.001 A 
ATOM      4  C3  UNL d   1       1.150  -0.148  -2.950  0.00  0.00     0.003 A 
ATOM      5  C4  UNL d   1       2.387   0.124  -3.530  0.00  0.00    -0.005 A 
ATOM      6  C5  UNL d   1       2.824  -0.628  -4.619  0.00  0.00     0.003 A 
ATOM      7  C6  UNL d   1       2.025  -1.653  -5.126  0.00  0.00    -0.001 A 
ENDROOT
TORSDOF 0
ENDMDL
