MODEL 1
REMARK minimizedAffinity 9.92232227
REMARK minimizedRMSD -1
REMARK  0 active torsions:
REMARK  status: ('A' for Active; 'I' for Inactive)
ROOT
ATOM      1  C   UNL d   1       6.000   3.601  -4.717  0.00  0.00     0.078 C 
ATOM      2  C1  UNL d   1       4.614   4.140  -4.911  0.00  0.00    -0.077 A 
ATOM      3  C2  UNL d   1       3.720   3.530  -5.799  0.00  0.00    -0.001 A 
ATOM      4  C3  UNL d   1       2.437   4.048  -5.977  0.00  0.00     0.003 A 
ATOM      5  C4  UNL d   1       2.035   5.179  -5.269  0.00  0.00    -0.005 A 
ATOM      6  C5  UNL d   1       2.918   5.795  -4.384  0.00  0.00     0.003 A 
ATOM      7  C6  UNL d   1       4.202   5.278  -4.206  0.00  0.00    -0.001 A 
ENDROOT
TORSDOF 0
ENDMDL
