MODEL 1
REMARK minimizedAffinity 3.42375517
REMARK minimizedRMSD -1
REMARK  0 active torsions:
REMARK  status: ('A' for Active; 'I' for Inactive)
ROOT
ATOM      1  C   UNL d   1       1.912   2.858  -1.156  0.00  0.00     0.078 C 
ATOM      2  C1  UNL d   1       2.592   3.550  -2.299  0.00  0.00    -0.077 A 
ATOM      3  C2  UNL d   1       2.071   4.733  -2.838  0.00  0.00    -0.001 A 
ATOM      4  C3  UNL d   1       2.709   5.362  -3.908  0.00  0.00     0.003 A 
ATOM      5  C4  UNL d   1       3.870   4.814  -4.451  0.00  0.00    -0.005 A 
ATOM      6  C5  UNL d   1       4.393   3.635  -3.923  0.00  0.00     0.003 A 
ATOM      7  C6  UNL d   1       3.757   3.005  -2.853  0.00  0.00    -0.001 A 
ENDROOT
TORSDOF 0
ENDMDL
