MODEL 1
REMARK minimizedAffinity 7.97679567
REMARK minimizedRMSD -1
REMARK  0 active torsions:
REMARK  status: ('A' for Active; 'I' for Inactive)
ROOT
ATOM      1  C   UNL d   1      -5.462  -5.344  -1.811  0.00  0.00     0.078 C 
ATOM      2  C1  UNL d   1      -5.353  -3.914  -2.247  0.00  0.00    -0.077 A 
ATOM      3  C2  UNL d   1      -5.827  -2.874  -1.437  0.00  0.00    -0.001 A 
ATOM      4  C3  UNL d   1      -5.729  -1.548  -1.860  0.00  0.00     0.003 A 
ATOM      5  C4  UNL d   1      -5.158  -1.249  -3.096  0.00  0.00    -0.005 A 
ATOM      6  C5  UNL d   1      -4.685  -2.276  -3.910  0.00  0.00     0.003 A 
ATOM      7  C6  UNL d   1      -4.783  -3.603  -3.488  0.00  0.00    -0.001 A 
ENDROOT
TORSDOF 0
ENDMDL
