MODEL 1
REMARK minimizedAffinity 7.39354706
REMARK minimizedRMSD -1
REMARK  0 active torsions:
REMARK  status: ('A' for Active; 'I' for Inactive)
ROOT
ATOM      1  C   UNL d   1      -4.753  -3.199  -5.741  0.00  0.00     0.078 C 
ATOM      2  C1  UNL d   1      -3.436  -3.908  -5.838  0.00  0.00    -0.077 A 
ATOM      3  C2  UNL d   1      -3.369  -5.307  -5.837  0.00  0.00    -0.001 A 
ATOM      4  C3  UNL d   1      -2.135  -5.954  -5.918  0.00  0.00     0.003 A 
ATOM      5  C4  UNL d   1      -0.959  -5.211  -5.999  0.00  0.00    -0.005 A 
ATOM      6  C5  UNL d   1      -1.016  -3.819  -5.999  0.00  0.00     0.003 A 
ATOM      7  C6  UNL d   1      -2.249  -3.170  -5.918  0.00  0.00    -0.001 A 
ENDROOT
TORSDOF 0
ENDMDL
