MODEL 1
REMARK minimizedAffinity 9.21588516
REMARK minimizedRMSD -1
REMARK  0 active torsions:
REMARK  status: ('A' for Active; 'I' for Inactive)
ROOT
ATOM      1  C   UNL d   1       1.146  -1.742  -3.672  0.00  0.00     0.078 C 
ATOM      2  C1  UNL d   1       1.932  -0.750  -4.475  0.00  0.00    -0.077 A 
ATOM      3  C2  UNL d   1       1.491   0.571  -4.622  0.00  0.00    -0.001 A 
ATOM      4  C3  UNL d   1       2.229   1.482  -5.380  0.00  0.00     0.003 A 
ATOM      5  C4  UNL d   1       3.411   1.081  -5.999  0.00  0.00    -0.005 A 
ATOM      6  C5  UNL d   1       3.857  -0.232  -5.861  0.00  0.00     0.003 A 
ATOM      7  C6  UNL d   1       3.121  -1.144  -5.103  0.00  0.00    -0.001 A 
ENDROOT
TORSDOF 0
ENDMDL
