MODEL 1
REMARK minimizedAffinity 11.1249208
REMARK minimizedRMSD -1
REMARK  0 active torsions:
REMARK  status: ('A' for Active; 'I' for Inactive)
ROOT
ATOM      1  C   UNL d   1       5.567   3.739  -4.873  0.00  0.00     0.078 C 
ATOM      2  C1  UNL d   1       4.264   4.482  -4.889  0.00  0.00    -0.077 A 
ATOM      3  C2  UNL d   1       3.409   4.416  -5.995  0.00  0.00    -0.001 A 
ATOM      4  C3  UNL d   1       2.204   5.120  -6.000  0.00  0.00     0.003 A 
ATOM      5  C4  UNL d   1       1.843   5.896  -4.900  0.00  0.00    -0.005 A 
ATOM      6  C5  UNL d   1       2.689   5.970  -3.795  0.00  0.00     0.003 A 
ATOM      7  C6  UNL d   1       3.894   5.266  -3.789  0.00  0.00    -0.001 A 
ENDROOT
TORSDOF 0
ENDMDL
