MODEL 1
REMARK minimizedAffinity 4.81339693
REMARK minimizedRMSD -1
REMARK  0 active torsions:
REMARK  status: ('A' for Active; 'I' for Inactive)
ROOT
ATOM      1  C   UNL d   1       1.463  -0.992  -4.262  0.00  0.00     0.078 C 
ATOM      2  C1  UNL d   1       1.649   0.079  -3.228  0.00  0.00    -0.077 A 
ATOM      3  C2  UNL d   1       0.620   0.406  -2.336  0.00  0.00    -0.001 A 
ATOM      4  C3  UNL d   1       0.803   1.411  -1.386  0.00  0.00     0.003 A 
ATOM      5  C4  UNL d   1       2.014   2.098  -1.318  0.00  0.00    -0.005 A 
ATOM      6  C5  UNL d   1       3.043   1.780  -2.203  0.00  0.00     0.003 A 
ATOM      7  C6  UNL d   1       2.861   0.776  -3.154  0.00  0.00    -0.001 A 
ENDROOT
TORSDOF 0
ENDMDL
