MODEL 1
REMARK minimizedAffinity 8.78399563
REMARK minimizedRMSD -1
REMARK  0 active torsions:
REMARK  status: ('A' for Active; 'I' for Inactive)
ROOT
ATOM      1  C   UNL d   1       1.890  -0.886  -3.826  0.00  0.00     0.078 C 
ATOM      2  C1  UNL d   1       1.870   0.446  -3.138  0.00  0.00    -0.077 A 
ATOM      3  C2  UNL d   1       0.793   0.823  -2.327  0.00  0.00    -0.001 A 
ATOM      4  C3  UNL d   1       0.783   2.070  -1.700  0.00  0.00     0.003 A 
ATOM      5  C4  UNL d   1       1.848   2.950  -1.878  0.00  0.00    -0.005 A 
ATOM      6  C5  UNL d   1       2.924   2.585  -2.685  0.00  0.00     0.003 A 
ATOM      7  C6  UNL d   1       2.935   1.338  -3.312  0.00  0.00    -0.001 A 
ENDROOT
TORSDOF 0
ENDMDL
