MODEL 1
REMARK minimizedAffinity 8.1580801
REMARK minimizedRMSD -1
REMARK  0 active torsions:
REMARK  status: ('A' for Active; 'I' for Inactive)
ROOT
ATOM      1  C   UNL d   1       0.984  -0.605  -3.128  0.00  0.00     0.078 C 
ATOM      2  C1  UNL d   1       0.119  -1.308  -4.132  0.00  0.00    -0.077 A 
ATOM      3  C2  UNL d   1      -0.619  -0.586  -5.078  0.00  0.00    -0.001 A 
ATOM      4  C3  UNL d   1      -1.427  -1.253  -6.000  0.00  0.00     0.003 A 
ATOM      5  C4  UNL d   1      -1.507  -2.644  -5.984  0.00  0.00    -0.005 A 
ATOM      6  C5  UNL d   1      -0.777  -3.370  -5.045  0.00  0.00     0.003 A 
ATOM      7  C6  UNL d   1       0.032  -2.705  -4.122  0.00  0.00    -0.001 A 
ENDROOT
TORSDOF 0
ENDMDL
