MODEL 1
REMARK minimizedAffinity 9.65169239
REMARK minimizedRMSD -1
REMARK  0 active torsions:
REMARK  status: ('A' for Active; 'I' for Inactive)
ROOT
ATOM      1  C   UNL d   1      -1.546  -0.395  -5.987  0.00  0.00     0.078 C 
ATOM      2  C1  UNL d   1      -1.726  -1.884  -5.998  0.00  0.00    -0.077 A 
ATOM      3  C2  UNL d   1      -3.003  -2.456  -5.997  0.00  0.00    -0.001 A 
ATOM      4  C3  UNL d   1      -3.156  -3.844  -5.998  0.00  0.00     0.003 A 
ATOM      5  C4  UNL d   1      -2.034  -4.671  -5.999  0.00  0.00    -0.005 A 
ATOM      6  C5  UNL d   1      -0.758  -4.110  -5.997  0.00  0.00     0.003 A 
ATOM      7  C6  UNL d   1      -0.604  -2.723  -5.997  0.00  0.00    -0.001 A 
ENDROOT
TORSDOF 0
ENDMDL
