MODEL 1
REMARK minimizedAffinity 12.0460978
REMARK minimizedRMSD -1
REMARK  0 active torsions:
REMARK  status: ('A' for Active; 'I' for Inactive)
ROOT
ATOM      1  C   UNL d   1       1.107   1.138  -1.494  0.00  0.00     0.078 C 
ATOM      2  C1  UNL d   1       1.277   0.058  -2.521  0.00  0.00    -0.077 A 
ATOM      3  C2  UNL d   1       1.777   0.348  -3.796  0.00  0.00    -0.001 A 
ATOM      4  C3  UNL d   1       1.921  -0.666  -4.745  0.00  0.00     0.003 A 
ATOM      5  C4  UNL d   1       1.565  -1.976  -4.429  0.00  0.00    -0.005 A 
ATOM      6  C5  UNL d   1       1.065  -2.273  -3.164  0.00  0.00     0.003 A 
ATOM      7  C6  UNL d   1       0.920  -1.261  -2.213  0.00  0.00    -0.001 A 
ENDROOT
TORSDOF 0
ENDMDL
