MODEL 1
REMARK minimizedAffinity -5.30115604
REMARK minimizedRMSD -1
REMARK  0 active torsions:
REMARK  status: ('A' for Active; 'I' for Inactive)
ROOT
ATOM      1  C2' OXE d   1       0.418  -0.917  -0.886  0.00  0.00     0.078 C 
ATOM      2  C1' OXE d   1       0.836  -0.757   1.885  0.00  0.00     0.078 C 
ATOM      3  C1  OXE d   1       0.123   0.390   1.214  0.00  0.00    -0.078 A 
ATOM      4  C2  OXE d   1      -0.036   0.325  -0.149  0.00  0.00    -0.078 A 
ATOM      5  C3  OXE d   1      -0.735   1.330  -0.811  0.00  0.00     0.003 A 
ATOM      6  C4  OXE d   1      -1.142   2.480  -0.123  0.00  0.00    -0.002 A 
ATOM      7  C5  OXE d   1      -0.955   2.585   1.259  0.00  0.00    -0.002 A 
ATOM      8  C6  OXE d   1      -0.363   1.532   1.948  0.00  0.00     0.003 A 
ENDROOT
TORSDOF 0
ENDMDL
