MODEL 1
REMARK minimizedAffinity 4.52120638
REMARK minimizedRMSD -1
REMARK  0 active torsions:
REMARK  status: ('A' for Active; 'I' for Inactive)
ROOT
ATOM      1  C2' OXE d   1      -2.457  -0.375   2.063  0.00  0.00     0.078 C 
ATOM      2  C1' OXE d   1      -0.708   1.593   3.039  0.00  0.00     0.078 C 
ATOM      3  C1  OXE d   1      -0.177   0.628   2.009  0.00  0.00    -0.078 A 
ATOM      4  C2  OXE d   1      -1.026  -0.361   1.571  0.00  0.00    -0.078 A 
ATOM      5  C3  OXE d   1      -0.604  -1.244   0.581  0.00  0.00     0.003 A 
ATOM      6  C4  OXE d   1       0.725  -1.230   0.139  0.00  0.00    -0.002 A 
ATOM      7  C5  OXE d   1       1.617  -0.257   0.601  0.00  0.00    -0.002 A 
ATOM      8  C6  OXE d   1       1.171   0.704   1.502  0.00  0.00     0.003 A 
ENDROOT
TORSDOF 0
ENDMDL
