MODEL 1
REMARK minimizedAffinity -1.73424792
REMARK minimizedRMSD -1
REMARK  0 active torsions:
REMARK  status: ('A' for Active; 'I' for Inactive)
ROOT
ATOM      1  C2' OXE d   1       0.492  -0.224  -1.864  0.00  0.00     0.078 C 
ATOM      2  C1' OXE d   1      -0.567   2.370  -1.695  0.00  0.00     0.078 C 
ATOM      3  C1  OXE d   1      -0.263   1.649  -0.406  0.00  0.00    -0.078 A 
ATOM      4  C2  OXE d   1       0.211   0.362  -0.498  0.00  0.00    -0.078 A 
ATOM      5  C3  OXE d   1       0.560  -0.328   0.660  0.00  0.00     0.003 A 
ATOM      6  C4  OXE d   1       0.288   0.218   1.920  0.00  0.00    -0.002 A 
ATOM      7  C5  OXE d   1      -0.232   1.512   2.036  0.00  0.00    -0.002 A 
ATOM      8  C6  OXE d   1      -0.473   2.255   0.886  0.00  0.00     0.003 A 
ENDROOT
TORSDOF 0
ENDMDL
