MODEL 1
REMARK minimizedAffinity -2.29449034
REMARK minimizedRMSD -1
REMARK  0 active torsions:
REMARK  status: ('A' for Active; 'I' for Inactive)
ROOT
ATOM      1  C2' OXE d   1       1.355  -0.105  -1.545  0.00  0.00     0.078 C 
ATOM      2  C1' OXE d   1      -0.294  -2.196  -0.658  0.00  0.00     0.078 C 
ATOM      3  C1  OXE d   1      -0.164  -0.980   0.224  0.00  0.00    -0.078 A 
ATOM      4  C2  OXE d   1       0.681   0.019  -0.196  0.00  0.00    -0.078 A 
ATOM      5  C3  OXE d   1       0.796   1.186   0.554  0.00  0.00     0.003 A 
ATOM      6  C4  OXE d   1       0.177   1.287   1.806  0.00  0.00    -0.002 A 
ATOM      7  C5  OXE d   1      -0.657   0.265   2.271  0.00  0.00    -0.002 A 
ATOM      8  C6  OXE d   1      -0.871  -0.855   1.475  0.00  0.00     0.003 A 
ENDROOT
TORSDOF 0
ENDMDL
