MODEL 1
REMARK minimizedAffinity 6.01708603
REMARK minimizedRMSD -1
REMARK  0 active torsions:
REMARK  status: ('A' for Active; 'I' for Inactive)
ROOT
ATOM      1  C2' OXE d   1      -0.743  -1.736  -1.015  0.00  0.00     0.078 C 
ATOM      2  C1' OXE d   1      -0.080   0.913  -1.667  0.00  0.00     0.078 C 
ATOM      3  C1  OXE d   1       0.110   0.472  -0.237  0.00  0.00    -0.078 A 
ATOM      4  C2  OXE d   1      -0.261  -0.812   0.083  0.00  0.00    -0.078 A 
ATOM      5  C3  OXE d   1      -0.056  -1.287   1.375  0.00  0.00     0.003 A 
ATOM      6  C4  OXE d   1       0.381  -0.423   2.387  0.00  0.00    -0.002 A 
ATOM      7  C5  OXE d   1       0.726   0.900   2.090  0.00  0.00    -0.002 A 
ATOM      8  C6  OXE d   1       0.637   1.350   0.778  0.00  0.00     0.003 A 
ENDROOT
TORSDOF 0
ENDMDL
