MODEL 1
REMARK minimizedAffinity -1.97514081
REMARK minimizedRMSD -1
REMARK  0 active torsions:
REMARK  status: ('A' for Active; 'I' for Inactive)
ROOT
ATOM      1  C2' OXE d   1       0.634  -0.015   1.979  0.00  0.00     0.078 C 
ATOM      2  C1' OXE d   1       0.385  -1.153  -0.575  0.00  0.00     0.078 C 
ATOM      3  C1  OXE d   1       0.374   0.352  -0.471  0.00  0.00    -0.078 A 
ATOM      4  C2  OXE d   1       0.450   0.899   0.787  0.00  0.00    -0.078 A 
ATOM      5  C3  OXE d   1       0.498   2.282   0.936  0.00  0.00     0.003 A 
ATOM      6  C4  OXE d   1       0.317   3.121  -0.171  0.00  0.00    -0.002 A 
ATOM      7  C5  OXE d   1       0.199   2.583  -1.457  0.00  0.00    -0.002 A 
ATOM      8  C6  OXE d   1       0.268   1.205  -1.629  0.00  0.00     0.003 A 
ENDROOT
TORSDOF 0
ENDMDL
