MODEL 1
REMARK minimizedAffinity -3.29696131
REMARK minimizedRMSD -1
REMARK  0 active torsions:
REMARK  status: ('A' for Active; 'I' for Inactive)
ROOT
ATOM      1  C2' OXE d   1      -0.481  -3.984  -1.053  0.00  0.00     0.078 C 
ATOM      2  C1' OXE d   1      -2.092  -2.390  -2.709  0.00  0.00     0.078 C 
ATOM      3  C1  OXE d   1      -1.067  -1.697  -1.847  0.00  0.00    -0.078 A 
ATOM      4  C2  OXE d   1      -0.315  -2.481  -1.006  0.00  0.00    -0.078 A 
ATOM      5  C3  OXE d   1       0.683  -1.898  -0.229  0.00  0.00     0.003 A 
ATOM      6  C4  OXE d   1       0.824  -0.506  -0.183  0.00  0.00    -0.002 A 
ATOM      7  C5  OXE d   1       0.041   0.314  -1.003  0.00  0.00    -0.002 A 
ATOM      8  C6  OXE d   1      -0.878  -0.267  -1.870  0.00  0.00     0.003 A 
ENDROOT
TORSDOF 0
ENDMDL
