MODEL 1
REMARK minimizedAffinity -1.47071779
REMARK minimizedRMSD -1
REMARK  0 active torsions:
REMARK  status: ('A' for Active; 'I' for Inactive)
ROOT
ATOM      1  C2' OXE d   1      -0.740   2.078   1.800  0.00  0.00     0.078 C 
ATOM      2  C1' OXE d   1       0.464  -0.389   2.386  0.00  0.00     0.078 C 
ATOM      3  C1  OXE d   1       0.332   0.002   0.935  0.00  0.00    -0.078 A 
ATOM      4  C2  OXE d   1      -0.301   1.189   0.656  0.00  0.00    -0.078 A 
ATOM      5  C3  OXE d   1      -0.402   1.623  -0.663  0.00  0.00     0.003 A 
ATOM      6  C4  OXE d   1      -0.002   0.791  -1.715  0.00  0.00    -0.002 A 
ATOM      7  C5  OXE d   1       0.609  -0.440  -1.454  0.00  0.00    -0.002 A 
ATOM      8  C6  OXE d   1       0.821  -0.830  -0.136  0.00  0.00     0.003 A 
ENDROOT
TORSDOF 0
ENDMDL
