MODEL 1
REMARK minimizedAffinity -3.61434245
REMARK minimizedRMSD -1
REMARK  0 active torsions:
REMARK  status: ('A' for Active; 'I' for Inactive)
ROOT
ATOM      1  C2' OXE d   1       0.868  -0.879   1.948  0.00  0.00     0.078 C 
ATOM      2  C1' OXE d   1      -0.287   1.680   1.942  0.00  0.00     0.078 C 
ATOM      3  C1  OXE d   1      -0.037   1.018   0.610  0.00  0.00    -0.078 A 
ATOM      4  C2  OXE d   1       0.571  -0.215   0.621  0.00  0.00    -0.078 A 
ATOM      5  C3  OXE d   1       0.775  -0.893  -0.577  0.00  0.00     0.003 A 
ATOM      6  C4  OXE d   1       0.507  -0.267  -1.801  0.00  0.00    -0.002 A 
ATOM      7  C5  OXE d   1      -0.076   1.004  -1.835  0.00  0.00    -0.002 A 
ATOM      8  C6  OXE d   1      -0.393   1.641  -0.640  0.00  0.00     0.003 A 
ENDROOT
TORSDOF 0
ENDMDL
