MODEL 1
REMARK minimizedAffinity -6.19784975
REMARK minimizedRMSD -1
REMARK  0 active torsions:
REMARK  status: ('A' for Active; 'I' for Inactive)
ROOT
ATOM      1  C2' OXE d   1      -1.158   4.110   0.939  0.00  0.00     0.078 C 
ATOM      2  C1' OXE d   1      -1.021   3.013  -1.641  0.00  0.00     0.078 C 
ATOM      3  C1  OXE d   1      -0.546   2.163  -0.489  0.00  0.00    -0.078 A 
ATOM      4  C2  OXE d   1      -0.573   2.725   0.765  0.00  0.00    -0.078 A 
ATOM      5  C3  OXE d   1      -0.198   1.965   1.869  0.00  0.00     0.003 A 
ATOM      6  C4  OXE d   1       0.352   0.689   1.698  0.00  0.00    -0.002 A 
ATOM      7  C5  OXE d   1       0.426   0.113   0.425  0.00  0.00    -0.002 A 
ATOM      8  C6  OXE d   1      -0.057   0.818  -0.671  0.00  0.00     0.003 A 
ENDROOT
TORSDOF 0
ENDMDL
