MODEL 1
REMARK minimizedAffinity -5.7366271
REMARK minimizedRMSD -1
REMARK  0 active torsions:
REMARK  status: ('A' for Active; 'I' for Inactive)
ROOT
ATOM      1  C2' OXE d   1       1.355   0.104   1.903  0.00  0.00     0.078 C 
ATOM      2  C1' OXE d   1       0.590  -0.174  -0.784  0.00  0.00     0.078 C 
ATOM      3  C1  OXE d   1      -0.044   0.936   0.017  0.00  0.00    -0.078 A 
ATOM      4  C2  OXE d   1       0.302   1.035   1.344  0.00  0.00    -0.078 A 
ATOM      5  C3  OXE d   1      -0.212   2.075   2.114  0.00  0.00     0.003 A 
ATOM      6  C4  OXE d   1      -1.193   2.926   1.592  0.00  0.00    -0.002 A 
ATOM      7  C5  OXE d   1      -1.589   2.817   0.255  0.00  0.00    -0.002 A 
ATOM      8  C6  OXE d   1      -0.994   1.857  -0.556  0.00  0.00     0.003 A 
ENDROOT
TORSDOF 0
ENDMDL
