MODEL 1
REMARK minimizedAffinity -6.02231026
REMARK minimizedRMSD -1
REMARK  0 active torsions:
REMARK  status: ('A' for Active; 'I' for Inactive)
ROOT
ATOM      1  C2' OXE d   1       0.769  -0.236   2.126  0.00  0.00     0.078 C 
ATOM      2  C1' OXE d   1       0.739  -0.518  -0.667  0.00  0.00     0.078 C 
ATOM      3  C1  OXE d   1       0.053   0.687  -0.074  0.00  0.00    -0.078 A 
ATOM      4  C2  OXE d   1       0.032   0.793   1.296  0.00  0.00    -0.078 A 
ATOM      5  C3  OXE d   1      -0.540   1.913   1.892  0.00  0.00     0.003 A 
ATOM      6  C4  OXE d   1      -1.228   2.855   1.118  0.00  0.00    -0.002 A 
ATOM      7  C5  OXE d   1      -1.253   2.745  -0.277  0.00  0.00    -0.002 A 
ATOM      8  C6  OXE d   1      -0.583   1.692  -0.890  0.00  0.00     0.003 A 
ENDROOT
TORSDOF 0
ENDMDL
