MODEL 1
REMARK minimizedAffinity -3.19596076
REMARK minimizedRMSD -1
REMARK  2 active torsions:
REMARK  status: ('A' for Active; 'I' for Inactive)
REMARK    1  A    between atoms: C1_2  and  C2_3 
REMARK    2  A    between atoms: C2_3  and  C3_4 
ROOT
ATOM      1  C3  UNL d   1       0.670  -0.642   3.467  0.00  0.00    -0.075 A 
ATOM      2  C4  UNL d   1      -0.145   0.256   4.171  0.00  0.00     0.002 A 
ATOM      3  C5  UNL d   1      -1.066   1.057   3.495  0.00  0.00     0.002 A 
ATOM      4  C6  UNL d   1      -1.177   0.978   2.109  0.00  0.00    -0.004 A 
ATOM      5  C7  UNL d   1      -0.361   0.101   1.397  0.00  0.00     0.002 A 
ATOM      6  C8  UNL d   1       0.559  -0.705   2.071  0.00  0.00     0.002 A 
ENDROOT
BRANCH   1   7
ATOM      7  C2  UNL d   1       1.648  -1.533   4.195  0.00  0.00     0.056 C 
BRANCH   7   8
ATOM      8  C1  UNL d   1       2.687  -0.771   5.024  0.00  0.00     0.007 C 
ATOM      9  C   UNL d   1       3.625  -1.686   5.800  0.00  0.00     0.009 C 
ENDBRANCH   7   8
ENDBRANCH   1   7
TORSDOF 2
ENDMDL
