MODEL 1
REMARK minimizedAffinity 10.9256563
REMARK minimizedRMSD -1
REMARK  2 active torsions:
REMARK  status: ('A' for Active; 'I' for Inactive)
REMARK    1  A    between atoms: C1_2  and  C2_3 
REMARK    2  A    between atoms: C2_3  and  C3_4 
ROOT
ATOM      1  C3  UNL d   1      -1.267  -0.021   0.417  0.00  0.00    -0.075 A 
ATOM      2  C4  UNL d   1      -1.725   0.444   1.658  0.00  0.00     0.002 A 
ATOM      3  C5  UNL d   1      -0.829   0.672   2.704  0.00  0.00     0.002 A 
ATOM      4  C6  UNL d   1       0.531   0.428   2.525  0.00  0.00    -0.004 A 
ATOM      5  C7  UNL d   1       0.995  -0.050   1.302  0.00  0.00     0.002 A 
ATOM      6  C8  UNL d   1       0.102  -0.274   0.253  0.00  0.00     0.002 A 
ENDROOT
BRANCH   1   7
ATOM      7  C2  UNL d   1      -2.227  -0.241  -0.728  0.00  0.00     0.056 C 
BRANCH   7   8
ATOM      8  C1  UNL d   1      -3.643  -0.629  -0.289  0.00  0.00     0.007 C 
ATOM      9  C   UNL d   1      -4.020  -2.055  -0.668  0.00  0.00     0.009 C 
ENDBRANCH   7   8
ENDBRANCH   1   7
TORSDOF 2
ENDMDL
