MODEL 1
REMARK minimizedAffinity 4.71213675
REMARK minimizedRMSD -1
REMARK  2 active torsions:
REMARK  status: ('A' for Active; 'I' for Inactive)
REMARK    1  A    between atoms: C1_2  and  C2_3 
REMARK    2  A    between atoms: C2_3  and  C3_4 
ROOT
ATOM      1  C3  UNL d   1       0.536  -0.159   0.731  0.00  0.00    -0.075 A 
ATOM      2  C4  UNL d   1       0.233  -0.958  -0.381  0.00  0.00     0.002 A 
ATOM      3  C5  UNL d   1      -1.083  -1.078  -0.830  0.00  0.00     0.002 A 
ATOM      4  C6  UNL d   1      -2.111  -0.411  -0.168  0.00  0.00    -0.004 A 
ATOM      5  C7  UNL d   1      -1.824   0.372   0.948  0.00  0.00     0.002 A 
ATOM      6  C8  UNL d   1      -0.508   0.498   1.396  0.00  0.00     0.002 A 
ENDROOT
BRANCH   1   7
ATOM      7  C2  UNL d   1       1.961  -0.002   1.204  0.00  0.00     0.056 C 
BRANCH   7   8
ATOM      8  C1  UNL d   1       2.876   0.709   0.201  0.00  0.00     0.007 C 
ATOM      9  C   UNL d   1       3.686   1.839   0.824  0.00  0.00     0.009 C 
ENDBRANCH   7   8
ENDBRANCH   1   7
TORSDOF 2
ENDMDL
