MODEL 1
REMARK minimizedAffinity 4.83628225
REMARK minimizedRMSD -1
REMARK  2 active torsions:
REMARK  status: ('A' for Active; 'I' for Inactive)
REMARK    1  A    between atoms: C1_2  and  C2_3 
REMARK    2  A    between atoms: C2_3  and  C3_4 
ROOT
ATOM      1  C3  UNL d   1       0.997  -0.259   0.374  0.00  0.00    -0.075 A 
ATOM      2  C4  UNL d   1       0.368  -1.140  -0.518  0.00  0.00     0.002 A 
ATOM      3  C5  UNL d   1      -1.023  -1.188  -0.604  0.00  0.00     0.002 A 
ATOM      4  C6  UNL d   1      -1.803  -0.365   0.205  0.00  0.00    -0.004 A 
ATOM      5  C7  UNL d   1      -1.190   0.503   1.107  0.00  0.00     0.002 A 
ATOM      6  C8  UNL d   1       0.203   0.556   1.192  0.00  0.00     0.002 A 
ENDROOT
BRANCH   1   7
ATOM      7  C2  UNL d   1       2.503  -0.181   0.451  0.00  0.00     0.056 C 
BRANCH   7   8
ATOM      8  C1  UNL d   1       3.072   1.211   0.155  0.00  0.00     0.007 C 
ATOM      9  C   UNL d   1       4.176   1.198  -0.894  0.00  0.00     0.009 C 
ENDBRANCH   7   8
ENDBRANCH   1   7
TORSDOF 2
ENDMDL
