MODEL 1
REMARK minimizedAffinity 1.18334615
REMARK minimizedRMSD -1
REMARK  2 active torsions:
REMARK  status: ('A' for Active; 'I' for Inactive)
REMARK    1  A    between atoms: C1_2  and  C2_3 
REMARK    2  A    between atoms: C2_3  and  C3_4 
ROOT
ATOM      1  C3  UNL d   1      -1.164  -0.054   0.628  0.00  0.00    -0.075 A 
ATOM      2  C4  UNL d   1      -1.743   0.749   1.621  0.00  0.00     0.002 A 
ATOM      3  C5  UNL d   1      -0.977   1.212   2.692  0.00  0.00     0.002 A 
ATOM      4  C6  UNL d   1       0.370   0.871   2.789  0.00  0.00    -0.004 A 
ATOM      5  C7  UNL d   1       0.951   0.060   1.816  0.00  0.00     0.002 A 
ATOM      6  C8  UNL d   1       0.189  -0.401   0.741  0.00  0.00     0.002 A 
ENDROOT
BRANCH   1   7
ATOM      7  C2  UNL d   1      -1.980  -0.534  -0.549  0.00  0.00     0.056 C 
BRANCH   7   8
ATOM      8  C1  UNL d   1      -3.490  -0.555  -0.294  0.00  0.00     0.007 C 
ATOM      9  C   UNL d   1      -4.151  -1.864  -0.705  0.00  0.00     0.009 C 
ENDBRANCH   7   8
ENDBRANCH   1   7
TORSDOF 2
ENDMDL
