MODEL 1
REMARK minimizedAffinity 5.82290649
REMARK minimizedRMSD -1
REMARK  2 active torsions:
REMARK  status: ('A' for Active; 'I' for Inactive)
REMARK    1  A    between atoms: C1_2  and  C2_3 
REMARK    2  A    between atoms: C2_3  and  C3_4 
ROOT
ATOM      1  C3  UNL d   1       0.914   3.410   1.179  0.00  0.00    -0.075 A 
ATOM      2  C4  UNL d   1       2.250   3.616   0.806  0.00  0.00     0.002 A 
ATOM      3  C5  UNL d   1       3.015   2.565   0.300  0.00  0.00     0.002 A 
ATOM      4  C6  UNL d   1       2.458   1.295   0.169  0.00  0.00    -0.004 A 
ATOM      5  C7  UNL d   1       1.136   1.075   0.551  0.00  0.00     0.002 A 
ATOM      6  C8  UNL d   1       0.368   2.126   1.054  0.00  0.00     0.002 A 
ENDROOT
BRANCH   1   7
ATOM      7  C2  UNL d   1       0.073   4.551   1.700  0.00  0.00     0.056 C 
BRANCH   7   8
ATOM      8  C1  UNL d   1      -0.147   5.678   0.686  0.00  0.00     0.007 C 
ATOM      9  C   UNL d   1      -1.618   6.000   0.455  0.00  0.00     0.009 C 
ENDBRANCH   7   8
ENDBRANCH   1   7
TORSDOF 2
ENDMDL
