MODEL 1
REMARK minimizedAffinity -3.33993411
REMARK minimizedRMSD -1
REMARK  0 active torsions:
REMARK  status: ('A' for Active; 'I' for Inactive)
ROOT
ATOM      1  C4' PXY d   1       0.758  -2.660  -1.022  0.00  0.00     0.077 C 
ATOM      2  C1' PXY d   1      -1.728   2.556  -0.860  0.00  0.00     0.077 C 
ATOM      3  C1  PXY d   1      -1.075   1.189  -0.915  0.00  0.00    -0.082 A 
ATOM      4  C2  PXY d   1      -1.318   0.308   0.042  0.00  0.00     0.003 A 
ATOM      5  C3  PXY d   1      -0.711  -0.921   0.024  0.00  0.00     0.003 A 
ATOM      6  C4  PXY d   1       0.113  -1.272  -1.012  0.00  0.00    -0.082 A 
ATOM      7  C5  PXY d   1       0.358  -0.382  -1.997  0.00  0.00     0.003 A 
ATOM      8  C6  PXY d   1      -0.236   0.875  -1.939  0.00  0.00     0.003 A 
ENDROOT
TORSDOF 0
ENDMDL
