MODEL 1
REMARK minimizedAffinity -1.34504628
REMARK minimizedRMSD -1
REMARK  0 active torsions:
REMARK  status: ('A' for Active; 'I' for Inactive)
ROOT
ATOM      1  C4' PXY d   1       0.402  -4.559   0.198  0.00  0.00     0.077 C 
ATOM      2  C1' PXY d   1       0.542   0.663  -2.278  0.00  0.00     0.077 C 
ATOM      3  C1  PXY d   1       0.493  -0.708  -1.633  0.00  0.00    -0.082 A 
ATOM      4  C2  PXY d   1       1.295  -0.982  -0.617  0.00  0.00     0.003 A 
ATOM      5  C3  PXY d   1       1.287  -2.227  -0.042  0.00  0.00     0.003 A 
ATOM      6  C4  PXY d   1       0.411  -3.185  -0.478  0.00  0.00    -0.082 A 
ATOM      7  C5  PXY d   1      -0.418  -2.910  -1.507  0.00  0.00     0.003 A 
ATOM      8  C6  PXY d   1      -0.365  -1.653  -2.103  0.00  0.00     0.003 A 
ENDROOT
TORSDOF 0
ENDMDL
