MODEL 1
REMARK minimizedAffinity -2.19238424
REMARK minimizedRMSD -1
REMARK  0 active torsions:
REMARK  status: ('A' for Active; 'I' for Inactive)
ROOT
ATOM      1  C4' PXY d   1      -1.160  -4.028  -2.278  0.00  0.00     0.077 C 
ATOM      2  C1' PXY d   1       3.020  -5.449   1.454  0.00  0.00     0.077 C 
ATOM      3  C1  PXY d   1       1.924  -5.064   0.480  0.00  0.00    -0.082 A 
ATOM      4  C2  PXY d   1       1.129  -6.000  -0.013  0.00  0.00     0.003 A 
ATOM      5  C3  PXY d   1       0.153  -5.674  -0.919  0.00  0.00     0.003 A 
ATOM      6  C4  PXY d   1      -0.046  -4.369  -1.284  0.00  0.00    -0.082 A 
ATOM      7  C5  PXY d   1       0.754  -3.407  -0.778  0.00  0.00     0.003 A 
ATOM      8  C6  PXY d   1       1.766  -3.764   0.110  0.00  0.00     0.003 A 
ENDROOT
TORSDOF 0
ENDMDL
