MODEL 1
REMARK minimizedAffinity -1.78251517
REMARK minimizedRMSD -1
REMARK  0 active torsions:
REMARK  status: ('A' for Active; 'I' for Inactive)
ROOT
ATOM      1  C4' PXY d   1       1.063  -2.350  -1.155  0.00  0.00     0.077 C 
ATOM      2  C1' PXY d   1      -0.453   2.496   1.607  0.00  0.00     0.077 C 
ATOM      3  C1  PXY d   1      -0.064   1.228   0.873  0.00  0.00    -0.082 A 
ATOM      4  C2  PXY d   1       0.441   0.210   1.550  0.00  0.00     0.003 A 
ATOM      5  C3  PXY d   1       0.829  -0.933   0.897  0.00  0.00     0.003 A 
ATOM      6  C4  PXY d   1       0.648  -1.054  -0.454  0.00  0.00    -0.082 A 
ATOM      7  C5  PXY d   1       0.123  -0.023  -1.150  0.00  0.00     0.003 A 
ATOM      8  C6  PXY d   1      -0.226   1.144  -0.475  0.00  0.00     0.003 A 
ENDROOT
TORSDOF 0
ENDMDL
