MODEL 1
REMARK minimizedAffinity -4.28792238
REMARK minimizedRMSD -1
REMARK  0 active torsions:
REMARK  status: ('A' for Active; 'I' for Inactive)
ROOT
ATOM      1  C4' PXY d   1       0.134   1.789   1.479  0.00  0.00     0.077 C 
ATOM      2  C1' PXY d   1       0.226  -3.098  -1.608  0.00  0.00     0.077 C 
ATOM      3  C1  PXY d   1       0.215  -1.816  -0.799  0.00  0.00    -0.082 A 
ATOM      4  C2  PXY d   1      -0.821  -1.542  -0.021  0.00  0.00     0.003 A 
ATOM      5  C3  PXY d   1      -0.861  -0.372   0.692  0.00  0.00     0.003 A 
ATOM      6  C4  PXY d   1       0.192   0.502   0.651  0.00  0.00    -0.082 A 
ATOM      7  C5  PXY d   1       1.257   0.224  -0.131  0.00  0.00     0.003 A 
ATOM      8  C6  PXY d   1       1.260  -0.949  -0.879  0.00  0.00     0.003 A 
ENDROOT
TORSDOF 0
ENDMDL
