MODEL 1
REMARK minimizedAffinity -1.90045559
REMARK minimizedRMSD -1
REMARK  0 active torsions:
REMARK  status: ('A' for Active; 'I' for Inactive)
ROOT
ATOM      1  C4' PXY d   1      -1.862   3.282  -1.946  0.00  0.00     0.077 C 
ATOM      2  C1' PXY d   1       1.122  -0.586   1.145  0.00  0.00     0.077 C 
ATOM      3  C1  PXY d   1       0.350   0.431   0.327  0.00  0.00    -0.082 A 
ATOM      4  C2  PXY d   1      -0.690   1.048   0.863  0.00  0.00     0.003 A 
ATOM      5  C3  PXY d   1      -1.419   1.946   0.127  0.00  0.00     0.003 A 
ATOM      6  C4  PXY d   1      -1.047   2.256  -1.154  0.00  0.00    -0.082 A 
ATOM      7  C5  PXY d   1       0.020   1.638  -1.705  0.00  0.00     0.003 A 
ATOM      8  C6  PXY d   1       0.721   0.699  -0.955  0.00  0.00     0.003 A 
ENDROOT
TORSDOF 0
ENDMDL
