MODEL 1
REMARK minimizedAffinity -2.87210083
REMARK minimizedRMSD -1
REMARK  0 active torsions:
REMARK  status: ('A' for Active; 'I' for Inactive)
ROOT
ATOM      1  C4' PXY d   1       0.772  -1.362  -1.362  0.00  0.00     0.077 C 
ATOM      2  C1' PXY d   1      -1.341   3.137   1.590  0.00  0.00     0.077 C 
ATOM      3  C1  PXY d   1      -0.794   1.960   0.805  0.00  0.00    -0.082 A 
ATOM      4  C2  PXY d   1      -0.258   0.937   1.450  0.00  0.00     0.003 A 
ATOM      5  C3  PXY d   1       0.270  -0.121   0.756  0.00  0.00     0.003 A 
ATOM      6  C4  PXY d   1       0.200  -0.157  -0.611  0.00  0.00    -0.082 A 
ATOM      7  C5  PXY d   1      -0.356   0.879  -1.276  0.00  0.00     0.003 A 
ATOM      8  C6  PXY d   1      -0.849   1.962  -0.554  0.00  0.00     0.003 A 
ENDROOT
TORSDOF 0
ENDMDL
