MODEL 1
REMARK minimizedAffinity -4.65643644
REMARK minimizedRMSD -1
REMARK  0 active torsions:
REMARK  status: ('A' for Active; 'I' for Inactive)
ROOT
ATOM      1  C4' PXY d   1      -1.780   3.595   1.453  0.00  0.00     0.077 C 
ATOM      2  C1' PXY d   1       0.854  -1.216  -0.372  0.00  0.00     0.077 C 
ATOM      3  C1  PXY d   1       0.166   0.052   0.095  0.00  0.00    -0.082 A 
ATOM      4  C2  PXY d   1       0.035   0.285   1.391  0.00  0.00     0.003 A 
ATOM      5  C3  PXY d   1      -0.613   1.411   1.831  0.00  0.00     0.003 A 
ATOM      6  C4  PXY d   1      -1.084   2.333   0.935  0.00  0.00    -0.082 A 
ATOM      7  C5  PXY d   1      -0.944   2.108  -0.388  0.00  0.00     0.003 A 
ATOM      8  C6  PXY d   1      -0.320   0.939  -0.815  0.00  0.00     0.003 A 
ENDROOT
TORSDOF 0
ENDMDL
