MODEL 1
REMARK minimizedAffinity -3.37909746
REMARK minimizedRMSD -1
REMARK  0 active torsions:
REMARK  status: ('A' for Active; 'I' for Inactive)
ROOT
ATOM      1  C   UNL d   1      -1.571  -1.270   1.542  0.00  0.00     0.124 A 
ATOM      2  C1  UNL d   1      -0.615  -1.789   0.680  0.00  0.00     0.062 A 
ATOM      3  C2  UNL d   1       0.078  -0.947  -0.185  0.00  0.00     0.162 A 
ATOM      4  C3  UNL d   1      -0.182   0.424  -0.191  0.00  0.00    -0.034 A 
ATOM      5  C4  UNL d   1      -1.146   0.938   0.677  0.00  0.00     0.162 A 
ATOM      6  C5  UNL d   1      -1.836   0.092   1.540  0.00  0.00     0.062 A 
ATOM      7  F   UNL d   1      -2.759   0.595   2.372  0.00  0.00    -0.097 F 
ATOM      8  F1  UNL d   1      -1.420   2.250   0.697  0.00  0.00    -0.096 F 
ATOM      9  I   UNL d   1       0.853   1.686  -1.483  0.00  0.00    -0.060 I 
ATOM     10  F2  UNL d   1       0.997  -1.476  -1.006  0.00  0.00    -0.096 F 
ATOM     11  F3  UNL d   1      -0.358  -3.105   0.680  0.00  0.00    -0.097 F 
ATOM     12  F4  UNL d   1      -2.237  -2.083   2.372  0.00  0.00    -0.092 F 
ENDROOT
TORSDOF 0
ENDMDL
