MODEL 1
REMARK minimizedAffinity -1.77642441
REMARK minimizedRMSD -1
REMARK  0 active torsions:
REMARK  status: ('A' for Active; 'I' for Inactive)
ROOT
ATOM      1  C   UNL d   1      -1.544  -1.087   1.806  0.00  0.00     0.124 A 
ATOM      2  C1  UNL d   1      -0.509  -1.572   1.019  0.00  0.00     0.062 A 
ATOM      3  C2  UNL d   1       0.200  -0.710   0.186  0.00  0.00     0.162 A 
ATOM      4  C3  UNL d   1      -0.124   0.646   0.137  0.00  0.00    -0.034 A 
ATOM      5  C4  UNL d   1      -1.166   1.126   0.932  0.00  0.00     0.162 A 
ATOM      6  C5  UNL d   1      -1.871   0.261   1.762  0.00  0.00     0.062 A 
ATOM      7  F   UNL d   1      -2.871   0.731   2.523  0.00  0.00    -0.097 F 
ATOM      8  F1  UNL d   1      -1.504   2.424   0.910  0.00  0.00    -0.096 F 
ATOM      9  I   UNL d   1       0.933   1.937  -1.107  0.00  0.00    -0.060 I 
ATOM     10  F2  UNL d   1       1.195  -1.206  -0.565  0.00  0.00    -0.096 F 
ATOM     11  F3  UNL d   1      -0.191  -2.874   1.059  0.00  0.00    -0.097 F 
ATOM     12  F4  UNL d   1      -2.224  -1.918   2.606  0.00  0.00    -0.092 F 
ENDROOT
TORSDOF 0
ENDMDL
