MODEL 1
REMARK minimizedAffinity 1.47962415
REMARK minimizedRMSD -1
REMARK  0 active torsions:
REMARK  status: ('A' for Active; 'I' for Inactive)
ROOT
ATOM      1  C   UNL d   1      -1.392  -1.263   1.470  0.00  0.00     0.124 A 
ATOM      2  C1  UNL d   1      -0.476  -1.795   0.574  0.00  0.00     0.062 A 
ATOM      3  C2  UNL d   1       0.255  -0.955  -0.262  0.00  0.00     0.162 A 
ATOM      4  C3  UNL d   1       0.073   0.426  -0.204  0.00  0.00    -0.034 A 
ATOM      5  C4  UNL d   1      -0.851   0.954   0.700  0.00  0.00     0.162 A 
ATOM      6  C5  UNL d   1      -1.579   0.110   1.533  0.00  0.00     0.062 A 
ATOM      7  F   UNL d   1      -2.464   0.626   2.398  0.00  0.00    -0.097 F 
ATOM      8  F1  UNL d   1      -1.051   2.278   0.781  0.00  0.00    -0.096 F 
ATOM      9  I   UNL d   1       1.164   1.686  -1.451  0.00  0.00    -0.060 I 
ATOM     10  F2  UNL d   1       1.134  -1.497  -1.118  0.00  0.00    -0.096 F 
ATOM     11  F3  UNL d   1      -0.294  -3.122   0.511  0.00  0.00    -0.097 F 
ATOM     12  F4  UNL d   1      -2.094  -2.074   2.272  0.00  0.00    -0.092 F 
ENDROOT
TORSDOF 0
ENDMDL
