MODEL 1
REMARK minimizedAffinity -0.963892758
REMARK minimizedRMSD -1
REMARK  0 active torsions:
REMARK  status: ('A' for Active; 'I' for Inactive)
ROOT
ATOM      1  C   UNL d   1       0.872   0.760   0.361  0.00  0.00     0.124 A 
ATOM      2  C1  UNL d   1       1.343  -0.542   0.465  0.00  0.00     0.062 A 
ATOM      3  C2  UNL d   1       0.471  -1.577   0.790  0.00  0.00     0.162 A 
ATOM      4  C3  UNL d   1      -0.881  -1.315   1.013  0.00  0.00    -0.034 A 
ATOM      5  C4  UNL d   1      -1.346  -0.003   0.907  0.00  0.00     0.162 A 
ATOM      6  C5  UNL d   1      -0.471   1.028   0.582  0.00  0.00     0.062 A 
ATOM      7  F   UNL d   1      -0.927   2.285   0.482  0.00  0.00    -0.097 F 
ATOM      8  F1  UNL d   1      -2.640   0.284   1.115  0.00  0.00    -0.096 F 
ATOM      9  I   UNL d   1      -2.187  -2.860   1.500  0.00  0.00    -0.060 I 
ATOM     10  F2  UNL d   1       0.953  -2.825   0.884  0.00  0.00    -0.096 F 
ATOM     11  F3  UNL d   1       2.641  -0.803   0.252  0.00  0.00    -0.097 F 
ATOM     12  F4  UNL d   1       1.714   1.755   0.048  0.00  0.00    -0.092 F 
ENDROOT
TORSDOF 0
ENDMDL
