MODEL 1
REMARK minimizedAffinity -0.0908860788
REMARK minimizedRMSD -1
REMARK  0 active torsions:
REMARK  status: ('A' for Active; 'I' for Inactive)
ROOT
ATOM      1  C   UNL d   1      -1.282  -1.255   1.749  0.00  0.00     0.124 A 
ATOM      2  C1  UNL d   1      -1.597   0.028   1.325  0.00  0.00     0.062 A 
ATOM      3  C2  UNL d   1      -0.801   0.667   0.378  0.00  0.00     0.162 A 
ATOM      4  C3  UNL d   1       0.317   0.023  -0.152  0.00  0.00    -0.034 A 
ATOM      5  C4  UNL d   1       0.628  -1.267   0.281  0.00  0.00     0.162 A 
ATOM      6  C5  UNL d   1      -0.170  -1.901   1.227  0.00  0.00     0.062 A 
ATOM      7  F   UNL d   1       0.136  -3.141   1.636  0.00  0.00    -0.097 F 
ATOM      8  F1  UNL d   1       1.696  -1.915  -0.208  0.00  0.00    -0.096 F 
ATOM      9  I   UNL d   1       1.509   0.975  -1.568  0.00  0.00    -0.060 I 
ATOM     10  F2  UNL d   1      -1.129   1.907  -0.014  0.00  0.00    -0.096 F 
ATOM     11  F3  UNL d   1      -2.669   0.655   1.829  0.00  0.00    -0.097 F 
ATOM     12  F4  UNL d   1      -2.048  -1.867   2.661  0.00  0.00    -0.092 F 
ENDROOT
TORSDOF 0
ENDMDL
