MODEL 1
REMARK minimizedAffinity -0.507676184
REMARK minimizedRMSD -1
REMARK  0 active torsions:
REMARK  status: ('A' for Active; 'I' for Inactive)
ROOT
ATOM      1  C   UNL d   1       1.163   1.802  -2.541  0.00  0.00     0.124 A 
ATOM      2  C1  UNL d   1       0.720   0.543  -2.921  0.00  0.00     0.062 A 
ATOM      3  C2  UNL d   1       0.459  -0.428  -1.958  0.00  0.00     0.162 A 
ATOM      4  C3  UNL d   1       0.640  -0.143  -0.605  0.00  0.00    -0.034 A 
ATOM      5  C4  UNL d   1       1.087   1.125  -0.230  0.00  0.00     0.162 A 
ATOM      6  C5  UNL d   1       1.346   2.092  -1.196  0.00  0.00     0.062 A 
ATOM      7  F   UNL d   1       1.775   3.308  -0.827  0.00  0.00    -0.097 F 
ATOM      8  F1  UNL d   1       1.271   1.433   1.062  0.00  0.00    -0.096 F 
ATOM      9  I   UNL d   1       0.251  -1.592   0.838  0.00  0.00    -0.060 I 
ATOM     10  F2  UNL d   1       0.032  -1.636  -2.355  0.00  0.00    -0.096 F 
ATOM     11  F3  UNL d   1       0.543   0.260  -4.220  0.00  0.00    -0.097 F 
ATOM     12  F4  UNL d   1       1.415   2.734  -3.470  0.00  0.00    -0.092 F 
ENDROOT
TORSDOF 0
ENDMDL
