MODEL 1
REMARK minimizedAffinity -2.22863841
REMARK minimizedRMSD -1
REMARK  0 active torsions:
REMARK  status: ('A' for Active; 'I' for Inactive)
ROOT
ATOM      1  C   UNL d   1      -1.603  -1.463   2.191  0.00  0.00     0.124 A 
ATOM      2  C1  UNL d   1      -2.045  -0.201   1.815  0.00  0.00     0.062 A 
ATOM      3  C2  UNL d   1      -1.450   0.458   0.743  0.00  0.00     0.162 A 
ATOM      4  C3  UNL d   1      -0.408  -0.144   0.037  0.00  0.00    -0.034 A 
ATOM      5  C4  UNL d   1       0.031  -1.412   0.422  0.00  0.00     0.162 A 
ATOM      6  C5  UNL d   1      -0.566  -2.067   1.494  0.00  0.00     0.062 A 
ATOM      7  F   UNL d   1      -0.139  -3.285   1.855  0.00  0.00    -0.097 F 
ATOM      8  F1  UNL d   1       1.031  -2.019  -0.235  0.00  0.00    -0.096 F 
ATOM      9  I   UNL d   1       0.483   0.839  -1.566  0.00  0.00    -0.060 I 
ATOM     10  F2  UNL d   1      -1.897   1.676   0.402  0.00  0.00    -0.096 F 
ATOM     11  F3  UNL d   1      -3.046   0.385   2.488  0.00  0.00    -0.097 F 
ATOM     12  F4  UNL d   1      -2.176  -2.094   3.223  0.00  0.00    -0.092 F 
ENDROOT
TORSDOF 0
ENDMDL
