MODEL 1
REMARK minimizedAffinity 0.755535901
REMARK minimizedRMSD -1
REMARK  0 active torsions:
REMARK  status: ('A' for Active; 'I' for Inactive)
ROOT
ATOM      1  C   UNL d   1      -0.969  -1.387   1.619  0.00  0.00     0.124 A 
ATOM      2  C1  UNL d   1       0.071  -1.902   0.859  0.00  0.00     0.062 A 
ATOM      3  C2  UNL d   1       0.755  -1.085  -0.036  0.00  0.00     0.162 A 
ATOM      4  C3  UNL d   1       0.402   0.257  -0.175  0.00  0.00    -0.034 A 
ATOM      5  C4  UNL d   1      -0.647   0.768   0.593  0.00  0.00     0.162 A 
ATOM      6  C5  UNL d   1      -1.327  -0.053   1.486  0.00  0.00     0.062 A 
ATOM      7  F   UNL d   1      -2.332   0.446   2.220  0.00  0.00    -0.097 F 
ATOM      8  F1  UNL d   1      -1.013   2.054   0.484  0.00  0.00    -0.096 F 
ATOM      9  I   UNL d   1       1.422   1.483  -1.512  0.00  0.00    -0.060 I 
ATOM     10  F2  UNL d   1       1.757  -1.609  -0.758  0.00  0.00    -0.096 F 
ATOM     11  F3  UNL d   1       0.418  -3.191   0.985  0.00  0.00    -0.097 F 
ATOM     12  F4  UNL d   1      -1.626  -2.177   2.479  0.00  0.00    -0.092 F 
ENDROOT
TORSDOF 0
ENDMDL
