MODEL 1
REMARK minimizedAffinity -2.03951645
REMARK minimizedRMSD -1
REMARK  0 active torsions:
REMARK  status: ('A' for Active; 'I' for Inactive)
ROOT
ATOM      1  C   UNL d   1      -0.625  -0.919   1.229  0.00  0.00     0.124 A 
ATOM      2  C1  UNL d   1      -0.925   0.431   1.106  0.00  0.00     0.062 A 
ATOM      3  C2  UNL d   1      -0.304   1.199   0.125  0.00  0.00     0.162 A 
ATOM      4  C3  UNL d   1       0.622   0.619  -0.742  0.00  0.00    -0.034 A 
ATOM      5  C4  UNL d   1       0.919  -0.739  -0.612  0.00  0.00     0.162 A 
ATOM      6  C5  UNL d   1       0.296  -1.502   0.370  0.00  0.00     0.062 A 
ATOM      7  F   UNL d   1       0.587  -2.806   0.488  0.00  0.00    -0.097 F 
ATOM      8  F1  UNL d   1       1.804  -1.328  -1.429  0.00  0.00    -0.096 F 
ATOM      9  I   UNL d   1       1.552   1.764  -2.210  0.00  0.00    -0.060 I 
ATOM     10  F2  UNL d   1      -0.613   2.501   0.029  0.00  0.00    -0.096 F 
ATOM     11  F3  UNL d   1      -1.814   0.997   1.934  0.00  0.00    -0.097 F 
ATOM     12  F4  UNL d   1      -1.223  -1.655   2.174  0.00  0.00    -0.092 F 
ENDROOT
TORSDOF 0
ENDMDL
