MODEL 1
REMARK minimizedAffinity -3.4308126
REMARK minimizedRMSD -1
REMARK  0 active torsions:
REMARK  status: ('A' for Active; 'I' for Inactive)
ROOT
ATOM      1  C   UNL d   1       0.472   1.111   0.401  0.00  0.00     0.124 A 
ATOM      2  C1  UNL d   1      -0.885   1.126   0.692  0.00  0.00     0.062 A 
ATOM      3  C2  UNL d   1      -1.591  -0.069   0.801  0.00  0.00     0.162 A 
ATOM      4  C3  UNL d   1      -0.940  -1.290   0.620  0.00  0.00    -0.034 A 
ATOM      5  C4  UNL d   1       0.425  -1.297   0.327  0.00  0.00     0.162 A 
ATOM      6  C5  UNL d   1       1.125  -0.100   0.219  0.00  0.00     0.062 A 
ATOM      7  F   UNL d   1       2.437  -0.116  -0.062  0.00  0.00    -0.097 F 
ATOM      8  F1  UNL d   1       1.081  -2.452   0.146  0.00  0.00    -0.096 F 
ATOM      9  I   UNL d   1      -1.992  -3.078   0.782  0.00  0.00    -0.060 I 
ATOM     10  F2  UNL d   1      -2.901  -0.025   1.083  0.00  0.00    -0.096 F 
ATOM     11  F3  UNL d   1      -1.519   2.294   0.868  0.00  0.00    -0.097 F 
ATOM     12  F4  UNL d   1       1.148   2.262   0.296  0.00  0.00    -0.092 F 
ENDROOT
TORSDOF 0
ENDMDL
