MODEL 1
REMARK minimizedAffinity -4.84687901
REMARK minimizedRMSD -1
REMARK  0 active torsions:
REMARK  status: ('A' for Active; 'I' for Inactive)
ROOT
ATOM      1  C   UNL d   1      -1.121  -1.126   1.739  0.00  0.00     0.124 A 
ATOM      2  C1  UNL d   1      -0.180  -1.704   0.898  0.00  0.00     0.062 A 
ATOM      3  C2  UNL d   1       0.476  -0.930  -0.055  0.00  0.00     0.162 A 
ATOM      4  C3  UNL d   1       0.193   0.431  -0.173  0.00  0.00    -0.034 A 
ATOM      5  C4  UNL d   1      -0.755   1.005   0.675  0.00  0.00     0.162 A 
ATOM      6  C5  UNL d   1      -1.408   0.227   1.627  0.00  0.00     0.062 A 
ATOM      7  F   UNL d   1      -2.317   0.788   2.438  0.00  0.00    -0.097 F 
ATOM      8  F1  UNL d   1      -1.051   2.310   0.589  0.00  0.00    -0.096 F 
ATOM      9  I   UNL d   1       1.172   1.590  -1.597  0.00  0.00    -0.060 I 
ATOM     10  F2  UNL d   1       1.381  -1.515  -0.854  0.00  0.00    -0.096 F 
ATOM     11  F3  UNL d   1       0.098  -3.011   1.004  0.00  0.00    -0.097 F 
ATOM     12  F4  UNL d   1      -1.751  -1.872   2.655  0.00  0.00    -0.092 F 
ENDROOT
TORSDOF 0
ENDMDL
