MODEL 1
REMARK minimizedAffinity -0.231390089
REMARK minimizedRMSD -1
REMARK  0 active torsions:
REMARK  status: ('A' for Active; 'I' for Inactive)
ROOT
ATOM      1  C   UNL d   1       0.304  -0.802   0.531  0.00  0.00     0.124 A 
ATOM      2  C1  UNL d   1       1.470  -0.106   0.245  0.00  0.00     0.062 A 
ATOM      3  C2  UNL d   1       1.483   0.851  -0.765  0.00  0.00     0.162 A 
ATOM      4  C3  UNL d   1       0.326   1.119  -1.497  0.00  0.00    -0.034 A 
ATOM      5  C4  UNL d   1      -0.842   0.414  -1.204  0.00  0.00     0.162 A 
ATOM      6  C5  UNL d   1      -0.851  -0.542  -0.194  0.00  0.00     0.062 A 
ATOM      7  F   UNL d   1      -1.978  -1.214   0.081  0.00  0.00    -0.097 F 
ATOM      8  F1  UNL d   1      -1.973   0.646  -1.888  0.00  0.00    -0.096 F 
ATOM      9  I   UNL d   1       0.342   2.549  -3.009  0.00  0.00    -0.060 I 
ATOM     10  F2  UNL d   1       2.624   1.509  -1.020  0.00  0.00    -0.096 F 
ATOM     11  F3  UNL d   1       2.587  -0.356   0.943  0.00  0.00    -0.097 F 
ATOM     12  F4  UNL d   1       0.294  -1.724   1.503  0.00  0.00    -0.092 F 
ENDROOT
TORSDOF 0
ENDMDL
