MODEL 1
REMARK minimizedAffinity -2.48564386
REMARK minimizedRMSD -1
REMARK  0 active torsions:
REMARK  status: ('A' for Active; 'I' for Inactive)
ROOT
ATOM      1  C   UNL d   1      -1.862  -0.785   1.187  0.00  0.00     0.124 A 
ATOM      2  C1  UNL d   1      -1.800   0.596   1.313  0.00  0.00     0.062 A 
ATOM      3  C2  UNL d   1      -0.928   1.333   0.517  0.00  0.00     0.162 A 
ATOM      4  C3  UNL d   1      -0.111   0.691  -0.413  0.00  0.00    -0.034 A 
ATOM      5  C4  UNL d   1      -0.178  -0.698  -0.534  0.00  0.00     0.162 A 
ATOM      6  C5  UNL d   1      -1.051  -1.431   0.264  0.00  0.00     0.062 A 
ATOM      7  F   UNL d   1      -1.109  -2.765   0.140  0.00  0.00    -0.097 F 
ATOM      8  F1  UNL d   1       0.594  -1.347  -1.418  0.00  0.00    -0.096 F 
ATOM      9  I   UNL d   1       1.194   1.790  -1.605  0.00  0.00    -0.060 I 
ATOM     10  F2  UNL d   1      -0.890   2.666   0.660  0.00  0.00    -0.096 F 
ATOM     11  F3  UNL d   1      -2.582   1.222   2.204  0.00  0.00    -0.097 F 
ATOM     12  F4  UNL d   1      -2.701  -1.492   1.954  0.00  0.00    -0.092 F 
ENDROOT
TORSDOF 0
ENDMDL
