MODEL 1
REMARK minimizedAffinity -5.78108406
REMARK minimizedRMSD -1
REMARK  0 active torsions:
REMARK  status: ('A' for Active; 'I' for Inactive)
ROOT
ATOM      1  C   UNL d   1      -1.676  -1.218   0.378  0.00  0.00     0.124 A 
ATOM      2  C1  UNL d   1      -1.437   0.100   0.744  0.00  0.00     0.062 A 
ATOM      3  C2  UNL d   1      -0.477   0.849   0.071  0.00  0.00     0.162 A 
ATOM      4  C3  UNL d   1       0.253   0.284  -0.974  0.00  0.00    -0.034 A 
ATOM      5  C4  UNL d   1       0.008  -1.042  -1.336  0.00  0.00     0.162 A 
ATOM      6  C5  UNL d   1      -0.954  -1.787  -0.661  0.00  0.00     0.062 A 
ATOM      7  F   UNL d   1      -1.183  -3.060  -1.015  0.00  0.00    -0.097 F 
ATOM      8  F1  UNL d   1       0.691  -1.617  -2.337  0.00  0.00    -0.096 F 
ATOM      9  I   UNL d   1       1.690   1.402  -1.982  0.00  0.00    -0.060 I 
ATOM     10  F2  UNL d   1      -0.267   2.120   0.446  0.00  0.00    -0.096 F 
ATOM     11  F3  UNL d   1      -2.134   0.652   1.748  0.00  0.00    -0.097 F 
ATOM     12  F4  UNL d   1      -2.600  -1.938   1.027  0.00  0.00    -0.092 F 
ENDROOT
TORSDOF 0
ENDMDL
