MODEL 1
REMARK minimizedAffinity 5.95106888
REMARK minimizedRMSD -1
REMARK  1 active torsions:
REMARK  status: ('A' for Active; 'I' for Inactive)
REMARK    1  A    between atoms: C1_2  and  C2_3 
ROOT
ATOM      1  C2  UNL d   1      -3.425  -0.385  -5.181  0.00  0.00    -0.073 A 
ATOM      2  C3  UNL d   1      -4.783  -0.461  -5.508  0.00  0.00    -0.002 A 
ATOM      3  C4  UNL d   1      -5.650   0.577  -5.165  0.00  0.00     0.004 A 
ATOM      4  C5  UNL d   1      -5.167   1.703  -4.498  0.00  0.00    -0.004 A 
ATOM      5  C6  UNL d   1      -3.811   1.803  -4.173  0.00  0.00    -0.075 A 
ATOM      6  C7  UNL d   1      -3.276   3.007  -3.454  0.00  0.00     0.076 C 
ATOM      7  C8  UNL d   1      -2.947   0.755  -4.519  0.00  0.00     0.001 A 
ENDROOT
BRANCH   1   8
ATOM      8  C1  UNL d   1      -2.484  -1.501  -5.555  0.00  0.00     0.053 C 
ATOM      9  C   UNL d   1      -1.569  -1.886  -4.403  0.00  0.00     0.018 C 
ENDBRANCH   1   8
TORSDOF 1
ENDMDL
