MODEL 1
REMARK minimizedAffinity 4.37283754
REMARK minimizedRMSD -1
REMARK  1 active torsions:
REMARK  status: ('A' for Active; 'I' for Inactive)
REMARK    1  A    between atoms: C1_2  and  C2_3 
ROOT
ATOM      1  C2  UNL d   1       4.398  -2.886   0.702  0.00  0.00    -0.073 A 
ATOM      2  C3  UNL d   1       3.228  -3.573   1.043  0.00  0.00    -0.002 A 
ATOM      3  C4  UNL d   1       1.992  -2.928   0.993  0.00  0.00     0.004 A 
ATOM      4  C5  UNL d   1       1.912  -1.593   0.595  0.00  0.00    -0.004 A 
ATOM      5  C6  UNL d   1       3.069  -0.893   0.239  0.00  0.00    -0.075 A 
ATOM      6  C7  UNL d   1       3.000   0.543  -0.190  0.00  0.00     0.076 C 
ATOM      7  C8  UNL d   1       4.307  -1.547   0.294  0.00  0.00     0.001 A 
ENDROOT
BRANCH   1   8
ATOM      8  C1  UNL d   1       5.735  -3.580   0.749  0.00  0.00     0.053 C 
ATOM      9  C   UNL d   1       5.628  -5.049   0.370  0.00  0.00     0.018 C 
ENDBRANCH   1   8
TORSDOF 1
ENDMDL
