MODEL 1
REMARK minimizedAffinity 1.72159016
REMARK minimizedRMSD -1
REMARK  1 active torsions:
REMARK  status: ('A' for Active; 'I' for Inactive)
REMARK    1  A    between atoms: C1_2  and  C2_3 
ROOT
ATOM      1  C2  UNL d   1      -3.693  -0.658  -3.723  0.00  0.00    -0.073 A 
ATOM      2  C3  UNL d   1      -4.954  -0.754  -4.322  0.00  0.00    -0.002 A 
ATOM      3  C4  UNL d   1      -5.257   0.006  -5.453  0.00  0.00     0.004 A 
ATOM      4  C5  UNL d   1      -4.301   0.862  -6.000  0.00  0.00    -0.004 A 
ATOM      5  C6  UNL d   1      -3.031   0.962  -5.423  0.00  0.00    -0.075 A 
ATOM      6  C7  UNL d   1      -1.992   1.879  -5.998  0.00  0.00     0.076 C 
ATOM      7  C8  UNL d   1      -2.736   0.198  -4.286  0.00  0.00     0.001 A 
ENDROOT
BRANCH   1   8
ATOM      8  C1  UNL d   1      -3.360  -1.481  -2.505  0.00  0.00     0.053 C 
ATOM      9  C   UNL d   1      -2.411  -0.753  -1.567  0.00  0.00     0.018 C 
ENDBRANCH   1   8
TORSDOF 1
ENDMDL
