MODEL 1
REMARK minimizedAffinity -1.10038352
REMARK minimizedRMSD -1
REMARK  1 active torsions:
REMARK  status: ('A' for Active; 'I' for Inactive)
REMARK    1  A    between atoms: C1_2  and  C2_3 
ROOT
ATOM      1  C2  UNL d   1      -3.691   2.479  -4.281  0.00  0.00    -0.073 A 
ATOM      2  C3  UNL d   1      -3.421   2.152  -5.615  0.00  0.00    -0.002 A 
ATOM      3  C4  UNL d   1      -3.284   0.817  -5.999  0.00  0.00     0.004 A 
ATOM      4  C5  UNL d   1      -3.424  -0.202  -5.058  0.00  0.00    -0.004 A 
ATOM      5  C6  UNL d   1      -3.706   0.104  -3.723  0.00  0.00    -0.075 A 
ATOM      6  C7  UNL d   1      -3.857  -0.981  -2.697  0.00  0.00     0.076 C 
ATOM      7  C8  UNL d   1      -3.839   1.446  -3.344  0.00  0.00     0.001 A 
ENDROOT
BRANCH   1   8
ATOM      8  C1  UNL d   1      -3.846   3.918  -3.862  0.00  0.00     0.053 C 
ATOM      9  C   UNL d   1      -4.913   4.636  -4.672  0.00  0.00     0.018 C 
ENDBRANCH   1   8
TORSDOF 1
ENDMDL
