MODEL 1
REMARK minimizedAffinity -3.67006993
REMARK minimizedRMSD -1
REMARK  1 active torsions:
REMARK  status: ('A' for Active; 'I' for Inactive)
REMARK    1  A    between atoms: C1_2  and  C2_3 
ROOT
ATOM      1  C2  UNL d   1       3.878  -3.069   2.687  0.00  0.00    -0.073 A 
ATOM      2  C3  UNL d   1       4.043  -2.964   1.302  0.00  0.00    -0.002 A 
ATOM      3  C4  UNL d   1       3.093  -2.297   0.527  0.00  0.00     0.004 A 
ATOM      4  C5  UNL d   1       1.974  -1.723   1.130  0.00  0.00    -0.004 A 
ATOM      5  C6  UNL d   1       1.797  -1.808   2.515  0.00  0.00    -0.075 A 
ATOM      6  C7  UNL d   1       0.597  -1.198   3.178  0.00  0.00     0.076 C 
ATOM      7  C8  UNL d   1       2.754  -2.482   3.285  0.00  0.00     0.001 A 
ENDROOT
BRANCH   1   8
ATOM      8  C1  UNL d   1       4.905  -3.783   3.528  0.00  0.00     0.053 C 
ATOM      9  C   UNL d   1       4.773  -3.438   5.003  0.00  0.00     0.018 C 
ENDBRANCH   1   8
TORSDOF 1
ENDMDL
