MODEL 1
REMARK minimizedAffinity -0.376207888
REMARK minimizedRMSD -1
REMARK  1 active torsions:
REMARK  status: ('A' for Active; 'I' for Inactive)
REMARK    1  A    between atoms: C1_2  and  C2_3 
ROOT
ATOM      1  C2  UNL d   1       4.668  -2.415   0.664  0.00  0.00    -0.073 A 
ATOM      2  C3  UNL d   1       3.492  -3.173   0.680  0.00  0.00    -0.002 A 
ATOM      3  C4  UNL d   1       2.268  -2.580   0.366  0.00  0.00     0.004 A 
ATOM      4  C5  UNL d   1       2.208  -1.229   0.028  0.00  0.00    -0.004 A 
ATOM      5  C6  UNL d   1       3.375  -0.458  -0.005  0.00  0.00    -0.075 A 
ATOM      6  C7  UNL d   1       3.328   0.998  -0.364  0.00  0.00     0.076 C 
ATOM      7  C8  UNL d   1       4.600  -1.059   0.314  0.00  0.00     0.001 A 
ENDROOT
BRANCH   1   8
ATOM      8  C1  UNL d   1       5.993  -3.052   0.996  0.00  0.00     0.053 C 
ATOM      9  C   UNL d   1       5.934  -4.569   0.910  0.00  0.00     0.018 C 
ENDBRANCH   1   8
TORSDOF 1
ENDMDL
