MODEL 1
REMARK minimizedAffinity 1.60540879
REMARK minimizedRMSD -1
REMARK  1 active torsions:
REMARK  status: ('A' for Active; 'I' for Inactive)
REMARK    1  A    between atoms: C1_2  and  C2_3 
ROOT
ATOM      1  C2  UNL d   1      -4.038   0.972  -3.715  0.00  0.00    -0.073 A 
ATOM      2  C3  UNL d   1      -4.723  -0.065  -4.358  0.00  0.00    -0.002 A 
ATOM      3  C4  UNL d   1      -4.757  -1.342  -3.797  0.00  0.00     0.004 A 
ATOM      4  C5  UNL d   1      -4.114  -1.593  -2.585  0.00  0.00    -0.004 A 
ATOM      5  C6  UNL d   1      -3.434  -0.566  -1.921  0.00  0.00    -0.075 A 
ATOM      6  C7  UNL d   1      -2.735  -0.821  -0.618  0.00  0.00     0.076 C 
ATOM      7  C8  UNL d   1      -3.402   0.713  -2.493  0.00  0.00     0.001 A 
ENDROOT
BRANCH   1   8
ATOM      8  C1  UNL d   1      -4.004   2.355  -4.315  0.00  0.00     0.053 C 
ATOM      9  C   UNL d   1      -3.136   3.305  -3.506  0.00  0.00     0.018 C 
ENDBRANCH   1   8
TORSDOF 1
ENDMDL
