MODEL 1
REMARK minimizedAffinity 0.566650033
REMARK minimizedRMSD -1
REMARK  1 active torsions:
REMARK  status: ('A' for Active; 'I' for Inactive)
REMARK    1  A    between atoms: C1_2  and  C2_3 
ROOT
ATOM      1  C2  UNL d   1      -3.763   1.140  -4.949  0.00  0.00    -0.073 A 
ATOM      2  C3  UNL d   1      -2.937   0.618  -5.950  0.00  0.00    -0.002 A 
ATOM      3  C4  UNL d   1      -2.335  -0.631  -5.787  0.00  0.00     0.004 A 
ATOM      4  C5  UNL d   1      -2.560  -1.372  -4.627  0.00  0.00    -0.004 A 
ATOM      5  C6  UNL d   1      -3.392  -0.873  -3.621  0.00  0.00    -0.075 A 
ATOM      6  C7  UNL d   1      -3.642  -1.657  -2.366  0.00  0.00     0.076 C 
ATOM      7  C8  UNL d   1      -3.990   0.383  -3.790  0.00  0.00     0.001 A 
ENDROOT
BRANCH   1   8
ATOM      8  C1  UNL d   1      -4.420   2.485  -5.122  0.00  0.00     0.053 C 
ATOM      9  C   UNL d   1      -3.787   3.547  -4.237  0.00  0.00     0.018 C 
ENDBRANCH   1   8
TORSDOF 1
ENDMDL
