MODEL 1
REMARK minimizedAffinity 6.14093113
REMARK minimizedRMSD -1
REMARK  1 active torsions:
REMARK  status: ('A' for Active; 'I' for Inactive)
REMARK    1  A    between atoms: C1_2  and  C2_3 
ROOT
ATOM      1  C2  UNL d   1      -3.284   0.512  -5.246  0.00  0.00    -0.073 A 
ATOM      2  C3  UNL d   1      -4.221   0.499  -4.207  0.00  0.00    -0.002 A 
ATOM      3  C4  UNL d   1      -4.491  -0.684  -3.517  0.00  0.00     0.004 A 
ATOM      4  C5  UNL d   1      -3.823  -1.861  -3.853  0.00  0.00    -0.004 A 
ATOM      5  C6  UNL d   1      -2.874  -1.865  -4.880  0.00  0.00    -0.075 A 
ATOM      6  C7  UNL d   1      -2.148  -3.123  -5.255  0.00  0.00     0.076 C 
ATOM      7  C8  UNL d   1      -2.611  -0.674  -5.571  0.00  0.00     0.001 A 
ENDROOT
BRANCH   1   8
ATOM      8  C1  UNL d   1      -2.984   1.788  -5.990  0.00  0.00     0.053 C 
ATOM      9  C   UNL d   1      -1.498   2.110  -5.994  0.00  0.00     0.018 C 
ENDBRANCH   1   8
TORSDOF 1
ENDMDL
