MODEL 1
REMARK minimizedAffinity -1.76365328
REMARK minimizedRMSD -1
REMARK  1 active torsions:
REMARK  status: ('A' for Active; 'I' for Inactive)
REMARK    1  A    between atoms: C1_2  and  C2_3 
ROOT
ATOM      1  C2  UNL d   1      -3.521  -0.746  -3.504  0.00  0.00    -0.073 A 
ATOM      2  C3  UNL d   1      -2.512  -0.746  -4.474  0.00  0.00    -0.002 A 
ATOM      3  C4  UNL d   1      -2.637   0.040  -5.620  0.00  0.00     0.004 A 
ATOM      4  C5  UNL d   1      -3.765   0.838  -5.805  0.00  0.00    -0.004 A 
ATOM      5  C6  UNL d   1      -4.779   0.861  -4.841  0.00  0.00    -0.075 A 
ATOM      6  C7  UNL d   1      -6.000   1.713  -5.026  0.00  0.00     0.076 C 
ATOM      7  C8  UNL d   1      -4.648   0.067  -3.694  0.00  0.00     0.001 A 
ENDROOT
BRANCH   1   8
ATOM      8  C1  UNL d   1      -3.388  -1.588  -2.261  0.00  0.00     0.053 C 
ATOM      9  C   UNL d   1      -2.995  -0.758  -1.049  0.00  0.00     0.018 C 
ENDBRANCH   1   8
TORSDOF 1
ENDMDL
