MODEL 1
REMARK minimizedAffinity 5.59091759
REMARK minimizedRMSD -1
REMARK  1 active torsions:
REMARK  status: ('A' for Active; 'I' for Inactive)
REMARK    1  A    between atoms: C1_2  and  C2_3 
ROOT
ATOM      1  C2  UNL d   1      -3.721   0.024  -4.982  0.00  0.00    -0.073 A 
ATOM      2  C3  UNL d   1      -2.769  -0.807  -5.583  0.00  0.00    -0.002 A 
ATOM      3  C4  UNL d   1      -1.857  -1.515  -4.799  0.00  0.00     0.004 A 
ATOM      4  C5  UNL d   1      -1.891  -1.405  -3.409  0.00  0.00    -0.004 A 
ATOM      5  C6  UNL d   1      -2.843  -0.589  -2.790  0.00  0.00    -0.075 A 
ATOM      6  C7  UNL d   1      -2.892  -0.458  -1.296  0.00  0.00     0.076 C 
ATOM      7  C8  UNL d   1      -3.754   0.121  -3.584  0.00  0.00     0.001 A 
ENDROOT
BRANCH   1   8
ATOM      8  C1  UNL d   1      -4.712   0.786  -5.824  0.00  0.00     0.053 C 
ATOM      9  C   UNL d   1      -5.967   1.142  -5.044  0.00  0.00     0.018 C 
ENDBRANCH   1   8
TORSDOF 1
ENDMDL
