MODEL 1
REMARK minimizedAffinity -1.95086884
REMARK minimizedRMSD -1
REMARK  0 active torsions:
REMARK  status: ('A' for Active; 'I' for Inactive)
ROOT
ATOM      1  C4' PXY d   1      -1.151   0.643  -2.193  0.00  0.00     0.077 C 
ATOM      2  C1' PXY d   1       0.542  -1.308   2.978  0.00  0.00     0.077 C 
ATOM      3  C1  PXY d   1       0.110  -0.793   1.619  0.00  0.00    -0.082 A 
ATOM      4  C2  PXY d   1      -1.144  -0.415   1.431  0.00  0.00     0.003 A 
ATOM      5  C3  PXY d   1      -1.559   0.023   0.200  0.00  0.00     0.003 A 
ATOM      6  C4  PXY d   1      -0.669   0.125  -0.835  0.00  0.00    -0.082 A 
ATOM      7  C5  PXY d   1       0.615  -0.249  -0.649  0.00  0.00     0.003 A 
ATOM      8  C6  PXY d   1       1.007  -0.730   0.597  0.00  0.00     0.003 A 
ENDROOT
TORSDOF 0
ENDMDL
