MODEL 1
REMARK minimizedAffinity -2.30584526
REMARK minimizedRMSD -1
REMARK  0 active torsions:
REMARK  status: ('A' for Active; 'I' for Inactive)
ROOT
ATOM      1  C4' PXY d   1      -1.234   1.140  -2.603  0.00  0.00     0.077 C 
ATOM      2  C1' PXY d   1       0.437  -1.150   2.434  0.00  0.00     0.077 C 
ATOM      3  C1  PXY d   1       0.011  -0.550   1.109  0.00  0.00    -0.082 A 
ATOM      4  C2  PXY d   1      -1.096   0.173   1.044  0.00  0.00     0.003 A 
ATOM      5  C3  PXY d   1      -1.512   0.696  -0.153  0.00  0.00     0.003 A 
ATOM      6  C4  PXY d   1      -0.761   0.523  -1.285  0.00  0.00    -0.082 A 
ATOM      7  C5  PXY d   1       0.375  -0.204  -1.224  0.00  0.00     0.003 A 
ATOM      8  C6  PXY d   1       0.759  -0.762  -0.008  0.00  0.00     0.003 A 
ENDROOT
TORSDOF 0
ENDMDL
