MODEL 1
REMARK minimizedAffinity -2.9655807
REMARK minimizedRMSD -1
REMARK  0 active torsions:
REMARK  status: ('A' for Active; 'I' for Inactive)
ROOT
ATOM      1  C4' PXY d   1      -0.683   0.497  -1.796  0.00  0.00     0.077 C 
ATOM      2  C1' PXY d   1       1.134  -0.731   3.553  0.00  0.00     0.077 C 
ATOM      3  C1  PXY d   1       0.645  -0.413   2.153  0.00  0.00    -0.082 A 
ATOM      4  C2  PXY d   1       1.510  -0.369   1.153  0.00  0.00     0.003 A 
ATOM      5  C3  PXY d   1       1.090  -0.051  -0.113  0.00  0.00     0.003 A 
ATOM      6  C4  PXY d   1      -0.237   0.171  -0.368  0.00  0.00    -0.082 A 
ATOM      7  C5  PXY d   1      -1.127   0.116   0.645  0.00  0.00     0.003 A 
ATOM      8  C6  PXY d   1      -0.674  -0.167   1.931  0.00  0.00     0.003 A 
ENDROOT
TORSDOF 0
ENDMDL
