MODEL 1
REMARK minimizedAffinity -4.32937241
REMARK minimizedRMSD -1
REMARK  0 active torsions:
REMARK  status: ('A' for Active; 'I' for Inactive)
ROOT
ATOM      1  C4' PXY d   1      -0.932   0.520  -1.590  0.00  0.00     0.077 C 
ATOM      2  C1' PXY d   1       1.736  -0.950   3.323  0.00  0.00     0.077 C 
ATOM      3  C1  PXY d   1       1.025  -0.568   2.040  0.00  0.00    -0.082 A 
ATOM      4  C2  PXY d   1       1.697  -0.550   0.900  0.00  0.00     0.003 A 
ATOM      5  C3  PXY d   1       1.077  -0.176  -0.265  0.00  0.00     0.003 A 
ATOM      6  C4  PXY d   1      -0.257   0.131  -0.272  0.00  0.00    -0.082 A 
ATOM      7  C5  PXY d   1      -0.952   0.105   0.885  0.00  0.00     0.003 A 
ATOM      8  C6  PXY d   1      -0.295  -0.238   2.063  0.00  0.00     0.003 A 
ENDROOT
TORSDOF 0
ENDMDL
