MODEL 1
REMARK minimizedAffinity -4.88914824
REMARK minimizedRMSD -1
REMARK  0 active torsions:
REMARK  status: ('A' for Active; 'I' for Inactive)
ROOT
ATOM      1  C4' PXY d   1       1.043  -0.439   3.388  0.00  0.00     0.077 C 
ATOM      2  C1' PXY d   1      -0.079   0.064  -2.260  0.00  0.00     0.077 C 
ATOM      3  C1  PXY d   1       0.205  -0.061  -0.776  0.00  0.00    -0.082 A 
ATOM      4  C2  PXY d   1       1.432  -0.337  -0.366  0.00  0.00     0.003 A 
ATOM      5  C3  PXY d   1       1.700  -0.484   0.971  0.00  0.00     0.003 A 
ATOM      6  C4  PXY d   1       0.712  -0.295   1.900  0.00  0.00    -0.082 A 
ATOM      7  C5  PXY d   1      -0.540  -0.003   1.490  0.00  0.00     0.003 A 
ATOM      8  C6  PXY d   1      -0.800   0.102   0.127  0.00  0.00     0.003 A 
ENDROOT
TORSDOF 0
ENDMDL
