MODEL 1
REMARK minimizedAffinity -3.12220669
REMARK minimizedRMSD -1
REMARK  0 active torsions:
REMARK  status: ('A' for Active; 'I' for Inactive)
ROOT
ATOM      1  C4' PXY d   1      -0.850   0.960  -2.319  0.00  0.00     0.077 C 
ATOM      2  C1' PXY d   1       1.225  -0.759   2.795  0.00  0.00     0.077 C 
ATOM      3  C1  PXY d   1       0.693  -0.305   1.450  0.00  0.00    -0.082 A 
ATOM      4  C2  PXY d   1      -0.575   0.057   1.336  0.00  0.00     0.003 A 
ATOM      5  C3  PXY d   1      -1.081   0.440   0.121  0.00  0.00     0.003 A 
ATOM      6  C4  PXY d   1      -0.267   0.504  -0.979  0.00  0.00    -0.082 A 
ATOM      7  C5  PXY d   1       1.030   0.147  -0.869  0.00  0.00     0.003 A 
ATOM      8  C6  PXY d   1       1.514  -0.278   0.365  0.00  0.00     0.003 A 
ENDROOT
TORSDOF 0
ENDMDL
