MODEL 1
REMARK minimizedAffinity -5.28608227
REMARK minimizedRMSD -1
REMARK  0 active torsions:
REMARK  status: ('A' for Active; 'I' for Inactive)
ROOT
ATOM      1  C4' PXY d   1       1.274  -0.911   3.163  0.00  0.00     0.077 C 
ATOM      2  C1' PXY d   1      -0.834   0.946  -1.889  0.00  0.00     0.077 C 
ATOM      3  C1  PXY d   1      -0.291   0.465  -0.558  0.00  0.00    -0.082 A 
ATOM      4  C2  PXY d   1       0.987   0.139  -0.452  0.00  0.00     0.003 A 
ATOM      5  C3  PXY d   1       1.488  -0.328   0.736  0.00  0.00     0.003 A 
ATOM      6  C4  PXY d   1       0.684  -0.412   1.841  0.00  0.00    -0.082 A 
ATOM      7  C5  PXY d   1      -0.618  -0.071   1.744  0.00  0.00     0.003 A 
ATOM      8  C6  PXY d   1      -1.117   0.362   0.519  0.00  0.00     0.003 A 
ENDROOT
TORSDOF 0
ENDMDL
