MODEL 1
REMARK minimizedAffinity -0.690954566
REMARK minimizedRMSD -1
REMARK  0 active torsions:
REMARK  status: ('A' for Active; 'I' for Inactive)
ROOT
ATOM      1  C4' PXY d   1      -2.652  -0.277   1.900  0.00  0.00     0.077 C 
ATOM      2  C1' PXY d   1       2.925  -0.270   0.381  0.00  0.00     0.077 C 
ATOM      3  C1  PXY d   1       1.465  -0.281   0.788  0.00  0.00    -0.082 A 
ATOM      4  C2  PXY d   1       0.546   0.151  -0.060  0.00  0.00     0.003 A 
ATOM      5  C3  PXY d   1      -0.776   0.178   0.303  0.00  0.00     0.003 A 
ATOM      6  C4  PXY d   1      -1.167  -0.292   1.528  0.00  0.00    -0.082 A 
ATOM      7  C5  PXY d   1      -0.236  -0.745   2.395  0.00  0.00     0.003 A 
ATOM      8  C6  PXY d   1       1.105  -0.725   2.022  0.00  0.00     0.003 A 
ENDROOT
TORSDOF 0
ENDMDL
