MODEL 1
REMARK minimizedAffinity -4.37176704
REMARK minimizedRMSD -1
REMARK  0 active torsions:
REMARK  status: ('A' for Active; 'I' for Inactive)
ROOT
ATOM      1  C   UNL d   1      -0.268  -1.644   0.675  0.00  0.00     0.020 A 
ATOM      2  C1  UNL d   1      -0.934  -0.419   0.666  0.00  0.00     0.020 A 
ATOM      3  C2  UNL d   1      -0.212   0.767   0.520  0.00  0.00     0.034 A 
ATOM      4  C3  UNL d   1       1.180   0.732   0.383  0.00  0.00     0.017 A 
ATOM      5  C4  UNL d   1       1.848  -0.498   0.392  0.00  0.00     0.017 A 
ATOM      6  C5  UNL d   1       1.121  -1.683   0.538  0.00  0.00     0.034 A 
ATOM      7 Cl   UNL d   1       3.564  -0.622   0.228  0.00  0.00    -0.070 Cl
ATOM      8 Cl1  UNL d   1       2.009   2.238   0.206  0.00  0.00    -0.070 Cl
ENDROOT
TORSDOF 0
ENDMDL
