MODEL 1
REMARK minimizedAffinity -3.20516181
REMARK minimizedRMSD -1
REMARK  0 active torsions:
REMARK  status: ('A' for Active; 'I' for Inactive)
ROOT
ATOM      1  C   UNL d   1       0.354   1.613  -0.267  0.00  0.00     0.020 A 
ATOM      2  C1  UNL d   1      -0.725   0.734  -0.187  0.00  0.00     0.020 A 
ATOM      3  C2  UNL d   1      -0.528  -0.572   0.268  0.00  0.00     0.034 A 
ATOM      4  C3  UNL d   1       0.750  -1.002   0.643  0.00  0.00     0.017 A 
ATOM      5  C4  UNL d   1       1.832  -0.118   0.562  0.00  0.00     0.017 A 
ATOM      6  C5  UNL d   1       1.629   1.188   0.106  0.00  0.00     0.034 A 
ATOM      7 Cl   UNL d   1       3.438  -0.576   1.007  0.00  0.00    -0.070 Cl
ATOM      8 Cl1  UNL d   1       0.920  -2.630   1.196  0.00  0.00    -0.070 Cl
ENDROOT
TORSDOF 0
ENDMDL
