MODEL 1
REMARK minimizedAffinity -5.28277063
REMARK minimizedRMSD -1
REMARK  0 active torsions:
REMARK  status: ('A' for Active; 'I' for Inactive)
ROOT
ATOM      1  C   UNL d   1       2.769  -0.803   0.899  0.00  0.00     0.020 A 
ATOM      2  C1  UNL d   1       1.738  -1.737   0.801  0.00  0.00     0.020 A 
ATOM      3  C2  UNL d   1       0.469  -1.334   0.382  0.00  0.00     0.034 A 
ATOM      4  C3  UNL d   1       0.226   0.006   0.059  0.00  0.00     0.017 A 
ATOM      5  C4  UNL d   1       1.261   0.943   0.157  0.00  0.00     0.017 A 
ATOM      6  C5  UNL d   1       2.531   0.534   0.578  0.00  0.00     0.034 A 
ATOM      7 Cl   UNL d   1       1.038   2.614  -0.224  0.00  0.00    -0.070 Cl
ATOM      8 Cl1  UNL d   1      -1.368   0.433  -0.453  0.00  0.00    -0.070 Cl
ENDROOT
TORSDOF 0
ENDMDL
