MODEL 1
REMARK minimizedAffinity -5.77323866
REMARK minimizedRMSD -1
REMARK  0 active torsions:
REMARK  status: ('A' for Active; 'I' for Inactive)
ROOT
ATOM      1  C   UNL d   1       3.290  -0.025   1.235  0.00  0.00     0.020 A 
ATOM      2  C1  UNL d   1       2.623   1.038   0.627  0.00  0.00     0.020 A 
ATOM      3  C2  UNL d   1       1.287   0.898   0.246  0.00  0.00     0.034 A 
ATOM      4  C3  UNL d   1       0.614  -0.309   0.472  0.00  0.00     0.017 A 
ATOM      5  C4  UNL d   1       1.284  -1.375   1.082  0.00  0.00     0.017 A 
ATOM      6  C5  UNL d   1       2.622  -1.229   1.462  0.00  0.00     0.034 A 
ATOM      7 Cl   UNL d   1       0.520  -2.894   1.393  0.00  0.00    -0.070 Cl
ATOM      8 Cl1  UNL d   1      -1.038  -0.412  -0.026  0.00  0.00    -0.070 Cl
ENDROOT
TORSDOF 0
ENDMDL
