MODEL 1
REMARK minimizedAffinity -2.54652238
REMARK minimizedRMSD -1
REMARK  0 active torsions:
REMARK  status: ('A' for Active; 'I' for Inactive)
ROOT
ATOM      1  C   UNL d   1       2.252  -1.355   1.074  0.00  0.00     0.020 A 
ATOM      2  C1  UNL d   1       2.941  -0.154   1.236  0.00  0.00     0.020 A 
ATOM      3  C2  UNL d   1       2.386   1.038   0.768  0.00  0.00     0.034 A 
ATOM      4  C3  UNL d   1       1.137   1.033   0.136  0.00  0.00     0.017 A 
ATOM      5  C4  UNL d   1       0.446  -0.173  -0.027  0.00  0.00     0.017 A 
ATOM      6  C5  UNL d   1       1.007  -1.365   0.443  0.00  0.00     0.034 A 
ATOM      7 Cl   UNL d   1      -1.099  -0.260  -0.797  0.00  0.00    -0.070 Cl
ATOM      8 Cl1  UNL d   1       0.510   2.545  -0.417  0.00  0.00    -0.070 Cl
ENDROOT
TORSDOF 0
ENDMDL
