MODEL 1
REMARK minimizedAffinity -3.85802174
REMARK minimizedRMSD -1
REMARK  1 active torsions:
REMARK  status: ('A' for Active; 'I' for Inactive)
REMARK    1  A    between atoms: C1_2  and  C2_3 
ROOT
ATOM      1  C2  UNL d   1       0.488  -0.771  -0.186  0.00  0.00    -0.076 A 
ATOM      2  C3  UNL d   1       0.711   0.580  -0.504  0.00  0.00     0.004 A 
ATOM      3  C4  UNL d   1       1.497   0.940  -1.597  0.00  0.00    -0.003 A 
ATOM      4  C5  UNL d   1       2.074  -0.046  -2.390  0.00  0.00     0.000 A 
ATOM      5  C6  UNL d   1       1.849  -1.391  -2.100  0.00  0.00     0.000 A 
ATOM      6  C7  UNL d   1       1.045  -1.771  -1.012  0.00  0.00    -0.073 A 
ATOM      7  C8  UNL d   1       0.841  -3.236  -0.741  0.00  0.00     0.078 C 
ENDROOT
BRANCH   1   8
ATOM      8  C1  UNL d   1      -0.351  -1.101   1.028  0.00  0.00     0.053 C 
ATOM      9  C   UNL d   1      -1.372  -0.018   1.342  0.00  0.00     0.018 C 
ENDBRANCH   1   8
TORSDOF 1
ENDMDL
