MODEL 1
REMARK minimizedAffinity -3.44110084
REMARK minimizedRMSD -1
REMARK  1 active torsions:
REMARK  status: ('A' for Active; 'I' for Inactive)
REMARK    1  A    between atoms: C1_2  and  C2_3 
ROOT
ATOM      1  C2  UNL d   1      -0.161   0.013   0.087  0.00  0.00    -0.076 A 
ATOM      2  C3  UNL d   1       0.148   1.379  -0.034  0.00  0.00     0.004 A 
ATOM      3  C4  UNL d   1       0.844   1.861  -1.140  0.00  0.00    -0.003 A 
ATOM      4  C5  UNL d   1       1.242   0.986  -2.145  0.00  0.00     0.000 A 
ATOM      5  C6  UNL d   1       0.929  -0.370  -2.050  0.00  0.00     0.000 A 
ATOM      6  C7  UNL d   1       0.213  -0.870  -0.948  0.00  0.00    -0.073 A 
ATOM      7  C8  UNL d   1      -0.092  -2.342  -0.894  0.00  0.00     0.078 C 
ENDROOT
BRANCH   1   8
ATOM      8  C1  UNL d   1      -0.894  -0.457   1.324  0.00  0.00     0.053 C 
ATOM      9  C   UNL d   1      -1.768   0.629   1.931  0.00  0.00     0.018 C 
ENDBRANCH   1   8
TORSDOF 1
ENDMDL
