MODEL 1
REMARK minimizedAffinity -4.8772049
REMARK minimizedRMSD -1
REMARK  1 active torsions:
REMARK  status: ('A' for Active; 'I' for Inactive)
REMARK    1  A    between atoms: C1_2  and  C2_3 
ROOT
ATOM      1  C2  UNL d   1       0.388  -0.782  -0.697  0.00  0.00    -0.076 A 
ATOM      2  C3  UNL d   1       0.344  -2.182  -0.576  0.00  0.00     0.004 A 
ATOM      3  C4  UNL d   1       1.196  -2.994  -1.322  0.00  0.00    -0.003 A 
ATOM      4  C5  UNL d   1       2.108  -2.419  -2.200  0.00  0.00     0.000 A 
ATOM      5  C6  UNL d   1       2.179  -1.032  -2.320  0.00  0.00     0.000 A 
ATOM      6  C7  UNL d   1       1.337  -0.198  -1.563  0.00  0.00    -0.073 A 
ATOM      7  C8  UNL d   1       1.452   1.292  -1.736  0.00  0.00     0.078 C 
ENDROOT
BRANCH   1   8
ATOM      8  C1  UNL d   1      -0.579   0.046   0.118  0.00  0.00     0.053 C 
ATOM      9  C   UNL d   1      -0.269   0.010   1.606  0.00  0.00     0.018 C 
ENDBRANCH   1   8
TORSDOF 1
ENDMDL
