MODEL 1
REMARK minimizedAffinity -4.82244349
REMARK minimizedRMSD -1
REMARK  1 active torsions:
REMARK  status: ('A' for Active; 'I' for Inactive)
REMARK    1  A    between atoms: C1_2  and  C2_3 
ROOT
ATOM      1  C2  UNL d   1      -0.088   0.462  -0.080  0.00  0.00    -0.076 A 
ATOM      2  C3  UNL d   1      -0.469  -0.257  -1.227  0.00  0.00     0.004 A 
ATOM      3  C4  UNL d   1       0.241  -0.132  -2.420  0.00  0.00    -0.003 A 
ATOM      4  C5  UNL d   1       1.343   0.713  -2.486  0.00  0.00     0.000 A 
ATOM      5  C6  UNL d   1       1.745   1.420  -1.353  0.00  0.00     0.000 A 
ATOM      6  C7  UNL d   1       1.051   1.294  -0.138  0.00  0.00    -0.073 A 
ATOM      7  C8  UNL d   1       1.525   2.084   1.050  0.00  0.00     0.078 C 
ENDROOT
BRANCH   1   8
ATOM      8  C1  UNL d   1      -0.912   0.307   1.178  0.00  0.00     0.053 C 
ATOM      9  C   UNL d   1      -2.406   0.274   0.896  0.00  0.00     0.018 C 
ENDBRANCH   1   8
TORSDOF 1
ENDMDL
