MODEL 1
REMARK minimizedAffinity -3.50663018
REMARK minimizedRMSD -1
REMARK  1 active torsions:
REMARK  status: ('A' for Active; 'I' for Inactive)
REMARK    1  A    between atoms: C1_2  and  C2_3 
ROOT
ATOM      1  C2  UNL d   1      -0.429   0.217   0.163  0.00  0.00    -0.076 A 
ATOM      2  C3  UNL d   1      -0.785  -0.871  -0.654  0.00  0.00     0.004 A 
ATOM      3  C4  UNL d   1      -0.154  -1.085  -1.878  0.00  0.00    -0.003 A 
ATOM      4  C5  UNL d   1       0.844  -0.216  -2.305  0.00  0.00     0.000 A 
ATOM      5  C6  UNL d   1       1.222   0.858  -1.499  0.00  0.00     0.000 A 
ATOM      6  C7  UNL d   1       0.607   1.079  -0.255  0.00  0.00    -0.073 A 
ATOM      7  C8  UNL d   1       1.050   2.256   0.570  0.00  0.00     0.078 C 
ENDROOT
BRANCH   1   8
ATOM      8  C1  UNL d   1      -1.167   0.415   1.468  0.00  0.00     0.053 C 
ATOM      9  C   UNL d   1      -2.656   0.129   1.344  0.00  0.00     0.018 C 
ENDBRANCH   1   8
TORSDOF 1
ENDMDL
