MODEL 1
REMARK minimizedAffinity -4.66448641
REMARK minimizedRMSD -1
REMARK  1 active torsions:
REMARK  status: ('A' for Active; 'I' for Inactive)
REMARK    1  A    between atoms: C1_2  and  C2_3 
ROOT
ATOM      1  C2  UNL d   1      -0.288   0.225  -0.268  0.00  0.00    -0.076 A 
ATOM      2  C3  UNL d   1      -0.528  -0.734  -1.268  0.00  0.00     0.004 A 
ATOM      3  C4  UNL d   1       0.182  -0.712  -2.468  0.00  0.00    -0.003 A 
ATOM      4  C5  UNL d   1       1.143   0.268  -2.687  0.00  0.00     0.000 A 
ATOM      5  C6  UNL d   1       1.406   1.217  -1.699  0.00  0.00     0.000 A 
ATOM      6  C7  UNL d   1       0.712   1.199  -0.477  0.00  0.00    -0.073 A 
ATOM      7  C8  UNL d   1       1.032   2.250   0.550  0.00  0.00     0.078 C 
ENDROOT
BRANCH   1   8
ATOM      8  C1  UNL d   1      -1.107   0.168   1.001  0.00  0.00     0.053 C 
ATOM      9  C   UNL d   1      -2.603   0.168   0.730  0.00  0.00     0.018 C 
ENDBRANCH   1   8
TORSDOF 1
ENDMDL
