MODEL 1
REMARK minimizedAffinity -1.28664339
REMARK minimizedRMSD -1
REMARK  1 active torsions:
REMARK  status: ('A' for Active; 'I' for Inactive)
REMARK    1  A    between atoms: C1_2  and  C2_3 
ROOT
ATOM      1  C2  UNL d   1       0.215  -0.582  -0.744  0.00  0.00    -0.076 A 
ATOM      2  C3  UNL d   1      -0.849  -0.792   0.150  0.00  0.00     0.004 A 
ATOM      3  C4  UNL d   1      -1.140   0.136   1.149  0.00  0.00    -0.003 A 
ATOM      4  C5  UNL d   1      -0.373   1.289   1.269  0.00  0.00     0.000 A 
ATOM      5  C6  UNL d   1       0.675   1.522   0.379  0.00  0.00     0.000 A 
ATOM      6  C7  UNL d   1       0.972   0.605  -0.643  0.00  0.00    -0.073 A 
ATOM      7  C8  UNL d   1       2.117   0.904  -1.571  0.00  0.00     0.078 C 
ENDROOT
BRANCH   1   8
ATOM      8  C1  UNL d   1       0.501  -1.636  -1.790  0.00  0.00     0.053 C 
ATOM      9  C   UNL d   1      -0.137  -1.313  -3.132  0.00  0.00     0.018 C 
ENDBRANCH   1   8
TORSDOF 1
ENDMDL
