MODEL 1
REMARK minimizedAffinity -4.75675106
REMARK minimizedRMSD -1
REMARK  1 active torsions:
REMARK  status: ('A' for Active; 'I' for Inactive)
REMARK    1  A    between atoms: C1_2  and  C2_3 
ROOT
ATOM      1  C2  UNL d   1       0.118  -0.170  -0.281  0.00  0.00    -0.076 A 
ATOM      2  C3  UNL d   1      -0.119  -1.083  -1.324  0.00  0.00     0.004 A 
ATOM      3  C4  UNL d   1       0.508  -0.938  -2.560  0.00  0.00    -0.003 A 
ATOM      4  C5  UNL d   1       1.383   0.122  -2.774  0.00  0.00     0.000 A 
ATOM      5  C6  UNL d   1       1.644   1.026  -1.745  0.00  0.00     0.000 A 
ATOM      6  C7  UNL d   1       1.032   0.885  -0.487  0.00  0.00    -0.073 A 
ATOM      7  C8  UNL d   1       1.344   1.893   0.585  0.00  0.00     0.078 C 
ENDROOT
BRANCH   1   8
ATOM      8  C1  UNL d   1      -0.612  -0.362   1.029  0.00  0.00     0.053 C 
ATOM      9  C   UNL d   1      -2.115  -0.180   0.891  0.00  0.00     0.018 C 
ENDBRANCH   1   8
TORSDOF 1
ENDMDL
