MODEL 1
REMARK minimizedAffinity -4.08751059
REMARK minimizedRMSD -1
REMARK  1 active torsions:
REMARK  status: ('A' for Active; 'I' for Inactive)
REMARK    1  A    between atoms: C1_2  and  C2_3 
ROOT
ATOM      1  C2  UNL d   1       0.911   0.049  -0.932  0.00  0.00    -0.076 A 
ATOM      2  C3  UNL d   1       1.695   0.752  -1.862  0.00  0.00     0.004 A 
ATOM      3  C4  UNL d   1       2.399   0.081  -2.861  0.00  0.00    -0.003 A 
ATOM      4  C5  UNL d   1       2.330  -1.305  -2.945  0.00  0.00     0.000 A 
ATOM      5  C6  UNL d   1       1.543  -2.018  -2.041  0.00  0.00     0.000 A 
ATOM      6  C7  UNL d   1       0.814  -1.355  -1.039  0.00  0.00    -0.073 A 
ATOM      7  C8  UNL d   1      -0.014  -2.175  -0.087  0.00  0.00     0.078 C 
ENDROOT
BRANCH   1   8
ATOM      8  C1  UNL d   1       0.192   0.828   0.146  0.00  0.00     0.053 C 
ATOM      9  C   UNL d   1       0.600   2.293   0.176  0.00  0.00     0.018 C 
ENDBRANCH   1   8
TORSDOF 1
ENDMDL
