MODEL 1
REMARK minimizedAffinity -5.04883957
REMARK minimizedRMSD -1
REMARK  1 active torsions:
REMARK  status: ('A' for Active; 'I' for Inactive)
REMARK    1  A    between atoms: C1_2  and  C2_3 
ROOT
ATOM      1  C2  UNL d   1       0.468  -0.821  -0.629  0.00  0.00    -0.076 A 
ATOM      2  C3  UNL d   1       0.562   0.507  -1.081  0.00  0.00     0.004 A 
ATOM      3  C4  UNL d   1       1.258   0.820  -2.247  0.00  0.00    -0.003 A 
ATOM      4  C5  UNL d   1       1.871  -0.190  -2.981  0.00  0.00     0.000 A 
ATOM      5  C6  UNL d   1       1.773  -1.515  -2.558  0.00  0.00     0.000 A 
ATOM      6  C7  UNL d   1       1.061  -1.850  -1.393  0.00  0.00    -0.073 A 
ATOM      7  C8  UNL d   1       0.992  -3.294  -0.979  0.00  0.00     0.078 C 
ENDROOT
BRANCH   1   8
ATOM      8  C1  UNL d   1      -0.277  -1.098   0.657  0.00  0.00     0.053 C 
ATOM      9  C   UNL d   1      -0.915   0.153   1.241  0.00  0.00     0.018 C 
ENDBRANCH   1   8
TORSDOF 1
ENDMDL
