MODEL 1
REMARK minimizedAffinity -4.85969782
REMARK minimizedRMSD -1
REMARK  0 active torsions:
REMARK  status: ('A' for Active; 'I' for Inactive)
ROOT
ATOM      1  C   UNL d   1       0.436  -0.496   0.514  0.00  0.00     0.078 C 
ATOM      2  C1  UNL d   1       0.200   0.983   0.434  0.00  0.00    -0.077 A 
ATOM      3  C2  UNL d   1       1.148   1.834  -0.146  0.00  0.00    -0.001 A 
ATOM      4  C3  UNL d   1       0.920   3.210  -0.205  0.00  0.00     0.003 A 
ATOM      5  C4  UNL d   1      -0.256   3.747   0.316  0.00  0.00    -0.005 A 
ATOM      6  C5  UNL d   1      -1.205   2.908   0.898  0.00  0.00     0.003 A 
ATOM      7  C6  UNL d   1      -0.978   1.532   0.957  0.00  0.00    -0.001 A 
ENDROOT
TORSDOF 0
ENDMDL
