MODEL 1
REMARK minimizedAffinity -4.61727333
REMARK minimizedRMSD -1
REMARK  0 active torsions:
REMARK  status: ('A' for Active; 'I' for Inactive)
ROOT
ATOM      1  C   UNL d   1       1.121  -0.526   0.773  0.00  0.00     0.078 C 
ATOM      2  C1  UNL d   1       0.300   0.724   0.665  0.00  0.00    -0.077 A 
ATOM      3  C2  UNL d   1       0.793   1.855   0.003  0.00  0.00    -0.001 A 
ATOM      4  C3  UNL d   1       0.022   3.016  -0.082  0.00  0.00     0.003 A 
ATOM      5  C4  UNL d   1      -1.245   3.057   0.496  0.00  0.00    -0.005 A 
ATOM      6  C5  UNL d   1      -1.743   1.938   1.159  0.00  0.00     0.003 A 
ATOM      7  C6  UNL d   1      -0.974   0.776   1.245  0.00  0.00    -0.001 A 
ENDROOT
TORSDOF 0
ENDMDL
