MODEL 1
REMARK minimizedAffinity -4.43658638
REMARK minimizedRMSD -1
REMARK  0 active torsions:
REMARK  status: ('A' for Active; 'I' for Inactive)
ROOT
ATOM      1  C   UNL d   1       0.355   3.315  -0.773  0.00  0.00     0.078 C 
ATOM      2  C1  UNL d   1       0.543   1.938  -0.210  0.00  0.00    -0.077 A 
ATOM      3  C2  UNL d   1      -0.527   1.038  -0.134  0.00  0.00    -0.001 A 
ATOM      4  C3  UNL d   1      -0.340  -0.237   0.402  0.00  0.00     0.003 A 
ATOM      5  C4  UNL d   1       0.916  -0.623   0.866  0.00  0.00    -0.005 A 
ATOM      6  C5  UNL d   1       1.986   0.266   0.796  0.00  0.00     0.003 A 
ATOM      7  C6  UNL d   1       1.801   1.542   0.261  0.00  0.00    -0.001 A 
ENDROOT
TORSDOF 0
ENDMDL
