MODEL 1
REMARK minimizedAffinity -4.50039577
REMARK minimizedRMSD -1
REMARK  0 active torsions:
REMARK  status: ('A' for Active; 'I' for Inactive)
ROOT
ATOM      1  C   UNL d   1      -0.084  -0.894  -0.074  0.00  0.00     0.078 C 
ATOM      2  C1  UNL d   1      -0.037   0.584   0.178  0.00  0.00    -0.077 A 
ATOM      3  C2  UNL d   1       1.164   1.296   0.068  0.00  0.00    -0.001 A 
ATOM      4  C3  UNL d   1       1.195   2.669   0.315  0.00  0.00     0.003 A 
ATOM      5  C4  UNL d   1       0.029   3.342   0.675  0.00  0.00    -0.005 A 
ATOM      6  C5  UNL d   1      -1.170   2.642   0.790  0.00  0.00     0.003 A 
ATOM      7  C6  UNL d   1      -1.203   1.268   0.543  0.00  0.00    -0.001 A 
ENDROOT
TORSDOF 0
ENDMDL
