MODEL 1
REMARK minimizedAffinity -3.86696553
REMARK minimizedRMSD -1
REMARK  0 active torsions:
REMARK  status: ('A' for Active; 'I' for Inactive)
ROOT
ATOM      1  C   UNL d   1      -0.456  -1.657  -0.388  0.00  0.00     0.078 C 
ATOM      2  C1  UNL d   1      -0.552  -0.281   0.200  0.00  0.00    -0.077 A 
ATOM      3  C2  UNL d   1      -1.668   0.105   0.953  0.00  0.00    -0.001 A 
ATOM      4  C3  UNL d   1      -1.749   1.392   1.486  0.00  0.00     0.003 A 
ATOM      5  C4  UNL d   1      -0.718   2.305   1.270  0.00  0.00    -0.005 A 
ATOM      6  C5  UNL d   1       0.395   1.930   0.521  0.00  0.00     0.003 A 
ATOM      7  C6  UNL d   1       0.478   0.643  -0.013  0.00  0.00    -0.001 A 
ENDROOT
TORSDOF 0
ENDMDL
