MODEL 1
REMARK minimizedAffinity -3.98675966
REMARK minimizedRMSD -1
REMARK  0 active torsions:
REMARK  status: ('A' for Active; 'I' for Inactive)
ROOT
ATOM      1  C   UNL d   1      -0.284  -1.289   0.082  0.00  0.00     0.078 C 
ATOM      2  C1  UNL d   1      -0.423   0.204   0.085  0.00  0.00    -0.077 A 
ATOM      3  C2  UNL d   1       0.499   1.015  -0.588  0.00  0.00    -0.001 A 
ATOM      4  C3  UNL d   1       0.363   2.404  -0.569  0.00  0.00     0.003 A 
ATOM      5  C4  UNL d   1      -0.692   2.994   0.122  0.00  0.00    -0.005 A 
ATOM      6  C5  UNL d   1      -1.613   2.196   0.797  0.00  0.00     0.003 A 
ATOM      7  C6  UNL d   1      -1.479   0.806   0.779  0.00  0.00    -0.001 A 
ENDROOT
TORSDOF 0
ENDMDL
