MODEL 1
REMARK minimizedAffinity -4.25641918
REMARK minimizedRMSD -1
REMARK  0 active torsions:
REMARK  status: ('A' for Active; 'I' for Inactive)
ROOT
ATOM      1  C   UNL d   1       0.270  -2.027   0.009  0.00  0.00     0.078 C 
ATOM      2  C1  UNL d   1       0.056  -0.544   0.061  0.00  0.00    -0.077 A 
ATOM      3  C2  UNL d   1      -1.127  -0.004   0.580  0.00  0.00    -0.001 A 
ATOM      4  C3  UNL d   1      -1.317   1.379   0.613  0.00  0.00     0.003 A 
ATOM      5  C4  UNL d   1      -0.328   2.232   0.129  0.00  0.00    -0.005 A 
ATOM      6  C5  UNL d   1       0.852   1.704  -0.391  0.00  0.00     0.003 A 
ATOM      7  C6  UNL d   1       1.043   0.322  -0.426  0.00  0.00    -0.001 A 
ENDROOT
TORSDOF 0
ENDMDL
