MODEL 1
REMARK minimizedAffinity -2.53057432
REMARK minimizedRMSD -1
REMARK  0 active torsions:
REMARK  status: ('A' for Active; 'I' for Inactive)
ROOT
ATOM      1  C   UNL d   1       0.186   3.289   0.327  0.00  0.00     0.078 C 
ATOM      2  C1  UNL d   1       0.433   1.812   0.241  0.00  0.00    -0.077 A 
ATOM      3  C2  UNL d   1      -0.629   0.911   0.097  0.00  0.00    -0.001 A 
ATOM      4  C3  UNL d   1      -0.386  -0.462   0.028  0.00  0.00     0.003 A 
ATOM      5  C4  UNL d   1       0.919  -0.946   0.101  0.00  0.00    -0.005 A 
ATOM      6  C5  UNL d   1       1.982  -0.057   0.246  0.00  0.00     0.003 A 
ATOM      7  C6  UNL d   1       1.740   1.316   0.316  0.00  0.00    -0.001 A 
ENDROOT
TORSDOF 0
ENDMDL
