MODEL 1
REMARK minimizedAffinity -4.17995214
REMARK minimizedRMSD -1
REMARK  0 active torsions:
REMARK  status: ('A' for Active; 'I' for Inactive)
ROOT
ATOM      1  C   UNL d   1      -0.044  -1.476   0.032  0.00  0.00     0.078 C 
ATOM      2  C1  UNL d   1      -0.534  -0.089   0.325  0.00  0.00    -0.077 A 
ATOM      3  C2  UNL d   1      -1.613   0.126   1.191  0.00  0.00    -0.001 A 
ATOM      4  C3  UNL d   1      -2.065   1.422   1.447  0.00  0.00     0.003 A 
ATOM      5  C4  UNL d   1      -1.446   2.512   0.839  0.00  0.00    -0.005 A 
ATOM      6  C5  UNL d   1      -0.373   2.307  -0.027  0.00  0.00     0.003 A 
ATOM      7  C6  UNL d   1       0.081   1.012  -0.283  0.00  0.00    -0.001 A 
ENDROOT
TORSDOF 0
ENDMDL
