MODEL 1
REMARK minimizedAffinity -4.80073261
REMARK minimizedRMSD -1
REMARK  0 active torsions:
REMARK  status: ('A' for Active; 'I' for Inactive)
ROOT
ATOM      1  C   UNL d   1       3.322   1.169   0.799  0.00  0.00     0.078 C 
ATOM      2  C1  UNL d   1       1.827   1.293   0.799  0.00  0.00    -0.077 A 
ATOM      3  C2  UNL d   1       1.206   2.528   1.021  0.00  0.00    -0.001 A 
ATOM      4  C3  UNL d   1      -0.186   2.627   1.029  0.00  0.00     0.003 A 
ATOM      5  C4  UNL d   1      -0.969   1.494   0.816  0.00  0.00    -0.005 A 
ATOM      6  C5  UNL d   1      -0.360   0.260   0.596  0.00  0.00     0.003 A 
ATOM      7  C6  UNL d   1       1.032   0.160   0.589  0.00  0.00    -0.001 A 
ENDROOT
TORSDOF 0
ENDMDL
