MODEL 1
REMARK minimizedAffinity -4.60586548
REMARK minimizedRMSD -1
REMARK  0 active torsions:
REMARK  status: ('A' for Active; 'I' for Inactive)
ROOT
ATOM      1  C   UNL d   1      -0.186  -1.599  -0.770  0.00  0.00     0.078 C 
ATOM      2  C1  UNL d   1      -0.518  -0.223  -0.273  0.00  0.00    -0.077 A 
ATOM      3  C2  UNL d   1      -1.563  -0.017   0.635  0.00  0.00    -0.001 A 
ATOM      4  C3  UNL d   1      -1.867   1.270   1.082  0.00  0.00     0.003 A 
ATOM      5  C4  UNL d   1      -1.130   2.361   0.625  0.00  0.00    -0.005 A 
ATOM      6  C5  UNL d   1      -0.089   2.166  -0.280  0.00  0.00     0.003 A 
ATOM      7  C6  UNL d   1       0.216   0.879  -0.728  0.00  0.00    -0.001 A 
ENDROOT
TORSDOF 0
ENDMDL
