MODEL 1
REMARK minimizedAffinity -2.48775029
REMARK minimizedRMSD -1
REMARK  0 active torsions:
REMARK  status: ('A' for Active; 'I' for Inactive)
ROOT
ATOM      1  C   UNL d   1      -0.258  -1.202  -0.124  0.00  0.00     0.078 C 
ATOM      2  C1  UNL d   1      -0.422   0.219   0.327  0.00  0.00    -0.077 A 
ATOM      3  C2  UNL d   1       0.408   1.233  -0.167  0.00  0.00    -0.001 A 
ATOM      4  C3  UNL d   1       0.251   2.549   0.269  0.00  0.00     0.003 A 
ATOM      5  C4  UNL d   1      -0.735   2.864   1.202  0.00  0.00    -0.005 A 
ATOM      6  C5  UNL d   1      -1.564   1.862   1.701  0.00  0.00     0.003 A 
ATOM      7  C6  UNL d   1      -1.408   0.545   1.267  0.00  0.00    -0.001 A 
ENDROOT
TORSDOF 0
ENDMDL
