MODEL 1
REMARK minimizedAffinity -4.5698967
REMARK minimizedRMSD -1
REMARK  0 active torsions:
REMARK  status: ('A' for Active; 'I' for Inactive)
ROOT
ATOM      1  C   UNL d   1       0.620   2.407  -1.112  0.00  0.00     0.078 C 
ATOM      2  C1  UNL d   1       0.714   1.084  -0.411  0.00  0.00    -0.077 A 
ATOM      3  C2  UNL d   1      -0.376   0.206  -0.382  0.00  0.00    -0.001 A 
ATOM      4  C3  UNL d   1      -0.278  -1.018   0.283  0.00  0.00     0.003 A 
ATOM      5  C4  UNL d   1       0.907  -1.373   0.924  0.00  0.00    -0.005 A 
ATOM      6  C5  UNL d   1       1.996  -0.504   0.901  0.00  0.00     0.003 A 
ATOM      7  C6  UNL d   1       1.900   0.720   0.237  0.00  0.00    -0.001 A 
ENDROOT
TORSDOF 0
ENDMDL
