MODEL 1
REMARK minimizedAffinity -3.35865116
REMARK minimizedRMSD -1
REMARK  0 active torsions:
REMARK  status: ('A' for Active; 'I' for Inactive)
ROOT
ATOM      1  C   UNL d   1      -0.475  -1.226  -0.153  0.00  0.00     0.078 C 
ATOM      2  C1  UNL d   1      -0.448   0.270  -0.050  0.00  0.00    -0.077 A 
ATOM      3  C2  UNL d   1      -1.258   0.944   0.872  0.00  0.00    -0.001 A 
ATOM      4  C3  UNL d   1      -1.230   2.338   0.950  0.00  0.00     0.003 A 
ATOM      5  C4  UNL d   1      -0.394   3.069   0.109  0.00  0.00    -0.005 A 
ATOM      6  C5  UNL d   1       0.414   2.407  -0.813  0.00  0.00     0.003 A 
ATOM      7  C6  UNL d   1       0.387   1.013  -0.893  0.00  0.00    -0.001 A 
ENDROOT
TORSDOF 0
ENDMDL
