MODEL 1
REMARK minimizedAffinity -3.01380014
REMARK minimizedRMSD -1
REMARK  0 active torsions:
REMARK  status: ('A' for Active; 'I' for Inactive)
ROOT
ATOM      1  C   UNL d   1      -0.667   2.916   0.331  0.00  0.00     0.078 C 
ATOM      2  C1  UNL d   1      -0.478   1.436   0.181  0.00  0.00    -0.077 A 
ATOM      3  C2  UNL d   1      -1.547   0.550   0.364  0.00  0.00    -0.001 A 
ATOM      4  C3  UNL d   1      -1.354  -0.826   0.231  0.00  0.00     0.003 A 
ATOM      5  C4  UNL d   1      -0.094  -1.328  -0.085  0.00  0.00    -0.005 A 
ATOM      6  C5  UNL d   1       0.977  -0.455  -0.268  0.00  0.00     0.003 A 
ATOM      7  C6  UNL d   1       0.786   0.921  -0.135  0.00  0.00    -0.001 A 
ENDROOT
TORSDOF 0
ENDMDL
