MODEL 1
REMARK minimizedAffinity -5.30980062
REMARK minimizedRMSD -1
REMARK  0 active torsions:
REMARK  status: ('A' for Active; 'I' for Inactive)
ROOT
ATOM      1  C   UNL d   1      -0.200  -1.584  -0.193  0.00  0.00     0.078 C 
ATOM      2  C1  UNL d   1      -0.191  -0.112   0.097  0.00  0.00    -0.077 A 
ATOM      3  C2  UNL d   1      -1.272   0.503   0.740  0.00  0.00    -0.001 A 
ATOM      4  C3  UNL d   1      -1.254   1.875   0.994  0.00  0.00     0.003 A 
ATOM      5  C4  UNL d   1      -0.159   2.644   0.607  0.00  0.00    -0.005 A 
ATOM      6  C5  UNL d   1       0.921   2.041  -0.036  0.00  0.00     0.003 A 
ATOM      7  C6  UNL d   1       0.905   0.669  -0.290  0.00  0.00    -0.001 A 
ENDROOT
TORSDOF 0
ENDMDL
