MODEL 1
REMARK minimizedAffinity -4.88983202
REMARK minimizedRMSD -1
REMARK  0 active torsions:
REMARK  status: ('A' for Active; 'I' for Inactive)
ROOT
ATOM      1  C   UNL d   1      -0.290   3.213  -0.181  0.00  0.00     0.078 C 
ATOM      2  C1  UNL d   1       0.028   1.752  -0.065  0.00  0.00    -0.077 A 
ATOM      3  C2  UNL d   1      -0.983   0.810   0.164  0.00  0.00    -0.001 A 
ATOM      4  C3  UNL d   1      -0.671  -0.545   0.280  0.00  0.00     0.003 A 
ATOM      5  C4  UNL d   1       0.651  -0.971   0.169  0.00  0.00    -0.005 A 
ATOM      6  C5  UNL d   1       1.663  -0.041  -0.057  0.00  0.00     0.003 A 
ATOM      7  C6  UNL d   1       1.354   1.315  -0.173  0.00  0.00    -0.001 A 
ENDROOT
TORSDOF 0
ENDMDL
