MODEL 1
REMARK minimizedAffinity -4.12259293
REMARK minimizedRMSD -1
REMARK  0 active torsions:
REMARK  status: ('A' for Active; 'I' for Inactive)
ROOT
ATOM      1  C   UNL d   1       0.079   3.219  -0.204  0.00  0.00     0.078 C 
ATOM      2  C1  UNL d   1       0.024   1.729  -0.042  0.00  0.00    -0.077 A 
ATOM      3  C2  UNL d   1      -1.169   1.085   0.307  0.00  0.00    -0.001 A 
ATOM      4  C3  UNL d   1      -1.204  -0.301   0.464  0.00  0.00     0.003 A 
ATOM      5  C4  UNL d   1      -0.048  -1.056   0.274  0.00  0.00    -0.005 A 
ATOM      6  C5  UNL d   1       1.145  -0.424  -0.072  0.00  0.00     0.003 A 
ATOM      7  C6  UNL d   1       1.181   0.962  -0.229  0.00  0.00    -0.001 A 
ENDROOT
TORSDOF 0
ENDMDL
