MODEL 1
REMARK minimizedAffinity 18.2705555
REMARK minimizedRMSD -1
REMARK  0 active torsions:
REMARK  status: ('A' for Active; 'I' for Inactive)
ROOT
ATOM      1  C   UNL d   1      -1.896   3.115  -4.765  0.00  0.00     0.023 A 
ATOM      2  C1  UNL d   1      -0.545   3.247  -5.083  0.00  0.00     0.003 A 
ATOM      3  C2  UNL d   1       0.409   2.467  -4.426  0.00  0.00     0.048 A 
ATOM      4  C3  UNL d   1       0.003   1.555  -3.452  0.00  0.00     0.023 A 
ATOM      5  C4  UNL d   1      -1.348   1.419  -3.130  0.00  0.00     0.048 A 
ATOM      6  C5  UNL d   1      -2.298   2.202  -3.790  0.00  0.00     0.003 A 
ATOM      7  I   UNL d   1       1.420   0.392  -2.472  0.00  0.00    -0.146 I 
ENDROOT
TORSDOF 0
ENDMDL
