MODEL 1
REMARK minimizedAffinity 11.322298
REMARK minimizedRMSD -1
REMARK  0 active torsions:
REMARK  status: ('A' for Active; 'I' for Inactive)
ROOT
ATOM      1  C   UNL d   1      -2.474  -0.367  -2.183  0.00  0.00     0.023 A 
ATOM      2  C1  UNL d   1      -2.877  -0.524  -0.857  0.00  0.00     0.003 A 
ATOM      3  C2  UNL d   1      -2.369  -1.575  -0.091  0.00  0.00     0.048 A 
ATOM      4  C3  UNL d   1      -1.457  -2.465  -0.657  0.00  0.00     0.023 A 
ATOM      5  C4  UNL d   1      -1.049  -2.311  -1.983  0.00  0.00     0.048 A 
ATOM      6  C5  UNL d   1      -1.561  -1.259  -2.745  0.00  0.00     0.003 A 
ATOM      7  I   UNL d   1      -0.698  -4.030   0.482  0.00  0.00    -0.146 I 
ENDROOT
TORSDOF 0
ENDMDL
