MODEL 1
REMARK minimizedAffinity 19.5296841
REMARK minimizedRMSD -1
REMARK  0 active torsions:
REMARK  status: ('A' for Active; 'I' for Inactive)
ROOT
ATOM      1  C   UNL d   1       2.759   1.102   0.190  0.00  0.00     0.023 A 
ATOM      2  C1  UNL d   1       2.478   1.947  -0.883  0.00  0.00     0.003 A 
ATOM      3  C2  UNL d   1       3.072   3.209  -0.953  0.00  0.00     0.048 A 
ATOM      4  C3  UNL d   1       3.946   3.619   0.052  0.00  0.00     0.023 A 
ATOM      5  C4  UNL d   1       4.231   2.776   1.128  0.00  0.00     0.048 A 
ATOM      6  C5  UNL d   1       3.634   1.515   1.194  0.00  0.00     0.003 A 
ATOM      7  I   UNL d   1       4.831   5.496  -0.050  0.00  0.00    -0.146 I 
ENDROOT
TORSDOF 0
ENDMDL
