MODEL 1
REMARK minimizedAffinity 17.3254623
REMARK minimizedRMSD -1
REMARK  0 active torsions:
REMARK  status: ('A' for Active; 'I' for Inactive)
ROOT
ATOM      1  C   UNL d   1      -1.657   3.343  -4.442  0.00  0.00     0.023 A 
ATOM      2  C1  UNL d   1      -0.331   2.917  -4.525  0.00  0.00     0.003 A 
ATOM      3  C2  UNL d   1       0.035   1.667  -4.020  0.00  0.00     0.048 A 
ATOM      4  C3  UNL d   1      -0.930   0.849  -3.434  0.00  0.00     0.023 A 
ATOM      5  C4  UNL d   1      -2.258   1.272  -3.349  0.00  0.00     0.048 A 
ATOM      6  C5  UNL d   1      -2.619   2.522  -3.854  0.00  0.00     0.003 A 
ATOM      7  I   UNL d   1      -0.388  -1.011  -2.681  0.00  0.00    -0.146 I 
ENDROOT
TORSDOF 0
ENDMDL
