MODEL 1
REMARK minimizedAffinity 8.81124687
REMARK minimizedRMSD -1
REMARK  0 active torsions:
REMARK  status: ('A' for Active; 'I' for Inactive)
ROOT
ATOM      1  C   UNL d   1      -2.067  -2.016  -0.319  0.00  0.00     0.023 A 
ATOM      2  C1  UNL d   1      -1.015  -2.852  -0.695  0.00  0.00     0.003 A 
ATOM      3  C2  UNL d   1      -0.727  -3.995   0.054  0.00  0.00     0.048 A 
ATOM      4  C3  UNL d   1      -1.496  -4.296   1.178  0.00  0.00     0.023 A 
ATOM      5  C4  UNL d   1      -2.549  -3.464   1.558  0.00  0.00     0.048 A 
ATOM      6  C5  UNL d   1      -2.833  -2.322   0.806  0.00  0.00     0.003 A 
ATOM      7  I   UNL d   1      -1.069  -5.997   2.294  0.00  0.00    -0.146 I 
ENDROOT
TORSDOF 0
ENDMDL
