MODEL 1
REMARK minimizedAffinity 12.7319193
REMARK minimizedRMSD -1
REMARK  0 active torsions:
REMARK  status: ('A' for Active; 'I' for Inactive)
ROOT
ATOM      1  C   UNL d   1      -5.997   5.760  -5.208  0.00  0.00     0.023 A 
ATOM      2  C1  UNL d   1      -5.868   4.618  -5.998  0.00  0.00     0.003 A 
ATOM      3  C2  UNL d   1      -4.833   3.712  -5.754  0.00  0.00     0.048 A 
ATOM      4  C3  UNL d   1      -3.931   3.955  -4.719  0.00  0.00     0.023 A 
ATOM      5  C4  UNL d   1      -4.057   5.097  -3.926  0.00  0.00     0.048 A 
ATOM      6  C5  UNL d   1      -5.092   6.000  -4.174  0.00  0.00     0.003 A 
ATOM      7  I   UNL d   1      -2.390   2.609  -4.354  0.00  0.00    -0.146 I 
ENDROOT
TORSDOF 0
ENDMDL
