MODEL 1
REMARK minimizedAffinity 9.59396744
REMARK minimizedRMSD -1
REMARK  0 active torsions:
REMARK  status: ('A' for Active; 'I' for Inactive)
ROOT
ATOM      1  C   UNL d   1      -0.346  -6.000   0.618  0.00  0.00     0.023 A 
ATOM      2  C1  UNL d   1      -0.618  -5.990  -0.750  0.00  0.00     0.003 A 
ATOM      3  C2  UNL d   1      -0.940  -4.792  -1.391  0.00  0.00     0.048 A 
ATOM      4  C3  UNL d   1      -0.987  -3.607  -0.657  0.00  0.00     0.023 A 
ATOM      5  C4  UNL d   1      -0.715  -3.612   0.712  0.00  0.00     0.048 A 
ATOM      6  C5  UNL d   1      -0.394  -4.812   1.348  0.00  0.00     0.003 A 
ATOM      7  I   UNL d   1      -1.465  -1.822  -1.609  0.00  0.00    -0.146 I 
ENDROOT
TORSDOF 0
ENDMDL
