MODEL 1
REMARK minimizedAffinity 17.4961243
REMARK minimizedRMSD -1
REMARK  0 active torsions:
REMARK  status: ('A' for Active; 'I' for Inactive)
ROOT
ATOM      1  C   UNL d   1      -1.116   3.394  -4.900  0.00  0.00     0.023 A 
ATOM      2  C1  UNL d   1      -2.417   3.009  -4.578  0.00  0.00     0.003 A 
ATOM      3  C2  UNL d   1      -2.659   1.745  -4.034  0.00  0.00     0.048 A 
ATOM      4  C3  UNL d   1      -1.594   0.873  -3.813  0.00  0.00     0.023 A 
ATOM      5  C4  UNL d   1      -0.290   1.254  -4.133  0.00  0.00     0.048 A 
ATOM      6  C5  UNL d   1      -0.053   2.517  -4.678  0.00  0.00     0.003 A 
ATOM      7  I   UNL d   1      -1.951  -1.008  -3.003  0.00  0.00    -0.146 I 
ENDROOT
TORSDOF 0
ENDMDL
