MODEL 1
REMARK minimizedAffinity 3.67845154
REMARK minimizedRMSD -1
REMARK  0 active torsions:
REMARK  status: ('A' for Active; 'I' for Inactive)
ROOT
ATOM      1  C   UNL d   1      -5.997   5.642  -4.993  0.00  0.00     0.023 A 
ATOM      2  C1  UNL d   1      -5.839   4.561  -5.860  0.00  0.00     0.003 A 
ATOM      3  C2  UNL d   1      -4.645   3.836  -5.862  0.00  0.00     0.048 A 
ATOM      4  C3  UNL d   1      -3.615   4.196  -4.994  0.00  0.00     0.023 A 
ATOM      5  C4  UNL d   1      -3.770   5.277  -4.124  0.00  0.00     0.048 A 
ATOM      6  C5  UNL d   1      -4.965   6.000  -4.126  0.00  0.00     0.003 A 
ATOM      7  I   UNL d   1      -1.839   3.118  -4.995  0.00  0.00    -0.146 I 
ENDROOT
TORSDOF 0
ENDMDL
