MODEL 1
REMARK minimizedAffinity 8.79915237
REMARK minimizedRMSD -1
REMARK  0 active torsions:
REMARK  status: ('A' for Active; 'I' for Inactive)
ROOT
ATOM      1  C   UNL d   1      -0.648  -4.818  -0.435  0.00  0.00     0.023 A 
ATOM      2  C1  UNL d   1      -0.914  -3.458  -0.595  0.00  0.00     0.003 A 
ATOM      3  C2  UNL d   1      -1.379  -2.705   0.485  0.00  0.00     0.048 A 
ATOM      4  C3  UNL d   1      -1.575  -3.318   1.722  0.00  0.00     0.023 A 
ATOM      5  C4  UNL d   1      -1.310  -4.679   1.887  0.00  0.00     0.048 A 
ATOM      6  C5  UNL d   1      -0.846  -5.428   0.804  0.00  0.00     0.003 A 
ATOM      7  I   UNL d   1      -2.268  -2.199   3.331  0.00  0.00    -0.146 I 
ENDROOT
TORSDOF 0
ENDMDL
