MODEL 1
REMARK minimizedAffinity 3.82501984
REMARK minimizedRMSD -1
REMARK  0 active torsions:
REMARK  status: ('A' for Active; 'I' for Inactive)
ROOT
ATOM      1  C   UNL d   1      -0.973   4.119  -5.999  0.00  0.00     0.023 A 
ATOM      2  C1  UNL d   1      -0.017   3.472  -5.216  0.00  0.00     0.003 A 
ATOM      3  C2  UNL d   1      -0.407   2.479  -4.314  0.00  0.00     0.048 A 
ATOM      4  C3  UNL d   1      -1.754   2.137  -4.203  0.00  0.00     0.023 A 
ATOM      5  C4  UNL d   1      -2.714   2.781  -4.986  0.00  0.00     0.048 A 
ATOM      6  C5  UNL d   1      -2.320   3.774  -5.885  0.00  0.00     0.003 A 
ATOM      7  I   UNL d   1      -2.337   0.660  -2.862  0.00  0.00    -0.146 I 
ENDROOT
TORSDOF 0
ENDMDL
