MODEL 1
REMARK minimizedAffinity 4.18111563
REMARK minimizedRMSD -1
REMARK  0 active torsions:
REMARK  status: ('A' for Active; 'I' for Inactive)
ROOT
ATOM      1  C   UNL d   1       0.883  -5.999   4.156  0.00  0.00     0.023 A 
ATOM      2  C1  UNL d   1      -0.387  -5.429   4.067  0.00  0.00     0.003 A 
ATOM      3  C2  UNL d   1      -0.815  -4.857   2.868  0.00  0.00     0.048 A 
ATOM      4  C3  UNL d   1       0.032  -4.860   1.760  0.00  0.00     0.023 A 
ATOM      5  C4  UNL d   1       1.303  -5.430   1.843  0.00  0.00     0.048 A 
ATOM      6  C5  UNL d   1       1.727  -5.999   3.045  0.00  0.00     0.003 A 
ATOM      7  I   UNL d   1      -0.603  -4.009  -0.027  0.00  0.00    -0.146 I 
ENDROOT
TORSDOF 0
ENDMDL
