MODEL 1
REMARK minimizedAffinity 4.24911594
REMARK minimizedRMSD -1
REMARK  0 active torsions:
REMARK  status: ('A' for Active; 'I' for Inactive)
ROOT
ATOM      1  C   UNL d   1      -5.997   5.383  -5.376  0.00  0.00     0.023 A 
ATOM      2  C1  UNL d   1      -5.009   6.000  -4.610  0.00  0.00     0.003 A 
ATOM      3  C2  UNL d   1      -3.758   5.396  -4.464  0.00  0.00     0.048 A 
ATOM      4  C3  UNL d   1      -3.502   4.176  -5.089  0.00  0.00     0.023 A 
ATOM      5  C4  UNL d   1      -4.488   3.556  -5.858  0.00  0.00     0.048 A 
ATOM      6  C5  UNL d   1      -5.737   4.163  -6.000  0.00  0.00     0.003 A 
ATOM      7  I   UNL d   1      -1.641   3.276  -4.874  0.00  0.00    -0.146 I 
ENDROOT
TORSDOF 0
ENDMDL
