MODEL 1
REMARK minimizedAffinity 19.2591228
REMARK minimizedRMSD -1
REMARK  0 active torsions:
REMARK  status: ('A' for Active; 'I' for Inactive)
ROOT
ATOM      1  C   UNL d   1      -1.635   3.497  -4.579  0.00  0.00     0.023 A 
ATOM      2  C1  UNL d   1      -0.328   3.066  -4.808  0.00  0.00     0.003 A 
ATOM      3  C2  UNL d   1       0.085   1.813  -4.351  0.00  0.00     0.048 A 
ATOM      4  C3  UNL d   1      -0.814   0.996  -3.667  0.00  0.00     0.023 A 
ATOM      5  C4  UNL d   1      -2.123   1.423  -3.436  0.00  0.00     0.048 A 
ATOM      6  C5  UNL d   1      -2.531   2.677  -3.894  0.00  0.00     0.003 A 
ATOM      7  I   UNL d   1      -0.202  -0.870  -2.986  0.00  0.00    -0.146 I 
ENDROOT
TORSDOF 0
ENDMDL
