MODEL 1
REMARK minimizedAffinity 12.4391966
REMARK minimizedRMSD -1
REMARK  0 active torsions:
REMARK  status: ('A' for Active; 'I' for Inactive)
ROOT
ATOM      1  C   UNL d   1      -0.820  -5.999   2.350  0.00  0.00     0.023 A 
ATOM      2  C1  UNL d   1      -0.428  -5.875   1.017  0.00  0.00     0.003 A 
ATOM      3  C2  UNL d   1      -0.709  -4.702   0.313  0.00  0.00     0.048 A 
ATOM      4  C3  UNL d   1      -1.380  -3.658   0.947  0.00  0.00     0.023 A 
ATOM      5  C4  UNL d   1      -1.773  -3.778   2.281  0.00  0.00     0.048 A 
ATOM      6  C5  UNL d   1      -1.492  -4.952   2.981  0.00  0.00     0.003 A 
ATOM      7  I   UNL d   1      -1.798  -1.912  -0.100  0.00  0.00    -0.146 I 
ENDROOT
TORSDOF 0
ENDMDL
