MODEL 1
REMARK minimizedAffinity 9.57190132
REMARK minimizedRMSD -1
REMARK  0 active torsions:
REMARK  status: ('A' for Active; 'I' for Inactive)
ROOT
ATOM      1  C   UNL d   1      -2.311  -1.565   0.518  0.00  0.00     0.023 A 
ATOM      2  C1  UNL d   1      -1.482  -2.241  -0.377  0.00  0.00     0.003 A 
ATOM      3  C2  UNL d   1      -1.002  -3.514  -0.061  0.00  0.00     0.048 A 
ATOM      4  C3  UNL d   1      -1.356  -4.106   1.151  0.00  0.00     0.023 A 
ATOM      5  C4  UNL d   1      -2.187  -3.434   2.049  0.00  0.00     0.048 A 
ATOM      6  C5  UNL d   1      -2.663  -2.161   1.730  0.00  0.00     0.003 A 
ATOM      7  I   UNL d   1      -0.643  -6.000   1.622  0.00  0.00    -0.146 I 
ENDROOT
TORSDOF 0
ENDMDL
