MODEL 1
REMARK minimizedAffinity 6.02578449
REMARK minimizedRMSD -1
REMARK  0 active torsions:
REMARK  status: ('A' for Active; 'I' for Inactive)
ROOT
ATOM      1  C   UNL d   1      -2.839  -5.924  -4.590  0.00  0.00     0.020 A 
ATOM      2  C1  UNL d   1      -2.925  -5.056  -5.679  0.00  0.00     0.020 A 
ATOM      3  C2  UNL d   1      -1.849  -4.223  -5.994  0.00  0.00     0.034 A 
ATOM      4  C3  UNL d   1      -0.683  -4.256  -5.220  0.00  0.00     0.017 A 
ATOM      5  C4  UNL d   1      -0.598  -5.127  -4.128  0.00  0.00     0.017 A 
ATOM      6  C5  UNL d   1      -1.678  -5.959  -3.817  0.00  0.00     0.034 A 
ATOM      7 Cl   UNL d   1       0.808  -5.225  -3.127  0.00  0.00    -0.070 Cl
ATOM      8 Cl1  UNL d   1       0.609  -3.199  -5.668  0.00  0.00    -0.070 Cl
ENDROOT
TORSDOF 0
ENDMDL
