MODEL 1
REMARK minimizedAffinity -1.37730038
REMARK minimizedRMSD -1
REMARK  0 active torsions:
REMARK  status: ('A' for Active; 'I' for Inactive)
ROOT
ATOM      1  C   UNL d   1      -0.507  -4.125  -4.488  0.00  0.00     0.020 A 
ATOM      2  C1  UNL d   1       0.374  -4.324  -5.550  0.00  0.00     0.020 A 
ATOM      3  C2  UNL d   1       1.624  -4.904  -5.322  0.00  0.00     0.034 A 
ATOM      4  C3  UNL d   1       1.996  -5.288  -4.028  0.00  0.00     0.017 A 
ATOM      5  C4  UNL d   1       1.111  -5.088  -2.963  0.00  0.00     0.017 A 
ATOM      6  C5  UNL d   1      -0.139  -4.507  -3.197  0.00  0.00     0.034 A 
ATOM      7 Cl   UNL d   1       1.499  -5.536  -1.339  0.00  0.00    -0.070 Cl
ATOM      8 Cl1  UNL d   1       3.556  -5.999  -3.819  0.00  0.00    -0.070 Cl
ENDROOT
TORSDOF 0
ENDMDL
