MODEL 1
REMARK minimizedAffinity 9.67417812
REMARK minimizedRMSD -1
REMARK  0 active torsions:
REMARK  status: ('A' for Active; 'I' for Inactive)
ROOT
ATOM      1  C   UNL d   1      -0.532  -2.829  -5.979  0.00  0.00     0.020 A 
ATOM      2  C1  UNL d   1      -1.411  -1.747  -5.998  0.00  0.00     0.020 A 
ATOM      3  C2  UNL d   1      -2.790  -1.966  -6.000  0.00  0.00     0.034 A 
ATOM      4  C3  UNL d   1      -3.294  -3.272  -5.983  0.00  0.00     0.017 A 
ATOM      5  C4  UNL d   1      -2.412  -4.358  -5.964  0.00  0.00     0.017 A 
ATOM      6  C5  UNL d   1      -1.032  -4.132  -5.963  0.00  0.00     0.034 A 
ATOM      7 Cl   UNL d   1      -2.960  -5.997  -5.943  0.00  0.00    -0.070 Cl
ATOM      8 Cl1  UNL d   1      -5.011  -3.469  -5.987  0.00  0.00    -0.070 Cl
ENDROOT
TORSDOF 0
ENDMDL
