MODEL 1
REMARK minimizedAffinity 8.04243565
REMARK minimizedRMSD -1
REMARK  0 active torsions:
REMARK  status: ('A' for Active; 'I' for Inactive)
ROOT
ATOM      1  C   UNL d   1       0.238   5.918  -1.730  0.00  0.00     0.020 A 
ATOM      2  C1  UNL d   1      -0.731   5.999  -2.729  0.00  0.00     0.020 A 
ATOM      3  C2  UNL d   1      -1.649   4.960  -2.898  0.00  0.00     0.034 A 
ATOM      4  C3  UNL d   1      -1.600   3.836  -2.065  0.00  0.00     0.017 A 
ATOM      5  C4  UNL d   1      -0.627   3.756  -1.062  0.00  0.00     0.017 A 
ATOM      6  C5  UNL d   1       0.289   4.799  -0.898  0.00  0.00     0.034 A 
ATOM      7 Cl   UNL d   1      -0.505   2.401   0.004  0.00  0.00    -0.070 Cl
ATOM      8 Cl1  UNL d   1      -2.767   2.589  -2.329  0.00  0.00    -0.070 Cl
ENDROOT
TORSDOF 0
ENDMDL
