MODEL 1
REMARK minimizedAffinity 2.61994648
REMARK minimizedRMSD -1
REMARK  0 active torsions:
REMARK  status: ('A' for Active; 'I' for Inactive)
ROOT
ATOM      1  C   UNL d   1      -4.981  -4.083   6.000  0.00  0.00     0.020 A 
ATOM      2  C1  UNL d   1      -5.998  -3.699   5.127  0.00  0.00     0.020 A 
ATOM      3  C2  UNL d   1      -5.711  -2.868   4.042  0.00  0.00     0.034 A 
ATOM      4  C3  UNL d   1      -4.404  -2.418   3.827  0.00  0.00     0.017 A 
ATOM      5  C4  UNL d   1      -3.383  -2.804   4.704  0.00  0.00     0.017 A 
ATOM      6  C5  UNL d   1      -3.676  -3.636   5.788  0.00  0.00     0.034 A 
ATOM      7 Cl   UNL d   1      -1.745  -2.289   4.503  0.00  0.00    -0.070 Cl
ATOM      8 Cl1  UNL d   1      -4.121  -1.393   2.465  0.00  0.00    -0.070 Cl
ENDROOT
TORSDOF 0
ENDMDL
