MODEL 1
REMARK minimizedAffinity 6.27648497
REMARK minimizedRMSD -1
REMARK  0 active torsions:
REMARK  status: ('A' for Active; 'I' for Inactive)
ROOT
ATOM      1  C   UNL d   1      -0.602  -2.982  -5.972  0.00  0.00     0.020 A 
ATOM      2  C1  UNL d   1      -0.343  -4.352  -5.969  0.00  0.00     0.020 A 
ATOM      3  C2  UNL d   1      -1.402  -5.263  -5.964  0.00  0.00     0.034 A 
ATOM      4  C3  UNL d   1      -2.724  -4.805  -5.960  0.00  0.00     0.017 A 
ATOM      5  C4  UNL d   1      -2.983  -3.429  -5.962  0.00  0.00     0.017 A 
ATOM      6  C5  UNL d   1      -1.919  -2.522  -5.968  0.00  0.00     0.034 A 
ATOM      7 Cl   UNL d   1      -4.588  -2.788  -5.958  0.00  0.00    -0.070 Cl
ATOM      8 Cl1  UNL d   1      -3.984  -5.987  -5.953  0.00  0.00    -0.070 Cl
ENDROOT
TORSDOF 0
ENDMDL
