MODEL 1
REMARK minimizedAffinity 4.99918079
REMARK minimizedRMSD -1
REMARK  0 active torsions:
REMARK  status: ('A' for Active; 'I' for Inactive)
ROOT
ATOM      1  C   UNL d   1      -3.468  -4.835  -5.999  0.00  0.00     0.020 A 
ATOM      2  C1  UNL d   1      -2.646  -5.961  -5.998  0.00  0.00     0.020 A 
ATOM      3  C2  UNL d   1      -1.257  -5.812  -5.994  0.00  0.00     0.034 A 
ATOM      4  C3  UNL d   1      -0.686  -4.534  -5.992  0.00  0.00     0.017 A 
ATOM      5  C4  UNL d   1      -1.512  -3.405  -5.993  0.00  0.00     0.017 A 
ATOM      6  C5  UNL d   1      -2.902  -3.559  -5.996  0.00  0.00     0.034 A 
ATOM      7 Cl   UNL d   1      -0.881  -1.795  -5.989  0.00  0.00    -0.070 Cl
ATOM      8 Cl1  UNL d   1       1.038  -4.425  -5.987  0.00  0.00    -0.070 Cl
ENDROOT
TORSDOF 0
ENDMDL
