MODEL 1
REMARK minimizedAffinity 5.98608065
REMARK minimizedRMSD -1
REMARK  0 active torsions:
REMARK  status: ('A' for Active; 'I' for Inactive)
ROOT
ATOM      1  C   UNL d   1      -1.132  -3.492  -1.886  0.00  0.00     0.020 A 
ATOM      2  C1  UNL d   1      -0.022  -4.265  -2.224  0.00  0.00     0.020 A 
ATOM      3  C2  UNL d   1       0.538  -4.164  -3.499  0.00  0.00     0.034 A 
ATOM      4  C3  UNL d   1      -0.011  -3.286  -4.441  0.00  0.00     0.017 A 
ATOM      5  C4  UNL d   1      -1.125  -2.510  -4.101  0.00  0.00     0.017 A 
ATOM      6  C5  UNL d   1      -1.682  -2.616  -2.823  0.00  0.00     0.034 A 
ATOM      7 Cl   UNL d   1      -1.858  -1.405  -5.210  0.00  0.00    -0.070 Cl
ATOM      8 Cl1  UNL d   1       0.733  -3.211  -5.999  0.00  0.00    -0.070 Cl
ENDROOT
TORSDOF 0
ENDMDL
