MODEL 1
REMARK minimizedAffinity 10.0484114
REMARK minimizedRMSD -1
REMARK  0 active torsions:
REMARK  status: ('A' for Active; 'I' for Inactive)
ROOT
ATOM      1  C   UNL d   1      -0.360   2.852   1.098  0.00  0.00     0.020 A 
ATOM      2  C1  UNL d   1       0.975   3.207   0.912  0.00  0.00     0.020 A 
ATOM      3  C2  UNL d   1       1.353   3.938  -0.216  0.00  0.00     0.034 A 
ATOM      4  C3  UNL d   1       0.394   4.316  -1.163  0.00  0.00     0.017 A 
ATOM      5  C4  UNL d   1      -0.946   3.960  -0.975  0.00  0.00     0.017 A 
ATOM      6  C5  UNL d   1      -1.319   3.228   0.157  0.00  0.00     0.034 A 
ATOM      7 Cl   UNL d   1      -2.187   4.390  -2.100  0.00  0.00    -0.070 Cl
ATOM      8 Cl1  UNL d   1       0.931   5.219  -2.535  0.00  0.00    -0.070 Cl
ENDROOT
TORSDOF 0
ENDMDL
