MODEL 1
REMARK minimizedAffinity 5.34362698
REMARK minimizedRMSD -1
REMARK  1 active torsions:
REMARK  status: ('A' for Active; 'I' for Inactive)
REMARK    1  A    between atoms: C1_2  and  C2_3 
ROOT
ATOM      1  C2  UNL d   1      -1.041   4.151   0.495  0.00  0.00    -0.073 A 
ATOM      2  C3  UNL d   1      -0.858   3.538  -0.750  0.00  0.00    -0.002 A 
ATOM      3  C4  UNL d   1      -0.285   2.269  -0.834  0.00  0.00     0.004 A 
ATOM      4  C5  UNL d   1       0.104   1.597   0.325  0.00  0.00    -0.004 A 
ATOM      5  C6  UNL d   1      -0.081   2.187   1.579  0.00  0.00    -0.075 A 
ATOM      6  C7  UNL d   1       0.334   1.478   2.835  0.00  0.00     0.076 C 
ATOM      7  C8  UNL d   1      -0.655   3.464   1.654  0.00  0.00     0.001 A 
ENDROOT
BRANCH   1   8
ATOM      8  C1  UNL d   1      -1.665   5.519   0.590  0.00  0.00     0.053 C 
ATOM      9  C   UNL d   1      -2.633   5.624   1.758  0.00  0.00     0.018 C 
ENDBRANCH   1   8
TORSDOF 1
ENDMDL
