MODEL 1
REMARK minimizedAffinity 16.9763832
REMARK minimizedRMSD -1
REMARK  1 active torsions:
REMARK  status: ('A' for Active; 'I' for Inactive)
REMARK    1  A    between atoms: C1_2  and  C2_3 
ROOT
ATOM      1  C2  UNL d   1      -0.060   3.346  -0.886  0.00  0.00    -0.073 A 
ATOM      2  C3  UNL d   1       0.754   4.476  -0.741  0.00  0.00    -0.002 A 
ATOM      3  C4  UNL d   1       0.297   5.730  -1.149  0.00  0.00     0.004 A 
ATOM      4  C5  UNL d   1      -0.977   5.869  -1.699  0.00  0.00    -0.004 A 
ATOM      5  C6  UNL d   1      -1.809   4.754  -1.841  0.00  0.00    -0.075 A 
ATOM      6  C7  UNL d   1      -3.182   4.886  -2.432  0.00  0.00     0.076 C 
ATOM      7  C8  UNL d   1      -1.343   3.497  -1.431  0.00  0.00     0.001 A 
ENDROOT
BRANCH   1   8
ATOM      8  C1  UNL d   1       0.426   1.991  -0.441  0.00  0.00     0.053 C 
ATOM      9  C   UNL d   1       0.137   1.737   1.030  0.00  0.00     0.018 C 
ENDBRANCH   1   8
TORSDOF 1
ENDMDL
