MODEL 1
REMARK minimizedAffinity 5.29006863
REMARK minimizedRMSD -1
REMARK  1 active torsions:
REMARK  status: ('A' for Active; 'I' for Inactive)
REMARK    1  A    between atoms: C1_2  and  C2_3 
ROOT
ATOM      1  C2  UNL d   1      -1.355   4.484  -1.638  0.00  0.00    -0.073 A 
ATOM      2  C3  UNL d   1      -0.222   5.271  -1.874  0.00  0.00    -0.002 A 
ATOM      3  C4  UNL d   1       0.998   4.945  -1.280  0.00  0.00     0.004 A 
ATOM      4  C5  UNL d   1       1.099   3.829  -0.451  0.00  0.00    -0.004 A 
ATOM      5  C6  UNL d   1      -0.019   3.023  -0.212  0.00  0.00    -0.075 A 
ATOM      6  C7  UNL d   1       0.072   1.820   0.679  0.00  0.00     0.076 C 
ATOM      7  C8  UNL d   1      -1.242   3.358  -0.810  0.00  0.00     0.001 A 
ENDROOT
BRANCH   1   8
ATOM      8  C1  UNL d   1      -2.673   4.828  -2.283  0.00  0.00     0.053 C 
ATOM      9  C   UNL d   1      -2.501   5.289  -3.721  0.00  0.00     0.018 C 
ENDBRANCH   1   8
TORSDOF 1
ENDMDL
