MODEL 1
REMARK minimizedAffinity 6.07767153
REMARK minimizedRMSD -1
REMARK  1 active torsions:
REMARK  status: ('A' for Active; 'I' for Inactive)
REMARK    1  A    between atoms: C1_2  and  C2_3 
ROOT
ATOM      1  C2  UNL d   1      -0.083   2.830  -0.018  0.00  0.00    -0.073 A 
ATOM      2  C3  UNL d   1       0.487   2.985   1.250  0.00  0.00    -0.002 A 
ATOM      3  C4  UNL d   1       0.101   2.154   2.303  0.00  0.00     0.004 A 
ATOM      4  C5  UNL d   1      -0.851   1.156   2.097  0.00  0.00    -0.004 A 
ATOM      5  C6  UNL d   1      -1.424   0.978   0.834  0.00  0.00    -0.075 A 
ATOM      6  C7  UNL d   1      -2.452  -0.089   0.596  0.00  0.00     0.076 C 
ATOM      7  C8  UNL d   1      -1.034   1.818  -0.218  0.00  0.00     0.001 A 
ENDROOT
BRANCH   1   8
ATOM      8  C1  UNL d   1       0.334   3.721  -1.159  0.00  0.00     0.053 C 
ATOM      9  C   UNL d   1      -0.256   5.117  -1.039  0.00  0.00     0.018 C 
ENDBRANCH   1   8
TORSDOF 1
ENDMDL
