MODEL 1
REMARK minimizedAffinity 5.59663296
REMARK minimizedRMSD -1
REMARK  1 active torsions:
REMARK  status: ('A' for Active; 'I' for Inactive)
REMARK    1  A    between atoms: C1_2  and  C2_3 
ROOT
ATOM      1  C2  UNL d   1      -1.232   4.687  -2.037  0.00  0.00    -0.073 A 
ATOM      2  C3  UNL d   1      -0.084   5.389  -2.424  0.00  0.00    -0.002 A 
ATOM      3  C4  UNL d   1       1.163   5.040  -1.905  0.00  0.00     0.004 A 
ATOM      4  C5  UNL d   1       1.278   3.985  -1.001  0.00  0.00    -0.004 A 
ATOM      5  C6  UNL d   1       0.144   3.264  -0.611  0.00  0.00    -0.075 A 
ATOM      6  C7  UNL d   1       0.250   2.127   0.363  0.00  0.00     0.076 C 
ATOM      7  C8  UNL d   1      -1.105   3.621  -1.135  0.00  0.00     0.001 A 
ENDROOT
BRANCH   1   8
ATOM      8  C1  UNL d   1      -2.580   5.055  -2.600  0.00  0.00     0.053 C 
ATOM      9  C   UNL d   1      -3.389   3.828  -2.991  0.00  0.00     0.018 C 
ENDBRANCH   1   8
TORSDOF 1
ENDMDL
