MODEL 1
REMARK minimizedAffinity 11.813241
REMARK minimizedRMSD -1
REMARK  1 active torsions:
REMARK  status: ('A' for Active; 'I' for Inactive)
REMARK    1  A    between atoms: C1_2  and  C2_3 
ROOT
ATOM      1  C2  UNL d   1       2.550  -5.227  -0.733  0.00  0.00    -0.073 A 
ATOM      2  C3  UNL d   1       3.686  -5.997  -1.007  0.00  0.00    -0.002 A 
ATOM      3  C4  UNL d   1       4.959  -5.433  -0.911  0.00  0.00     0.004 A 
ATOM      4  C5  UNL d   1       5.109  -4.098  -0.534  0.00  0.00    -0.004 A 
ATOM      5  C6  UNL d   1       3.986  -3.316  -0.244  0.00  0.00    -0.075 A 
ATOM      6  C7  UNL d   1       4.131  -1.879   0.160  0.00  0.00     0.076 C 
ATOM      7  C8  UNL d   1       2.711  -3.889  -0.346  0.00  0.00     0.001 A 
ENDROOT
BRANCH   1   8
ATOM      8  C1  UNL d   1       1.173  -5.833  -0.829  0.00  0.00     0.053 C 
ATOM      9  C   UNL d   1       0.220  -4.959  -1.629  0.00  0.00     0.018 C 
ENDBRANCH   1   8
TORSDOF 1
ENDMDL
