MODEL 1
REMARK minimizedAffinity 7.41915369
REMARK minimizedRMSD -1
REMARK  1 active torsions:
REMARK  status: ('A' for Active; 'I' for Inactive)
REMARK    1  A    between atoms: C1_2  and  C2_3 
ROOT
ATOM      1  C2  UNL d   1      -0.039   3.463   0.513  0.00  0.00    -0.073 A 
ATOM      2  C3  UNL d   1       0.691   4.027  -0.540  0.00  0.00    -0.002 A 
ATOM      3  C4  UNL d   1       0.257   5.208  -1.144  0.00  0.00     0.004 A 
ATOM      4  C5  UNL d   1      -0.905   5.839  -0.699  0.00  0.00    -0.004 A 
ATOM      5  C6  UNL d   1      -1.641   5.296   0.359  0.00  0.00    -0.075 A 
ATOM      6  C7  UNL d   1      -2.894   5.962   0.849  0.00  0.00     0.076 C 
ATOM      7  C8  UNL d   1      -1.200   4.109   0.959  0.00  0.00     0.001 A 
ENDROOT
BRANCH   1   8
ATOM      8  C1  UNL d   1       0.429   2.191   1.173  0.00  0.00     0.053 C 
ATOM      9  C   UNL d   1       1.783   2.362   1.844  0.00  0.00     0.018 C 
ENDBRANCH   1   8
TORSDOF 1
ENDMDL
