MODEL 1
REMARK minimizedAffinity 8.12471581
REMARK minimizedRMSD -1
REMARK  1 active torsions:
REMARK  status: ('A' for Active; 'I' for Inactive)
REMARK    1  A    between atoms: C1_2  and  C2_3 
ROOT
ATOM      1  C2  UNL d   1       3.202  -5.733  -1.916  0.00  0.00    -0.073 A 
ATOM      2  C3  UNL d   1       3.902  -5.318  -0.777  0.00  0.00    -0.002 A 
ATOM      3  C4  UNL d   1       5.273  -5.066  -0.845  0.00  0.00     0.004 A 
ATOM      4  C5  UNL d   1       5.956  -5.221  -2.051  0.00  0.00    -0.004 A 
ATOM      5  C6  UNL d   1       5.273  -5.623  -3.202  0.00  0.00    -0.075 A 
ATOM      6  C7  UNL d   1       5.994  -5.796  -4.507  0.00  0.00     0.076 C 
ATOM      7  C8  UNL d   1       3.896  -5.877  -3.126  0.00  0.00     0.001 A 
ENDROOT
BRANCH   1   8
ATOM      8  C1  UNL d   1       1.721  -6.000  -1.849  0.00  0.00     0.053 C 
ATOM      9  C   UNL d   1       0.908  -4.716  -1.907  0.00  0.00     0.018 C 
ENDBRANCH   1   8
TORSDOF 1
ENDMDL
