MODEL 1
REMARK minimizedAffinity 3.60861397
REMARK minimizedRMSD -1
REMARK  1 active torsions:
REMARK  status: ('A' for Active; 'I' for Inactive)
REMARK    1  A    between atoms: C1_2  and  C2_3 
ROOT
ATOM      1  C2  UNL d   1      -1.875   5.520   0.442  0.00  0.00    -0.073 A 
ATOM      2  C3  UNL d   1      -0.819   4.651   0.739  0.00  0.00    -0.002 A 
ATOM      3  C4  UNL d   1       0.041   4.215  -0.271  0.00  0.00     0.004 A 
ATOM      4  C5  UNL d   1      -0.142   4.648  -1.584  0.00  0.00    -0.004 A 
ATOM      5  C6  UNL d   1      -1.184   5.526  -1.899  0.00  0.00    -0.075 A 
ATOM      6  C7  UNL d   1      -1.395   6.000  -3.307  0.00  0.00     0.076 C 
ATOM      7  C8  UNL d   1      -2.045   5.958  -0.880  0.00  0.00     0.001 A 
ENDROOT
BRANCH   1   8
ATOM      8  C1  UNL d   1      -2.801   5.999   1.529  0.00  0.00     0.053 C 
ATOM      9  C   UNL d   1      -4.254   5.998   1.081  0.00  0.00     0.018 C 
ENDBRANCH   1   8
TORSDOF 1
ENDMDL
