MODEL 1
REMARK minimizedAffinity 7.4798007
REMARK minimizedRMSD -1
REMARK  1 active torsions:
REMARK  status: ('A' for Active; 'I' for Inactive)
REMARK    1  A    between atoms: C1_2  and  C2_3 
ROOT
ATOM      1  C2  UNL d   1      -1.130   4.858   0.448  0.00  0.00    -0.073 A 
ATOM      2  C3  UNL d   1      -1.130   3.645   1.146  0.00  0.00    -0.002 A 
ATOM      3  C4  UNL d   1      -0.315   2.592   0.728  0.00  0.00     0.004 A 
ATOM      4  C5  UNL d   1       0.512   2.743  -0.385  0.00  0.00    -0.004 A 
ATOM      5  C6  UNL d   1       0.535   3.952  -1.088  0.00  0.00    -0.075 A 
ATOM      6  C7  UNL d   1       1.417   4.130  -2.289  0.00  0.00     0.076 C 
ATOM      7  C8  UNL d   1      -0.289   5.003  -0.664  0.00  0.00     0.001 A 
ENDROOT
BRANCH   1   8
ATOM      8  C1  UNL d   1      -2.004   6.000   0.899  0.00  0.00     0.053 C 
ATOM      9  C   UNL d   1      -2.594   5.756   2.279  0.00  0.00     0.018 C 
ENDBRANCH   1   8
TORSDOF 1
ENDMDL
