MODEL 1
REMARK minimizedAffinity 9.95484352
REMARK minimizedRMSD -1
REMARK  1 active torsions:
REMARK  status: ('A' for Active; 'I' for Inactive)
REMARK    1  A    between atoms: C1_2  and  C2_3 
ROOT
ATOM      1  C2  UNL d   1      -0.247   4.333  -1.887  0.00  0.00    -0.073 A 
ATOM      2  C3  UNL d   1      -1.646   4.355  -1.897  0.00  0.00    -0.002 A 
ATOM      3  C4  UNL d   1      -2.334   4.914  -2.976  0.00  0.00     0.004 A 
ATOM      4  C5  UNL d   1      -1.632   5.448  -4.056  0.00  0.00    -0.004 A 
ATOM      5  C6  UNL d   1      -0.234   5.424  -4.069  0.00  0.00    -0.075 A 
ATOM      6  C7  UNL d   1       0.537   5.997  -5.222  0.00  0.00     0.076 C 
ATOM      7  C8  UNL d   1       0.450   4.864  -2.981  0.00  0.00     0.001 A 
ENDROOT
BRANCH   1   8
ATOM      8  C1  UNL d   1       0.500   3.725  -0.728  0.00  0.00     0.053 C 
ATOM      9  C   UNL d   1      -0.429   3.352   0.416  0.00  0.00     0.018 C 
ENDBRANCH   1   8
TORSDOF 1
ENDMDL
