MODEL 1
REMARK minimizedAffinity 8.76953888
REMARK minimizedRMSD -1
REMARK  1 active torsions:
REMARK  status: ('A' for Active; 'I' for Inactive)
REMARK    1  A    between atoms: C1_2  and  C2_3 
ROOT
ATOM      1  C2  UNL d   1      -0.105   3.610  -0.549  0.00  0.00    -0.073 A 
ATOM      2  C3  UNL d   1       0.520   4.237  -1.633  0.00  0.00    -0.002 A 
ATOM      3  C4  UNL d   1       0.003   5.424  -2.153  0.00  0.00     0.004 A 
ATOM      4  C5  UNL d   1      -1.136   6.000  -1.592  0.00  0.00    -0.004 A 
ATOM      5  C6  UNL d   1      -1.768   5.395  -0.501  0.00  0.00    -0.075 A 
ATOM      6  C7  UNL d   1      -2.996   6.000   0.113  0.00  0.00     0.076 C 
ATOM      7  C8  UNL d   1      -1.245   4.201   0.015  0.00  0.00     0.001 A 
ENDROOT
BRANCH   1   8
ATOM      8  C1  UNL d   1       0.453   2.331   0.020  0.00  0.00     0.053 C 
ATOM      9  C   UNL d   1       0.002   2.101   1.454  0.00  0.00     0.018 C 
ENDBRANCH   1   8
TORSDOF 1
ENDMDL
