MODEL 1
REMARK minimizedAffinity -3.31385469
REMARK minimizedRMSD -1
REMARK  1 active torsions:
REMARK  status: ('A' for Active; 'I' for Inactive)
REMARK    1  A    between atoms: C1_2  and  C2_3 
ROOT
ATOM      1  C2  UNL d   1       0.073  -0.907   0.348  0.00  0.00    -0.073 A 
ATOM      2  C3  UNL d   1      -0.007   0.400  -0.148  0.00  0.00    -0.002 A 
ATOM      3  C4  UNL d   1       0.263   0.661  -1.492  0.00  0.00     0.004 A 
ATOM      4  C5  UNL d   1       0.608  -0.379  -2.354  0.00  0.00    -0.004 A 
ATOM      5  C6  UNL d   1       0.682  -1.693  -1.880  0.00  0.00    -0.075 A 
ATOM      6  C7  UNL d   1       1.055  -2.823  -2.794  0.00  0.00     0.076 C 
ATOM      7  C8  UNL d   1       0.413  -1.947  -0.528  0.00  0.00     0.001 A 
ENDROOT
BRANCH   1   8
ATOM      8  C1  UNL d   1      -0.223  -1.195   1.797  0.00  0.00     0.053 C 
ATOM      9  C   UNL d   1       0.210  -0.055   2.705  0.00  0.00     0.018 C 
ENDBRANCH   1   8
TORSDOF 1
ENDMDL
