MODEL 1
REMARK minimizedAffinity -5.26020098
REMARK minimizedRMSD -1
REMARK  1 active torsions:
REMARK  status: ('A' for Active; 'I' for Inactive)
REMARK    1  A    between atoms: C1_2  and  C2_3 
ROOT
ATOM      1  C2  UNL d   1       0.261  -0.104  -0.744  0.00  0.00    -0.073 A 
ATOM      2  C3  UNL d   1      -1.107  -0.324  -0.548  0.00  0.00    -0.002 A 
ATOM      3  C4  UNL d   1      -1.625  -0.442   0.742  0.00  0.00     0.004 A 
ATOM      4  C5  UNL d   1      -0.784  -0.333   1.849  0.00  0.00    -0.004 A 
ATOM      5  C6  UNL d   1       0.585  -0.101   1.675  0.00  0.00    -0.075 A 
ATOM      6  C7  UNL d   1       1.504   0.016   2.855  0.00  0.00     0.076 C 
ATOM      7  C8  UNL d   1       1.098   0.013   0.375  0.00  0.00     0.001 A 
ENDROOT
BRANCH   1   8
ATOM      8  C1  UNL d   1       0.824   0.031  -2.135  0.00  0.00     0.053 C 
ATOM      9  C   UNL d   1       0.800  -1.290  -2.889  0.00  0.00     0.018 C 
ENDBRANCH   1   8
TORSDOF 1
ENDMDL
