MODEL 1
REMARK minimizedAffinity -3.42066932
REMARK minimizedRMSD -1
REMARK  1 active torsions:
REMARK  status: ('A' for Active; 'I' for Inactive)
REMARK    1  A    between atoms: C1_2  and  C2_3 
ROOT
ATOM      1  C2  UNL d   1      -0.155   0.009  -1.098  0.00  0.00    -0.073 A 
ATOM      2  C3  UNL d   1      -1.446   0.396  -1.476  0.00  0.00    -0.002 A 
ATOM      3  C4  UNL d   1      -2.511   0.263  -0.584  0.00  0.00     0.004 A 
ATOM      4  C5  UNL d   1      -2.296  -0.249   0.695  0.00  0.00    -0.004 A 
ATOM      5  C6  UNL d   1      -1.011  -0.630   1.096  0.00  0.00    -0.075 A 
ATOM      6  C7  UNL d   1      -0.763  -1.185   2.468  0.00  0.00     0.076 C 
ATOM      7  C8  UNL d   1       0.053  -0.496   0.193  0.00  0.00     0.001 A 
ENDROOT
BRANCH   1   8
ATOM      8  C1  UNL d   1       1.000   0.157  -2.055  0.00  0.00     0.053 C 
ATOM      9  C   UNL d   1       0.830  -0.713  -3.291  0.00  0.00     0.018 C 
ENDBRANCH   1   8
TORSDOF 1
ENDMDL
