MODEL 1
REMARK minimizedAffinity -1.5673449
REMARK minimizedRMSD -1
REMARK  1 active torsions:
REMARK  status: ('A' for Active; 'I' for Inactive)
REMARK    1  A    between atoms: C1_2  and  C2_3 
ROOT
ATOM      1  C2  UNL d   1       0.628  -0.363  -0.854  0.00  0.00    -0.073 A 
ATOM      2  C3  UNL d   1       1.331  -0.212   0.347  0.00  0.00    -0.002 A 
ATOM      3  C4  UNL d   1       0.642  -0.067   1.553  0.00  0.00     0.004 A 
ATOM      4  C5  UNL d   1      -0.752  -0.079   1.571  0.00  0.00    -0.004 A 
ATOM      5  C6  UNL d   1      -1.472  -0.241   0.382  0.00  0.00    -0.075 A 
ATOM      6  C7  UNL d   1      -2.972  -0.254   0.384  0.00  0.00     0.076 C 
ATOM      7  C8  UNL d   1      -0.774  -0.383  -0.825  0.00  0.00     0.001 A 
ENDROOT
BRANCH   1   8
ATOM      8  C1  UNL d   1       1.367  -0.525  -2.157  0.00  0.00     0.053 C 
ATOM      9  C   UNL d   1       0.617  -1.423  -3.129  0.00  0.00     0.018 C 
ENDBRANCH   1   8
TORSDOF 1
ENDMDL
