MODEL 1
REMARK minimizedAffinity -4.00861406
REMARK minimizedRMSD -1
REMARK  1 active torsions:
REMARK  status: ('A' for Active; 'I' for Inactive)
REMARK    1  A    between atoms: C1_2  and  C2_3 
ROOT
ATOM      1  C2  UNL d   1       0.259   0.698   2.617  0.00  0.00    -0.073 A 
ATOM      2  C3  UNL d   1      -0.563  -0.336   3.079  0.00  0.00    -0.002 A 
ATOM      3  C4  UNL d   1      -1.116  -1.251   2.182  0.00  0.00     0.004 A 
ATOM      4  C5  UNL d   1      -0.848  -1.145   0.817  0.00  0.00    -0.004 A 
ATOM      5  C6  UNL d   1      -0.020  -0.125   0.338  0.00  0.00    -0.075 A 
ATOM      6  C7  UNL d   1       0.276   0.004  -1.128  0.00  0.00     0.076 C 
ATOM      7  C8  UNL d   1       0.530   0.791   1.245  0.00  0.00     0.001 A 
ENDROOT
BRANCH   1   8
ATOM      8  C1  UNL d   1       0.863   1.685   3.583  0.00  0.00     0.053 C 
ATOM      9  C   UNL d   1      -0.097   2.813   3.921  0.00  0.00     0.018 C 
ENDBRANCH   1   8
TORSDOF 1
ENDMDL
