MODEL 1
REMARK minimizedAffinity -6.14487076
REMARK minimizedRMSD -1
REMARK  1 active torsions:
REMARK  status: ('A' for Active; 'I' for Inactive)
REMARK    1  A    between atoms: C1_2  and  C2_3 
ROOT
ATOM      1  C2  UNL d   1      -0.248   0.436  -0.382  0.00  0.00    -0.073 A 
ATOM      2  C3  UNL d   1       0.917   0.512   0.390  0.00  0.00    -0.002 A 
ATOM      3  C4  UNL d   1       0.856   0.360   1.775  0.00  0.00     0.004 A 
ATOM      4  C5  UNL d   1      -0.368   0.124   2.402  0.00  0.00    -0.004 A 
ATOM      5  C6  UNL d   1      -1.541   0.033   1.647  0.00  0.00    -0.075 A 
ATOM      6  C7  UNL d   1      -2.866  -0.218   2.306  0.00  0.00     0.076 C 
ATOM      7  C8  UNL d   1      -1.472   0.190   0.256  0.00  0.00     0.001 A 
ENDROOT
BRANCH   1   8
ATOM      8  C1  UNL d   1      -0.185   0.593  -1.880  0.00  0.00     0.053 C 
ATOM      9  C   UNL d   1       0.591  -0.535  -2.539  0.00  0.00     0.018 C 
ENDBRANCH   1   8
TORSDOF 1
ENDMDL
