MODEL 1
REMARK minimizedAffinity -5.18867445
REMARK minimizedRMSD -1
REMARK  1 active torsions:
REMARK  status: ('A' for Active; 'I' for Inactive)
REMARK    1  A    between atoms: C1_2  and  C2_3 
ROOT
ATOM      1  C2  UNL d   1       0.090  -0.813  -0.635  0.00  0.00    -0.073 A 
ATOM      2  C3  UNL d   1       0.929   0.306  -0.574  0.00  0.00    -0.002 A 
ATOM      3  C4  UNL d   1       1.180   0.932   0.647  0.00  0.00     0.004 A 
ATOM      4  C5  UNL d   1       0.603   0.443   1.819  0.00  0.00    -0.004 A 
ATOM      5  C6  UNL d   1      -0.228  -0.681   1.780  0.00  0.00    -0.075 A 
ATOM      6  C7  UNL d   1      -0.859  -1.218   3.031  0.00  0.00     0.076 C 
ATOM      7  C8  UNL d   1      -0.478  -1.303   0.549  0.00  0.00     0.001 A 
ENDROOT
BRANCH   1   8
ATOM      8  C1  UNL d   1      -0.179  -1.497  -1.951  0.00  0.00     0.053 C 
ATOM      9  C   UNL d   1       1.077  -1.613  -2.801  0.00  0.00     0.018 C 
ENDBRANCH   1   8
TORSDOF 1
ENDMDL
