MODEL 1
REMARK minimizedAffinity -4.34987974
REMARK minimizedRMSD -1
REMARK  1 active torsions:
REMARK  status: ('A' for Active; 'I' for Inactive)
REMARK    1  A    between atoms: C1_2  and  C2_3 
ROOT
ATOM      1  C2  UNL d   1      -0.288   0.003  -0.939  0.00  0.00    -0.073 A 
ATOM      2  C3  UNL d   1      -1.558   0.508  -1.241  0.00  0.00    -0.002 A 
ATOM      3  C4  UNL d   1      -2.553   0.544  -0.263  0.00  0.00     0.004 A 
ATOM      4  C5  UNL d   1      -2.287   0.084   1.026  0.00  0.00    -0.004 A 
ATOM      5  C6  UNL d   1      -1.021  -0.413   1.351  0.00  0.00    -0.075 A 
ATOM      6  C7  UNL d   1      -0.719  -0.914   2.733  0.00  0.00     0.076 C 
ATOM      7  C8  UNL d   1      -0.028  -0.449   0.362  0.00  0.00     0.001 A 
ENDROOT
BRANCH   1   8
ATOM      8  C1  UNL d   1       0.791  -0.033  -1.990  0.00  0.00     0.053 C 
ATOM      9  C   UNL d   1       0.545  -1.121  -3.023  0.00  0.00     0.018 C 
ENDBRANCH   1   8
TORSDOF 1
ENDMDL
