MODEL 1
REMARK minimizedAffinity -2.60900331
REMARK minimizedRMSD -1
REMARK  0 active torsions:
REMARK  status: ('A' for Active; 'I' for Inactive)
ROOT
ATOM      1  C   UNL d   1       1.719  -1.659  -0.639  0.00  0.00     0.020 A 
ATOM      2  C1  UNL d   1       1.569  -1.674   0.747  0.00  0.00     0.020 A 
ATOM      3  C2  UNL d   1       0.553  -0.927   1.348  0.00  0.00     0.034 A 
ATOM      4  C3  UNL d   1      -0.315  -0.161   0.562  0.00  0.00     0.017 A 
ATOM      5  C4  UNL d   1      -0.164  -0.146  -0.829  0.00  0.00     0.017 A 
ATOM      6  C5  UNL d   1       0.855  -0.896  -1.425  0.00  0.00     0.034 A 
ATOM      7 Cl   UNL d   1      -1.197   0.775  -1.864  0.00  0.00    -0.070 Cl
ATOM      8 Cl1  UNL d   1      -1.549   0.738   1.372  0.00  0.00    -0.070 Cl
ENDROOT
TORSDOF 0
ENDMDL
