MODEL 1
REMARK minimizedAffinity -0.62849617
REMARK minimizedRMSD -1
REMARK  0 active torsions:
REMARK  status: ('A' for Active; 'I' for Inactive)
ROOT
ATOM      1  C   UNL d   1      -0.263   0.122  -2.609  0.00  0.00     0.020 A 
ATOM      2  C1  UNL d   1      -1.488   0.572  -2.119  0.00  0.00     0.020 A 
ATOM      3  C2  UNL d   1      -1.806   0.401  -0.770  0.00  0.00     0.034 A 
ATOM      4  C3  UNL d   1      -0.897  -0.222   0.094  0.00  0.00     0.017 A 
ATOM      5  C4  UNL d   1       0.332  -0.673  -0.400  0.00  0.00     0.017 A 
ATOM      6  C5  UNL d   1       0.645  -0.500  -1.751  0.00  0.00     0.034 A 
ATOM      7 Cl   UNL d   1       1.504  -1.451   0.605  0.00  0.00    -0.070 Cl
ATOM      8 Cl1  UNL d   1      -1.356  -0.399   1.750  0.00  0.00    -0.070 Cl
ENDROOT
TORSDOF 0
ENDMDL
