MODEL 1
REMARK minimizedAffinity -0.80401969
REMARK minimizedRMSD -1
REMARK  0 active torsions:
REMARK  status: ('A' for Active; 'I' for Inactive)
ROOT
ATOM      1  C   UNL d   1       2.134  -1.316   1.053  0.00  0.00     0.020 A 
ATOM      2  C1  UNL d   1       2.292  -0.744  -0.208  0.00  0.00     0.020 A 
ATOM      3  C2  UNL d   1       1.270   0.035  -0.755  0.00  0.00     0.034 A 
ATOM      4  C3  UNL d   1       0.085   0.243  -0.040  0.00  0.00     0.017 A 
ATOM      5  C4  UNL d   1      -0.073  -0.332   1.226  0.00  0.00     0.017 A 
ATOM      6  C5  UNL d   1       0.954  -1.111   1.769  0.00  0.00     0.034 A 
ATOM      7 Cl   UNL d   1      -1.507  -0.120   2.168  0.00  0.00    -0.070 Cl
ATOM      8 Cl1  UNL d   1      -1.137   1.218  -0.777  0.00  0.00    -0.070 Cl
ENDROOT
TORSDOF 0
ENDMDL
