MODEL 1
REMARK minimizedAffinity -4.19726467
REMARK minimizedRMSD -1
REMARK  0 active torsions:
REMARK  status: ('A' for Active; 'I' for Inactive)
ROOT
ATOM      1  C   UNL d   1       1.208  -0.575  -0.911  0.00  0.00     0.020 A 
ATOM      2  C1  UNL d   1       0.618  -0.797  -2.155  0.00  0.00     0.020 A 
ATOM      3  C2  UNL d   1      -0.645  -0.271  -2.432  0.00  0.00     0.034 A 
ATOM      4  C3  UNL d   1      -1.324   0.478  -1.464  0.00  0.00     0.017 A 
ATOM      5  C4  UNL d   1      -0.731   0.701  -0.215  0.00  0.00     0.017 A 
ATOM      6  C5  UNL d   1       0.535   0.172   0.057  0.00  0.00     0.034 A 
ATOM      7 Cl   UNL d   1      -1.506   1.615   1.029  0.00  0.00    -0.070 Cl
ATOM      8 Cl1  UNL d   1      -2.883   1.098  -1.875  0.00  0.00    -0.070 Cl
ENDROOT
TORSDOF 0
ENDMDL
