MODEL 1
REMARK minimizedAffinity 5.67128992
REMARK minimizedRMSD -1
REMARK  0 active torsions:
REMARK  status: ('A' for Active; 'I' for Inactive)
ROOT
ATOM      1  C   UNL d   1      -1.538   2.026  -3.320  0.00  0.00     0.020 A 
ATOM      2  C1  UNL d   1      -2.752   2.708  -3.399  0.00  0.00     0.020 A 
ATOM      3  C2  UNL d   1      -3.875   2.212  -2.733  0.00  0.00     0.034 A 
ATOM      4  C3  UNL d   1      -3.786   1.032  -1.986  0.00  0.00     0.017 A 
ATOM      5  C4  UNL d   1      -2.567   0.349  -1.908  0.00  0.00     0.017 A 
ATOM      6  C5  UNL d   1      -1.446   0.850  -2.576  0.00  0.00     0.034 A 
ATOM      7 Cl   UNL d   1      -2.380  -1.114  -1.005  0.00  0.00    -0.070 Cl
ATOM      8 Cl1  UNL d   1      -5.215   0.476  -1.187  0.00  0.00    -0.070 Cl
ENDROOT
TORSDOF 0
ENDMDL
