MODEL 1
REMARK minimizedAffinity 6.8887434
REMARK minimizedRMSD -1
REMARK  0 active torsions:
REMARK  status: ('A' for Active; 'I' for Inactive)
ROOT
ATOM      1  C   UNL d   1      -5.210   2.664  -1.170  0.00  0.00     0.020 A 
ATOM      2  C1  UNL d   1      -4.494   1.632  -1.775  0.00  0.00     0.020 A 
ATOM      3  C2  UNL d   1      -3.308   1.911  -2.456  0.00  0.00     0.034 A 
ATOM      4  C3  UNL d   1      -2.833   3.225  -2.534  0.00  0.00     0.017 A 
ATOM      5  C4  UNL d   1      -3.552   4.261  -1.925  0.00  0.00     0.017 A 
ATOM      6  C5  UNL d   1      -4.739   3.976  -1.245  0.00  0.00     0.034 A 
ATOM      7 Cl   UNL d   1      -3.029   5.907  -1.978  0.00  0.00    -0.070 Cl
ATOM      8 Cl1  UNL d   1      -1.358   3.498  -3.392  0.00  0.00    -0.070 Cl
ENDROOT
TORSDOF 0
ENDMDL
