MODEL 1
REMARK minimizedAffinity -1.75158155
REMARK minimizedRMSD -1
REMARK  0 active torsions:
REMARK  status: ('A' for Active; 'I' for Inactive)
ROOT
ATOM      1  C   UNL d   1       0.633  -1.083  -1.712  0.00  0.00     0.020 A 
ATOM      2  C1  UNL d   1       1.030  -0.847  -0.396  0.00  0.00     0.020 A 
ATOM      3  C2  UNL d   1       0.347   0.090   0.382  0.00  0.00     0.034 A 
ATOM      4  C3  UNL d   1      -0.737   0.794  -0.155  0.00  0.00     0.017 A 
ATOM      5  C4  UNL d   1      -1.135   0.556  -1.476  0.00  0.00     0.017 A 
ATOM      6  C5  UNL d   1      -0.447  -0.383  -2.250  0.00  0.00     0.034 A 
ATOM      7 Cl   UNL d   1      -2.463   1.386  -2.207  0.00  0.00    -0.070 Cl
ATOM      8 Cl1  UNL d   1      -1.537   1.938   0.864  0.00  0.00    -0.070 Cl
ENDROOT
TORSDOF 0
ENDMDL
