MODEL 1
REMARK minimizedAffinity 6.04130507
REMARK minimizedRMSD -1
REMARK  0 active torsions:
REMARK  status: ('A' for Active; 'I' for Inactive)
ROOT
ATOM      1  C   UNL d   1      -0.391   0.791   0.506  0.00  0.00     0.020 A 
ATOM      2  C1  UNL d   1      -0.378  -0.263   1.419  0.00  0.00     0.020 A 
ATOM      3  C2  UNL d   1       0.807  -0.962   1.662  0.00  0.00     0.034 A 
ATOM      4  C3  UNL d   1       1.983  -0.608   0.991  0.00  0.00     0.017 A 
ATOM      5  C4  UNL d   1       1.969   0.451   0.075  0.00  0.00     0.017 A 
ATOM      6  C5  UNL d   1       0.780   1.147  -0.164  0.00  0.00     0.034 A 
ATOM      7 Cl   UNL d   1       3.380   0.946  -0.791  0.00  0.00    -0.070 Cl
ATOM      8 Cl1  UNL d   1       3.412  -1.515   1.340  0.00  0.00    -0.070 Cl
ENDROOT
TORSDOF 0
ENDMDL
