MODEL 1
REMARK minimizedAffinity -3.19805288
REMARK minimizedRMSD -1
REMARK  0 active torsions:
REMARK  status: ('A' for Active; 'I' for Inactive)
ROOT
ATOM      1  C   UNL d   1       0.058  -1.613   1.846  0.00  0.00     0.020 A 
ATOM      2  C1  UNL d   1       1.413  -1.904   1.695  0.00  0.00     0.020 A 
ATOM      3  C2  UNL d   1       2.176  -1.205   0.757  0.00  0.00     0.034 A 
ATOM      4  C3  UNL d   1       1.585  -0.213  -0.033  0.00  0.00     0.017 A 
ATOM      5  C4  UNL d   1       0.225   0.078   0.120  0.00  0.00     0.017 A 
ATOM      6  C5  UNL d   1      -0.535  -0.624   1.060  0.00  0.00     0.034 A 
ATOM      7 Cl   UNL d   1      -0.575   1.289  -0.819  0.00  0.00    -0.070 Cl
ATOM      8 Cl1  UNL d   1       2.589   0.611  -1.173  0.00  0.00    -0.070 Cl
ENDROOT
TORSDOF 0
ENDMDL
