MODEL 1
REMARK minimizedAffinity -4.12231112
REMARK minimizedRMSD -1
REMARK  0 active torsions:
REMARK  status: ('A' for Active; 'I' for Inactive)
ROOT
ATOM      1  C   UNL d   1      -1.972   1.456  -3.340  0.00  0.00     0.020 A 
ATOM      2  C1  UNL d   1      -1.992   2.075  -2.091  0.00  0.00     0.020 A 
ATOM      3  C2  UNL d   1      -1.177   1.597  -1.062  0.00  0.00     0.034 A 
ATOM      4  C3  UNL d   1      -0.340   0.497  -1.280  0.00  0.00     0.017 A 
ATOM      5  C4  UNL d   1      -0.321  -0.124  -2.535  0.00  0.00     0.017 A 
ATOM      6  C5  UNL d   1      -1.138   0.359  -3.561  0.00  0.00     0.034 A 
ATOM      7 Cl   UNL d   1       0.686  -1.486  -2.880  0.00  0.00    -0.070 Cl
ATOM      8 Cl1  UNL d   1       0.640  -0.041   0.037  0.00  0.00    -0.070 Cl
ENDROOT
TORSDOF 0
ENDMDL
