MODEL 1
REMARK minimizedAffinity -2.05590534
REMARK minimizedRMSD -1
REMARK  0 active torsions:
REMARK  status: ('A' for Active; 'I' for Inactive)
ROOT
ATOM      1  C   UNL d   1       1.905  -0.561  -0.726  0.00  0.00     0.020 A 
ATOM      2  C1  UNL d   1       1.400  -0.935  -1.970  0.00  0.00     0.020 A 
ATOM      3  C2  UNL d   1       0.187  -0.408  -2.419  0.00  0.00     0.034 A 
ATOM      4  C3  UNL d   1      -0.524   0.497  -1.623  0.00  0.00     0.017 A 
ATOM      5  C4  UNL d   1      -0.017   0.872  -0.374  0.00  0.00     0.017 A 
ATOM      6  C5  UNL d   1       1.198   0.341   0.071  0.00  0.00     0.034 A 
ATOM      7 Cl   UNL d   1      -0.838   1.984   0.664  0.00  0.00    -0.070 Cl
ATOM      8 Cl1  UNL d   1      -2.017   1.109  -2.241  0.00  0.00    -0.070 Cl
ENDROOT
TORSDOF 0
ENDMDL
