MODEL 1
REMARK minimizedAffinity -1.72791064
REMARK minimizedRMSD -1
REMARK  0 active torsions:
REMARK  status: ('A' for Active; 'I' for Inactive)
ROOT
ATOM      1  C   UNL d   1       2.414  -1.691   0.355  0.00  0.00     0.020 A 
ATOM      2  C1  UNL d   1       2.309  -0.967  -0.832  0.00  0.00     0.020 A 
ATOM      3  C2  UNL d   1       1.230  -0.104  -1.031  0.00  0.00     0.034 A 
ATOM      4  C3  UNL d   1       0.251   0.039  -0.041  0.00  0.00     0.017 A 
ATOM      5  C4  UNL d   1       0.357  -0.688   1.151  0.00  0.00     0.017 A 
ATOM      6  C5  UNL d   1       1.440  -1.551   1.345  0.00  0.00     0.034 A 
ATOM      7 Cl   UNL d   1      -0.811  -0.564   2.419  0.00  0.00    -0.070 Cl
ATOM      8 Cl1  UNL d   1      -1.056   1.125  -0.353  0.00  0.00    -0.070 Cl
ENDROOT
TORSDOF 0
ENDMDL
