MODEL 1
REMARK minimizedAffinity -0.776723266
REMARK minimizedRMSD -1
REMARK  0 active torsions:
REMARK  status: ('A' for Active; 'I' for Inactive)
ROOT
ATOM      1  C   UNL d   1      -2.239   2.173  -1.474  0.00  0.00     0.020 A 
ATOM      2  C1  UNL d   1      -1.264   1.994  -2.456  0.00  0.00     0.020 A 
ATOM      3  C2  UNL d   1      -0.215   1.098  -2.243  0.00  0.00     0.034 A 
ATOM      4  C3  UNL d   1      -0.137   0.377  -1.046  0.00  0.00     0.017 A 
ATOM      5  C4  UNL d   1      -1.115   0.557  -0.062  0.00  0.00     0.017 A 
ATOM      6  C5  UNL d   1      -2.164   1.455  -0.280  0.00  0.00     0.034 A 
ATOM      7 Cl   UNL d   1      -1.086  -0.298   1.441  0.00  0.00    -0.070 Cl
ATOM      8 Cl1  UNL d   1       1.188  -0.715  -0.851  0.00  0.00    -0.070 Cl
ENDROOT
TORSDOF 0
ENDMDL
