MODEL 1
REMARK minimizedAffinity 7.51379585
REMARK minimizedRMSD -1
REMARK  0 active torsions:
REMARK  status: ('A' for Active; 'I' for Inactive)
ROOT
ATOM      1  C   UNL d   1      -2.246   1.398   0.923  0.00  0.00     0.020 A 
ATOM      2  C1  UNL d   1      -3.039   1.152  -0.197  0.00  0.00     0.020 A 
ATOM      3  C2  UNL d   1      -3.006  -0.100  -0.815  0.00  0.00     0.034 A 
ATOM      4  C3  UNL d   1      -2.178  -1.111  -0.313  0.00  0.00     0.017 A 
ATOM      5  C4  UNL d   1      -1.383  -0.863   0.812  0.00  0.00     0.017 A 
ATOM      6  C5  UNL d   1      -1.420   0.392   1.426  0.00  0.00     0.034 A 
ATOM      7 Cl   UNL d   1      -0.337  -2.061   1.489  0.00  0.00    -0.070 Cl
ATOM      8 Cl1  UNL d   1      -2.188  -2.635  -1.127  0.00  0.00    -0.070 Cl
ENDROOT
TORSDOF 0
ENDMDL
