MODEL 1
REMARK minimizedAffinity -0.984236479
REMARK minimizedRMSD -1
REMARK  1 active torsions:
REMARK  status: ('A' for Active; 'I' for Inactive)
REMARK    1  A    between atoms: C1_2  and  C2_3 
ROOT
ATOM      1  C2  UNL d   1       2.050   5.361  -5.316  0.00  0.00    -0.081 A 
ATOM      2  C3  UNL d   1       2.232   4.150  -4.638  0.00  0.00     0.006 A 
ATOM      3  C4  UNL d   1       3.507   3.593  -4.511  0.00  0.00     0.002 A 
ATOM      4  C5  UNL d   1       4.622   4.242  -5.052  0.00  0.00    -0.080 A 
ATOM      5  C6  UNL d   1       6.000   3.671  -4.897  0.00  0.00     0.076 C 
ATOM      6  C7  UNL d   1       4.438   5.444  -5.745  0.00  0.00     0.002 A 
ATOM      7  C8  UNL d   1       3.163   6.000  -5.873  0.00  0.00     0.006 A 
ENDROOT
BRANCH   1   8
ATOM      8  C1  UNL d   1       0.686   5.996  -5.399  0.00  0.00     0.054 C 
ATOM      9  C   UNL d   1      -0.130   5.721  -4.143  0.00  0.00     0.018 C 
ENDBRANCH   1   8
TORSDOF 1
ENDMDL
