MODEL 1
REMARK minimizedAffinity 0.579191029
REMARK minimizedRMSD -1
REMARK  1 active torsions:
REMARK  status: ('A' for Active; 'I' for Inactive)
REMARK    1  A    between atoms: C1_2  and  C2_3 
ROOT
ATOM      1  C2  UNL d   1       1.842   5.944  -4.962  0.00  0.00    -0.081 A 
ATOM      2  C3  UNL d   1       1.672   5.965  -3.572  0.00  0.00     0.006 A 
ATOM      3  C4  UNL d   1       0.391   5.994  -3.016  0.00  0.00     0.002 A 
ATOM      4  C5  UNL d   1      -0.740   5.995  -3.839  0.00  0.00    -0.080 A 
ATOM      5  C6  UNL d   1      -2.121   5.995  -3.254  0.00  0.00     0.076 C 
ATOM      6  C7  UNL d   1      -0.570   5.991  -5.228  0.00  0.00     0.002 A 
ATOM      7  C8  UNL d   1       0.711   5.963  -5.784  0.00  0.00     0.006 A 
ENDROOT
BRANCH   1   8
ATOM      8  C1  UNL d   1       3.221   5.847  -5.564  0.00  0.00     0.054 C 
ATOM      9  C   UNL d   1       4.214   5.246  -4.579  0.00  0.00     0.018 C 
ENDBRANCH   1   8
TORSDOF 1
ENDMDL
