MODEL 1
REMARK minimizedAffinity 6.71918058
REMARK minimizedRMSD -1
REMARK  1 active torsions:
REMARK  status: ('A' for Active; 'I' for Inactive)
REMARK    1  A    between atoms: C1_2  and  C2_3 
ROOT
ATOM      1  C2  UNL d   1       1.676   5.840  -4.996  0.00  0.00    -0.081 A 
ATOM      2  C3  UNL d   1       1.827   5.942  -3.607  0.00  0.00     0.006 A 
ATOM      3  C4  UNL d   1       0.706   6.000  -2.776  0.00  0.00     0.002 A 
ATOM      4  C5  UNL d   1      -0.583   5.947  -3.318  0.00  0.00    -0.080 A 
ATOM      5  C6  UNL d   1      -1.795   5.977  -2.434  0.00  0.00     0.076 C 
ATOM      6  C7  UNL d   1      -0.734   5.863  -4.706  0.00  0.00     0.002 A 
ATOM      7  C8  UNL d   1       0.387   5.806  -5.538  0.00  0.00     0.006 A 
ENDROOT
BRANCH   1   8
ATOM      8  C1  UNL d   1       2.883   5.713  -5.890  0.00  0.00     0.054 C 
ATOM      9  C   UNL d   1       4.009   4.960  -5.196  0.00  0.00     0.018 C 
ENDBRANCH   1   8
TORSDOF 1
ENDMDL
