MODEL 1
REMARK minimizedAffinity 7.6840353
REMARK minimizedRMSD -1
REMARK  1 active torsions:
REMARK  status: ('A' for Active; 'I' for Inactive)
REMARK    1  A    between atoms: C1_2  and  C2_3 
ROOT
ATOM      1  C2  UNL d   1       1.041   1.376  -0.649  0.00  0.00    -0.081 A 
ATOM      2  C3  UNL d   1       1.315   2.516   0.117  0.00  0.00     0.006 A 
ATOM      3  C4  UNL d   1       1.014   2.543   1.480  0.00  0.00     0.002 A 
ATOM      4  C5  UNL d   1       0.442   1.428   2.103  0.00  0.00    -0.080 A 
ATOM      5  C6  UNL d   1       0.142   1.432   3.572  0.00  0.00     0.076 C 
ATOM      6  C7  UNL d   1       0.152   0.295   1.334  0.00  0.00     0.002 A 
ATOM      7  C8  UNL d   1       0.452   0.269  -0.029  0.00  0.00     0.006 A 
ENDROOT
BRANCH   1   8
ATOM      8  C1  UNL d   1       1.424   1.321  -2.106  0.00  0.00     0.054 C 
ATOM      9  C   UNL d   1       1.580  -0.115  -2.583  0.00  0.00     0.018 C 
ENDBRANCH   1   8
TORSDOF 1
ENDMDL
