MODEL 1
REMARK minimizedAffinity 5.66660118
REMARK minimizedRMSD -1
REMARK  1 active torsions:
REMARK  status: ('A' for Active; 'I' for Inactive)
REMARK    1  A    between atoms: C1_2  and  C2_3 
ROOT
ATOM      1  C2  UNL d   1       0.744   0.934  -0.783  0.00  0.00    -0.081 A 
ATOM      2  C3  UNL d   1       1.276   2.000  -0.046  0.00  0.00     0.006 A 
ATOM      3  C4  UNL d   1       1.205   2.001   1.349  0.00  0.00     0.002 A 
ATOM      4  C5  UNL d   1       0.609   0.934   2.030  0.00  0.00    -0.080 A 
ATOM      5  C6  UNL d   1       0.554   0.909   3.529  0.00  0.00     0.076 C 
ATOM      6  C7  UNL d   1       0.062  -0.122   1.293  0.00  0.00     0.002 A 
ATOM      7  C8  UNL d   1       0.132  -0.123  -0.101  0.00  0.00     0.006 A 
ENDROOT
BRANCH   1   8
ATOM      8  C1  UNL d   1       0.876   0.899  -2.284  0.00  0.00     0.054 C 
ATOM      9  C   UNL d   1       0.237  -0.353  -2.867  0.00  0.00     0.018 C 
ENDBRANCH   1   8
TORSDOF 1
ENDMDL
