MODEL 1
REMARK minimizedAffinity 1.21266568
REMARK minimizedRMSD -1
REMARK  1 active torsions:
REMARK  status: ('A' for Active; 'I' for Inactive)
REMARK    1  A    between atoms: C1_2  and  C2_3 
ROOT
ATOM      1  C2  UNL d   1      -1.206   5.992  -3.742  0.00  0.00    -0.081 A 
ATOM      2  C3  UNL d   1      -1.148   5.994  -5.141  0.00  0.00     0.006 A 
ATOM      3  C4  UNL d   1       0.084   5.987  -5.798  0.00  0.00     0.002 A 
ATOM      4  C5  UNL d   1       1.278   5.969  -5.069  0.00  0.00    -0.080 A 
ATOM      5  C6  UNL d   1       2.607   5.930  -5.762  0.00  0.00     0.076 C 
ATOM      6  C7  UNL d   1       1.220   5.984  -3.671  0.00  0.00     0.002 A 
ATOM      7  C8  UNL d   1      -0.012   5.993  -3.013  0.00  0.00     0.006 A 
ENDROOT
BRANCH   1   8
ATOM      8  C1  UNL d   1      -2.534   5.935  -3.030  0.00  0.00     0.054 C 
ATOM      9  C   UNL d   1      -2.354   5.972  -1.519  0.00  0.00     0.018 C 
ENDBRANCH   1   8
TORSDOF 1
ENDMDL
