MODEL 1
REMARK minimizedAffinity 3.307585
REMARK minimizedRMSD -1
REMARK  1 active torsions:
REMARK  status: ('A' for Active; 'I' for Inactive)
REMARK    1  A    between atoms: C1_2  and  C2_3 
ROOT
ATOM      1  C2  UNL d   1       1.212   1.098   0.010  0.00  0.00    -0.081 A 
ATOM      2  C3  UNL d   1       0.995   2.286   0.718  0.00  0.00     0.006 A 
ATOM      3  C4  UNL d   1       0.043   2.339   1.739  0.00  0.00     0.002 A 
ATOM      4  C5  UNL d   1      -0.701   1.203   2.074  0.00  0.00    -0.080 A 
ATOM      5  C6  UNL d   1      -1.705   1.237   3.189  0.00  0.00     0.076 C 
ATOM      6  C7  UNL d   1      -0.497   0.020   1.356  0.00  0.00     0.002 A 
ATOM      7  C8  UNL d   1       0.454  -0.033   0.334  0.00  0.00     0.006 A 
ENDROOT
BRANCH   1   8
ATOM      8  C1  UNL d   1       2.283   1.020  -1.048  0.00  0.00     0.054 C 
ATOM      9  C   UNL d   1       1.760   1.485  -2.400  0.00  0.00     0.018 C 
ENDBRANCH   1   8
TORSDOF 1
ENDMDL
