MODEL 1
REMARK minimizedAffinity -0.970622182
REMARK minimizedRMSD -1
REMARK  0 active torsions:
REMARK  status: ('A' for Active; 'I' for Inactive)
ROOT
ATOM      1  C4' PXY d   1      -0.068   6.000  -3.255  0.00  0.00     0.077 C 
ATOM      2  C1' PXY d   1      -0.255   2.783   1.544  0.00  0.00     0.077 C 
ATOM      3  C1  PXY d   1      -0.212   3.636   0.292  0.00  0.00    -0.082 A 
ATOM      4  C2  PXY d   1      -0.161   3.054  -0.895  0.00  0.00     0.003 A 
ATOM      5  C3  PXY d   1      -0.089   3.811  -2.036  0.00  0.00     0.003 A 
ATOM      6  C4  PXY d   1      -0.123   5.178  -1.965  0.00  0.00    -0.082 A 
ATOM      7  C5  PXY d   1      -0.185   5.779  -0.758  0.00  0.00     0.003 A 
ATOM      8  C6  PXY d   1      -0.216   4.993   0.391  0.00  0.00     0.003 A 
ENDROOT
TORSDOF 0
ENDMDL
