MODEL 1
REMARK minimizedAffinity 11.7974415
REMARK minimizedRMSD -1
REMARK  0 active torsions:
REMARK  status: ('A' for Active; 'I' for Inactive)
ROOT
ATOM      1  C4' PXY d   1       0.013   5.999  -3.777  0.00  0.00     0.077 C 
ATOM      2  C1' PXY d   1      -0.439   2.755   0.986  0.00  0.00     0.077 C 
ATOM      3  C1  PXY d   1      -0.330   3.598  -0.269  0.00  0.00    -0.082 A 
ATOM      4  C2  PXY d   1       0.800   4.234  -0.533  0.00  0.00     0.003 A 
ATOM      5  C3  PXY d   1       0.906   5.027  -1.647  0.00  0.00     0.003 A 
ATOM      6  C4  PXY d   1      -0.139   5.128  -2.527  0.00  0.00    -0.082 A 
ATOM      7  C5  PXY d   1      -1.291   4.474  -2.269  0.00  0.00     0.003 A 
ATOM      8  C6  PXY d   1      -1.392   3.707  -1.112  0.00  0.00     0.003 A 
ENDROOT
TORSDOF 0
ENDMDL
