MODEL 1
REMARK minimizedAffinity 9.9021225
REMARK minimizedRMSD -1
REMARK  0 active torsions:
REMARK  status: ('A' for Active; 'I' for Inactive)
ROOT
ATOM      1  C4' PXY d   1       0.665  -5.389  -1.115  0.00  0.00     0.077 C 
ATOM      2  C1' PXY d   1      -1.540  -1.391  -4.661  0.00  0.00     0.077 C 
ATOM      3  C1  PXY d   1      -0.959  -2.430  -3.722  0.00  0.00    -0.082 A 
ATOM      4  C2  PXY d   1      -0.497  -3.569  -4.213  0.00  0.00     0.003 A 
ATOM      5  C3  PXY d   1       0.002  -4.533  -3.375  0.00  0.00     0.003 A 
ATOM      6  C4  PXY d   1       0.078  -4.307  -2.026  0.00  0.00    -0.082 A 
ATOM      7  C5  PXY d   1      -0.381  -3.143  -1.520  0.00  0.00     0.003 A 
ATOM      8  C6  PXY d   1      -0.922  -2.195  -2.383  0.00  0.00     0.003 A 
ENDROOT
TORSDOF 0
ENDMDL
