MODEL 1
REMARK minimizedAffinity 6.22554493
REMARK minimizedRMSD -1
REMARK  0 active torsions:
REMARK  status: ('A' for Active; 'I' for Inactive)
ROOT
ATOM      1  C4' PXY d   1      -6.000   1.881  -0.432  0.00  0.00     0.077 C 
ATOM      2  C1' PXY d   1      -4.921   5.003  -5.175  0.00  0.00     0.077 C 
ATOM      3  C1  PXY d   1      -5.212   4.176  -3.938  0.00  0.00    -0.082 A 
ATOM      4  C2  PXY d   1      -5.066   4.718  -2.740  0.00  0.00     0.003 A 
ATOM      5  C3  PXY d   1      -5.293   3.976  -1.610  0.00  0.00     0.003 A 
ATOM      6  C4  PXY d   1      -5.727   2.680  -1.708  0.00  0.00    -0.082 A 
ATOM      7  C5  PXY d   1      -5.888   2.123  -2.927  0.00  0.00     0.003 A 
ATOM      8  C6  PXY d   1      -5.612   2.882  -4.061  0.00  0.00     0.003 A 
ENDROOT
TORSDOF 0
ENDMDL
