MODEL 1
REMARK minimizedAffinity 11.6941824
REMARK minimizedRMSD -1
REMARK  0 active torsions:
REMARK  status: ('A' for Active; 'I' for Inactive)
ROOT
ATOM      1  C4' PXY d   1       1.606   5.992  -0.757  0.00  0.00     0.077 C 
ATOM      2  C1' PXY d   1      -3.176   3.419  -2.740  0.00  0.00     0.077 C 
ATOM      3  C1  PXY d   1      -1.918   4.082  -2.215  0.00  0.00    -0.082 A 
ATOM      4  C2  PXY d   1      -1.925   5.378  -1.947  0.00  0.00     0.003 A 
ATOM      5  C3  PXY d   1      -0.786   6.000  -1.502  0.00  0.00     0.003 A 
ATOM      6  C4  PXY d   1       0.356   5.278  -1.280  0.00  0.00    -0.082 A 
ATOM      7  C5  PXY d   1       0.368   3.954  -1.541  0.00  0.00     0.003 A 
ATOM      8  C6  PXY d   1      -0.786   3.349  -2.031  0.00  0.00     0.003 A 
ENDROOT
TORSDOF 0
ENDMDL
