MODEL 1
REMARK minimizedAffinity 10.8936262
REMARK minimizedRMSD -1
REMARK  0 active torsions:
REMARK  status: ('A' for Active; 'I' for Inactive)
ROOT
ATOM      1  C4' PXY d   1      -5.350   3.380  -0.986  0.00  0.00     0.077 C 
ATOM      2  C1' PXY d   1      -5.874  -0.018  -5.633  0.00  0.00     0.077 C 
ATOM      3  C1  PXY d   1      -5.728   0.881  -4.420  0.00  0.00    -0.082 A 
ATOM      4  C2  PXY d   1      -5.999   0.404  -3.216  0.00  0.00     0.003 A 
ATOM      5  C3  PXY d   1      -5.904   1.212  -2.113  0.00  0.00     0.003 A 
ATOM      6  C4  PXY d   1      -5.474   2.506  -2.237  0.00  0.00    -0.082 A 
ATOM      7  C5  PXY d   1      -5.185   2.997  -3.461  0.00  0.00     0.003 A 
ATOM      8  C6  PXY d   1      -5.328   2.173  -4.573  0.00  0.00     0.003 A 
ENDROOT
TORSDOF 0
ENDMDL
