MODEL 1
REMARK minimizedAffinity 4.52993488
REMARK minimizedRMSD -1
REMARK  0 active torsions:
REMARK  status: ('A' for Active; 'I' for Inactive)
ROOT
ATOM      1  C4' PXY d   1       2.380   3.115   2.695  0.00  0.00     0.077 C 
ATOM      2  C1' PXY d   1      -0.666   5.040  -1.826  0.00  0.00     0.077 C 
ATOM      3  C1  PXY d   1       0.144   4.536  -0.647  0.00  0.00    -0.082 A 
ATOM      4  C2  PXY d   1      -0.440   3.791   0.277  0.00  0.00     0.003 A 
ATOM      5  C3  PXY d   1       0.270   3.354   1.366  0.00  0.00     0.003 A 
ATOM      6  C4  PXY d   1       1.604   3.638   1.483  0.00  0.00    -0.082 A 
ATOM      7  C5  PXY d   1       2.210   4.389   0.539  0.00  0.00     0.003 A 
ATOM      8  C6  PXY d   1       1.462   4.857  -0.538  0.00  0.00     0.003 A 
ENDROOT
TORSDOF 0
ENDMDL
