MODEL 1
REMARK minimizedAffinity 12.215929
REMARK minimizedRMSD -1
REMARK  0 active torsions:
REMARK  status: ('A' for Active; 'I' for Inactive)
ROOT
ATOM      1  C4' PXY d   1       2.596  -2.209   0.479  0.00  0.00     0.077 C 
ATOM      2  C1' PXY d   1      -1.786  -4.809  -2.252  0.00  0.00     0.077 C 
ATOM      3  C1  PXY d   1      -0.639  -4.116  -1.542  0.00  0.00    -0.082 A 
ATOM      4  C2  PXY d   1       0.353  -4.836  -1.045  0.00  0.00     0.003 A 
ATOM      5  C3  PXY d   1       1.382  -4.228  -0.373  0.00  0.00     0.003 A 
ATOM      6  C4  PXY d   1       1.422  -2.865  -0.254  0.00  0.00    -0.082 A 
ATOM      7  C5  PXY d   1       0.419  -2.122  -0.767  0.00  0.00     0.003 A 
ATOM      8  C6  PXY d   1      -0.637  -2.762  -1.410  0.00  0.00     0.003 A 
ENDROOT
TORSDOF 0
ENDMDL
