MODEL 1
REMARK minimizedAffinity 7.47786427
REMARK minimizedRMSD -1
REMARK  0 active torsions:
REMARK  status: ('A' for Active; 'I' for Inactive)
ROOT
ATOM      1  C   UNL d   1       1.076  -1.015   2.255  0.00  0.00     0.124 A 
ATOM      2  C1  UNL d   1       0.029  -0.603   1.442  0.00  0.00     0.062 A 
ATOM      3  C2  UNL d   1       0.189   0.490   0.595  0.00  0.00     0.162 A 
ATOM      4  C3  UNL d   1       1.402   1.177   0.554  0.00  0.00    -0.034 A 
ATOM      5  C4  UNL d   1       2.450   0.758   1.376  0.00  0.00     0.162 A 
ATOM      6  C5  UNL d   1       2.285  -0.335   2.221  0.00  0.00     0.062 A 
ATOM      7  F   UNL d   1       3.297  -0.731   3.006  0.00  0.00    -0.097 F 
ATOM      8  F1  UNL d   1       3.629   1.396   1.362  0.00  0.00    -0.096 F 
ATOM      9  I   UNL d   1       1.646   2.811  -0.712  0.00  0.00    -0.060 I 
ATOM     10  F2  UNL d   1      -0.839   0.866  -0.180  0.00  0.00    -0.096 F 
ATOM     11  F3  UNL d   1      -1.141  -1.258   1.474  0.00  0.00    -0.097 F 
ATOM     12  F4  UNL d   1       0.919  -2.065   3.071  0.00  0.00    -0.092 F 
ENDROOT
TORSDOF 0
ENDMDL
