MODEL 1
REMARK minimizedAffinity 7.51756096
REMARK minimizedRMSD -1
REMARK  0 active torsions:
REMARK  status: ('A' for Active; 'I' for Inactive)
ROOT
ATOM      1  C   UNL d   1      -0.558   2.182   0.241  0.00  0.00     0.124 A 
ATOM      2  C1  UNL d   1       0.806   2.035   0.453  0.00  0.00     0.062 A 
ATOM      3  C2  UNL d   1       1.707   2.897  -0.166  0.00  0.00     0.162 A 
ATOM      4  C3  UNL d   1       1.247   3.914  -1.002  0.00  0.00    -0.034 A 
ATOM      5  C4  UNL d   1      -0.126   4.055  -1.211  0.00  0.00     0.162 A 
ATOM      6  C5  UNL d   1      -1.023   3.191  -0.590  0.00  0.00     0.062 A 
ATOM      7  F   UNL d   1      -2.340   3.334  -0.795  0.00  0.00    -0.097 F 
ATOM      8  F1  UNL d   1      -0.603   5.022  -2.008  0.00  0.00    -0.096 F 
ATOM      9  I   UNL d   1       2.591   5.205  -1.929  0.00  0.00    -0.060 I 
ATOM     10  F2  UNL d   1       3.019   2.732   0.056  0.00  0.00    -0.096 F 
ATOM     11  F3  UNL d   1       1.258   1.060   1.255  0.00  0.00    -0.097 F 
ATOM     12  F4  UNL d   1      -1.423   1.351   0.837  0.00  0.00    -0.092 F 
ENDROOT
TORSDOF 0
ENDMDL
