MODEL 1
REMARK minimizedAffinity 18.4072838
REMARK minimizedRMSD -1
REMARK  0 active torsions:
REMARK  status: ('A' for Active; 'I' for Inactive)
ROOT
ATOM      1  C   UNL d   1       2.135   0.200   2.719  0.00  0.00     0.124 A 
ATOM      2  C1  UNL d   1       2.569   1.063   1.722  0.00  0.00     0.062 A 
ATOM      3  C2  UNL d   1       2.453   0.700   0.383  0.00  0.00     0.162 A 
ATOM      4  C3  UNL d   1       1.901  -0.532   0.033  0.00  0.00    -0.034 A 
ATOM      5  C4  UNL d   1       1.468  -1.395   1.041  0.00  0.00     0.162 A 
ATOM      6  C5  UNL d   1       1.586  -1.028   2.378  0.00  0.00     0.062 A 
ATOM      7  F   UNL d   1       1.167  -1.863   3.339  0.00  0.00    -0.097 F 
ATOM      8  F1  UNL d   1       0.932  -2.587   0.740  0.00  0.00    -0.096 F 
ATOM      9  I   UNL d   1       1.727  -1.078  -1.968  0.00  0.00    -0.060 I 
ATOM     10  F2  UNL d   1       2.880   1.554  -0.559  0.00  0.00    -0.096 F 
ATOM     11  F3  UNL d   1       3.101   2.250   2.049  0.00  0.00    -0.097 F 
ATOM     12  F4  UNL d   1       2.248   0.551   4.006  0.00  0.00    -0.092 F 
ENDROOT
TORSDOF 0
ENDMDL
