MODEL 1
REMARK minimizedAffinity 15.5291586
REMARK minimizedRMSD -1
REMARK  0 active torsions:
REMARK  status: ('A' for Active; 'I' for Inactive)
ROOT
ATOM      1  C   UNL d   1       1.663  -2.367   3.301  0.00  0.00     0.124 A 
ATOM      2  C1  UNL d   1       0.793  -2.320   2.220  0.00  0.00     0.062 A 
ATOM      3  C2  UNL d   1       0.839  -1.250   1.331  0.00  0.00     0.162 A 
ATOM      4  C3  UNL d   1       1.759  -0.219   1.518  0.00  0.00    -0.034 A 
ATOM      5  C4  UNL d   1       2.630  -0.272   2.608  0.00  0.00     0.162 A 
ATOM      6  C5  UNL d   1       2.580  -1.343   3.494  0.00  0.00     0.062 A 
ATOM      7  F   UNL d   1       3.421  -1.387   4.537  0.00  0.00    -0.097 F 
ATOM      8  F1  UNL d   1       3.527   0.703   2.817  0.00  0.00    -0.096 F 
ATOM      9  I   UNL d   1       1.831   1.383   0.190  0.00  0.00    -0.060 I 
ATOM     10  F2  UNL d   1      -0.013  -1.231   0.295  0.00  0.00    -0.096 F 
ATOM     11  F3  UNL d   1      -0.095  -3.307   2.032  0.00  0.00    -0.097 F 
ATOM     12  F4  UNL d   1       1.616  -3.397   4.156  0.00  0.00    -0.092 F 
ENDROOT
TORSDOF 0
ENDMDL
