MODEL 1
REMARK minimizedAffinity 7.6605444
REMARK minimizedRMSD -1
REMARK  0 active torsions:
REMARK  status: ('A' for Active; 'I' for Inactive)
ROOT
ATOM      1  C   UNL d   1      -0.641  -2.167  -2.103  0.00  0.00     0.124 A 
ATOM      2  C1  UNL d   1      -1.110  -1.809  -0.846  0.00  0.00     0.062 A 
ATOM      3  C2  UNL d   1      -0.296  -1.093   0.026  0.00  0.00     0.162 A 
ATOM      4  C3  UNL d   1       0.995  -0.728  -0.354  0.00  0.00    -0.034 A 
ATOM      5  C4  UNL d   1       1.460  -1.092  -1.619  0.00  0.00     0.162 A 
ATOM      6  C5  UNL d   1       0.643  -1.808  -2.488  0.00  0.00     0.062 A 
ATOM      7  F   UNL d   1       1.098  -2.153  -3.702  0.00  0.00    -0.097 F 
ATOM      8  F1  UNL d   1       2.697  -0.757  -2.018  0.00  0.00    -0.096 F 
ATOM      9  I   UNL d   1       2.215   0.343   0.948  0.00  0.00    -0.060 I 
ATOM     10  F2  UNL d   1      -0.775  -0.761   1.235  0.00  0.00    -0.096 F 
ATOM     11  F3  UNL d   1      -2.349  -2.156  -0.472  0.00  0.00    -0.097 F 
ATOM     12  F4  UNL d   1      -1.425  -2.857  -2.941  0.00  0.00    -0.092 F 
ENDROOT
TORSDOF 0
ENDMDL
