MODEL 1
REMARK minimizedAffinity 5.92172003
REMARK minimizedRMSD -1
REMARK  0 active torsions:
REMARK  status: ('A' for Active; 'I' for Inactive)
ROOT
ATOM      1  C   UNL d   1       1.395  -1.005   2.143  0.00  0.00     0.124 A 
ATOM      2  C1  UNL d   1       2.530  -0.209   2.081  0.00  0.00     0.062 A 
ATOM      3  C2  UNL d   1       2.526   0.958   1.323  0.00  0.00     0.162 A 
ATOM      4  C3  UNL d   1       1.382   1.338   0.622  0.00  0.00    -0.034 A 
ATOM      5  C4  UNL d   1       0.244   0.532   0.688  0.00  0.00     0.162 A 
ATOM      6  C5  UNL d   1       0.253  -0.634   1.447  0.00  0.00     0.062 A 
ATOM      7  F   UNL d   1      -0.845  -1.402   1.505  0.00  0.00    -0.097 F 
ATOM      8  F1  UNL d   1      -0.873   0.867   0.026  0.00  0.00    -0.096 F 
ATOM      9  I   UNL d   1       1.372   3.083  -0.513  0.00  0.00    -0.060 I 
ATOM     10  F2  UNL d   1       3.637   1.708   1.282  0.00  0.00    -0.096 F 
ATOM     11  F3  UNL d   1       3.635  -0.566   2.752  0.00  0.00    -0.097 F 
ATOM     12  F4  UNL d   1       1.401  -2.128   2.872  0.00  0.00    -0.092 F 
ENDROOT
TORSDOF 0
ENDMDL
