MODEL 1
REMARK minimizedAffinity 15.35567
REMARK minimizedRMSD -1
REMARK  0 active torsions:
REMARK  status: ('A' for Active; 'I' for Inactive)
ROOT
ATOM      1  C   UNL d   1       1.047  -1.911   2.638  0.00  0.00     0.124 A 
ATOM      2  C1  UNL d   1       0.124  -1.585   1.654  0.00  0.00     0.062 A 
ATOM      3  C2  UNL d   1       0.262  -0.405   0.929  0.00  0.00     0.162 A 
ATOM      4  C3  UNL d   1       1.328   0.458   1.185  0.00  0.00    -0.034 A 
ATOM      5  C4  UNL d   1       2.251   0.124   2.177  0.00  0.00     0.162 A 
ATOM      6  C5  UNL d   1       2.109  -1.057   2.899  0.00  0.00     0.062 A 
ATOM      7  F   UNL d   1       3.002  -1.370   3.849  0.00  0.00    -0.097 F 
ATOM      8  F1  UNL d   1       3.287   0.931   2.449  0.00  0.00    -0.096 F 
ATOM      9  I   UNL d   1       1.537   2.224   0.103  0.00  0.00    -0.060 I 
ATOM     10  F2  UNL d   1      -0.645  -0.115  -0.016  0.00  0.00    -0.096 F 
ATOM     11  F3  UNL d   1      -0.904  -2.408   1.401  0.00  0.00    -0.097 F 
ATOM     12  F4  UNL d   1       0.911  -3.047   3.335  0.00  0.00    -0.092 F 
ENDROOT
TORSDOF 0
ENDMDL
