MODEL 1
REMARK minimizedAffinity 10.7509575
REMARK minimizedRMSD -1
REMARK  0 active torsions:
REMARK  status: ('A' for Active; 'I' for Inactive)
ROOT
ATOM      1  C   UNL d   1       2.419  -3.720   4.241  0.00  0.00     0.124 A 
ATOM      2  C1  UNL d   1       1.124  -3.355   3.900  0.00  0.00     0.062 A 
ATOM      3  C2  UNL d   1       0.901  -2.265   3.063  0.00  0.00     0.162 A 
ATOM      4  C3  UNL d   1       1.976  -1.533   2.560  0.00  0.00    -0.034 A 
ATOM      5  C4  UNL d   1       3.276  -1.905   2.909  0.00  0.00     0.162 A 
ATOM      6  C5  UNL d   1       3.493  -2.995   3.746  0.00  0.00     0.062 A 
ATOM      7  F   UNL d   1       4.745  -3.346   4.075  0.00  0.00    -0.097 F 
ATOM      8  F1  UNL d   1       4.332  -1.222   2.444  0.00  0.00    -0.096 F 
ATOM      9  I   UNL d   1       1.647   0.097   1.309  0.00  0.00    -0.060 I 
ATOM     10  F2  UNL d   1      -0.361  -1.936   2.749  0.00  0.00    -0.096 F 
ATOM     11  F3  UNL d   1       0.084  -4.054   4.378  0.00  0.00    -0.097 F 
ATOM     12  F4  UNL d   1       2.630  -4.768   5.047  0.00  0.00    -0.092 F 
ENDROOT
TORSDOF 0
ENDMDL
