MODEL 1
REMARK minimizedAffinity 6.73902798
REMARK minimizedRMSD -1
REMARK  0 active torsions:
REMARK  status: ('A' for Active; 'I' for Inactive)
ROOT
ATOM      1  C   UNL d   1      -1.776  -1.110   0.219  0.00  0.00     0.020 A 
ATOM      2  C1  UNL d   1      -0.759  -1.201  -0.731  0.00  0.00     0.020 A 
ATOM      3  C2  UNL d   1      -0.949  -1.962  -1.886  0.00  0.00     0.034 A 
ATOM      4  C3  UNL d   1      -2.158  -2.635  -2.095  0.00  0.00     0.017 A 
ATOM      5  C4  UNL d   1      -3.178  -2.544  -1.141  0.00  0.00     0.017 A 
ATOM      6  C5  UNL d   1      -2.982  -1.780   0.014  0.00  0.00     0.034 A 
ATOM      7 Cl   UNL d   1      -4.697  -3.346  -1.328  0.00  0.00    -0.070 Cl
ATOM      8 Cl1  UNL d   1      -2.324  -3.558  -3.546  0.00  0.00    -0.070 Cl
ENDROOT
TORSDOF 0
ENDMDL
