MODEL 1
REMARK minimizedAffinity 5.63552189
REMARK minimizedRMSD -1
REMARK  0 active torsions:
REMARK  status: ('A' for Active; 'I' for Inactive)
ROOT
ATOM      1  C   UNL d   1      -0.762  -1.700  -1.423  0.00  0.00     0.020 A 
ATOM      2  C1  UNL d   1      -1.240  -1.426  -0.142  0.00  0.00     0.020 A 
ATOM      3  C2  UNL d   1      -0.768  -0.313   0.556  0.00  0.00     0.034 A 
ATOM      4  C3  UNL d   1       0.185   0.531  -0.026  0.00  0.00     0.017 A 
ATOM      5  C4  UNL d   1       0.664   0.255  -1.312  0.00  0.00     0.017 A 
ATOM      6  C5  UNL d   1       0.188  -0.861  -2.007  0.00  0.00     0.034 A 
ATOM      7 Cl   UNL d   1       1.840   1.250  -2.096  0.00  0.00    -0.070 Cl
ATOM      8 Cl1  UNL d   1       0.724   1.890   0.894  0.00  0.00    -0.070 Cl
ENDROOT
TORSDOF 0
ENDMDL
