MODEL 1
REMARK minimizedAffinity 12.9105368
REMARK minimizedRMSD -1
REMARK  0 active torsions:
REMARK  status: ('A' for Active; 'I' for Inactive)
ROOT
ATOM      1  C   UNL d   1       0.083  -1.638  -1.376  0.00  0.00     0.020 A 
ATOM      2  C1  UNL d   1      -1.276  -1.949  -1.407  0.00  0.00     0.020 A 
ATOM      3  C2  UNL d   1      -2.141  -1.394  -0.462  0.00  0.00     0.034 A 
ATOM      4  C3  UNL d   1      -1.649  -0.524   0.519  0.00  0.00     0.017 A 
ATOM      5  C4  UNL d   1      -0.284  -0.213   0.549  0.00  0.00     0.017 A 
ATOM      6  C5  UNL d   1       0.577  -0.771  -0.400  0.00  0.00     0.034 A 
ATOM      7 Cl   UNL d   1       0.397   0.852   1.728  0.00  0.00    -0.070 Cl
ATOM      8 Cl1  UNL d   1      -2.776   0.126   1.656  0.00  0.00    -0.070 Cl
ENDROOT
TORSDOF 0
ENDMDL
