MODEL 1
REMARK minimizedAffinity 10.294755
REMARK minimizedRMSD -1
REMARK  0 active torsions:
REMARK  status: ('A' for Active; 'I' for Inactive)
ROOT
ATOM      1  C   UNL d   1       4.111  -3.361  -5.953  0.00  0.00     0.020 A 
ATOM      2  C1  UNL d   1       5.439  -3.736  -5.756  0.00  0.00     0.020 A 
ATOM      3  C2  UNL d   1       5.998  -3.681  -4.478  0.00  0.00     0.034 A 
ATOM      4  C3  UNL d   1       5.229  -3.249  -3.391  0.00  0.00     0.017 A 
ATOM      5  C4  UNL d   1       3.896  -2.873  -3.589  0.00  0.00     0.017 A 
ATOM      6  C5  UNL d   1       3.341  -2.930  -4.871  0.00  0.00     0.034 A 
ATOM      7 Cl   UNL d   1       2.884  -2.329  -2.297  0.00  0.00    -0.070 Cl
ATOM      8 Cl1  UNL d   1       5.986  -3.206  -1.838  0.00  0.00    -0.070 Cl
ENDROOT
TORSDOF 0
ENDMDL
