MODEL 1
REMARK minimizedAffinity 10.8053074
REMARK minimizedRMSD -1
REMARK  0 active torsions:
REMARK  status: ('A' for Active; 'I' for Inactive)
ROOT
ATOM      1  C   UNL d   1      -4.866   1.537   2.119  0.00  0.00     0.020 A 
ATOM      2  C1  UNL d   1      -5.115   1.142   3.433  0.00  0.00     0.020 A 
ATOM      3  C2  UNL d   1      -4.292   0.194   4.045  0.00  0.00     0.034 A 
ATOM      4  C3  UNL d   1      -3.217  -0.362   3.344  0.00  0.00     0.017 A 
ATOM      5  C4  UNL d   1      -2.967   0.035   2.025  0.00  0.00     0.017 A 
ATOM      6  C5  UNL d   1      -3.794   0.984   1.417  0.00  0.00     0.034 A 
ATOM      7 Cl   UNL d   1      -1.659  -0.607   1.096  0.00  0.00    -0.070 Cl
ATOM      8 Cl1  UNL d   1      -2.240  -1.528   4.164  0.00  0.00    -0.070 Cl
ENDROOT
TORSDOF 0
ENDMDL
