MODEL 1
REMARK minimizedAffinity 6.75723839
REMARK minimizedRMSD -1
REMARK  0 active torsions:
REMARK  status: ('A' for Active; 'I' for Inactive)
ROOT
ATOM      1  C   UNL d   1       5.942  -3.842   5.983  0.00  0.00     0.020 A 
ATOM      2  C1  UNL d   1       5.978  -5.002   5.210  0.00  0.00     0.020 A 
ATOM      3  C2  UNL d   1       5.995  -4.912   3.817  0.00  0.00     0.034 A 
ATOM      4  C3  UNL d   1       5.976  -3.659   3.192  0.00  0.00     0.017 A 
ATOM      5  C4  UNL d   1       5.940  -2.496   3.969  0.00  0.00     0.017 A 
ATOM      6  C5  UNL d   1       5.923  -2.592   5.364  0.00  0.00     0.034 A 
ATOM      7 Cl   UNL d   1       5.915  -0.915   3.270  0.00  0.00    -0.070 Cl
ATOM      8 Cl1  UNL d   1       6.000  -3.623   1.465  0.00  0.00    -0.070 Cl
ENDROOT
TORSDOF 0
ENDMDL
