MODEL 1
REMARK minimizedAffinity 7.13667822
REMARK minimizedRMSD -1
REMARK  0 active torsions:
REMARK  status: ('A' for Active; 'I' for Inactive)
ROOT
ATOM      1  C   UNL d   1      -1.269  -0.959  -0.692  0.00  0.00     0.020 A 
ATOM      2  C1  UNL d   1      -1.263   0.411  -0.953  0.00  0.00     0.020 A 
ATOM      3  C2  UNL d   1      -0.144   1.006  -1.540  0.00  0.00     0.034 A 
ATOM      4  C3  UNL d   1       0.974   0.231  -1.868  0.00  0.00     0.017 A 
ATOM      5  C4  UNL d   1       0.968  -1.144  -1.605  0.00  0.00     0.017 A 
ATOM      6  C5  UNL d   1      -0.155  -1.734  -1.018  0.00  0.00     0.034 A 
ATOM      7 Cl   UNL d   1       2.310  -2.166  -1.981  0.00  0.00    -0.070 Cl
ATOM      8 Cl1  UNL d   1       2.323   1.032  -2.592  0.00  0.00    -0.070 Cl
ENDROOT
TORSDOF 0
ENDMDL
