MODEL 1
REMARK minimizedAffinity 10.4977379
REMARK minimizedRMSD -1
REMARK  0 active torsions:
REMARK  status: ('A' for Active; 'I' for Inactive)
ROOT
ATOM      1  C   UNL d   1      -2.220  -1.708   0.300  0.00  0.00     0.020 A 
ATOM      2  C1  UNL d   1      -1.756  -2.395  -0.821  0.00  0.00     0.020 A 
ATOM      3  C2  UNL d   1      -0.713  -1.864  -1.583  0.00  0.00     0.034 A 
ATOM      4  C3  UNL d   1      -0.131  -0.642  -1.226  0.00  0.00     0.017 A 
ATOM      5  C4  UNL d   1      -0.598   0.047  -0.101  0.00  0.00     0.017 A 
ATOM      6  C5  UNL d   1      -1.642  -0.490   0.659  0.00  0.00     0.034 A 
ATOM      7 Cl   UNL d   1       0.069   1.559   0.403  0.00  0.00    -0.070 Cl
ATOM      8 Cl1  UNL d   1       1.154  -0.045  -2.214  0.00  0.00    -0.070 Cl
ENDROOT
TORSDOF 0
ENDMDL
