MODEL 1
REMARK minimizedAffinity 9.03586483
REMARK minimizedRMSD -1
REMARK  0 active torsions:
REMARK  status: ('A' for Active; 'I' for Inactive)
ROOT
ATOM      1  C   UNL d   1       5.416  -2.368  -4.089  0.00  0.00     0.020 A 
ATOM      2  C1  UNL d   1       4.033  -2.212  -4.179  0.00  0.00     0.020 A 
ATOM      3  C2  UNL d   1       3.233  -2.414  -3.052  0.00  0.00     0.034 A 
ATOM      4  C3  UNL d   1       3.815  -2.774  -1.831  0.00  0.00     0.017 A 
ATOM      5  C4  UNL d   1       5.203  -2.930  -1.742  0.00  0.00     0.017 A 
ATOM      6  C5  UNL d   1       5.999  -2.726  -2.873  0.00  0.00     0.034 A 
ATOM      7 Cl   UNL d   1       5.994  -3.372  -0.270  0.00  0.00    -0.070 Cl
ATOM      8 Cl1  UNL d   1       2.765  -3.008  -0.479  0.00  0.00    -0.070 Cl
ENDROOT
TORSDOF 0
ENDMDL
