MODEL 1
REMARK minimizedAffinity 2.15124655
REMARK minimizedRMSD -1
REMARK  0 active torsions:
REMARK  status: ('A' for Active; 'I' for Inactive)
ROOT
ATOM      1  C   UNL d   1      -4.356  -1.370   6.000  0.00  0.00     0.020 A 
ATOM      2  C1  UNL d   1      -3.344  -2.042   5.315  0.00  0.00     0.020 A 
ATOM      3  C2  UNL d   1      -2.840  -1.518   4.123  0.00  0.00     0.034 A 
ATOM      4  C3  UNL d   1      -3.348  -0.318   3.612  0.00  0.00     0.017 A 
ATOM      5  C4  UNL d   1      -4.363   0.356   4.299  0.00  0.00     0.017 A 
ATOM      6  C5  UNL d   1      -4.864  -0.173   5.493  0.00  0.00     0.034 A 
ATOM      7 Cl   UNL d   1      -5.040   1.841   3.731  0.00  0.00    -0.070 Cl
ATOM      8 Cl1  UNL d   1      -2.677   0.272   2.133  0.00  0.00    -0.070 Cl
ENDROOT
TORSDOF 0
ENDMDL
