MODEL 1
REMARK minimizedAffinity 4.98378515
REMARK minimizedRMSD -1
REMARK  0 active torsions:
REMARK  status: ('A' for Active; 'I' for Inactive)
ROOT
ATOM      1  C   UNL d   1       0.584   0.652  -1.577  0.00  0.00     0.020 A 
ATOM      2  C1  UNL d   1       0.851  -0.472  -2.357  0.00  0.00     0.020 A 
ATOM      3  C2  UNL d   1       0.159  -1.663  -2.126  0.00  0.00     0.034 A 
ATOM      4  C3  UNL d   1      -0.802  -1.733  -1.110  0.00  0.00     0.017 A 
ATOM      5  C4  UNL d   1      -1.068  -0.604  -0.327  0.00  0.00     0.017 A 
ATOM      6  C5  UNL d   1      -0.373   0.586  -0.564  0.00  0.00     0.034 A 
ATOM      7 Cl   UNL d   1      -2.240  -0.614   0.944  0.00  0.00    -0.070 Cl
ATOM      8 Cl1  UNL d   1      -1.619  -3.238  -0.880  0.00  0.00    -0.070 Cl
ENDROOT
TORSDOF 0
ENDMDL
