MODEL 1
REMARK minimizedAffinity 9.88619041
REMARK minimizedRMSD -1
REMARK  0 active torsions:
REMARK  status: ('A' for Active; 'I' for Inactive)
ROOT
ATOM      1  C   UNL d   1       0.490  -2.030  -0.722  0.00  0.00     0.020 A 
ATOM      2  C1  UNL d   1      -0.764  -1.960  -1.328  0.00  0.00     0.020 A 
ATOM      3  C2  UNL d   1      -1.487  -0.766  -1.300  0.00  0.00     0.034 A 
ATOM      4  C3  UNL d   1      -0.958   0.363  -0.664  0.00  0.00     0.017 A 
ATOM      5  C4  UNL d   1       0.301   0.292  -0.057  0.00  0.00     0.017 A 
ATOM      6  C5  UNL d   1       1.021  -0.906  -0.088  0.00  0.00     0.034 A 
ATOM      7 Cl   UNL d   1       1.020   1.643   0.746  0.00  0.00    -0.070 Cl
ATOM      8 Cl1  UNL d   1      -1.908   1.807  -0.668  0.00  0.00    -0.070 Cl
ENDROOT
TORSDOF 0
ENDMDL
