MODEL 1
REMARK minimizedAffinity 0.559189856
REMARK minimizedRMSD -1
REMARK  0 active torsions:
REMARK  status: ('A' for Active; 'I' for Inactive)
ROOT
ATOM      1  C   UNL d   1       5.062  -3.361  -5.244  0.00  0.00     0.020 A 
ATOM      2  C1  UNL d   1       6.000  -4.115  -4.539  0.00  0.00     0.020 A 
ATOM      3  C2  UNL d   1       6.000  -4.101  -3.142  0.00  0.00     0.034 A 
ATOM      4  C3  UNL d   1       5.060  -3.332  -2.446  0.00  0.00     0.017 A 
ATOM      5  C4  UNL d   1       4.119  -2.575  -3.155  0.00  0.00     0.017 A 
ATOM      6  C5  UNL d   1       4.124  -2.593  -4.553  0.00  0.00     0.034 A 
ATOM      7 Cl   UNL d   1       2.929  -1.602  -2.366  0.00  0.00    -0.070 Cl
ATOM      8 Cl1  UNL d   1       5.118  -3.361  -0.720  0.00  0.00    -0.070 Cl
ENDROOT
TORSDOF 0
ENDMDL
