MODEL 1
REMARK minimizedAffinity 6.82430744
REMARK minimizedRMSD -1
REMARK  0 active torsions:
REMARK  status: ('A' for Active; 'I' for Inactive)
ROOT
ATOM      1  C   UNL d   1      -0.741  -1.881  -1.859  0.00  0.00     0.020 A 
ATOM      2  C1  UNL d   1      -1.658  -2.683  -2.536  0.00  0.00     0.020 A 
ATOM      3  C2  UNL d   1      -2.890  -2.982  -1.952  0.00  0.00     0.034 A 
ATOM      4  C3  UNL d   1      -3.210  -2.477  -0.686  0.00  0.00     0.017 A 
ATOM      5  C4  UNL d   1      -2.289  -1.672  -0.007  0.00  0.00     0.017 A 
ATOM      6  C5  UNL d   1      -1.056  -1.376  -0.596  0.00  0.00     0.034 A 
ATOM      7 Cl   UNL d   1      -2.612  -1.013   1.558  0.00  0.00    -0.070 Cl
ATOM      8 Cl1  UNL d   1      -4.752  -2.886  -0.024  0.00  0.00    -0.070 Cl
ENDROOT
TORSDOF 0
ENDMDL
