MODEL 1
REMARK minimizedAffinity 6.11469698
REMARK minimizedRMSD -1
REMARK  0 active torsions:
REMARK  status: ('A' for Active; 'I' for Inactive)
ROOT
ATOM      1  C   UNL d   1      -1.004  -1.503  -0.100  0.00  0.00     0.020 A 
ATOM      2  C1  UNL d   1       0.008  -1.581  -1.055  0.00  0.00     0.020 A 
ATOM      3  C2  UNL d   1      -0.230  -2.220  -2.274  0.00  0.00     0.034 A 
ATOM      4  C3  UNL d   1      -1.483  -2.784  -2.540  0.00  0.00     0.017 A 
ATOM      5  C4  UNL d   1      -2.498  -2.705  -1.581  0.00  0.00     0.017 A 
ATOM      6  C5  UNL d   1      -2.255  -2.064  -0.362  0.00  0.00     0.034 A 
ATOM      7 Cl   UNL d   1      -4.070  -3.377  -1.837  0.00  0.00    -0.070 Cl
ATOM      8 Cl1  UNL d   1      -1.707  -3.559  -4.068  0.00  0.00    -0.070 Cl
ENDROOT
TORSDOF 0
ENDMDL
