MODEL 1
REMARK minimizedAffinity 15.7933416
REMARK minimizedRMSD -1
REMARK  0 active torsions:
REMARK  status: ('A' for Active; 'I' for Inactive)
ROOT
ATOM      1  C   UNL d   1      -2.036  -2.095  -0.197  0.00  0.00     0.020 A 
ATOM      2  C1  UNL d   1      -1.577  -2.414  -1.474  0.00  0.00     0.020 A 
ATOM      3  C2  UNL d   1      -0.443  -1.780  -1.987  0.00  0.00     0.034 A 
ATOM      4  C3  UNL d   1       0.236  -0.825  -1.223  0.00  0.00     0.017 A 
ATOM      5  C4  UNL d   1      -0.225  -0.505   0.060  0.00  0.00     0.017 A 
ATOM      6  C5  UNL d   1      -1.361  -1.142   0.568  0.00  0.00     0.034 A 
ATOM      7 Cl   UNL d   1       0.559   0.664   1.062  0.00  0.00    -0.070 Cl
ATOM      8 Cl1  UNL d   1       1.632  -0.081  -1.920  0.00  0.00    -0.070 Cl
ENDROOT
TORSDOF 0
ENDMDL
