MODEL 1
REMARK minimizedAffinity 0.987000763
REMARK minimizedRMSD -1
REMARK  0 active torsions:
REMARK  status: ('A' for Active; 'I' for Inactive)
ROOT
ATOM      1  C   UNL d   1       0.584  -0.170   0.034  0.00  0.00     0.020 A 
ATOM      2  C1  UNL d   1       0.413  -1.115  -0.977  0.00  0.00     0.020 A 
ATOM      3  C2  UNL d   1      -0.794  -1.809  -1.088  0.00  0.00     0.034 A 
ATOM      4  C3  UNL d   1      -1.835  -1.558  -0.186  0.00  0.00     0.017 A 
ATOM      5  C4  UNL d   1      -1.663  -0.609   0.828  0.00  0.00     0.017 A 
ATOM      6  C5  UNL d   1      -0.452   0.083   0.934  0.00  0.00     0.034 A 
ATOM      7 Cl   UNL d   1      -2.902  -0.245   1.977  0.00  0.00    -0.070 Cl
ATOM      8 Cl1  UNL d   1      -3.300  -2.452  -0.383  0.00  0.00    -0.070 Cl
ENDROOT
TORSDOF 0
ENDMDL
