MODEL 1
REMARK minimizedAffinity 1.40395546
REMARK minimizedRMSD -1
REMARK  0 active torsions:
REMARK  status: ('A' for Active; 'I' for Inactive)
ROOT
ATOM      1  C   UNL d   1       1.018   4.029   1.323  0.00  0.00     0.020 A 
ATOM      2  C1  UNL d   1       2.371   3.877   1.024  0.00  0.00     0.020 A 
ATOM      3  C2  UNL d   1       2.807   2.759   0.310  0.00  0.00     0.034 A 
ATOM      4  C3  UNL d   1       1.889   1.788  -0.107  0.00  0.00     0.017 A 
ATOM      5  C4  UNL d   1       0.531   1.941   0.195  0.00  0.00     0.017 A 
ATOM      6  C5  UNL d   1       0.100   3.063   0.910  0.00  0.00     0.034 A 
ATOM      7 Cl   UNL d   1      -0.661   0.785  -0.286  0.00  0.00    -0.070 Cl
ATOM      8 Cl1  UNL d   1       2.499   0.431  -0.986  0.00  0.00    -0.070 Cl
ENDROOT
TORSDOF 0
ENDMDL
