MODEL 1
REMARK minimizedAffinity -3.1079073
REMARK minimizedRMSD -1
REMARK  0 active torsions:
REMARK  status: ('A' for Active; 'I' for Inactive)
ROOT
ATOM      1  C   UNL d   1      -0.846  -2.260   1.096  0.00  0.00     0.020 A 
ATOM      2  C1  UNL d   1      -1.168  -0.992   1.578  0.00  0.00     0.020 A 
ATOM      3  C2  UNL d   1      -0.977   0.131   0.770  0.00  0.00     0.034 A 
ATOM      4  C3  UNL d   1      -0.463  -0.012  -0.524  0.00  0.00     0.017 A 
ATOM      5  C4  UNL d   1      -0.140  -1.285  -1.007  0.00  0.00     0.017 A 
ATOM      6  C5  UNL d   1      -0.333  -2.406  -0.194  0.00  0.00     0.034 A 
ATOM      7 Cl   UNL d   1       0.499  -1.541  -2.592  0.00  0.00    -0.070 Cl
ATOM      8 Cl1  UNL d   1      -0.253   1.420  -1.467  0.00  0.00    -0.070 Cl
ENDROOT
TORSDOF 0
ENDMDL
