MODEL 1
REMARK minimizedAffinity 0.967967927
REMARK minimizedRMSD -1
REMARK  0 active torsions:
REMARK  status: ('A' for Active; 'I' for Inactive)
ROOT
ATOM      1  C   UNL d   1       5.956   5.660  -6.000  0.00  0.00     0.172 C 
ATOM      2  N   UNL d   1       5.370   5.606  -4.681  0.00  0.00    -0.070 N 
ATOM      3  C1  UNL d   1       4.110   5.160  -4.385  0.00  0.00    -0.004 A 
ATOM      4  C2  UNL d   1       3.932   5.269  -3.023  0.00  0.00    -0.047 A 
ATOM      5  C3  UNL d   1       5.127   5.800  -2.481  0.00  0.00    -0.047 A 
ATOM      6  C4  UNL d   1       6.000   5.999  -3.530  0.00  0.00    -0.004 A 
ENDROOT
TORSDOF 0
ENDMDL
