MODEL 1
REMARK minimizedAffinity -1.25101614
REMARK minimizedRMSD -1
REMARK  0 active torsions:
REMARK  status: ('A' for Active; 'I' for Inactive)
ROOT
ATOM      1  C   UNL d   1       5.275   5.049  -2.494  0.00  0.00     0.172 C 
ATOM      2  N   UNL d   1       5.033   5.414  -3.870  0.00  0.00    -0.070 N 
ATOM      3  C1  UNL d   1       5.996   5.641  -4.817  0.00  0.00    -0.004 A 
ATOM      4  C2  UNL d   1       5.361   5.962  -5.997  0.00  0.00    -0.047 A 
ATOM      5  C3  UNL d   1       3.968   5.928  -5.751  0.00  0.00    -0.047 A 
ATOM      6  C4  UNL d   1       3.793   5.585  -4.426  0.00  0.00    -0.004 A 
ENDROOT
TORSDOF 0
ENDMDL
