MODEL 1
REMARK minimizedAffinity 6.81035757
REMARK minimizedRMSD -1
REMARK  0 active torsions:
REMARK  status: ('A' for Active; 'I' for Inactive)
ROOT
ATOM      1  C   UNL d   1       2.419   0.614   1.625  0.00  0.00     0.172 C 
ATOM      2  N   UNL d   1       1.951  -0.489   2.431  0.00  0.00    -0.070 N 
ATOM      3  C1  UNL d   1       1.522  -1.699   1.956  0.00  0.00    -0.004 A 
ATOM      4  C2  UNL d   1       1.161  -2.473   3.038  0.00  0.00    -0.047 A 
ATOM      5  C3  UNL d   1       1.379  -1.701   4.203  0.00  0.00    -0.047 A 
ATOM      6  C4  UNL d   1       1.868  -0.476   3.799  0.00  0.00    -0.004 A 
ENDROOT
TORSDOF 0
ENDMDL
