MODEL 1
REMARK minimizedAffinity -1.24644423
REMARK minimizedRMSD -1
REMARK  0 active torsions:
REMARK  status: ('A' for Active; 'I' for Inactive)
ROOT
ATOM      1  C   UNL d   1      -5.736  -2.380  -6.000  0.00  0.00     0.172 C 
ATOM      2  N   UNL d   1      -5.467  -3.656  -5.382  0.00  0.00    -0.070 N 
ATOM      3  C1  UNL d   1      -5.026  -3.845  -4.099  0.00  0.00    -0.004 A 
ATOM      4  C2  UNL d   1      -4.892  -5.201  -3.894  0.00  0.00    -0.047 A 
ATOM      5  C3  UNL d   1      -5.264  -5.850  -5.096  0.00  0.00    -0.047 A 
ATOM      6  C4  UNL d   1      -5.615  -4.870  -6.000  0.00  0.00    -0.004 A 
ENDROOT
TORSDOF 0
ENDMDL
