MODEL 1
REMARK minimizedAffinity -0.261629492
REMARK minimizedRMSD -1
REMARK  0 active torsions:
REMARK  status: ('A' for Active; 'I' for Inactive)
ROOT
ATOM      1  C   UNL d   1      -5.236  -6.000  -5.995  0.00  0.00     0.172 C 
ATOM      2  N   UNL d   1      -5.363  -4.691  -5.398  0.00  0.00    -0.070 N 
ATOM      3  C1  UNL d   1      -5.907  -3.588  -6.000  0.00  0.00    -0.004 A 
ATOM      4  C2  UNL d   1      -5.843  -2.543  -5.104  0.00  0.00    -0.047 A 
ATOM      5  C3  UNL d   1      -5.239  -3.035  -3.922  0.00  0.00    -0.047 A 
ATOM      6  C4  UNL d   1      -4.952  -4.367  -4.132  0.00  0.00    -0.004 A 
ENDROOT
TORSDOF 0
ENDMDL
