MODEL 1
REMARK minimizedAffinity 0.79394877
REMARK minimizedRMSD -1
REMARK  0 active torsions:
REMARK  status: ('A' for Active; 'I' for Inactive)
ROOT
ATOM      1  C   UNL d   1      -5.627  -2.453  -4.947  0.00  0.00     0.172 C 
ATOM      2  N   UNL d   1      -5.521  -3.893  -4.986  0.00  0.00    -0.070 N 
ATOM      3  C1  UNL d   1      -4.933  -4.676  -4.028  0.00  0.00    -0.004 A 
ATOM      4  C2  UNL d   1      -5.038  -5.989  -4.434  0.00  0.00    -0.047 A 
ATOM      5  C3  UNL d   1      -5.712  -5.995  -5.679  0.00  0.00    -0.047 A 
ATOM      6  C4  UNL d   1      -5.999  -4.684  -5.997  0.00  0.00    -0.004 A 
ENDROOT
TORSDOF 0
ENDMDL
