MODEL 1
REMARK minimizedAffinity 1.4491874
REMARK minimizedRMSD -1
REMARK  0 active torsions:
REMARK  status: ('A' for Active; 'I' for Inactive)
ROOT
ATOM      1  C   UNL d   1      -1.403   0.326   0.035  0.00  0.00     0.172 C 
ATOM      2  N   UNL d   1      -0.354  -0.601   0.391  0.00  0.00    -0.070 N 
ATOM      3  C1  UNL d   1       0.984  -0.314   0.438  0.00  0.00    -0.004 A 
ATOM      4  C2  UNL d   1       1.649  -1.459   0.818  0.00  0.00    -0.047 A 
ATOM      5  C3  UNL d   1       0.676  -2.471   1.006  0.00  0.00    -0.047 A 
ATOM      6  C4  UNL d   1      -0.555  -1.912   0.734  0.00  0.00    -0.004 A 
ENDROOT
TORSDOF 0
ENDMDL
