MODEL 1
REMARK minimizedAffinity -0.851079464
REMARK minimizedRMSD -1
REMARK  0 active torsions:
REMARK  status: ('A' for Active; 'I' for Inactive)
ROOT
ATOM      1  C   UNL d   1       2.332   3.235  -0.969  0.00  0.00     0.172 C 
ATOM      2  N   UNL d   1       2.420   2.087  -0.098  0.00  0.00    -0.070 N 
ATOM      3  C1  UNL d   1       3.578   1.490   0.323  0.00  0.00    -0.004 A 
ATOM      4  C2  UNL d   1       3.236   0.433   1.138  0.00  0.00    -0.047 A 
ATOM      5  C3  UNL d   1       1.824   0.391   1.208  0.00  0.00    -0.047 A 
ATOM      6  C4  UNL d   1       1.344   1.426   0.434  0.00  0.00    -0.004 A 
ENDROOT
TORSDOF 0
ENDMDL
