MODEL 1
REMARK minimizedAffinity -0.0406318642
REMARK minimizedRMSD -1
REMARK  0 active torsions:
REMARK  status: ('A' for Active; 'I' for Inactive)
ROOT
ATOM      1  C   UNL d   1       1.813  -1.935   2.334  0.00  0.00     0.172 C 
ATOM      2  N   UNL d   1       1.686  -0.667   1.655  0.00  0.00    -0.070 N 
ATOM      3  C1  UNL d   1       0.509  -0.078   1.278  0.00  0.00    -0.004 A 
ATOM      4  C2  UNL d   1       0.813   1.117   0.662  0.00  0.00    -0.047 A 
ATOM      5  C3  UNL d   1       2.222   1.250   0.669  0.00  0.00    -0.047 A 
ATOM      6  C4  UNL d   1       2.737   0.132   1.290  0.00  0.00    -0.004 A 
ENDROOT
TORSDOF 0
ENDMDL
