MODEL 1
REMARK minimizedAffinity 5.15572357
REMARK minimizedRMSD -1
REMARK  0 active torsions:
REMARK  status: ('A' for Active; 'I' for Inactive)
ROOT
ATOM      1  C   UNL d   1       2.494  -0.845   1.981  0.00  0.00     0.172 C 
ATOM      2  N   UNL d   1       2.740   0.366   1.234  0.00  0.00    -0.070 N 
ATOM      3  C1  UNL d   1       1.943   1.479   1.233  0.00  0.00    -0.004 A 
ATOM      4  C2  UNL d   1       2.521   2.411   0.399  0.00  0.00    -0.047 A 
ATOM      5  C3  UNL d   1       3.706   1.838  -0.120  0.00  0.00    -0.047 A 
ATOM      6  C4  UNL d   1       3.817   0.571   0.413  0.00  0.00    -0.004 A 
ENDROOT
TORSDOF 0
ENDMDL
