MODEL 1
REMARK minimizedAffinity -0.596992612
REMARK minimizedRMSD -1
REMARK  0 active torsions:
REMARK  status: ('A' for Active; 'I' for Inactive)
ROOT
ATOM      1  C   UNL d   1      -5.018  -5.993  -4.724  0.00  0.00     0.172 C 
ATOM      2  N   UNL d   1      -5.192  -4.586  -4.998  0.00  0.00    -0.070 N 
ATOM      3  C1  UNL d   1      -4.586  -3.560  -4.324  0.00  0.00    -0.004 A 
ATOM      4  C2  UNL d   1      -5.011  -2.376  -4.887  0.00  0.00    -0.047 A 
ATOM      5  C3  UNL d   1      -5.904  -2.701  -5.935  0.00  0.00    -0.047 A 
ATOM      6  C4  UNL d   1      -5.998  -4.076  -5.982  0.00  0.00    -0.004 A 
ENDROOT
TORSDOF 0
ENDMDL
