MODEL 1
REMARK minimizedAffinity 14.5193691
REMARK minimizedRMSD -1
REMARK  0 active torsions:
REMARK  status: ('A' for Active; 'I' for Inactive)
ROOT
ATOM      1  O1  BZF d   1      -3.439  -2.023   5.622  0.00  0.00    -0.204 OA
ATOM      2  C2  BZF d   1      -3.703  -2.896   4.584  0.00  0.00     0.174 A 
ATOM      3  C3  BZF d   1      -3.957  -2.221   3.444  0.00  0.00    -0.012 A 
ATOM      4  C3A BZF d   1      -3.753  -0.843   3.770  0.00  0.00    -0.107 A 
ATOM      5  C4  BZF d   1      -3.837   0.315   3.050  0.00  0.00     0.055 A 
ATOM      6  C5  BZF d   1      -3.649   1.502   3.683  0.00  0.00    -0.016 A 
ATOM      7  C6  BZF d   1      -3.380   1.569   5.035  0.00  0.00     0.022 A 
ATOM      8  C7  BZF d   1      -3.282   0.448   5.790  0.00  0.00     0.029 A 
ATOM      9  C7A BZF d   1      -3.440  -0.755   5.146  0.00  0.00     0.058 A 
ENDROOT
TORSDOF 0
ENDMDL
