MODEL 1
REMARK minimizedAffinity 11.9285698
REMARK minimizedRMSD -1
REMARK  0 active torsions:
REMARK  status: ('A' for Active; 'I' for Inactive)
ROOT
ATOM      1  O1  BZF d   1      -3.627  -1.479   5.313  0.00  0.00    -0.204 OA
ATOM      2  C2  BZF d   1      -3.783  -2.131   4.105  0.00  0.00     0.174 A 
ATOM      3  C3  BZF d   1      -3.915  -1.245   3.097  0.00  0.00    -0.012 A 
ATOM      4  C3A BZF d   1      -3.743   0.040   3.701  0.00  0.00    -0.107 A 
ATOM      5  C4  BZF d   1      -3.749   1.315   3.211  0.00  0.00     0.055 A 
ATOM      6  C5  BZF d   1      -3.625   2.355   4.077  0.00  0.00    -0.016 A 
ATOM      7  C6  BZF d   1      -3.498   2.157   5.437  0.00  0.00     0.022 A 
ATOM      8  C7  BZF d   1      -3.482   0.911   5.968  0.00  0.00     0.029 A 
ATOM      9  C7A BZF d   1      -3.575  -0.143   5.092  0.00  0.00     0.058 A 
ENDROOT
TORSDOF 0
ENDMDL
