MODEL 1
REMARK minimizedAffinity 12.707387
REMARK minimizedRMSD -1
REMARK  0 active torsions:
REMARK  status: ('A' for Active; 'I' for Inactive)
ROOT
ATOM      1  O1  BZF d   1      -3.611  -2.299   5.280  0.00  0.00    -0.204 OA
ATOM      2  C2  BZF d   1      -3.685  -3.015   4.101  0.00  0.00     0.174 A 
ATOM      3  C3  BZF d   1      -3.917  -2.193   3.057  0.00  0.00    -0.012 A 
ATOM      4  C3A BZF d   1      -3.901  -0.872   3.606  0.00  0.00    -0.107 A 
ATOM      5  C4  BZF d   1      -4.056   0.372   3.065  0.00  0.00     0.055 A 
ATOM      6  C5  BZF d   1      -4.059   1.454   3.886  0.00  0.00    -0.016 A 
ATOM      7  C6  BZF d   1      -3.915   1.329   5.252  0.00  0.00     0.022 A 
ATOM      8  C7  BZF d   1      -3.753   0.116   5.835  0.00  0.00     0.029 A 
ATOM      9  C7A BZF d   1      -3.717  -0.977   5.004  0.00  0.00     0.058 A 
ENDROOT
TORSDOF 0
ENDMDL
