MODEL 1
REMARK minimizedAffinity 19.8227806
REMARK minimizedRMSD -1
REMARK  0 active torsions:
REMARK  status: ('A' for Active; 'I' for Inactive)
ROOT
ATOM      1  O1  BZF d   1      -3.372  -1.714   5.894  0.00  0.00    -0.204 OA
ATOM      2  C2  BZF d   1      -3.526  -2.628   4.870  0.00  0.00     0.174 A 
ATOM      3  C3  BZF d   1      -3.758  -1.999   3.699  0.00  0.00    -0.012 A 
ATOM      4  C3A BZF d   1      -3.657  -0.603   3.995  0.00  0.00    -0.107 A 
ATOM      5  C4  BZF d   1      -3.773   0.528   3.239  0.00  0.00     0.055 A 
ATOM      6  C5  BZF d   1      -3.692   1.740   3.847  0.00  0.00    -0.016 A 
ATOM      7  C6  BZF d   1      -3.501   1.859   5.208  0.00  0.00     0.022 A 
ATOM      8  C7  BZF d   1      -3.376   0.766   5.999  0.00  0.00     0.029 A 
ATOM      9  C7A BZF d   1      -3.425  -0.461   5.383  0.00  0.00     0.058 A 
ENDROOT
TORSDOF 0
ENDMDL
