MODEL 1
REMARK minimizedAffinity 15.8532047
REMARK minimizedRMSD -1
REMARK  0 active torsions:
REMARK  status: ('A' for Active; 'I' for Inactive)
ROOT
ATOM      1  O1  BZF d   1       0.248  -1.951  -3.311  0.00  0.00    -0.204 OA
ATOM      2  C2  BZF d   1      -0.107  -3.269  -3.097  0.00  0.00     0.174 A 
ATOM      3  C3  BZF d   1       0.582  -3.788  -2.061  0.00  0.00    -0.012 A 
ATOM      4  C3A BZF d   1       1.354  -2.701  -1.540  0.00  0.00    -0.107 A 
ATOM      5  C4  BZF d   1       2.229  -2.586  -0.498  0.00  0.00     0.055 A 
ATOM      6  C5  BZF d   1       2.870  -1.403  -0.302  0.00  0.00    -0.016 A 
ATOM      7  C6  BZF d   1       2.664  -0.320  -1.130  0.00  0.00     0.022 A 
ATOM      8  C7  BZF d   1       1.801  -0.385  -2.174  0.00  0.00     0.029 A 
ATOM      9  C7A BZF d   1       1.128  -1.568  -2.355  0.00  0.00     0.058 A 
ENDROOT
TORSDOF 0
ENDMDL
