MODEL 1
REMARK minimizedAffinity 22.2247601
REMARK minimizedRMSD -1
REMARK  0 active torsions:
REMARK  status: ('A' for Active; 'I' for Inactive)
ROOT
ATOM      1  O1  BZF d   1      -4.614   3.261   3.763  0.00  0.00    -0.204 OA
ATOM      2  C2  BZF d   1      -4.921   3.849   4.976  0.00  0.00     0.174 A 
ATOM      3  C3  BZF d   1      -4.551   3.053   6.000  0.00  0.00    -0.012 A 
ATOM      4  C3A BZF d   1      -3.894   1.937   5.392  0.00  0.00    -0.107 A 
ATOM      5  C4  BZF d   1      -3.293   0.816   5.889  0.00  0.00     0.055 A 
ATOM      6  C5  BZF d   1      -2.812  -0.114   5.024  0.00  0.00    -0.016 A 
ATOM      7  C6  BZF d   1      -2.919   0.040   3.657  0.00  0.00     0.022 A 
ATOM      8  C7  BZF d   1      -3.503   1.138   3.117  0.00  0.00     0.029 A 
ATOM      9  C7A BZF d   1      -3.961   2.095   3.988  0.00  0.00     0.058 A 
ENDROOT
TORSDOF 0
ENDMDL
