MODEL 1
REMARK minimizedAffinity 8.1070118
REMARK minimizedRMSD -1
REMARK  0 active torsions:
REMARK  status: ('A' for Active; 'I' for Inactive)
ROOT
ATOM      1  O1  BZF d   1       2.565  -0.895  -0.264  0.00  0.00    -0.204 OA
ATOM      2  C2  BZF d   1       2.133   0.094  -1.127  0.00  0.00     0.174 A 
ATOM      3  C3  BZF d   1       1.608  -0.444  -2.246  0.00  0.00    -0.012 A 
ATOM      4  C3A BZF d   1       1.634  -1.859  -2.032  0.00  0.00    -0.107 A 
ATOM      5  C4  BZF d   1       1.231  -2.929  -2.779  0.00  0.00     0.055 A 
ATOM      6  C5  BZF d   1       1.464  -4.184  -2.313  0.00  0.00    -0.016 A 
ATOM      7  C6  BZF d   1       2.101  -4.405  -1.109  0.00  0.00     0.022 A 
ATOM      8  C7  BZF d   1       2.513  -3.376  -0.331  0.00  0.00     0.029 A 
ATOM      9  C7A BZF d   1       2.250  -2.106  -0.783  0.00  0.00     0.058 A 
ENDROOT
TORSDOF 0
ENDMDL
