MODEL 1
REMARK minimizedAffinity 7.80008602
REMARK minimizedRMSD -1
REMARK  0 active torsions:
REMARK  status: ('A' for Active; 'I' for Inactive)
ROOT
ATOM      1  O1  BZF d   1       2.909  -2.197   0.068  0.00  0.00    -0.204 OA
ATOM      2  C2  BZF d   1       2.833  -0.904  -0.414  0.00  0.00     0.174 A 
ATOM      3  C3  BZF d   1       2.110  -0.860  -1.551  0.00  0.00    -0.012 A 
ATOM      4  C3A BZF d   1       1.630  -2.194  -1.745  0.00  0.00    -0.107 A 
ATOM      5  C4  BZF d   1       0.843  -2.780  -2.695  0.00  0.00     0.055 A 
ATOM      6  C5  BZF d   1       0.623  -4.120  -2.635  0.00  0.00    -0.016 A 
ATOM      7  C6  BZF d   1       1.179  -4.904  -1.645  0.00  0.00     0.022 A 
ATOM      8  C7  BZF d   1       1.962  -4.366  -0.678  0.00  0.00     0.029 A 
ATOM      9  C7A BZF d   1       2.159  -3.008  -0.717  0.00  0.00     0.058 A 
ENDROOT
TORSDOF 0
ENDMDL
