MODEL 1
REMARK minimizedAffinity 12.7541609
REMARK minimizedRMSD -1
REMARK  0 active torsions:
REMARK  status: ('A' for Active; 'I' for Inactive)
ROOT
ATOM      1  O1  BZF d   1      -5.766   2.669   3.838  0.00  0.00    -0.204 OA
ATOM      2  C2  BZF d   1      -5.950   3.407   4.991  0.00  0.00     0.174 A 
ATOM      3  C3  BZF d   1      -5.203   2.912   6.000  0.00  0.00    -0.012 A 
ATOM      4  C3A BZF d   1      -4.440   1.851   5.417  0.00  0.00    -0.107 A 
ATOM      5  C4  BZF d   1      -3.503   0.988   5.910  0.00  0.00     0.055 A 
ATOM      6  C5  BZF d   1      -3.003   0.022   5.096  0.00  0.00    -0.016 A 
ATOM      7  C6  BZF d   1      -3.419  -0.113   3.788  0.00  0.00     0.022 A 
ATOM      8  C7  BZF d   1      -4.342   0.722   3.253  0.00  0.00     0.029 A 
ATOM      9  C7A BZF d   1      -4.826   1.721   4.063  0.00  0.00     0.058 A 
ENDROOT
TORSDOF 0
ENDMDL
