MODEL 1
REMARK minimizedAffinity 6.13017464
REMARK minimizedRMSD -1
REMARK  0 active torsions:
REMARK  status: ('A' for Active; 'I' for Inactive)
ROOT
ATOM      1  O1  BZF d   1       2.250  -0.764  -2.512  0.00  0.00    -0.204 OA
ATOM      2  C2  BZF d   1       2.759  -0.194  -1.361  0.00  0.00     0.174 A 
ATOM      3  C3  BZF d   1       2.787  -1.091  -0.355  0.00  0.00    -0.012 A 
ATOM      4  C3A BZF d   1       2.349  -2.323  -0.936  0.00  0.00    -0.107 A 
ATOM      5  C4  BZF d   1       2.180  -3.585  -0.444  0.00  0.00     0.055 A 
ATOM      6  C5  BZF d   1       1.667  -4.547  -1.255  0.00  0.00    -0.016 A 
ATOM      7  C6  BZF d   1       1.308  -4.281  -2.560  0.00  0.00     0.022 A 
ATOM      8  C7  BZF d   1       1.462  -3.045  -3.094  0.00  0.00     0.029 A 
ATOM      9  C7A BZF d   1       2.011  -2.079  -2.287  0.00  0.00     0.058 A 
ENDROOT
TORSDOF 0
ENDMDL
