MODEL 1
REMARK minimizedAffinity 22.6348858
REMARK minimizedRMSD -1
REMARK  0 active torsions:
REMARK  status: ('A' for Active; 'I' for Inactive)
ROOT
ATOM      1  O1  BZF d   1      -3.210   1.447   1.942  0.00  0.00    -0.204 OA
ATOM      2  C2  BZF d   1      -4.085   1.550   3.006  0.00  0.00     0.174 A 
ATOM      3  C3  BZF d   1      -3.412   1.604   4.174  0.00  0.00    -0.012 A 
ATOM      4  C3A BZF d   1      -2.028   1.623   3.811  0.00  0.00    -0.107 A 
ATOM      5  C4  BZF d   1      -0.869   1.688   4.531  0.00  0.00     0.055 A 
ATOM      6  C5  BZF d   1       0.319   1.613   3.876  0.00  0.00    -0.016 A 
ATOM      7  C6  BZF d   1       0.386   1.469   2.506  0.00  0.00     0.022 A 
ATOM      8  C7  BZF d   1      -0.736   1.405   1.749  0.00  0.00     0.029 A 
ATOM      9  C7A BZF d   1      -1.939   1.513   2.404  0.00  0.00     0.058 A 
ENDROOT
TORSDOF 0
ENDMDL
