MODEL 1
REMARK minimizedAffinity 15.043067
REMARK minimizedRMSD -1
REMARK  0 active torsions:
REMARK  status: ('A' for Active; 'I' for Inactive)
ROOT
ATOM      1  O1  BZF d   1       3.350  -1.995   0.104  0.00  0.00    -0.204 OA
ATOM      2  C2  BZF d   1       3.654  -3.249   0.597  0.00  0.00     0.174 A 
ATOM      3  C3  BZF d   1       2.919  -4.197  -0.019  0.00  0.00    -0.012 A 
ATOM      4  C3A BZF d   1       2.172  -3.501  -1.021  0.00  0.00    -0.107 A 
ATOM      5  C4  BZF d   1       1.273  -3.900  -1.969  0.00  0.00     0.055 A 
ATOM      6  C5  BZF d   1       0.669  -2.960  -2.743  0.00  0.00    -0.016 A 
ATOM      7  C6  BZF d   1       0.934  -1.615  -2.593  0.00  0.00     0.022 A 
ATOM      8  C7  BZF d   1       1.822  -1.171  -1.670  0.00  0.00     0.029 A 
ATOM      9  C7A BZF d   1       2.459  -2.121  -0.908  0.00  0.00     0.058 A 
ENDROOT
TORSDOF 0
ENDMDL
