MODEL 1
REMARK minimizedAffinity 20.7530766
REMARK minimizedRMSD -1
REMARK  0 active torsions:
REMARK  status: ('A' for Active; 'I' for Inactive)
ROOT
ATOM      1  O1  BZF d   1      -3.930  -1.946   5.615  0.00  0.00    -0.204 OA
ATOM      2  C2  BZF d   1      -4.241  -2.825   4.595  0.00  0.00     0.174 A 
ATOM      3  C3  BZF d   1      -4.310  -2.182   3.412  0.00  0.00    -0.012 A 
ATOM      4  C3A BZF d   1      -3.933  -0.831   3.697  0.00  0.00    -0.107 A 
ATOM      5  C4  BZF d   1      -3.796   0.288   2.925  0.00  0.00     0.055 A 
ATOM      6  C5  BZF d   1      -3.485   1.468   3.523  0.00  0.00    -0.016 A 
ATOM      7  C6  BZF d   1      -3.309   1.567   4.887  0.00  0.00     0.022 A 
ATOM      8  C7  BZF d   1      -3.430   0.484   5.693  0.00  0.00     0.029 A 
ATOM      9  C7A BZF d   1      -3.712  -0.717   5.089  0.00  0.00     0.058 A 
ENDROOT
TORSDOF 0
ENDMDL
