MODEL 1
REMARK minimizedAffinity 16.7413921
REMARK minimizedRMSD -1
REMARK  0 active torsions:
REMARK  status: ('A' for Active; 'I' for Inactive)
ROOT
ATOM      1  O1  BZF d   1      -2.628   2.435  -6.000  0.00  0.00    -0.204 OA
ATOM      2  C2  BZF d   1      -1.847   1.639  -5.185  0.00  0.00     0.174 A 
ATOM      3  C3  BZF d   1      -1.265   2.373  -4.215  0.00  0.00    -0.012 A 
ATOM      4  C3A BZF d   1      -1.783   3.696  -4.381  0.00  0.00    -0.107 A 
ATOM      5  C4  BZF d   1      -1.593   4.870  -3.711  0.00  0.00     0.055 A 
ATOM      6  C5  BZF d   1      -2.192   5.999  -4.173  0.00  0.00    -0.016 A 
ATOM      7  C6  BZF d   1      -2.982   5.991  -5.304  0.00  0.00     0.022 A 
ATOM      8  C7  BZF d   1      -3.204   4.850  -6.000  0.00  0.00     0.029 A 
ATOM      9  C7A BZF d   1      -2.627   3.701  -5.516  0.00  0.00     0.058 A 
ENDROOT
TORSDOF 0
ENDMDL
