MODEL 1
REMARK minimizedAffinity 11.2388849
REMARK minimizedRMSD -1
REMARK  0 active torsions:
REMARK  status: ('A' for Active; 'I' for Inactive)
ROOT
ATOM      1  O1  BZF d   1      -2.062   2.586  -5.993  0.00  0.00    -0.204 OA
ATOM      2  C2  BZF d   1      -1.312   1.876  -5.076  0.00  0.00     0.174 A 
ATOM      3  C3  BZF d   1      -1.078   2.616  -3.973  0.00  0.00    -0.012 A 
ATOM      4  C3A BZF d   1      -1.801   3.834  -4.177  0.00  0.00    -0.107 A 
ATOM      5  C4  BZF d   1      -1.973   4.961  -3.426  0.00  0.00     0.055 A 
ATOM      6  C5  BZF d   1      -2.679   6.000  -3.945  0.00  0.00    -0.016 A 
ATOM      7  C6  BZF d   1      -3.222   5.947  -5.212  0.00  0.00     0.022 A 
ATOM      8  C7  BZF d   1      -3.082   4.849  -5.993  0.00  0.00     0.029 A 
ATOM      9  C7A BZF d   1      -2.397   3.785  -5.459  0.00  0.00     0.058 A 
ENDROOT
TORSDOF 0
ENDMDL
