MODEL 1
REMARK minimizedAffinity 11.0797186
REMARK minimizedRMSD -1
REMARK  0 active torsions:
REMARK  status: ('A' for Active; 'I' for Inactive)
ROOT
ATOM      1  O1  BZF d   1       4.532   0.300   0.548  0.00  0.00    -0.204 OA
ATOM      2  C2  BZF d   1       4.296   1.543  -0.007  0.00  0.00     0.174 A 
ATOM      3  C3  BZF d   1       3.310   1.478  -0.925  0.00  0.00    -0.012 A 
ATOM      4  C3A BZF d   1       2.841   0.127  -0.878  0.00  0.00    -0.107 A 
ATOM      5  C4  BZF d   1       1.860  -0.550  -1.545  0.00  0.00     0.055 A 
ATOM      6  C5  BZF d   1       1.705  -1.881  -1.318  0.00  0.00    -0.016 A 
ATOM      7  C6  BZF d   1       2.516  -2.567  -0.438  0.00  0.00     0.022 A 
ATOM      8  C7  BZF d   1       3.499  -1.937   0.251  0.00  0.00     0.029 A 
ATOM      9  C7A BZF d   1       3.636  -0.585   0.049  0.00  0.00     0.058 A 
ENDROOT
TORSDOF 0
ENDMDL
