MODEL 1
REMARK minimizedAffinity 21.4443855
REMARK minimizedRMSD -1
REMARK  0 active torsions:
REMARK  status: ('A' for Active; 'I' for Inactive)
ROOT
ATOM      1  O1  BZF d   1      -5.251  -1.500   0.830  0.00  0.00    -0.204 OA
ATOM      2  C2  BZF d   1      -5.999  -2.318   1.654  0.00  0.00     0.174 A 
ATOM      3  C3  BZF d   1      -5.561  -2.243   2.927  0.00  0.00    -0.012 A 
ATOM      4  C3A BZF d   1      -4.531  -1.251   2.913  0.00  0.00    -0.107 A 
ATOM      5  C4  BZF d   1      -3.725  -0.720   3.879  0.00  0.00     0.055 A 
ATOM      6  C5  BZF d   1      -2.771   0.180   3.523  0.00  0.00    -0.016 A 
ATOM      7  C6  BZF d   1      -2.591   0.566   2.211  0.00  0.00     0.022 A 
ATOM      8  C7  BZF d   1      -3.369   0.071   1.218  0.00  0.00     0.029 A 
ATOM      9  C7A BZF d   1      -4.356  -0.814   1.580  0.00  0.00     0.058 A 
ENDROOT
TORSDOF 0
ENDMDL
