MODEL 1
REMARK minimizedAffinity 17.219759
REMARK minimizedRMSD -1
REMARK  0 active torsions:
REMARK  status: ('A' for Active; 'I' for Inactive)
ROOT
ATOM      1  O1  BZF d   1      -4.759  -0.002   2.043  0.00  0.00    -0.204 OA
ATOM      2  C2  BZF d   1      -3.739   0.740   2.606  0.00  0.00     0.174 A 
ATOM      3  C3  BZF d   1      -3.368   0.220   3.794  0.00  0.00    -0.012 A 
ATOM      4  C3A BZF d   1      -4.147  -0.971   3.943  0.00  0.00    -0.107 A 
ATOM      5  C4  BZF d   1      -4.218  -1.932   4.911  0.00  0.00     0.055 A 
ATOM      6  C5  BZF d   1      -5.135  -2.927   4.788  0.00  0.00    -0.016 A 
ATOM      7  C6  BZF d   1      -6.000  -2.989   3.715  0.00  0.00     0.022 A 
ATOM      8  C7  BZF d   1      -5.964  -2.062   2.727  0.00  0.00     0.029 A 
ATOM      9  C7A BZF d   1      -5.015  -1.074   2.831  0.00  0.00     0.058 A 
ENDROOT
TORSDOF 0
ENDMDL
