MODEL 1
REMARK minimizedAffinity 21.0112305
REMARK minimizedRMSD -1
REMARK  0 active torsions:
REMARK  status: ('A' for Active; 'I' for Inactive)
ROOT
ATOM      1  O1  BZF d   1      -4.640  -0.107   1.997  0.00  0.00    -0.204 OA
ATOM      2  C2  BZF d   1      -3.474   0.521   2.388  0.00  0.00     0.174 A 
ATOM      3  C3  BZF d   1      -2.984  -0.037   3.514  0.00  0.00    -0.012 A 
ATOM      4  C3A BZF d   1      -3.853  -1.139   3.796  0.00  0.00    -0.107 A 
ATOM      5  C4  BZF d   1      -3.877  -2.088   4.777  0.00  0.00     0.055 A 
ATOM      6  C5  BZF d   1      -4.902  -2.979   4.809  0.00  0.00    -0.016 A 
ATOM      7  C6  BZF d   1      -5.921  -2.948   3.879  0.00  0.00     0.022 A 
ATOM      8  C7  BZF d   1      -5.937  -2.028   2.884  0.00  0.00     0.029 A 
ATOM      9  C7A BZF d   1      -4.885  -1.146   2.830  0.00  0.00     0.058 A 
ENDROOT
TORSDOF 0
ENDMDL
