MODEL 1
REMARK minimizedAffinity 19.1490231
REMARK minimizedRMSD -1
REMARK  0 active torsions:
REMARK  status: ('A' for Active; 'I' for Inactive)
ROOT
ATOM      1  O1  BZF d   1      -2.786   1.808   2.910  0.00  0.00    -0.204 OA
ATOM      2  C2  BZF d   1      -3.371   0.557   2.912  0.00  0.00     0.174 A 
ATOM      3  C3  BZF d   1      -2.473  -0.392   2.578  0.00  0.00    -0.012 A 
ATOM      4  C3A BZF d   1      -1.228   0.300   2.444  0.00  0.00    -0.107 A 
ATOM      5  C4  BZF d   1       0.042  -0.102   2.141  0.00  0.00     0.055 A 
ATOM      6  C5  BZF d   1       1.019   0.833   2.017  0.00  0.00    -0.016 A 
ATOM      7  C6  BZF d   1       0.762   2.178   2.184  0.00  0.00     0.022 A 
ATOM      8  C7  BZF d   1      -0.480   2.625   2.490  0.00  0.00     0.029 A 
ATOM      9  C7A BZF d   1      -1.463   1.679   2.649  0.00  0.00     0.058 A 
ENDROOT
TORSDOF 0
ENDMDL
