MODEL 1
REMARK minimizedAffinity 4.01797867
REMARK minimizedRMSD -1
REMARK  0 active torsions:
REMARK  status: ('A' for Active; 'I' for Inactive)
ROOT
ATOM      1  C   UNL d   1       5.998  -0.746   1.895  0.00  0.00     0.172 C 
ATOM      2  N   UNL d   1       5.376   0.336   1.168  0.00  0.00    -0.070 N 
ATOM      3  C1  UNL d   1       6.000   1.484   0.757  0.00  0.00    -0.004 A 
ATOM      4  C2  UNL d   1       5.068   2.258   0.100  0.00  0.00    -0.047 A 
ATOM      5  C3  UNL d   1       3.842   1.551   0.117  0.00  0.00    -0.047 A 
ATOM      6  C4  UNL d   1       4.061   0.365   0.785  0.00  0.00    -0.004 A 
ENDROOT
TORSDOF 0
ENDMDL
