MODEL 1
REMARK minimizedAffinity 6.2902112
REMARK minimizedRMSD -1
REMARK  0 active torsions:
REMARK  status: ('A' for Active; 'I' for Inactive)
ROOT
ATOM      1  C   UNL d   1       4.806   2.209  -0.507  0.00  0.00     0.172 C 
ATOM      2  N   UNL d   1       3.678   1.696   0.234  0.00  0.00    -0.070 N 
ATOM      3  C1  UNL d   1       2.502   2.360   0.459  0.00  0.00    -0.004 A 
ATOM      4  C2  UNL d   1       1.687   1.534   1.202  0.00  0.00    -0.047 A 
ATOM      5  C3  UNL d   1       2.398   0.333   1.433  0.00  0.00    -0.047 A 
ATOM      6  C4  UNL d   1       3.628   0.460   0.822  0.00  0.00    -0.004 A 
ENDROOT
TORSDOF 0
ENDMDL
