MODEL 1
REMARK minimizedAffinity 4.40347338
REMARK minimizedRMSD -1
REMARK  0 active torsions:
REMARK  status: ('A' for Active; 'I' for Inactive)
ROOT
ATOM      1  C   UNL d   1      -5.790   4.456   1.699  0.00  0.00     0.172 C 
ATOM      2  N   UNL d   1      -5.458   4.857   3.046  0.00  0.00    -0.070 N 
ATOM      3  C1  UNL d   1      -4.568   4.224   3.871  0.00  0.00    -0.004 A 
ATOM      4  C2  UNL d   1      -4.535   4.913   5.065  0.00  0.00    -0.047 A 
ATOM      5  C3  UNL d   1      -5.437   5.997   4.953  0.00  0.00    -0.047 A 
ATOM      6  C4  UNL d   1      -5.995   5.939   3.693  0.00  0.00    -0.004 A 
ENDROOT
TORSDOF 0
ENDMDL
