MODEL 1
REMARK minimizedAffinity 1.96320641
REMARK minimizedRMSD -1
REMARK  0 active torsions:
REMARK  status: ('A' for Active; 'I' for Inactive)
ROOT
ATOM      1  C   UNL d   1       0.893   1.697   2.285  0.00  0.00     0.172 C 
ATOM      2  N   UNL d   1       2.151   1.302   1.697  0.00  0.00    -0.070 N 
ATOM      3  C1  UNL d   1       3.039   2.137   1.073  0.00  0.00    -0.004 A 
ATOM      4  C2  UNL d   1       4.110   1.378   0.653  0.00  0.00    -0.047 A 
ATOM      5  C3  UNL d   1       3.856   0.039   1.036  0.00  0.00    -0.047 A 
ATOM      6  C4  UNL d   1       2.637   0.021   1.680  0.00  0.00    -0.004 A 
ENDROOT
TORSDOF 0
ENDMDL
