MODEL 1
REMARK minimizedAffinity 6.69840813
REMARK minimizedRMSD -1
REMARK  0 active torsions:
REMARK  status: ('A' for Active; 'I' for Inactive)
ROOT
ATOM      1  C   UNL d   1       4.457  -0.530   1.503  0.00  0.00     0.172 C 
ATOM      2  N   UNL d   1       3.275   0.300   1.487  0.00  0.00    -0.070 N 
ATOM      3  C1  UNL d   1       3.178   1.541   0.917  0.00  0.00    -0.004 A 
ATOM      4  C2  UNL d   1       1.893   1.998   1.116  0.00  0.00    -0.047 A 
ATOM      5  C3  UNL d   1       1.194   0.998   1.831  0.00  0.00    -0.047 A 
ATOM      6  C4  UNL d   1       2.073  -0.043   2.048  0.00  0.00    -0.004 A 
ENDROOT
TORSDOF 0
ENDMDL
