MODEL 1
REMARK minimizedAffinity 0.0450580567
REMARK minimizedRMSD -1
REMARK  0 active torsions:
REMARK  status: ('A' for Active; 'I' for Inactive)
ROOT
ATOM      1  C   UNL d   1      -5.040  -4.760  -2.965  0.00  0.00     0.172 C 
ATOM      2  N   UNL d   1      -3.876  -3.911  -2.862  0.00  0.00    -0.070 N 
ATOM      3  C1  UNL d   1      -3.523  -3.171  -1.765  0.00  0.00    -0.004 A 
ATOM      4  C2  UNL d   1      -2.356  -2.503  -2.065  0.00  0.00    -0.047 A 
ATOM      5  C3  UNL d   1      -1.995  -2.854  -3.388  0.00  0.00    -0.047 A 
ATOM      6  C4  UNL d   1      -2.954  -3.727  -3.857  0.00  0.00    -0.004 A 
ENDROOT
TORSDOF 0
ENDMDL
