MODEL 1
REMARK minimizedAffinity 1.1891408
REMARK minimizedRMSD -1
REMARK  0 active torsions:
REMARK  status: ('A' for Active; 'I' for Inactive)
ROOT
ATOM      1  C   UNL d   1       5.999  -0.381   2.669  0.00  0.00     0.172 C 
ATOM      2  N   UNL d   1       5.297   0.525   1.791  0.00  0.00    -0.070 N 
ATOM      3  C1  UNL d   1       3.960   0.480   1.501  0.00  0.00    -0.004 A 
ATOM      4  C2  UNL d   1       3.682   1.511   0.630  0.00  0.00    -0.047 A 
ATOM      5  C3  UNL d   1       4.895   2.199   0.387  0.00  0.00    -0.047 A 
ATOM      6  C4  UNL d   1       5.879   1.567   1.119  0.00  0.00    -0.004 A 
ENDROOT
TORSDOF 0
ENDMDL
