MODEL 1
REMARK minimizedAffinity -4.06164408
REMARK minimizedRMSD -1
REMARK  0 active torsions:
REMARK  status: ('A' for Active; 'I' for Inactive)
ROOT
ATOM      1  C   UNL d   1       2.525   0.804   0.747  0.00  0.00     0.172 C 
ATOM      2  N   UNL d   1       3.931   0.928   1.054  0.00  0.00    -0.070 N 
ATOM      3  C1  UNL d   1       4.729  -0.063   1.558  0.00  0.00    -0.004 A 
ATOM      4  C2  UNL d   1       5.998   0.452   1.709  0.00  0.00    -0.047 A 
ATOM      5  C3  UNL d   1       5.961   1.801   1.282  0.00  0.00    -0.047 A 
ATOM      6  C4  UNL d   1       4.669   2.069   0.882  0.00  0.00    -0.004 A 
ENDROOT
TORSDOF 0
ENDMDL
