MODEL 1
REMARK minimizedAffinity -3.05091166
REMARK minimizedRMSD -1
REMARK  0 active torsions:
REMARK  status: ('A' for Active; 'I' for Inactive)
ROOT
ATOM      1  C   UNL d   1      -5.481   4.810   4.643  0.00  0.00     0.172 C 
ATOM      2  N   UNL d   1      -5.305   3.380   4.538  0.00  0.00    -0.070 N 
ATOM      3  C1  UNL d   1      -5.163   2.514   5.589  0.00  0.00    -0.004 A 
ATOM      4  C2  UNL d   1      -5.021   1.244   5.072  0.00  0.00    -0.047 A 
ATOM      5  C3  UNL d   1      -5.078   1.351   3.662  0.00  0.00    -0.047 A 
ATOM      6  C4  UNL d   1      -5.255   2.685   3.359  0.00  0.00    -0.004 A 
ENDROOT
TORSDOF 0
ENDMDL
