MODEL 1
REMARK minimizedAffinity 2.0885632
REMARK minimizedRMSD -1
REMARK  0 active torsions:
REMARK  status: ('A' for Active; 'I' for Inactive)
ROOT
ATOM      1  C   UNL d   1      -4.125   0.976   3.611  0.00  0.00     0.172 C 
ATOM      2  N   UNL d   1      -4.877  -0.013   4.347  0.00  0.00    -0.070 N 
ATOM      3  C1  UNL d   1      -5.247  -1.245   3.879  0.00  0.00    -0.004 A 
ATOM      4  C2  UNL d   1      -5.947  -1.884   4.879  0.00  0.00    -0.047 A 
ATOM      5  C3  UNL d   1      -6.000  -1.005   5.987  0.00  0.00    -0.047 A 
ATOM      6  C4  UNL d   1      -5.330   0.146   5.630  0.00  0.00    -0.004 A 
ENDROOT
TORSDOF 0
ENDMDL
