MODEL 1
REMARK minimizedAffinity 6.77054358
REMARK minimizedRMSD -1
REMARK  0 active torsions:
REMARK  status: ('A' for Active; 'I' for Inactive)
ROOT
ATOM      1  C   UNL d   1       0.212  -2.903  -0.180  0.00  0.00     0.172 C 
ATOM      2  N   UNL d   1      -0.829  -3.007  -1.175  0.00  0.00    -0.070 N 
ATOM      3  C1  UNL d   1      -0.810  -3.832  -2.267  0.00  0.00    -0.004 A 
ATOM      4  C2  UNL d   1      -1.982  -3.635  -2.965  0.00  0.00    -0.047 A 
ATOM      5  C3  UNL d   1      -2.730  -2.657  -2.269  0.00  0.00    -0.047 A 
ATOM      6  C4  UNL d   1      -1.993  -2.285  -1.164  0.00  0.00    -0.004 A 
ENDROOT
TORSDOF 0
ENDMDL
