MODEL 1
REMARK minimizedAffinity 5.06008101
REMARK minimizedRMSD -1
REMARK  0 active torsions:
REMARK  status: ('A' for Active; 'I' for Inactive)
ROOT
ATOM      1  C   UNL d   1      -2.236  -3.121  -2.761  0.00  0.00     0.172 C 
ATOM      2  N   UNL d   1      -1.751  -3.138  -1.401  0.00  0.00    -0.070 N 
ATOM      3  C1  UNL d   1      -2.497  -2.871  -0.284  0.00  0.00    -0.004 A 
ATOM      4  C2  UNL d   1      -1.672  -2.991   0.813  0.00  0.00    -0.047 A 
ATOM      5  C3  UNL d   1      -0.385  -3.341   0.339  0.00  0.00    -0.047 A 
ATOM      6  C4  UNL d   1      -0.463  -3.425  -1.035  0.00  0.00    -0.004 A 
ENDROOT
TORSDOF 0
ENDMDL
