MODEL 1
REMARK minimizedAffinity 9.40466022
REMARK minimizedRMSD -1
REMARK  0 active torsions:
REMARK  status: ('A' for Active; 'I' for Inactive)
ROOT
ATOM      1  C   UNL d   1      -3.123  -5.997  -2.067  0.00  0.00     0.172 C 
ATOM      2  N   UNL d   1      -2.722  -4.615  -2.184  0.00  0.00    -0.070 N 
ATOM      3  C1  UNL d   1      -2.586  -3.733  -1.146  0.00  0.00    -0.004 A 
ATOM      4  C2  UNL d   1      -2.188  -2.522  -1.670  0.00  0.00    -0.047 A 
ATOM      5  C3  UNL d   1      -2.081  -2.682  -3.072  0.00  0.00    -0.047 A 
ATOM      6  C4  UNL d   1      -2.417  -3.988  -3.363  0.00  0.00    -0.004 A 
ENDROOT
TORSDOF 0
ENDMDL
