MODEL 1
REMARK minimizedAffinity 0.987544
REMARK minimizedRMSD -1
REMARK  0 active torsions:
REMARK  status: ('A' for Active; 'I' for Inactive)
ROOT
ATOM      1  C   UNL d   1       4.116   5.549  -6.000  0.00  0.00     0.172 C 
ATOM      2  N   UNL d   1       4.132   4.261  -5.348  0.00  0.00    -0.070 N 
ATOM      3  C1  UNL d   1       4.165   4.051  -3.995  0.00  0.00    -0.004 A 
ATOM      4  C2  UNL d   1       4.170   2.690  -3.779  0.00  0.00    -0.047 A 
ATOM      5  C3  UNL d   1       4.141   2.060  -5.046  0.00  0.00    -0.047 A 
ATOM      6  C4  UNL d   1       4.118   3.056  -5.999  0.00  0.00    -0.004 A 
ENDROOT
TORSDOF 0
ENDMDL
