MODEL 1
REMARK minimizedAffinity 3.20833683
REMARK minimizedRMSD -1
REMARK  0 active torsions:
REMARK  status: ('A' for Active; 'I' for Inactive)
ROOT
ATOM      1  C   UNL d   1       5.214  -0.504   1.918  0.00  0.00     0.172 C 
ATOM      2  N   UNL d   1       4.000   0.186   1.553  0.00  0.00    -0.070 N 
ATOM      3  C1  UNL d   1       3.928   1.360   0.852  0.00  0.00    -0.004 A 
ATOM      4  C2  UNL d   1       2.597   1.686   0.709  0.00  0.00    -0.047 A 
ATOM      5  C3  UNL d   1       1.842   0.674   1.348  0.00  0.00    -0.047 A 
ATOM      6  C4  UNL d   1       2.735  -0.242   1.862  0.00  0.00    -0.004 A 
ENDROOT
TORSDOF 0
ENDMDL
