MODEL 1
REMARK minimizedAffinity 6.68932295
REMARK minimizedRMSD -1
REMARK  0 active torsions:
REMARK  status: ('A' for Active; 'I' for Inactive)
ROOT
ATOM      1  C   UNL d   1      -0.327  -2.515   0.183  0.00  0.00     0.172 C 
ATOM      2  N   UNL d   1      -1.405  -2.684  -0.762  0.00  0.00    -0.070 N 
ATOM      3  C1  UNL d   1      -1.285  -2.645  -2.126  0.00  0.00    -0.004 A 
ATOM      4  C2  UNL d   1      -2.536  -2.849  -2.666  0.00  0.00    -0.047 A 
ATOM      5  C3  UNL d   1      -3.440  -3.017  -1.590  0.00  0.00    -0.047 A 
ATOM      6  C4  UNL d   1      -2.713  -2.910  -0.423  0.00  0.00    -0.004 A 
ENDROOT
TORSDOF 0
ENDMDL
