MODEL 1
REMARK minimizedAffinity 2.60756326
REMARK minimizedRMSD -1
REMARK  0 active torsions:
REMARK  status: ('A' for Active; 'I' for Inactive)
ROOT
ATOM      1  C   UNL d   1      -0.607  -3.285   0.528  0.00  0.00     0.172 C 
ATOM      2  N   UNL d   1      -1.252  -3.262  -0.764  0.00  0.00    -0.070 N 
ATOM      3  C1  UNL d   1      -2.272  -2.426  -1.132  0.00  0.00    -0.004 A 
ATOM      4  C2  UNL d   1      -2.606  -2.717  -2.437  0.00  0.00    -0.047 A 
ATOM      5  C3  UNL d   1      -1.759  -3.765  -2.867  0.00  0.00    -0.047 A 
ATOM      6  C4  UNL d   1      -0.931  -4.083  -1.812  0.00  0.00    -0.004 A 
ENDROOT
TORSDOF 0
ENDMDL
