MODEL 1
REMARK minimizedAffinity -3.1744206
REMARK minimizedRMSD -1
REMARK  1 active torsions:
REMARK  status: ('A' for Active; 'I' for Inactive)
REMARK    1  A    between atoms: C1_2  and  C2_3 
ROOT
ATOM      1  C2  UNL d   1      -0.028   0.049  -0.048  0.00  0.00    -0.077 A 
ATOM      2  C3  UNL d   1       0.156  -1.282  -0.447  0.00  0.00     0.002 A 
ATOM      3  C4  UNL d   1       1.345  -1.951  -0.148  0.00  0.00     0.002 A 
ATOM      4  C5  UNL d   1       2.357  -1.298   0.553  0.00  0.00    -0.004 A 
ATOM      5  C6  UNL d   1       2.184   0.027   0.952  0.00  0.00     0.002 A 
ATOM      6  C7  UNL d   1       0.997   0.697   0.654  0.00  0.00     0.002 A 
ENDROOT
BRANCH   1   7
ATOM      7  C1  UNL d   1      -1.329   0.756  -0.325  0.00  0.00     0.055 C 
ATOM      8  C   UNL d   1      -2.223   0.774   0.906  0.00  0.00     0.019 C 
ENDBRANCH   1   7
TORSDOF 1
ENDMDL
