MODEL 1
REMARK minimizedAffinity -5.28660488
REMARK minimizedRMSD -1
REMARK  1 active torsions:
REMARK  status: ('A' for Active; 'I' for Inactive)
REMARK    1  A    between atoms: C1_2  and  C2_3 
ROOT
ATOM      1  C2  UNL d   1       0.255   0.009  -0.133  0.00  0.00    -0.077 A 
ATOM      2  C3  UNL d   1       1.466   0.510   0.365  0.00  0.00     0.002 A 
ATOM      3  C4  UNL d   1       2.543  -0.349   0.598  0.00  0.00     0.002 A 
ATOM      4  C5  UNL d   1       2.420  -1.711   0.332  0.00  0.00    -0.004 A 
ATOM      5  C6  UNL d   1       1.218  -2.218  -0.161  0.00  0.00     0.002 A 
ATOM      6  C7  UNL d   1       0.141  -1.362  -0.393  0.00  0.00     0.002 A 
ENDROOT
BRANCH   1   7
ATOM      7  C1  UNL d   1      -0.891   0.941  -0.431  0.00  0.00     0.055 C 
ATOM      8  C   UNL d   1      -2.134   0.559   0.359  0.00  0.00     0.019 C 
ENDBRANCH   1   7
TORSDOF 1
ENDMDL
