MODEL 1
REMARK minimizedAffinity -4.74904776
REMARK minimizedRMSD -1
REMARK  1 active torsions:
REMARK  status: ('A' for Active; 'I' for Inactive)
REMARK    1  A    between atoms: C1_2  and  C2_3 
ROOT
ATOM      1  C2  UNL d   1      -0.066   0.236  -0.308  0.00  0.00    -0.077 A 
ATOM      2  C3  UNL d   1       1.040   0.586   0.478  0.00  0.00     0.002 A 
ATOM      3  C4  UNL d   1       2.053  -0.342   0.726  0.00  0.00     0.002 A 
ATOM      4  C5  UNL d   1       1.972  -1.625   0.188  0.00  0.00    -0.004 A 
ATOM      5  C6  UNL d   1       0.875  -1.984  -0.593  0.00  0.00     0.002 A 
ATOM      6  C7  UNL d   1      -0.139  -1.058  -0.841  0.00  0.00     0.002 A 
ENDROOT
BRANCH   1   7
ATOM      7  C1  UNL d   1      -1.136   1.250  -0.617  0.00  0.00     0.055 C 
ATOM      8  C   UNL d   1      -2.443   0.907   0.081  0.00  0.00     0.019 C 
ENDBRANCH   1   7
TORSDOF 1
ENDMDL
