MODEL 1
REMARK minimizedAffinity -4.27344847
REMARK minimizedRMSD -1
REMARK  1 active torsions:
REMARK  status: ('A' for Active; 'I' for Inactive)
REMARK    1  A    between atoms: C1_2  and  C2_3 
ROOT
ATOM      1  C2  UNL d   1       1.583  -0.322   0.519  0.00  0.00    -0.077 A 
ATOM      2  C3  UNL d   1       0.470  -1.017   0.026  0.00  0.00     0.002 A 
ATOM      3  C4  UNL d   1      -0.611  -0.323  -0.522  0.00  0.00     0.002 A 
ATOM      4  C5  UNL d   1      -0.586   1.069  -0.586  0.00  0.00    -0.004 A 
ATOM      5  C6  UNL d   1       0.515   1.769  -0.097  0.00  0.00     0.002 A 
ATOM      6  C7  UNL d   1       1.596   1.077   0.452  0.00  0.00     0.002 A 
ENDROOT
BRANCH   1   7
ATOM      7  C1  UNL d   1       2.770  -1.071   1.065  0.00  0.00     0.055 C 
ATOM      8  C   UNL d   1       3.475  -1.864  -0.026  0.00  0.00     0.019 C 
ENDBRANCH   1   7
TORSDOF 1
ENDMDL
