MODEL 1
REMARK minimizedAffinity -3.88656473
REMARK minimizedRMSD -1
REMARK  1 active torsions:
REMARK  status: ('A' for Active; 'I' for Inactive)
REMARK    1  A    between atoms: C1_2  and  C2_3 
ROOT
ATOM      1  C2  UNL d   1       1.312  -0.922  -0.049  0.00  0.00    -0.077 A 
ATOM      2  C3  UNL d   1       0.046  -1.031  -0.642  0.00  0.00     0.002 A 
ATOM      3  C4  UNL d   1      -0.736   0.107  -0.851  0.00  0.00     0.002 A 
ATOM      4  C5  UNL d   1      -0.261   1.361  -0.473  0.00  0.00    -0.004 A 
ATOM      5  C6  UNL d   1       0.996   1.479   0.120  0.00  0.00     0.002 A 
ATOM      6  C7  UNL d   1       1.779   0.343   0.330  0.00  0.00     0.002 A 
ENDROOT
BRANCH   1   7
ATOM      7  C1  UNL d   1       2.177  -2.141   0.132  0.00  0.00     0.055 C 
ATOM      8  C   UNL d   1       3.511  -1.783   0.771  0.00  0.00     0.019 C 
ENDBRANCH   1   7
TORSDOF 1
ENDMDL
