MODEL 1
REMARK minimizedAffinity -4.23918247
REMARK minimizedRMSD -1
REMARK  1 active torsions:
REMARK  status: ('A' for Active; 'I' for Inactive)
REMARK    1  A    between atoms: C1_2  and  C2_3 
ROOT
ATOM      1  C2  UNL d   1      -1.404   0.409   0.735  0.00  0.00    -0.077 A 
ATOM      2  C3  UNL d   1      -0.825   0.597  -0.527  0.00  0.00     0.002 A 
ATOM      3  C4  UNL d   1       0.092  -0.329  -1.029  0.00  0.00     0.002 A 
ATOM      4  C5  UNL d   1       0.434  -1.450  -0.276  0.00  0.00    -0.004 A 
ATOM      5  C6  UNL d   1      -0.135  -1.645   0.982  0.00  0.00     0.002 A 
ATOM      6  C7  UNL d   1      -1.051  -0.720   1.485  0.00  0.00     0.002 A 
ENDROOT
BRANCH   1   7
ATOM      7  C1  UNL d   1      -2.430   1.381   1.257  0.00  0.00     0.055 C 
ATOM      8  C   UNL d   1      -3.789   0.716   1.423  0.00  0.00     0.019 C 
ENDBRANCH   1   7
TORSDOF 1
ENDMDL
