MODEL 1
REMARK minimizedAffinity 2.30486846
REMARK minimizedRMSD -1
REMARK  1 active torsions:
REMARK  status: ('A' for Active; 'I' for Inactive)
REMARK    1  A    between atoms: C1_2  and  C2_3 
ROOT
ATOM      1  C2  UNL d   1       1.955  -1.850  -1.646  0.00  0.00    -0.077 A 
ATOM      2  C3  UNL d   1       1.998  -2.374  -0.347  0.00  0.00     0.002 A 
ATOM      3  C4  UNL d   1       0.868  -2.323   0.473  0.00  0.00     0.002 A 
ATOM      4  C5  UNL d   1      -0.312  -1.754   0.001  0.00  0.00    -0.004 A 
ATOM      5  C6  UNL d   1      -0.365  -1.229  -1.290  0.00  0.00     0.002 A 
ATOM      6  C7  UNL d   1       0.763  -1.278  -2.110  0.00  0.00     0.002 A 
ENDROOT
BRANCH   1   7
ATOM      7  C1  UNL d   1       3.157  -1.948  -2.549  0.00  0.00     0.055 C 
ATOM      8  C   UNL d   1       3.293  -3.343  -3.140  0.00  0.00     0.019 C 
ENDBRANCH   1   7
TORSDOF 1
ENDMDL
