MODEL 1
REMARK minimizedAffinity 23.1264362
REMARK minimizedRMSD -1
REMARK  0 active torsions:
REMARK  status: ('A' for Active; 'I' for Inactive)
ROOT
ATOM      1  C   UNL d   1       5.994  -5.640   4.506  0.00  0.00    -0.002 A 
ATOM      2  C1  UNL d   1       5.990  -5.114   5.790  0.00  0.00     0.010 A 
ATOM      3  C2  UNL d   1       5.842  -3.741   5.994  0.00  0.00     0.041 A 
ATOM      4  C3  UNL d   1       5.696  -2.897   4.876  0.00  0.00    -0.075 A 
ATOM      5  S   UNL d   1       5.500  -1.185   4.884  0.00  0.00     0.015 SA
ATOM      6  C4  UNL d   1       5.416  -1.111   3.183  0.00  0.00     0.022 A 
ATOM      7  C5  UNL d   1       5.534  -2.353   2.607  0.00  0.00     0.026 A 
ATOM      8  C6  UNL d   1       5.696  -3.404   3.573  0.00  0.00    -0.082 A 
ATOM      9  C7  UNL d   1       5.849  -4.800   3.398  0.00  0.00     0.045 A 
ENDROOT
TORSDOF 0
ENDMDL
