MODEL 1
REMARK minimizedAffinity 22.7425518
REMARK minimizedRMSD -1
REMARK  0 active torsions:
REMARK  status: ('A' for Active; 'I' for Inactive)
ROOT
ATOM      1  C   UNL d   1      -4.864  -5.999   1.885  0.00  0.00    -0.002 A 
ATOM      2  C1  UNL d   1      -5.925  -5.271   2.406  0.00  0.00     0.010 A 
ATOM      3  C2  UNL d   1      -5.998  -3.889   2.217  0.00  0.00     0.041 A 
ATOM      4  C3  UNL d   1      -4.980  -3.246   1.487  0.00  0.00    -0.075 A 
ATOM      5  S   UNL d   1      -4.861  -1.564   1.129  0.00  0.00     0.015 SA
ATOM      6  C4  UNL d   1      -3.401  -1.772   0.275  0.00  0.00     0.022 A 
ATOM      7  C5  UNL d   1      -2.999  -3.087   0.254  0.00  0.00     0.026 A 
ATOM      8  C6  UNL d   1      -3.903  -3.958   0.952  0.00  0.00    -0.082 A 
ATOM      9  C7  UNL d   1      -3.856  -5.357   1.161  0.00  0.00     0.045 A 
ENDROOT
TORSDOF 0
ENDMDL
