MODEL 1
REMARK minimizedAffinity 12.0612268
REMARK minimizedRMSD -1
REMARK  0 active torsions:
REMARK  status: ('A' for Active; 'I' for Inactive)
ROOT
ATOM      1  C   UNL d   1      -4.993   2.177   1.956  0.00  0.00    -0.002 A 
ATOM      2  C1  UNL d   1      -4.251   3.333   1.760  0.00  0.00     0.010 A 
ATOM      3  C2  UNL d   1      -2.855   3.292   1.772  0.00  0.00     0.041 A 
ATOM      4  C3  UNL d   1      -2.212   2.057   1.986  0.00  0.00    -0.075 A 
ATOM      5  S   UNL d   1      -0.513   1.767   2.041  0.00  0.00     0.015 SA
ATOM      6  C4  UNL d   1      -0.732   0.101   2.326  0.00  0.00     0.022 A 
ATOM      7  C5  UNL d   1      -2.062  -0.243   2.380  0.00  0.00     0.026 A 
ATOM      8  C6  UNL d   1      -2.937   0.879   2.185  0.00  0.00    -0.082 A 
ATOM      9  C7  UNL d   1      -4.350   0.954   2.167  0.00  0.00     0.045 A 
ENDROOT
TORSDOF 0
ENDMDL
