MODEL 1
REMARK minimizedAffinity 19.772953
REMARK minimizedRMSD -1
REMARK  0 active torsions:
REMARK  status: ('A' for Active; 'I' for Inactive)
ROOT
ATOM      1  C   UNL d   1       1.469   1.151  -2.265  0.00  0.00    -0.002 A 
ATOM      2  C1  UNL d   1       1.847   0.395  -3.365  0.00  0.00     0.010 A 
ATOM      3  C2  UNL d   1       2.646   0.949  -4.367  0.00  0.00     0.041 A 
ATOM      4  C3  UNL d   1       3.065   2.288  -4.242  0.00  0.00    -0.075 A 
ATOM      5  S   UNL d   1       4.048   3.177  -5.345  0.00  0.00     0.015 SA
ATOM      6  C4  UNL d   1       3.990   4.582  -4.381  0.00  0.00     0.022 A 
ATOM      7  C5  UNL d   1       3.243   4.395  -3.242  0.00  0.00     0.026 A 
ATOM      8  C6  UNL d   1       2.698   3.070  -3.143  0.00  0.00    -0.082 A 
ATOM      9  C7  UNL d   1       1.886   2.480  -2.145  0.00  0.00     0.045 A 
ENDROOT
TORSDOF 0
ENDMDL
