MODEL 1
REMARK minimizedAffinity 19.9602757
REMARK minimizedRMSD -1
REMARK  0 active torsions:
REMARK  status: ('A' for Active; 'I' for Inactive)
ROOT
ATOM      1  C   UNL d   1      -3.640   1.009   1.624  0.00  0.00    -0.002 A 
ATOM      2  C1  UNL d   1      -3.347   2.353   1.803  0.00  0.00     0.010 A 
ATOM      3  C2  UNL d   1      -2.035   2.769   2.038  0.00  0.00     0.041 A 
ATOM      4  C3  UNL d   1      -1.012   1.802   2.087  0.00  0.00    -0.075 A 
ATOM      5  S   UNL d   1       0.668   2.079   2.360  0.00  0.00     0.015 SA
ATOM      6  C4  UNL d   1       1.036   0.419   2.244  0.00  0.00     0.022 A 
ATOM      7  C5  UNL d   1      -0.083  -0.342   2.003  0.00  0.00     0.026 A 
ATOM      8  C6  UNL d   1      -1.282   0.442   1.909  0.00  0.00    -0.082 A 
ATOM      9  C7  UNL d   1      -2.622   0.052   1.674  0.00  0.00     0.045 A 
ENDROOT
TORSDOF 0
ENDMDL
