MODEL 1
REMARK minimizedAffinity 17.8263359
REMARK minimizedRMSD -1
REMARK  0 active torsions:
REMARK  status: ('A' for Active; 'I' for Inactive)
ROOT
ATOM      1  C   UNL d   1      -1.288   0.815   1.948  0.00  0.00    -0.002 A 
ATOM      2  C1  UNL d   1      -1.756  -0.490   1.877  0.00  0.00     0.010 A 
ATOM      3  C2  UNL d   1      -3.125  -0.751   1.802  0.00  0.00     0.041 A 
ATOM      4  C3  UNL d   1      -4.026   0.333   1.798  0.00  0.00    -0.075 A 
ATOM      5  S   UNL d   1      -5.746   0.254   1.713  0.00  0.00     0.015 SA
ATOM      6  C4  UNL d   1      -5.901   1.950   1.768  0.00  0.00     0.022 A 
ATOM      7  C5  UNL d   1      -4.680   2.577   1.850  0.00  0.00     0.026 A 
ATOM      8  C6  UNL d   1      -3.580   1.655   1.869  0.00  0.00    -0.082 A 
ATOM      9  C7  UNL d   1      -2.185   1.887   1.944  0.00  0.00     0.045 A 
ENDROOT
TORSDOF 0
ENDMDL
