MODEL 1
REMARK minimizedAffinity 16.5424767
REMARK minimizedRMSD -1
REMARK  0 active torsions:
REMARK  status: ('A' for Active; 'I' for Inactive)
ROOT
ATOM      1  C   UNL d   1      -1.010  -0.059   1.421  0.00  0.00    -0.002 A 
ATOM      2  C1  UNL d   1      -2.106  -0.910   1.412  0.00  0.00     0.010 A 
ATOM      3  C2  UNL d   1      -3.400  -0.404   1.555  0.00  0.00     0.041 A 
ATOM      4  C3  UNL d   1      -3.575   0.986   1.706  0.00  0.00    -0.075 A 
ATOM      5  S   UNL d   1      -5.066   1.831   1.895  0.00  0.00     0.015 SA
ATOM      6  C4  UNL d   1      -4.283   3.342   1.991  0.00  0.00     0.022 A 
ATOM      7  C5  UNL d   1      -2.917   3.223   1.883  0.00  0.00     0.026 A 
ATOM      8  C6  UNL d   1      -2.487   1.863   1.717  0.00  0.00    -0.082 A 
ATOM      9  C7  UNL d   1      -1.188   1.319   1.571  0.00  0.00     0.045 A 
ENDROOT
TORSDOF 0
ENDMDL
