MODEL 1
REMARK minimizedAffinity 9.82517147
REMARK minimizedRMSD -1
REMARK  0 active torsions:
REMARK  status: ('A' for Active; 'I' for Inactive)
ROOT
ATOM      1  C   UNL d   1       1.090   2.053  -1.870  0.00  0.00    -0.002 A 
ATOM      2  C1  UNL d   1       1.790   1.154  -2.662  0.00  0.00     0.010 A 
ATOM      3  C2  UNL d   1       2.688   1.610  -3.630  0.00  0.00     0.041 A 
ATOM      4  C3  UNL d   1       2.873   2.998  -3.787  0.00  0.00    -0.075 A 
ATOM      5  S   UNL d   1       3.921   3.786  -4.907  0.00  0.00     0.015 SA
ATOM      6  C4  UNL d   1       3.465   5.334  -4.359  0.00  0.00     0.022 A 
ATOM      7  C5  UNL d   1       2.536   5.270  -3.347  0.00  0.00     0.026 A 
ATOM      8  C6  UNL d   1       2.180   3.922  -3.001  0.00  0.00    -0.082 A 
ATOM      9  C7  UNL d   1       1.277   3.429  -2.029  0.00  0.00     0.045 A 
ENDROOT
TORSDOF 0
ENDMDL
