MODEL 1
REMARK minimizedAffinity 1.55659246
REMARK minimizedRMSD -1
REMARK  0 active torsions:
REMARK  status: ('A' for Active; 'I' for Inactive)
ROOT
ATOM      1  N1  IND d   1       1.953  -2.051   4.528  0.00  0.00    -0.196 N 
ATOM      2  C2  IND d   1       1.851  -1.576   3.250  0.00  0.00     0.054 A 
ATOM      3  C3  IND d   1       3.079  -1.391   2.717  0.00  0.00    -0.031 A 
ATOM      4  C4  IND d   1       5.393  -1.897   3.727  0.00  0.00     0.051 A 
ATOM      5  C5  IND d   1       5.998  -2.307   4.882  0.00  0.00    -0.031 A 
ATOM      6  C6  IND d   1       5.271  -2.663   5.999  0.00  0.00     0.015 A 
ATOM      7  C7  IND d   1       3.905  -2.632   6.000  0.00  0.00    -0.016 A 
ATOM      8  C8  IND d   1       3.287  -2.209   4.831  0.00  0.00    -0.047 A 
ATOM      9  C9  IND d   1       4.021  -1.806   3.708  0.00  0.00    -0.096 A 
ATOM     10  HN1 IND d   1       1.294  -2.221   5.054  0.00  0.00     0.298 HD
ENDROOT
TORSDOF 0
ENDMDL
