MODEL 1
REMARK minimizedAffinity 11.7232761
REMARK minimizedRMSD -1
REMARK  0 active torsions:
REMARK  status: ('A' for Active; 'I' for Inactive)
ROOT
ATOM      1  N1  IND d   1       5.709  -2.150   3.930  0.00  0.00    -0.196 N 
ATOM      2  C2  IND d   1       6.000  -2.346   5.252  0.00  0.00     0.054 A 
ATOM      3  C3  IND d   1       4.878  -2.249   6.000  0.00  0.00    -0.031 A 
ATOM      4  C4  IND d   1       2.442  -1.877   5.255  0.00  0.00     0.051 A 
ATOM      5  C5  IND d   1       1.682  -1.607   4.151  0.00  0.00    -0.031 A 
ATOM      6  C6  IND d   1       2.237  -1.506   2.892  0.00  0.00     0.015 A 
ATOM      7  C7  IND d   1       3.576  -1.682   2.687  0.00  0.00    -0.016 A 
ATOM      8  C8  IND d   1       4.352  -1.948   3.806  0.00  0.00    -0.047 A 
ATOM      9  C9  IND d   1       3.801  -2.011   5.093  0.00  0.00    -0.096 A 
ATOM     10  HN1 IND d   1       6.277  -2.152   3.286  0.00  0.00     0.298 HD
ENDROOT
TORSDOF 0
ENDMDL
