MODEL 1
REMARK minimizedAffinity 12.4209127
REMARK minimizedRMSD -1
REMARK  0 active torsions:
REMARK  status: ('A' for Active; 'I' for Inactive)
ROOT
ATOM      1  N1  IND d   1       5.131  -1.529   2.219  0.00  0.00    -0.196 N 
ATOM      2  C2  IND d   1       5.997  -2.277   2.967  0.00  0.00     0.054 A 
ATOM      3  C3  IND d   1       5.377  -2.750   4.071  0.00  0.00    -0.031 A 
ATOM      4  C4  IND d   1       2.920  -2.505   4.799  0.00  0.00     0.051 A 
ATOM      5  C5  IND d   1       1.752  -1.880   4.459  0.00  0.00    -0.031 A 
ATOM      6  C6  IND d   1       1.649  -1.093   3.330  0.00  0.00     0.015 A 
ATOM      7  C7  IND d   1       2.710  -0.910   2.490  0.00  0.00    -0.016 A 
ATOM      8  C8  IND d   1       3.899  -1.537   2.836  0.00  0.00    -0.047 A 
ATOM      9  C9  IND d   1       4.022  -2.302   4.003  0.00  0.00    -0.096 A 
ATOM     10  HN1 IND d   1       5.323  -1.122   1.486  0.00  0.00     0.298 HD
ENDROOT
TORSDOF 0
ENDMDL
