MODEL 1
REMARK minimizedAffinity 1.63152528
REMARK minimizedRMSD -1
REMARK  0 active torsions:
REMARK  status: ('A' for Active; 'I' for Inactive)
ROOT
ATOM      1  N1  IND d   1       2.170  -0.969   4.645  0.00  0.00    -0.196 N 
ATOM      2  C2  IND d   1       2.240  -0.295   3.457  0.00  0.00     0.054 A 
ATOM      3  C3  IND d   1       3.493  -0.355   2.955  0.00  0.00    -0.031 A 
ATOM      4  C4  IND d   1       5.562  -1.589   3.863  0.00  0.00     0.051 A 
ATOM      5  C5  IND d   1       6.000  -2.312   4.937  0.00  0.00    -0.031 A 
ATOM      6  C6  IND d   1       5.166  -2.633   5.989  0.00  0.00     0.015 A 
ATOM      7  C7  IND d   1       3.854  -2.251   6.000  0.00  0.00    -0.016 A 
ATOM      8  C8  IND d   1       3.408  -1.510   4.914  0.00  0.00    -0.047 A 
ATOM      9  C9  IND d   1       4.261  -1.145   3.865  0.00  0.00    -0.096 A 
ATOM     10  HN1 IND d   1       1.472  -1.041   5.140  0.00  0.00     0.298 HD
ENDROOT
TORSDOF 0
ENDMDL
