MODEL 1
REMARK minimizedAffinity 16.0701008
REMARK minimizedRMSD -1
REMARK  0 active torsions:
REMARK  status: ('A' for Active; 'I' for Inactive)
ROOT
ATOM      1  N1  IND d   1       1.246  -1.320   2.735  0.00  0.00    -0.196 N 
ATOM      2  C2  IND d   1       1.959  -0.358   2.075  0.00  0.00     0.054 A 
ATOM      3  C3  IND d   1       3.214  -0.280   2.571  0.00  0.00    -0.031 A 
ATOM      4  C4  IND d   1       4.344  -1.702   4.396  0.00  0.00     0.051 A 
ATOM      5  C5  IND d   1       4.084  -2.679   5.314  0.00  0.00    -0.031 A 
ATOM      6  C6  IND d   1       2.840  -3.268   5.421  0.00  0.00     0.015 A 
ATOM      7  C7  IND d   1       1.809  -2.907   4.601  0.00  0.00    -0.016 A 
ATOM      8  C8  IND d   1       2.067  -1.909   3.671  0.00  0.00    -0.047 A 
ATOM      9  C9  IND d   1       3.315  -1.278   3.588  0.00  0.00    -0.096 A 
ATOM     10  HN1 IND d   1       0.423  -1.522   2.591  0.00  0.00     0.298 HD
ENDROOT
TORSDOF 0
ENDMDL
