MODEL 1
REMARK minimizedAffinity 19.1993446
REMARK minimizedRMSD -1
REMARK  0 active torsions:
REMARK  status: ('A' for Active; 'I' for Inactive)
ROOT
ATOM      1  N1  IND d   1       2.640   5.313  -2.221  0.00  0.00    -0.196 N 
ATOM      2  C2  IND d   1       3.181   5.385  -0.968  0.00  0.00     0.054 A 
ATOM      3  C3  IND d   1       4.514   5.597  -1.042  0.00  0.00    -0.031 A 
ATOM      4  C4  IND d   1       6.000   5.960  -3.112  0.00  0.00     0.051 A 
ATOM      5  C5  IND d   1       5.965   5.948  -4.478  0.00  0.00    -0.031 A 
ATOM      6  C6  IND d   1       4.796   5.722  -5.176  0.00  0.00     0.015 A 
ATOM      7  C7  IND d   1       3.611   5.510  -4.531  0.00  0.00    -0.016 A 
ATOM      8  C8  IND d   1       3.644   5.514  -3.143  0.00  0.00    -0.047 A 
ATOM      9  C9  IND d   1       4.835   5.701  -2.430  0.00  0.00    -0.096 A 
ATOM     10  HN1 IND d   1       1.812   5.168  -2.403  0.00  0.00     0.298 HD
ENDROOT
TORSDOF 0
ENDMDL
