MODEL 1
REMARK minimizedAffinity 3.9540503
REMARK minimizedRMSD -1
REMARK  0 active torsions:
REMARK  status: ('A' for Active; 'I' for Inactive)
ROOT
ATOM      1  N1  IND d   1       1.962  -1.923   4.498  0.00  0.00    -0.196 N 
ATOM      2  C2  IND d   1       1.881  -1.399   3.237  0.00  0.00     0.054 A 
ATOM      3  C3  IND d   1       3.119  -1.196   2.733  0.00  0.00    -0.031 A 
ATOM      4  C4  IND d   1       5.415  -1.743   3.761  0.00  0.00     0.051 A 
ATOM      5  C5  IND d   1       6.000  -2.198   4.909  0.00  0.00    -0.031 A 
ATOM      6  C6  IND d   1       5.254  -2.595   6.000  0.00  0.00     0.015 A 
ATOM      7  C7  IND d   1       3.888  -2.563   5.979  0.00  0.00    -0.016 A 
ATOM      8  C8  IND d   1       3.291  -2.095   4.817  0.00  0.00    -0.047 A 
ATOM      9  C9  IND d   1       4.043  -1.650   3.722  0.00  0.00    -0.096 A 
ATOM     10  HN1 IND d   1       1.294  -2.113   5.006  0.00  0.00     0.298 HD
ENDROOT
TORSDOF 0
ENDMDL
