MODEL 1
REMARK minimizedAffinity 4.14090824
REMARK minimizedRMSD -1
REMARK  0 active torsions:
REMARK  status: ('A' for Active; 'I' for Inactive)
ROOT
ATOM      1  N1  IND d   1       1.470  -1.191   2.487  0.00  0.00    -0.196 N 
ATOM      2  C2  IND d   1       1.946  -1.609   3.699  0.00  0.00     0.054 A 
ATOM      3  C3  IND d   1       2.792  -0.689   4.214  0.00  0.00    -0.031 A 
ATOM      4  C4  IND d   1       3.459   1.619   3.290  0.00  0.00     0.051 A 
ATOM      5  C5  IND d   1       3.309   2.426   2.198  0.00  0.00    -0.031 A 
ATOM      6  C6  IND d   1       2.520   2.063   1.125  0.00  0.00     0.015 A 
ATOM      7  C7  IND d   1       1.840   0.878   1.111  0.00  0.00    -0.016 A 
ATOM      8  C8  IND d   1       1.995   0.053   2.215  0.00  0.00    -0.047 A 
ATOM      9  C9  IND d   1       2.828   0.397   3.288  0.00  0.00    -0.096 A 
ATOM     10  HN1 IND d   1       0.932  -1.631   1.981  0.00  0.00     0.298 HD
ENDROOT
TORSDOF 0
ENDMDL
