MODEL 1
REMARK minimizedAffinity 1.90618312
REMARK minimizedRMSD -1
REMARK  0 active torsions:
REMARK  status: ('A' for Active; 'I' for Inactive)
ROOT
ATOM      1  N1  IND d   1       1.339  -0.680   3.637  0.00  0.00    -0.196 N 
ATOM      2  C2  IND d   1       1.962  -0.287   2.485  0.00  0.00     0.054 A 
ATOM      3  C3  IND d   1       2.607  -1.332   1.919  0.00  0.00    -0.031 A 
ATOM      4  C4  IND d   1       2.688  -3.797   2.657  0.00  0.00     0.051 A 
ATOM      5  C5  IND d   1       2.301  -4.633   3.667  0.00  0.00    -0.031 A 
ATOM      6  C6  IND d   1       1.557  -4.185   4.739  0.00  0.00     0.015 A 
ATOM      7  C7  IND d   1       1.160  -2.881   4.835  0.00  0.00    -0.016 A 
ATOM      8  C8  IND d   1       1.556  -2.028   3.815  0.00  0.00    -0.047 A 
ATOM      9  C9  IND d   1       2.348  -2.468   2.746  0.00  0.00    -0.096 A 
ATOM     10  HN1 IND d   1       0.886  -0.170   4.161  0.00  0.00     0.298 HD
ENDROOT
TORSDOF 0
ENDMDL
