MODEL 1
REMARK minimizedAffinity 4.7165308
REMARK minimizedRMSD -1
REMARK  0 active torsions:
REMARK  status: ('A' for Active; 'I' for Inactive)
ROOT
ATOM      1  N1  IND d   1       1.485  -1.508   4.888  0.00  0.00    -0.196 N 
ATOM      2  C2  IND d   1       2.782  -1.156   4.641  0.00  0.00     0.054 A 
ATOM      3  C3  IND d   1       3.606  -2.203   4.869  0.00  0.00    -0.031 A 
ATOM      4  C4  IND d   1       3.032  -4.617   5.555  0.00  0.00     0.051 A 
ATOM      5  C5  IND d   1       1.984  -5.409   5.932  0.00  0.00    -0.031 A 
ATOM      6  C6  IND d   1       0.690  -4.933   5.979  0.00  0.00     0.015 A 
ATOM      7  C7  IND d   1       0.393  -3.644   5.638  0.00  0.00    -0.016 A 
ATOM      8  C8  IND d   1       1.455  -2.834   5.261  0.00  0.00    -0.047 A 
ATOM      9  C9  IND d   1       2.776  -3.300   5.253  0.00  0.00    -0.096 A 
ATOM     10  HN1 IND d   1       0.803  -0.989   4.823  0.00  0.00     0.298 HD
ENDROOT
TORSDOF 0
ENDMDL
