MODEL 1
REMARK minimizedAffinity 11.6171436
REMARK minimizedRMSD -1
REMARK  0 active torsions:
REMARK  status: ('A' for Active; 'I' for Inactive)
ROOT
ATOM      1  N1  IND d   1       1.294  -0.346   2.141  0.00  0.00    -0.196 N 
ATOM      2  C2  IND d   1       2.569  -0.811   2.300  0.00  0.00     0.054 A 
ATOM      3  C3  IND d   1       2.945  -1.532   1.220  0.00  0.00    -0.031 A 
ATOM      4  C4  IND d   1       1.666  -1.991  -0.966  0.00  0.00     0.051 A 
ATOM      5  C5  IND d   1       0.450  -1.805  -1.563  0.00  0.00    -0.031 A 
ATOM      6  C6  IND d   1      -0.566  -1.106  -0.943  0.00  0.00     0.015 A 
ATOM      7  C7  IND d   1      -0.400  -0.556   0.296  0.00  0.00    -0.016 A 
ATOM      8  C8  IND d   1       0.831  -0.749   0.907  0.00  0.00    -0.047 A 
ATOM      9  C9  IND d   1       1.852  -1.493   0.302  0.00  0.00    -0.096 A 
ATOM     10  HN1 IND d   1       0.854   0.120   2.715  0.00  0.00     0.298 HD
ENDROOT
TORSDOF 0
ENDMDL
