MODEL 1
REMARK minimizedAffinity -3.01736188
REMARK minimizedRMSD -1
REMARK  1 active torsions:
REMARK  status: ('A' for Active; 'I' for Inactive)
REMARK    1  A    between atoms: N_2  and  C1_3 
ROOT
ATOM      1  C1  UNL d   1       1.592   0.467  -0.349  0.00  0.00     0.143 A 
ATOM      2  C2  UNL d   1       2.562  -0.498  -0.644  0.00  0.00    -0.057 A 
ATOM      3  C3  UNL d   1       2.289  -1.865  -0.515  0.00  0.00     0.033 A 
ATOM      4  C4  UNL d   1       1.046  -2.292  -0.060  0.00  0.00    -0.042 A 
ATOM      5  C5  UNL d   1       0.075  -1.351   0.263  0.00  0.00     0.033 A 
ATOM      6  C6  UNL d   1       0.351   0.013   0.126  0.00  0.00    -0.057 A 
ENDROOT
BRANCH   1   7
ATOM      7  N   UNL d   1       1.834   1.843  -0.363  0.00  0.00    -0.732 N 
ATOM      8  C   UNL d   1       3.026   2.388   0.250  0.00  0.00     0.284 C 
ATOM      9  H3  UNL d   1       1.592   2.271  -1.254  0.00  0.00     0.395 HD
ENDBRANCH   1   7
TORSDOF 1
ENDMDL
