MODEL 1
REMARK minimizedAffinity 1.82276762
REMARK minimizedRMSD -1
REMARK  1 active torsions:
REMARK  status: ('A' for Active; 'I' for Inactive)
REMARK    1  A    between atoms: N_2  and  C1_3 
ROOT
ATOM      1  C1  UNL d   1      -1.114  -1.285  -5.138  0.00  0.00     0.143 A 
ATOM      2  C2  UNL d   1      -0.833  -1.246  -3.768  0.00  0.00    -0.057 A 
ATOM      3  C3  UNL d   1      -0.885  -2.404  -2.983  0.00  0.00     0.033 A 
ATOM      4  C4  UNL d   1      -1.249  -3.621  -3.551  0.00  0.00    -0.042 A 
ATOM      5  C5  UNL d   1      -1.557  -3.678  -4.906  0.00  0.00     0.033 A 
ATOM      6  C6  UNL d   1      -1.497  -2.519  -5.685  0.00  0.00    -0.057 A 
ENDROOT
BRANCH   1   7
ATOM      7  N   UNL d   1      -1.176  -0.151  -5.952  0.00  0.00    -0.732 N 
ATOM      8  C   UNL d   1      -1.966   0.996  -5.559  0.00  0.00     0.284 C 
ATOM      9  H3  UNL d   1      -0.273   0.085  -6.358  0.00  0.00     0.395 HD
ENDBRANCH   1   7
TORSDOF 1
ENDMDL
