MODEL 1
REMARK minimizedAffinity -1.98867035
REMARK minimizedRMSD -1
REMARK  1 active torsions:
REMARK  status: ('A' for Active; 'I' for Inactive)
REMARK    1  A    between atoms: N_2  and  C1_3 
ROOT
ATOM      1  C1  UNL d   1       1.954  -0.476   0.228  0.00  0.00     0.143 A 
ATOM      2  C2  UNL d   1       2.328   0.517   1.140  0.00  0.00    -0.057 A 
ATOM      3  C3  UNL d   1       1.512   1.630   1.378  0.00  0.00     0.033 A 
ATOM      4  C4  UNL d   1       0.317   1.784   0.683  0.00  0.00    -0.042 A 
ATOM      5  C5  UNL d   1      -0.063   0.822  -0.246  0.00  0.00     0.033 A 
ATOM      6  C6  UNL d   1       0.752  -0.290  -0.474  0.00  0.00    -0.057 A 
ENDROOT
BRANCH   1   7
ATOM      7  N   UNL d   1       2.768  -1.555  -0.124  0.00  0.00    -0.732 N 
ATOM      8  C   UNL d   1       2.891  -1.965  -1.506  0.00  0.00     0.284 C 
ATOM      9  H3  UNL d   1       3.644  -1.565   0.392  0.00  0.00     0.395 HD
ENDBRANCH   1   7
TORSDOF 1
ENDMDL
