MODEL 1
REMARK minimizedAffinity -0.149219751
REMARK minimizedRMSD -1
REMARK  1 active torsions:
REMARK  status: ('A' for Active; 'I' for Inactive)
REMARK    1  A    between atoms: N_2  and  C1_3 
ROOT
ATOM      1  C1  UNL d   1      -0.032  -1.220  -1.183  0.00  0.00     0.143 A 
ATOM      2  C2  UNL d   1      -0.619  -0.388  -0.224  0.00  0.00    -0.057 A 
ATOM      3  C3  UNL d   1       0.122   0.119   0.850  0.00  0.00     0.033 A 
ATOM      4  C4  UNL d   1       1.462  -0.224   1.001  0.00  0.00    -0.042 A 
ATOM      5  C5  UNL d   1       2.060  -1.070   0.074  0.00  0.00     0.033 A 
ATOM      6  C6  UNL d   1       1.316  -1.567  -1.000  0.00  0.00    -0.057 A 
ENDROOT
BRANCH   1   7
ATOM      7  N   UNL d   1      -0.740  -1.835  -2.218  0.00  0.00    -0.732 N 
ATOM      8  C   UNL d   1      -1.353  -1.043  -3.263  0.00  0.00     0.284 C 
ATOM      9  H3  UNL d   1      -0.285  -2.682  -2.551  0.00  0.00     0.395 HD
ENDBRANCH   1   7
TORSDOF 1
ENDMDL
