MODEL 1
REMARK minimizedAffinity 0.708128512
REMARK minimizedRMSD -1
REMARK  1 active torsions:
REMARK  status: ('A' for Active; 'I' for Inactive)
REMARK    1  A    between atoms: N_2  and  C1_3 
ROOT
ATOM      1  C1  UNL d   1      -2.033   0.370   0.795  0.00  0.00     0.143 A 
ATOM      2  C2  UNL d   1      -2.107   1.385   1.756  0.00  0.00    -0.057 A 
ATOM      3  C3  UNL d   1      -3.312   1.687   2.401  0.00  0.00     0.033 A 
ATOM      4  C4  UNL d   1      -4.476   0.998   2.074  0.00  0.00    -0.042 A 
ATOM      5  C5  UNL d   1      -4.431   0.003   1.104  0.00  0.00     0.033 A 
ATOM      6  C6  UNL d   1      -3.223  -0.299   0.468  0.00  0.00    -0.057 A 
ENDROOT
BRANCH   1   7
ATOM      7  N   UNL d   1      -0.887   0.088   0.048  0.00  0.00    -0.732 N 
ATOM      8  C   UNL d   1       0.427   0.400   0.568  0.00  0.00     0.284 C 
ATOM      9  H3  UNL d   1      -0.944  -0.810  -0.427  0.00  0.00     0.395 HD
ENDBRANCH   1   7
TORSDOF 1
ENDMDL
