MODEL 1
REMARK minimizedAffinity 2.40946245
REMARK minimizedRMSD -1
REMARK  2 active torsions:
REMARK  status: ('A' for Active; 'I' for Inactive)
REMARK    1  A    between atoms: C2'_3  and  C1'_4 
REMARK    2  A    between atoms: C1'_4  and  C1_5 
ROOT
ATOM      1  C1  I4B d   1      -0.325  -0.369   0.077  0.00  0.00    -0.075 A 
ATOM      2  C2  I4B d   1      -0.545   0.870  -0.470  0.00  0.00     0.003 A 
ATOM      3  C3  I4B d   1      -0.409   2.034   0.325  0.00  0.00     0.002 A 
ATOM      4  C4  I4B d   1      -0.104   1.911   1.665  0.00  0.00    -0.004 A 
ATOM      5  C5  I4B d   1       0.141   0.655   2.213  0.00  0.00     0.002 A 
ATOM      6  C6  I4B d   1       0.041  -0.492   1.411  0.00  0.00     0.003 A 
ENDROOT
BRANCH   1   7
ATOM      7  C1' I4B d   1      -0.510  -1.579  -0.782  0.00  0.00     0.060 C 
BRANCH   7   8
ATOM      8  C2' I4B d   1      -1.740  -1.360  -1.639  0.00  0.00    -0.013 C 
ATOM      9  C4' I4B d   1      -1.482  -1.746  -3.072  0.00  0.00     0.013 C 
ATOM     10  C3' I4B d   1      -2.861  -2.167  -1.055  0.00  0.00     0.013 C 
ENDBRANCH   7   8
ENDBRANCH   1   7
TORSDOF 2
ENDMDL
