MODEL 1
REMARK minimizedAffinity -3.7982409
REMARK minimizedRMSD -1
REMARK  2 active torsions:
REMARK  status: ('A' for Active; 'I' for Inactive)
REMARK    1  A    between atoms: C2'_3  and  C1'_4 
REMARK    2  A    between atoms: C1'_4  and  C1_5 
ROOT
ATOM      1  C1  I4B d   1      -0.171  -0.598  -0.774  0.00  0.00    -0.075 A 
ATOM      2  C2  I4B d   1       0.994   0.027  -1.143  0.00  0.00     0.003 A 
ATOM      3  C3  I4B d   1       1.469   1.139  -0.407  0.00  0.00     0.002 A 
ATOM      4  C4  I4B d   1       0.727   1.621   0.652  0.00  0.00    -0.004 A 
ATOM      5  C5  I4B d   1      -0.442   0.972   1.038  0.00  0.00     0.002 A 
ATOM      6  C6  I4B d   1      -0.888  -0.153   0.328  0.00  0.00     0.003 A 
ENDROOT
BRANCH   1   7
ATOM      7  C1' I4B d   1      -0.661  -1.750  -1.594  0.00  0.00     0.060 C 
BRANCH   7   8
ATOM      8  C2' I4B d   1      -1.358  -1.190  -2.817  0.00  0.00    -0.013 C 
ATOM      9  C4' I4B d   1      -0.507  -1.349  -4.049  0.00  0.00     0.013 C 
ATOM     10  C3' I4B d   1      -2.669  -1.901  -2.969  0.00  0.00     0.013 C 
ENDBRANCH   7   8
ENDBRANCH   1   7
TORSDOF 2
ENDMDL
