MODEL 1
REMARK minimizedAffinity -4.35870266
REMARK minimizedRMSD -1
REMARK  2 active torsions:
REMARK  status: ('A' for Active; 'I' for Inactive)
REMARK    1  A    between atoms: C2'_3  and  C1'_4 
REMARK    2  A    between atoms: C1'_4  and  C1_5 
ROOT
ATOM      1  C1  I4B d   1      -0.262   0.604   0.397  0.00  0.00    -0.075 A 
ATOM      2  C2  I4B d   1      -1.023   0.256   1.486  0.00  0.00     0.003 A 
ATOM      3  C3  I4B d   1      -0.676   0.723   2.777  0.00  0.00     0.002 A 
ATOM      4  C4  I4B d   1       0.461   1.489   2.940  0.00  0.00    -0.004 A 
ATOM      5  C5  I4B d   1       1.218   1.860   1.832  0.00  0.00     0.002 A 
ATOM      6  C6  I4B d   1       0.848   1.425   0.551  0.00  0.00     0.003 A 
ENDROOT
BRANCH   1   7
ATOM      7  C1' I4B d   1      -0.638   0.066  -0.947  0.00  0.00     0.060 C 
BRANCH   7   8
ATOM      8  C2' I4B d   1      -0.702  -1.444  -0.844  0.00  0.00    -0.013 C 
ATOM      9  C4' I4B d   1      -1.581  -2.027  -1.919  0.00  0.00     0.013 C 
ATOM     10  C3' I4B d   1       0.697  -1.975  -0.940  0.00  0.00     0.013 C 
ENDBRANCH   7   8
ENDBRANCH   1   7
TORSDOF 2
ENDMDL
