MODEL 1
REMARK minimizedAffinity -4.79462242
REMARK minimizedRMSD -1
REMARK  2 active torsions:
REMARK  status: ('A' for Active; 'I' for Inactive)
REMARK    1  A    between atoms: C2'_3  and  C1'_4 
REMARK    2  A    between atoms: C1'_4  and  C1_5 
ROOT
ATOM      1  C1  I4B d   1      -0.094   0.200   0.130  0.00  0.00    -0.075 A 
ATOM      2  C2  I4B d   1      -0.641  -0.035   1.366  0.00  0.00     0.003 A 
ATOM      3  C3  I4B d   1      -0.594   0.964   2.369  0.00  0.00     0.002 A 
ATOM      4  C4  I4B d   1       0.050   2.156   2.109  0.00  0.00    -0.004 A 
ATOM      5  C5  I4B d   1       0.584   2.402   0.848  0.00  0.00     0.002 A 
ATOM      6  C6  I4B d   1       0.501   1.422  -0.153  0.00  0.00     0.003 A 
ENDROOT
BRANCH   1   7
ATOM      7  C1' I4B d   1      -0.133  -0.890  -0.894  0.00  0.00     0.060 C 
BRANCH   7   8
ATOM      8  C2' I4B d   1      -1.503  -0.874  -1.542  0.00  0.00    -0.013 C 
ATOM      9  C4' I4B d   1      -1.396  -0.778  -3.041  0.00  0.00     0.013 C 
ATOM     10  C3' I4B d   1      -2.225  -2.121  -1.129  0.00  0.00     0.013 C 
ENDBRANCH   7   8
ENDBRANCH   1   7
TORSDOF 2
ENDMDL
