MODEL 1
REMARK minimizedAffinity -3.71351504
REMARK minimizedRMSD -1
REMARK  2 active torsions:
REMARK  status: ('A' for Active; 'I' for Inactive)
REMARK    1  A    between atoms: C2'_3  and  C1'_4 
REMARK    2  A    between atoms: C1'_4  and  C1_5 
ROOT
ATOM      1  C1  I4B d   1      -1.349  -1.586  -1.303  0.00  0.00    -0.075 A 
ATOM      2  C2  I4B d   1      -2.568  -2.166  -1.055  0.00  0.00     0.003 A 
ATOM      3  C3  I4B d   1      -3.555  -2.212  -2.069  0.00  0.00     0.002 A 
ATOM      4  C4  I4B d   1      -3.300  -1.627  -3.293  0.00  0.00    -0.004 A 
ATOM      5  C5  I4B d   1      -2.055  -1.060  -3.549  0.00  0.00     0.002 A 
ATOM      6  C6  I4B d   1      -1.069  -1.050  -2.553  0.00  0.00     0.003 A 
ENDROOT
BRANCH   1   7
ATOM      7  C1' I4B d   1      -0.342  -1.525  -0.198  0.00  0.00     0.060 C 
BRANCH   7   8
ATOM      8  C2' I4B d   1       0.167  -0.100  -0.109  0.00  0.00    -0.013 C 
ATOM      9  C4' I4B d   1      -0.346   0.586   1.129  0.00  0.00     0.013 C 
ATOM     10  C3' I4B d   1       1.666  -0.143  -0.123  0.00  0.00     0.013 C 
ENDBRANCH   7   8
ENDBRANCH   1   7
TORSDOF 2
ENDMDL
