MODEL 1
REMARK minimizedAffinity -5.57385921
REMARK minimizedRMSD -1
REMARK  2 active torsions:
REMARK  status: ('A' for Active; 'I' for Inactive)
REMARK    1  A    between atoms: C2'_3  and  C1'_4 
REMARK    2  A    between atoms: C1'_4  and  C1_5 
ROOT
ATOM      1  C1  I4B d   1      -0.727   1.133   1.182  0.00  0.00    -0.075 A 
ATOM      2  C2  I4B d   1      -0.138   0.167   0.404  0.00  0.00     0.003 A 
ATOM      3  C3  I4B d   1       1.211   0.304  -0.003  0.00  0.00     0.002 A 
ATOM      4  C4  I4B d   1       1.915   1.439   0.346  0.00  0.00    -0.004 A 
ATOM      5  C5  I4B d   1       1.323   2.406   1.153  0.00  0.00     0.002 A 
ATOM      6  C6  I4B d   1      -0.002   2.247   1.584  0.00  0.00     0.003 A 
ENDROOT
BRANCH   1   7
ATOM      7  C1' I4B d   1      -2.163   0.972   1.566  0.00  0.00     0.060 C 
BRANCH   7   8
ATOM      8  C2' I4B d   1      -2.227   0.787   3.068  0.00  0.00    -0.013 C 
ATOM      9  C4' I4B d   1      -3.219   1.732   3.693  0.00  0.00     0.013 C 
ATOM     10  C3' I4B d   1      -2.592  -0.642   3.343  0.00  0.00     0.013 C 
ENDBRANCH   7   8
ENDBRANCH   1   7
TORSDOF 2
ENDMDL
