MODEL 1
REMARK minimizedAffinity -3.69154501
REMARK minimizedRMSD -1
REMARK  2 active torsions:
REMARK  status: ('A' for Active; 'I' for Inactive)
REMARK    1  A    between atoms: C2'_3  and  C1'_4 
REMARK    2  A    between atoms: C1'_4  and  C1_5 
ROOT
ATOM      1  C1  I4B d   1      -0.154  -0.685  -0.458  0.00  0.00    -0.075 A 
ATOM      2  C2  I4B d   1       0.860   0.177  -0.794  0.00  0.00     0.003 A 
ATOM      3  C3  I4B d   1       1.209   1.240   0.074  0.00  0.00     0.002 A 
ATOM      4  C4  I4B d   1       0.490   1.433   1.235  0.00  0.00    -0.004 A 
ATOM      5  C5  I4B d   1      -0.523   0.544   1.586  0.00  0.00     0.002 A 
ATOM      6  C6  I4B d   1      -0.839  -0.529   0.740  0.00  0.00     0.003 A 
ENDROOT
BRANCH   1   7
ATOM      7  C1' I4B d   1      -0.519  -1.777  -1.414  0.00  0.00     0.060 C 
BRANCH   7   8
ATOM      8  C2' I4B d   1      -1.489  -1.206  -2.427  0.00  0.00    -0.013 C 
ATOM      9  C4' I4B d   1      -0.804  -0.919  -3.737  0.00  0.00     0.013 C 
ATOM     10  C3' I4B d   1      -2.607  -2.190  -2.604  0.00  0.00     0.013 C 
ENDBRANCH   7   8
ENDBRANCH   1   7
TORSDOF 2
ENDMDL
