MODEL 1
REMARK minimizedAffinity 0.712785721
REMARK minimizedRMSD -1
REMARK  2 active torsions:
REMARK  status: ('A' for Active; 'I' for Inactive)
REMARK    1  A    between atoms: C2'_3  and  C1'_4 
REMARK    2  A    between atoms: C1'_4  and  C1_5 
ROOT
ATOM      1  C1  I4B d   1      -0.875  -0.846  -0.780  0.00  0.00    -0.075 A 
ATOM      2  C2  I4B d   1      -2.063  -1.473  -1.060  0.00  0.00     0.003 A 
ATOM      3  C3  I4B d   1      -2.559  -1.502  -2.386  0.00  0.00     0.002 A 
ATOM      4  C4  I4B d   1      -1.864  -0.851  -3.385  0.00  0.00    -0.004 A 
ATOM      5  C5  I4B d   1      -0.648  -0.234  -3.104  0.00  0.00     0.002 A 
ATOM      6  C6  I4B d   1      -0.144  -0.242  -1.795  0.00  0.00     0.003 A 
ENDROOT
BRANCH   1   7
ATOM      7  C1' I4B d   1      -0.397  -0.806   0.637  0.00  0.00     0.060 C 
BRANCH   7   8
ATOM      8  C2' I4B d   1      -1.025   0.398   1.308  0.00  0.00    -0.013 C 
ATOM      9  C4' I4B d   1      -2.155  -0.012   2.216  0.00  0.00     0.013 C 
ATOM     10  C3' I4B d   1       0.048   1.116   2.070  0.00  0.00     0.013 C 
ENDBRANCH   7   8
ENDBRANCH   1   7
TORSDOF 2
ENDMDL
