MODEL 1
REMARK minimizedAffinity -4.12541437
REMARK minimizedRMSD -1
REMARK  2 active torsions:
REMARK  status: ('A' for Active; 'I' for Inactive)
REMARK    1  A    between atoms: C2'_3  and  C1'_4 
REMARK    2  A    between atoms: C1'_4  and  C1_5 
ROOT
ATOM      1  C1  I4B d   1       0.546  -0.268  -0.246  0.00  0.00    -0.075 A 
ATOM      2  C2  I4B d   1       1.441   0.602  -0.816  0.00  0.00     0.003 A 
ATOM      3  C3  I4B d   1       1.703   1.855  -0.209  0.00  0.00     0.002 A 
ATOM      4  C4  I4B d   1       1.015   2.214   0.932  0.00  0.00    -0.004 A 
ATOM      5  C5  I4B d   1       0.125   1.321   1.521  0.00  0.00     0.002 A 
ATOM      6  C6  I4B d   1      -0.102   0.067   0.936  0.00  0.00     0.003 A 
ENDROOT
BRANCH   1   7
ATOM      7  C1' I4B d   1       0.269  -1.568  -0.931  0.00  0.00     0.060 C 
BRANCH   7   8
ATOM      8  C2' I4B d   1      -1.143  -1.515  -1.479  0.00  0.00    -0.013 C 
ATOM      9  C4' I4B d   1      -1.146  -1.562  -2.984  0.00  0.00     0.013 C 
ATOM     10  C3' I4B d   1      -1.908  -2.668  -0.900  0.00  0.00     0.013 C 
ENDBRANCH   7   8
ENDBRANCH   1   7
TORSDOF 2
ENDMDL
