MODEL 1
REMARK minimizedAffinity -0.632987559
REMARK minimizedRMSD -1
REMARK  0 active torsions:
REMARK  status: ('A' for Active; 'I' for Inactive)
ROOT
ATOM      1  C   UNL d   1       2.379  -4.335   5.248  0.00  0.00     0.020 A 
ATOM      2  C1  UNL d   1       1.226  -3.734   4.745  0.00  0.00     0.020 A 
ATOM      3  C2  UNL d   1       1.327  -2.720   3.789  0.00  0.00     0.034 A 
ATOM      4  C3  UNL d   1       2.584  -2.305   3.334  0.00  0.00     0.017 A 
ATOM      5  C4  UNL d   1       3.741  -2.909   3.840  0.00  0.00     0.017 A 
ATOM      6  C5  UNL d   1       3.634  -3.924   4.796  0.00  0.00     0.034 A 
ATOM      7 Cl   UNL d   1       5.326  -2.451   3.326  0.00  0.00    -0.070 Cl
ATOM      8 Cl1  UNL d   1       2.634  -1.047   2.151  0.00  0.00    -0.070 Cl
ENDROOT
TORSDOF 0
ENDMDL
