MODEL 1
REMARK minimizedAffinity 3.35096455
REMARK minimizedRMSD -1
REMARK  0 active torsions:
REMARK  status: ('A' for Active; 'I' for Inactive)
ROOT
ATOM      1  C   UNL d   1       1.525  -1.814   3.857  0.00  0.00     0.020 A 
ATOM      2  C1  UNL d   1       2.077  -1.376   2.654  0.00  0.00     0.020 A 
ATOM      3  C2  UNL d   1       3.461  -1.404   2.469  0.00  0.00     0.034 A 
ATOM      4  C3  UNL d   1       4.298  -1.872   3.488  0.00  0.00     0.017 A 
ATOM      5  C4  UNL d   1       3.743  -2.312   4.696  0.00  0.00     0.017 A 
ATOM      6  C5  UNL d   1       2.356  -2.282   4.876  0.00  0.00     0.034 A 
ATOM      7 Cl   UNL d   1       4.711  -2.903   6.000  0.00  0.00    -0.070 Cl
ATOM      8 Cl1  UNL d   1       6.000  -1.880   3.191  0.00  0.00    -0.070 Cl
ENDROOT
TORSDOF 0
ENDMDL
