MODEL 1
REMARK minimizedAffinity 9.32051563
REMARK minimizedRMSD -1
REMARK  0 active torsions:
REMARK  status: ('A' for Active; 'I' for Inactive)
ROOT
ATOM      1  C   UNL d   1       1.319  -0.322   2.952  0.00  0.00     0.020 A 
ATOM      2  C1  UNL d   1       2.036  -0.865   1.886  0.00  0.00     0.020 A 
ATOM      3  C2  UNL d   1       2.550  -2.160   1.977  0.00  0.00     0.034 A 
ATOM      4  C3  UNL d   1       2.348  -2.917   3.137  0.00  0.00     0.017 A 
ATOM      5  C4  UNL d   1       1.629  -2.371   4.207  0.00  0.00     0.017 A 
ATOM      6  C5  UNL d   1       1.117  -1.074   4.110  0.00  0.00     0.034 A 
ATOM      7 Cl   UNL d   1       1.340  -3.244   5.670  0.00  0.00    -0.070 Cl
ATOM      8 Cl1  UNL d   1       3.012  -4.511   3.181  0.00  0.00    -0.070 Cl
ENDROOT
TORSDOF 0
ENDMDL
