MODEL 1
REMARK minimizedAffinity 12.7423048
REMARK minimizedRMSD -1
REMARK  0 active torsions:
REMARK  status: ('A' for Active; 'I' for Inactive)
ROOT
ATOM      1  C   UNL d   1      -5.182   4.605   0.725  0.00  0.00     0.020 A 
ATOM      2  C1  UNL d   1      -5.152   3.492   1.564  0.00  0.00     0.020 A 
ATOM      3  C2  UNL d   1      -4.045   2.641   1.555  0.00  0.00     0.034 A 
ATOM      4  C3  UNL d   1      -2.964   2.901   0.706  0.00  0.00     0.017 A 
ATOM      5  C4  UNL d   1      -2.995   4.019  -0.136  0.00  0.00     0.017 A 
ATOM      6  C5  UNL d   1      -4.106   4.868  -0.124  0.00  0.00     0.034 A 
ATOM      7 Cl   UNL d   1      -1.698   4.405  -1.212  0.00  0.00    -0.070 Cl
ATOM      8 Cl1  UNL d   1      -1.628   1.806   0.748  0.00  0.00    -0.070 Cl
ENDROOT
TORSDOF 0
ENDMDL
