MODEL 1
REMARK minimizedAffinity 10.8229761
REMARK minimizedRMSD -1
REMARK  0 active torsions:
REMARK  status: ('A' for Active; 'I' for Inactive)
ROOT
ATOM      1  C   UNL d   1       0.844  -3.155   3.921  0.00  0.00     0.020 A 
ATOM      2  C1  UNL d   1       1.792  -3.906   4.614  0.00  0.00     0.020 A 
ATOM      3  C2  UNL d   1       3.112  -3.459   4.697  0.00  0.00     0.034 A 
ATOM      4  C3  UNL d   1       3.488  -2.257   4.086  0.00  0.00     0.017 A 
ATOM      5  C4  UNL d   1       2.535  -1.504   3.390  0.00  0.00     0.017 A 
ATOM      6  C5  UNL d   1       1.215  -1.956   3.310  0.00  0.00     0.034 A 
ATOM      7 Cl   UNL d   1       2.923  -0.011   2.611  0.00  0.00    -0.070 Cl
ATOM      8 Cl1  UNL d   1       5.138  -1.764   4.230  0.00  0.00    -0.070 Cl
ENDROOT
TORSDOF 0
ENDMDL
