MODEL 1
REMARK minimizedAffinity 6.36082697
REMARK minimizedRMSD -1
REMARK  0 active torsions:
REMARK  status: ('A' for Active; 'I' for Inactive)
ROOT
ATOM      1  C   UNL d   1       5.389  -2.638   5.989  0.00  0.00     0.020 A 
ATOM      2  C1  UNL d   1       5.997  -1.923   4.958  0.00  0.00     0.020 A 
ATOM      3  C2  UNL d   1       5.219  -1.376   3.935  0.00  0.00     0.034 A 
ATOM      4  C3  UNL d   1       3.829  -1.543   3.941  0.00  0.00     0.017 A 
ATOM      5  C4  UNL d   1       3.220  -2.261   4.977  0.00  0.00     0.017 A 
ATOM      6  C5  UNL d   1       4.004  -2.806   5.999  0.00  0.00     0.034 A 
ATOM      7 Cl   UNL d   1       1.512  -2.509   5.054  0.00  0.00    -0.070 Cl
ATOM      8 Cl1  UNL d   1       2.929  -0.840   2.645  0.00  0.00    -0.070 Cl
ENDROOT
TORSDOF 0
ENDMDL
