MODEL 1
REMARK minimizedAffinity 11.7079782
REMARK minimizedRMSD -1
REMARK  0 active torsions:
REMARK  status: ('A' for Active; 'I' for Inactive)
ROOT
ATOM      1  C   UNL d   1       0.637  -1.703  -0.061  0.00  0.00     0.020 A 
ATOM      2  C1  UNL d   1       0.980  -0.727   0.873  0.00  0.00     0.020 A 
ATOM      3  C2  UNL d   1       1.829  -1.044   1.935  0.00  0.00     0.034 A 
ATOM      4  C3  UNL d   1       2.338  -2.341   2.066  0.00  0.00     0.017 A 
ATOM      5  C4  UNL d   1       1.994  -3.321   1.128  0.00  0.00     0.017 A 
ATOM      6  C5  UNL d   1       1.143  -2.998   0.066  0.00  0.00     0.034 A 
ATOM      7 Cl   UNL d   1       2.582  -4.943   1.223  0.00  0.00    -0.070 Cl
ATOM      8 Cl1  UNL d   1       3.384  -2.663   3.403  0.00  0.00    -0.070 Cl
ENDROOT
TORSDOF 0
ENDMDL
