MODEL 1
REMARK minimizedAffinity 9.4937439
REMARK minimizedRMSD -1
REMARK  0 active torsions:
REMARK  status: ('A' for Active; 'I' for Inactive)
ROOT
ATOM      1  C   UNL d   1      -1.442  -0.664   0.420  0.00  0.00     0.020 A 
ATOM      2  C1  UNL d   1      -1.224  -1.440  -0.717  0.00  0.00     0.020 A 
ATOM      3  C2  UNL d   1       0.054  -1.931  -0.993  0.00  0.00     0.034 A 
ATOM      4  C3  UNL d   1       1.119  -1.646  -0.131  0.00  0.00     0.017 A 
ATOM      5  C4  UNL d   1       0.900  -0.866   1.010  0.00  0.00     0.017 A 
ATOM      6  C5  UNL d   1      -0.382  -0.377   1.282  0.00  0.00     0.034 A 
ATOM      7 Cl   UNL d   1       2.164  -0.472   2.121  0.00  0.00    -0.070 Cl
ATOM      8 Cl1  UNL d   1       2.672  -2.286  -0.534  0.00  0.00    -0.070 Cl
ENDROOT
TORSDOF 0
ENDMDL
