MODEL 1
REMARK minimizedAffinity 5.34224176
REMARK minimizedRMSD -1
REMARK  0 active torsions:
REMARK  status: ('A' for Active; 'I' for Inactive)
ROOT
ATOM      1  C   UNL d   1       2.599   2.335   3.999  0.00  0.00     0.020 A 
ATOM      2  C1  UNL d   1       1.940   1.390   4.785  0.00  0.00     0.020 A 
ATOM      3  C2  UNL d   1       1.843   0.066   4.351  0.00  0.00     0.034 A 
ATOM      4  C3  UNL d   1       2.406  -0.316   3.128  0.00  0.00     0.017 A 
ATOM      5  C4  UNL d   1       3.068   0.633   2.340  0.00  0.00     0.017 A 
ATOM      6  C5  UNL d   1       3.162   1.957   2.780  0.00  0.00     0.034 A 
ATOM      7 Cl   UNL d   1       3.788   0.236   0.820  0.00  0.00    -0.070 Cl
ATOM      8 Cl1  UNL d   1       2.250  -1.970   2.654  0.00  0.00    -0.070 Cl
ENDROOT
TORSDOF 0
ENDMDL
