MODEL 1
REMARK minimizedAffinity -3.83230734
REMARK minimizedRMSD -1
REMARK  1 active torsions:
REMARK  status: ('A' for Active; 'I' for Inactive)
REMARK    1  A    between atoms: N_2  and  C1_3 
ROOT
ATOM      1  C1  UNL d   1      -2.015  -1.039  -1.851  0.00  0.00     0.143 A 
ATOM      2  C2  UNL d   1      -2.647  -1.544  -0.710  0.00  0.00    -0.057 A 
ATOM      3  C3  UNL d   1      -2.187  -1.228   0.575  0.00  0.00     0.033 A 
ATOM      4  C4  UNL d   1      -1.066  -0.421   0.740  0.00  0.00    -0.042 A 
ATOM      5  C5  UNL d   1      -0.408   0.072  -0.381  0.00  0.00     0.033 A 
ATOM      6  C6  UNL d   1      -0.875  -0.242  -1.661  0.00  0.00    -0.057 A 
ENDROOT
BRANCH   1   7
ATOM      7  N   UNL d   1      -2.365  -1.396  -3.156  0.00  0.00    -0.732 N 
ATOM      8  C   UNL d   1      -2.506  -2.788  -3.526  0.00  0.00     0.284 C 
ATOM      9  H3  UNL d   1      -3.080  -0.787  -3.547  0.00  0.00     0.395 HD
ENDBRANCH   1   7
TORSDOF 1
ENDMDL
