MODEL 1
REMARK minimizedAffinity -4.81361675
REMARK minimizedRMSD -1
REMARK  1 active torsions:
REMARK  status: ('A' for Active; 'I' for Inactive)
REMARK    1  A    between atoms: N_2  and  C1_3 
ROOT
ATOM      1  C1  UNL d   1      -0.157  -0.364  -0.782  0.00  0.00     0.143 A 
ATOM      2  C2  UNL d   1      -0.622  -0.516  -2.093  0.00  0.00    -0.057 A 
ATOM      3  C3  UNL d   1      -1.980  -0.720  -2.362  0.00  0.00     0.033 A 
ATOM      4  C4  UNL d   1      -2.897  -0.805  -1.320  0.00  0.00    -0.042 A 
ATOM      5  C5  UNL d   1      -2.454  -0.681  -0.008  0.00  0.00     0.033 A 
ATOM      6  C6  UNL d   1      -1.097  -0.471   0.254  0.00  0.00    -0.057 A 
ENDROOT
BRANCH   1   7
ATOM      7  N   UNL d   1       1.194  -0.257  -0.444  0.00  0.00    -0.732 N 
ATOM      8  C   UNL d   1       1.632   0.702   0.547  0.00  0.00     0.284 C 
ATOM      9  H3  UNL d   1       1.650  -1.164  -0.374  0.00  0.00     0.395 HD
ENDBRANCH   1   7
TORSDOF 1
ENDMDL
