MODEL 1
REMARK minimizedAffinity -4.15693092
REMARK minimizedRMSD -1
REMARK  1 active torsions:
REMARK  status: ('A' for Active; 'I' for Inactive)
REMARK    1  A    between atoms: N_2  and  C1_3 
ROOT
ATOM      1  C1  UNL d   1      -0.485  -0.099  -0.144  0.00  0.00     0.143 A 
ATOM      2  C2  UNL d   1      -1.093   0.454  -1.276  0.00  0.00    -0.057 A 
ATOM      3  C3  UNL d   1      -2.439   0.207  -1.571  0.00  0.00     0.033 A 
ATOM      4  C4  UNL d   1      -3.196  -0.624  -0.751  0.00  0.00    -0.042 A 
ATOM      5  C5  UNL d   1      -2.606  -1.204   0.366  0.00  0.00     0.033 A 
ATOM      6  C6  UNL d   1      -1.263  -0.948   0.659  0.00  0.00    -0.057 A 
ENDROOT
BRANCH   1   7
ATOM      7  N   UNL d   1       0.875   0.029   0.150  0.00  0.00    -0.732 N 
ATOM      8  C   UNL d   1       1.409   1.283   0.637  0.00  0.00     0.284 C 
ATOM      9  H3  UNL d   1       1.251  -0.793   0.617  0.00  0.00     0.395 HD
ENDBRANCH   1   7
TORSDOF 1
ENDMDL
