MODEL 1
REMARK minimizedAffinity -4.35168314
REMARK minimizedRMSD -1
REMARK  1 active torsions:
REMARK  status: ('A' for Active; 'I' for Inactive)
REMARK    1  A    between atoms: N_2  and  C1_3 
ROOT
ATOM      1  C1  UNL d   1      -1.070  -0.093  -0.715  0.00  0.00     0.143 A 
ATOM      2  C2  UNL d   1      -1.490  -0.878  -1.794  0.00  0.00    -0.057 A 
ATOM      3  C3  UNL d   1      -2.793  -1.384  -1.860  0.00  0.00     0.033 A 
ATOM      4  C4  UNL d   1      -3.695  -1.139  -0.830  0.00  0.00    -0.042 A 
ATOM      5  C5  UNL d   1      -3.292  -0.382   0.265  0.00  0.00     0.033 A 
ATOM      6  C6  UNL d   1      -1.991   0.127   0.322  0.00  0.00    -0.057 A 
ENDROOT
BRANCH   1   7
ATOM      7  N   UNL d   1       0.241   0.357  -0.544  0.00  0.00    -0.732 N 
ATOM      8  C   UNL d   1       0.996  -0.003   0.637  0.00  0.00     0.284 C 
ATOM      9  H3  UNL d   1       0.779   0.324  -1.407  0.00  0.00     0.395 HD
ENDBRANCH   1   7
TORSDOF 1
ENDMDL
