MODEL 1
REMARK minimizedAffinity -3.96424532
REMARK minimizedRMSD -1
REMARK  1 active torsions:
REMARK  status: ('A' for Active; 'I' for Inactive)
REMARK    1  A    between atoms: N_2  and  C1_3 
ROOT
ATOM      1  C1  UNL d   1      -1.327  -0.434  -0.733  0.00  0.00     0.143 A 
ATOM      2  C2  UNL d   1      -0.377   0.330  -1.418  0.00  0.00    -0.057 A 
ATOM      3  C3  UNL d   1       0.885   0.583  -0.868  0.00  0.00     0.033 A 
ATOM      4  C4  UNL d   1       1.210   0.099   0.395  0.00  0.00    -0.042 A 
ATOM      5  C5  UNL d   1       0.272  -0.642   1.106  0.00  0.00     0.033 A 
ATOM      6  C6  UNL d   1      -0.985  -0.897   0.548  0.00  0.00    -0.057 A 
ENDROOT
BRANCH   1   7
ATOM      7  N   UNL d   1      -2.634  -0.638  -1.183  0.00  0.00    -0.732 N 
ATOM      8  C   UNL d   1      -3.691  -0.971  -0.253  0.00  0.00     0.284 C 
ATOM      9  H3  UNL d   1      -2.906   0.031  -1.900  0.00  0.00     0.395 HD
ENDBRANCH   1   7
TORSDOF 1
ENDMDL
