MODEL 1
REMARK minimizedAffinity -0.366426378
REMARK minimizedRMSD -1
REMARK  1 active torsions:
REMARK  status: ('A' for Active; 'I' for Inactive)
REMARK    1  A    between atoms: N_2  and  C1_3 
ROOT
ATOM      1  C1  UNL d   1       1.061   0.248   0.293  0.00  0.00     0.143 A 
ATOM      2  C2  UNL d   1       1.212  -0.697   1.314  0.00  0.00    -0.057 A 
ATOM      3  C3  UNL d   1       0.135  -1.484   1.739  0.00  0.00     0.033 A 
ATOM      4  C4  UNL d   1      -1.123  -1.319   1.169  0.00  0.00    -0.042 A 
ATOM      5  C5  UNL d   1      -1.302  -0.369   0.170  0.00  0.00     0.033 A 
ATOM      6  C6  UNL d   1      -0.221   0.410  -0.255  0.00  0.00    -0.057 A 
ENDROOT
BRANCH   1   7
ATOM      7  N   UNL d   1       2.069   1.130  -0.106  0.00  0.00    -0.732 N 
ATOM      8  C   UNL d   1       2.495   2.205   0.765  0.00  0.00     0.284 C 
ATOM      9  H3  UNL d   1       2.831   0.657  -0.586  0.00  0.00     0.395 HD
ENDBRANCH   1   7
TORSDOF 1
ENDMDL
