MODEL 1
REMARK minimizedAffinity -4.80719042
REMARK minimizedRMSD -1
REMARK  1 active torsions:
REMARK  status: ('A' for Active; 'I' for Inactive)
REMARK    1  A    between atoms: N_2  and  C1_3 
ROOT
ATOM      1  C1  UNL d   1      -1.867  -1.293   0.438  0.00  0.00     0.143 A 
ATOM      2  C2  UNL d   1      -0.641  -0.646   0.250  0.00  0.00    -0.057 A 
ATOM      3  C3  UNL d   1      -0.504   0.397  -0.674  0.00  0.00     0.033 A 
ATOM      4  C4  UNL d   1      -1.589   0.794  -1.450  0.00  0.00    -0.042 A 
ATOM      5  C5  UNL d   1      -2.811   0.148  -1.298  0.00  0.00     0.033 A 
ATOM      6  C6  UNL d   1      -2.943  -0.888  -0.369  0.00  0.00    -0.057 A 
ENDROOT
BRANCH   1   7
ATOM      7  N   UNL d   1      -2.043  -2.402   1.269  0.00  0.00    -0.732 N 
ATOM      8  C   UNL d   1      -0.962  -2.871   2.110  0.00  0.00     0.284 C 
ATOM      9  H3  UNL d   1      -2.954  -2.408   1.722  0.00  0.00     0.395 HD
ENDBRANCH   1   7
TORSDOF 1
ENDMDL
