MODEL 1
REMARK minimizedAffinity -4.45744324
REMARK minimizedRMSD -1
REMARK  1 active torsions:
REMARK  status: ('A' for Active; 'I' for Inactive)
REMARK    1  A    between atoms: N_2  and  C1_3 
ROOT
ATOM      1  C1  UNL d   1       0.194   0.334   0.145  0.00  0.00     0.143 A 
ATOM      2  C2  UNL d   1      -0.051   0.558  -1.214  0.00  0.00    -0.057 A 
ATOM      3  C3  UNL d   1      -1.275   0.209  -1.799  0.00  0.00     0.033 A 
ATOM      4  C4  UNL d   1      -2.267  -0.400  -1.038  0.00  0.00    -0.042 A 
ATOM      5  C5  UNL d   1      -2.036  -0.656   0.309  0.00  0.00     0.033 A 
ATOM      6  C6  UNL d   1      -0.815  -0.298   0.888  0.00  0.00    -0.057 A 
ENDROOT
BRANCH   1   7
ATOM      7  N   UNL d   1       1.424   0.569   0.762  0.00  0.00    -0.732 N 
ATOM      8  C   UNL d   1       2.107   1.833   0.589  0.00  0.00     0.284 C 
ATOM      9  H3  UNL d   1       1.458   0.205   1.712  0.00  0.00     0.395 HD
ENDBRANCH   1   7
TORSDOF 1
ENDMDL
