MODEL 1
REMARK minimizedAffinity -3.83253312
REMARK minimizedRMSD -1
REMARK  1 active torsions:
REMARK  status: ('A' for Active; 'I' for Inactive)
REMARK    1  A    between atoms: N_2  and  C1_3 
ROOT
ATOM      1  C1  UNL d   1       0.514  -0.112   0.442  0.00  0.00     0.143 A 
ATOM      2  C2  UNL d   1      -0.695  -0.471   1.048  0.00  0.00    -0.057 A 
ATOM      3  C3  UNL d   1      -1.841  -0.730   0.287  0.00  0.00     0.033 A 
ATOM      4  C4  UNL d   1      -1.805  -0.606  -1.098  0.00  0.00    -0.042 A 
ATOM      5  C5  UNL d   1      -0.621  -0.226  -1.721  0.00  0.00     0.033 A 
ATOM      6  C6  UNL d   1       0.521   0.025  -0.955  0.00  0.00    -0.057 A 
ENDROOT
BRANCH   1   7
ATOM      7  N   UNL d   1       1.661   0.253   1.150  0.00  0.00    -0.732 N 
ATOM      8  C   UNL d   1       2.371   1.472   0.825  0.00  0.00     0.284 C 
ATOM      9  H3  UNL d   1       1.575   0.076   2.148  0.00  0.00     0.395 HD
ENDBRANCH   1   7
TORSDOF 1
ENDMDL
