MODEL 1
REMARK minimizedAffinity -4.20689487
REMARK minimizedRMSD -1
REMARK  1 active torsions:
REMARK  status: ('A' for Active; 'I' for Inactive)
REMARK    1  A    between atoms: N_2  and  C1_3 
ROOT
ATOM      1  C1  UNL d   1       0.024   0.130  -0.303  0.00  0.00     0.143 A 
ATOM      2  C2  UNL d   1      -0.110   0.423  -1.664  0.00  0.00    -0.057 A 
ATOM      3  C3  UNL d   1      -1.327   0.235  -2.331  0.00  0.00     0.033 A 
ATOM      4  C4  UNL d   1      -2.427  -0.278  -1.652  0.00  0.00    -0.042 A 
ATOM      5  C5  UNL d   1      -2.310  -0.600  -0.304  0.00  0.00     0.033 A 
ATOM      6  C6  UNL d   1      -1.094  -0.404   0.357  0.00  0.00    -0.057 A 
ENDROOT
BRANCH   1   7
ATOM      7  N   UNL d   1       1.233   0.202   0.393  0.00  0.00    -0.732 N 
ATOM      8  C   UNL d   1       1.731   1.472   0.876  0.00  0.00     0.284 C 
ATOM      9  H3  UNL d   1       1.351  -0.567   1.049  0.00  0.00     0.395 HD
ENDBRANCH   1   7
TORSDOF 1
ENDMDL
