MODEL 1
REMARK minimizedAffinity 10.0483046
REMARK minimizedRMSD -1
REMARK  1 active torsions:
REMARK  status: ('A' for Active; 'I' for Inactive)
REMARK    1  A    between atoms: C1_2  and  C2_3 
ROOT
ATOM      1  C2  UNL d   1      -0.466   1.530   2.696  0.00  0.00    -0.073 A 
ATOM      2  C3  UNL d   1       0.421   2.268   3.488  0.00  0.00    -0.002 A 
ATOM      3  C4  UNL d   1       1.387   1.618   4.258  0.00  0.00     0.004 A 
ATOM      4  C5  UNL d   1       1.481   0.227   4.237  0.00  0.00    -0.004 A 
ATOM      5  C6  UNL d   1       0.612  -0.528   3.443  0.00  0.00    -0.075 A 
ATOM      6  C7  UNL d   1       0.699  -2.026   3.412  0.00  0.00     0.076 C 
ATOM      7  C8  UNL d   1      -0.358   0.132   2.676  0.00  0.00     0.001 A 
ENDROOT
BRANCH   1   8
ATOM      8  C1  UNL d   1      -1.507   2.227   1.859  0.00  0.00     0.053 C 
ATOM      9  C   UNL d   1      -1.107   3.655   1.525  0.00  0.00     0.018 C 
ENDBRANCH   1   8
TORSDOF 1
ENDMDL
