MODEL 1
REMARK minimizedAffinity 10.6322536
REMARK minimizedRMSD -1
REMARK  1 active torsions:
REMARK  status: ('A' for Active; 'I' for Inactive)
REMARK    1  A    between atoms: C1_2  and  C2_3 
ROOT
ATOM      1  C2  UNL d   1       2.954  -0.863  -0.304  0.00  0.00    -0.073 A 
ATOM      2  C3  UNL d   1       1.955   0.060  -0.630  0.00  0.00    -0.002 A 
ATOM      3  C4  UNL d   1       2.262   1.415  -0.759  0.00  0.00     0.004 A 
ATOM      4  C5  UNL d   1       3.570   1.860  -0.570  0.00  0.00    -0.004 A 
ATOM      5  C6  UNL d   1       4.585   0.951  -0.255  0.00  0.00    -0.075 A 
ATOM      6  C7  UNL d   1       5.998   1.413  -0.047  0.00  0.00     0.076 C 
ATOM      7  C8  UNL d   1       4.269  -0.408  -0.125  0.00  0.00     0.001 A 
ENDROOT
BRANCH   1   8
ATOM      8  C1  UNL d   1       2.629  -2.329  -0.171  0.00  0.00     0.053 C 
ATOM      9  C   UNL d   1       2.208  -2.942  -1.497  0.00  0.00     0.018 C 
ENDBRANCH   1   8
TORSDOF 1
ENDMDL
