MODEL 1
REMARK minimizedAffinity 4.24043751
REMARK minimizedRMSD -1
REMARK  1 active torsions:
REMARK  status: ('A' for Active; 'I' for Inactive)
REMARK    1  A    between atoms: C1_2  and  C2_3 
ROOT
ATOM      1  C2  UNL d   1       1.752   0.418   0.179  0.00  0.00    -0.073 A 
ATOM      2  C3  UNL d   1       0.822   0.989  -0.696  0.00  0.00    -0.002 A 
ATOM      3  C4  UNL d   1      -0.328   1.605  -0.199  0.00  0.00     0.004 A 
ATOM      4  C5  UNL d   1      -0.555   1.663   1.176  0.00  0.00    -0.004 A 
ATOM      5  C6  UNL d   1       0.369   1.108   2.067  0.00  0.00    -0.075 A 
ATOM      6  C7  UNL d   1       0.138   1.160   3.549  0.00  0.00     0.076 C 
ATOM      7  C8  UNL d   1       1.519   0.489   1.560  0.00  0.00     0.001 A 
ENDROOT
BRANCH   1   8
ATOM      8  C1  UNL d   1       2.998  -0.243  -0.352  0.00  0.00     0.053 C 
ATOM      9  C   UNL d   1       4.149   0.740  -0.491  0.00  0.00     0.018 C 
ENDBRANCH   1   8
TORSDOF 1
ENDMDL
