MODEL 1
REMARK minimizedAffinity 4.7407341
REMARK minimizedRMSD -1
REMARK  1 active torsions:
REMARK  status: ('A' for Active; 'I' for Inactive)
REMARK    1  A    between atoms: C1_2  and  C2_3 
ROOT
ATOM      1  C2  UNL d   1       4.636   0.730  -0.890  0.00  0.00    -0.073 A 
ATOM      2  C3  UNL d   1       4.945   0.726  -2.255  0.00  0.00    -0.002 A 
ATOM      3  C4  UNL d   1       4.366  -0.216  -3.106  0.00  0.00     0.004 A 
ATOM      4  C5  UNL d   1       3.468  -1.158  -2.603  0.00  0.00    -0.004 A 
ATOM      5  C6  UNL d   1       3.138  -1.162  -1.244  0.00  0.00    -0.075 A 
ATOM      6  C7  UNL d   1       2.176  -2.170  -0.687  0.00  0.00     0.076 C 
ATOM      7  C8  UNL d   1       3.726  -0.214  -0.395  0.00  0.00     0.001 A 
ENDROOT
BRANCH   1   8
ATOM      8  C1  UNL d   1       5.254   1.750   0.032  0.00  0.00     0.053 C 
ATOM      9  C   UNL d   1       5.991   2.837  -0.734  0.00  0.00     0.018 C 
ENDBRANCH   1   8
TORSDOF 1
ENDMDL
