MODEL 1
REMARK minimizedAffinity 3.90243244
REMARK minimizedRMSD -1
REMARK  1 active torsions:
REMARK  status: ('A' for Active; 'I' for Inactive)
REMARK    1  A    between atoms: C1_2  and  C2_3 
ROOT
ATOM      1  C2  UNL d   1      -5.123   2.189  -2.618  0.00  0.00    -0.073 A 
ATOM      2  C3  UNL d   1      -5.707   1.395  -1.625  0.00  0.00    -0.002 A 
ATOM      3  C4  UNL d   1      -4.993   0.340  -1.055  0.00  0.00     0.004 A 
ATOM      4  C5  UNL d   1      -3.687   0.073  -1.465  0.00  0.00    -0.004 A 
ATOM      5  C6  UNL d   1      -3.081   0.863  -2.448  0.00  0.00    -0.075 A 
ATOM      6  C7  UNL d   1      -1.678   0.588  -2.903  0.00  0.00     0.076 C 
ATOM      7  C8  UNL d   1      -3.806   1.918  -3.018  0.00  0.00     0.001 A 
ENDROOT
BRANCH   1   8
ATOM      8  C1  UNL d   1      -5.887   3.332  -3.233  0.00  0.00     0.053 C 
ATOM      9  C   UNL d   1      -4.971   4.472  -3.649  0.00  0.00     0.018 C 
ENDBRANCH   1   8
TORSDOF 1
ENDMDL
