MODEL 1
REMARK minimizedAffinity 6.51864672
REMARK minimizedRMSD -1
REMARK  0 active torsions:
REMARK  status: ('A' for Active; 'I' for Inactive)
ROOT
ATOM      1  C   UNL d   1      -0.356   0.242   2.320  0.00  0.00     0.020 A 
ATOM      2  C1  UNL d   1      -0.842  -1.047   2.535  0.00  0.00     0.020 A 
ATOM      3  C2  UNL d   1      -0.181  -1.904   3.417  0.00  0.00     0.034 A 
ATOM      4  C3  UNL d   1       0.971  -1.474   4.086  0.00  0.00     0.017 A 
ATOM      5  C4  UNL d   1       1.458  -0.180   3.869  0.00  0.00     0.017 A 
ATOM      6  C5  UNL d   1       0.792   0.674   2.985  0.00  0.00     0.034 A 
ATOM      7 Cl   UNL d   1       2.873   0.422   4.658  0.00  0.00    -0.070 Cl
ATOM      8 Cl1  UNL d   1       1.738  -2.587   5.162  0.00  0.00    -0.070 Cl
ENDROOT
TORSDOF 0
ENDMDL
