MODEL 1
REMARK minimizedAffinity 12.6615973
REMARK minimizedRMSD -1
REMARK  0 active torsions:
REMARK  status: ('A' for Active; 'I' for Inactive)
ROOT
ATOM      1  C   UNL d   1       5.563   0.773   1.574  0.00  0.00     0.020 A 
ATOM      2  C1  UNL d   1       5.976   2.072   1.281  0.00  0.00     0.020 A 
ATOM      3  C2  UNL d   1       5.997   3.042   2.286  0.00  0.00     0.034 A 
ATOM      4  C3  UNL d   1       5.604   2.714   3.588  0.00  0.00     0.017 A 
ATOM      5  C4  UNL d   1       5.190   1.410   3.882  0.00  0.00     0.017 A 
ATOM      6  C5  UNL d   1       5.171   0.443   2.872  0.00  0.00     0.034 A 
ATOM      7 Cl   UNL d   1       4.691   0.930   5.466  0.00  0.00    -0.070 Cl
ATOM      8 Cl1  UNL d   1       5.655   3.963   4.781  0.00  0.00    -0.070 Cl
ENDROOT
TORSDOF 0
ENDMDL
