MODEL 1
REMARK minimizedAffinity 1.47888386
REMARK minimizedRMSD -1
REMARK  0 active torsions:
REMARK  status: ('A' for Active; 'I' for Inactive)
ROOT
ATOM      1  C   UNL d   1       4.074   4.472   0.370  0.00  0.00     0.020 A 
ATOM      2  C1  UNL d   1       4.877   5.537   0.776  0.00  0.00     0.020 A 
ATOM      3  C2  UNL d   1       5.462   5.527   2.044  0.00  0.00     0.034 A 
ATOM      4  C3  UNL d   1       5.245   4.449   2.910  0.00  0.00     0.017 A 
ATOM      5  C4  UNL d   1       4.439   3.380   2.502  0.00  0.00     0.017 A 
ATOM      6  C5  UNL d   1       3.855   3.396   1.231  0.00  0.00     0.034 A 
ATOM      7 Cl   UNL d   1       4.125   2.016   3.516  0.00  0.00    -0.070 Cl
ATOM      8 Cl1  UNL d   1       6.000   4.503   4.464  0.00  0.00    -0.070 Cl
ENDROOT
TORSDOF 0
ENDMDL
