MODEL 1
REMARK minimizedAffinity 5.5563488
REMARK minimizedRMSD -1
REMARK  0 active torsions:
REMARK  status: ('A' for Active; 'I' for Inactive)
ROOT
ATOM      1  C   UNL d   1       1.700  -2.116   4.204  0.00  0.00     0.020 A 
ATOM      2  C1  UNL d   1       1.881  -1.581   5.479  0.00  0.00     0.020 A 
ATOM      3  C2  UNL d   1       1.321  -0.343   5.802  0.00  0.00     0.034 A 
ATOM      4  C3  UNL d   1       0.578   0.364   4.850  0.00  0.00     0.017 A 
ATOM      5  C4  UNL d   1       0.397  -0.174   3.570  0.00  0.00     0.017 A 
ATOM      6  C5  UNL d   1       0.960  -1.414   3.252  0.00  0.00     0.034 A 
ATOM      7 Cl   UNL d   1      -0.507   0.639   2.342  0.00  0.00    -0.070 Cl
ATOM      8 Cl1  UNL d   1      -0.085   1.889   5.318  0.00  0.00    -0.070 Cl
ENDROOT
TORSDOF 0
ENDMDL
