MODEL 1
REMARK minimizedAffinity 19.5612411
REMARK minimizedRMSD -1
REMARK  0 active torsions:
REMARK  status: ('A' for Active; 'I' for Inactive)
ROOT
ATOM      1  C   UNL d   1       0.366  -0.716  -5.237  0.00  0.00     0.020 A 
ATOM      2  C1  UNL d   1       0.766  -0.370  -3.947  0.00  0.00     0.020 A 
ATOM      3  C2  UNL d   1       0.203  -1.017  -2.845  0.00  0.00     0.034 A 
ATOM      4  C3  UNL d   1      -0.764  -2.011  -3.031  0.00  0.00     0.017 A 
ATOM      5  C4  UNL d   1      -1.166  -2.357  -4.326  0.00  0.00     0.017 A 
ATOM      6  C5  UNL d   1      -0.598  -1.707  -5.426  0.00  0.00     0.034 A 
ATOM      7 Cl   UNL d   1      -2.353  -3.574  -4.635  0.00  0.00    -0.070 Cl
ATOM      8 Cl1  UNL d   1      -1.418  -2.769  -1.622  0.00  0.00    -0.070 Cl
ENDROOT
TORSDOF 0
ENDMDL
