MODEL 1
REMARK minimizedAffinity 11.7239752
REMARK minimizedRMSD -1
REMARK  0 active torsions:
REMARK  status: ('A' for Active; 'I' for Inactive)
ROOT
ATOM      1  C   UNL d   1       1.204  -1.255   3.222  0.00  0.00     0.020 A 
ATOM      2  C1  UNL d   1       1.857  -0.026   3.294  0.00  0.00     0.020 A 
ATOM      3  C2  UNL d   1       1.156   1.154   3.035  0.00  0.00     0.034 A 
ATOM      4  C3  UNL d   1      -0.203   1.106   2.704  0.00  0.00     0.017 A 
ATOM      5  C4  UNL d   1      -0.858  -0.128   2.632  0.00  0.00     0.017 A 
ATOM      6  C5  UNL d   1      -0.151  -1.306   2.892  0.00  0.00     0.034 A 
ATOM      7 Cl   UNL d   1      -2.533  -0.267   2.229  0.00  0.00    -0.070 Cl
ATOM      8 Cl1  UNL d   1      -1.008   2.604   2.397  0.00  0.00    -0.070 Cl
ENDROOT
TORSDOF 0
ENDMDL
