MODEL 1
REMARK minimizedAffinity 12.1547728
REMARK minimizedRMSD -1
REMARK  0 active torsions:
REMARK  status: ('A' for Active; 'I' for Inactive)
ROOT
ATOM      1  C   UNL d   1      -3.199   1.526   1.999  0.00  0.00     0.020 A 
ATOM      2  C1  UNL d   1      -1.940   2.098   2.179  0.00  0.00     0.020 A 
ATOM      3  C2  UNL d   1      -0.882   1.321   2.657  0.00  0.00     0.034 A 
ATOM      4  C3  UNL d   1      -1.082  -0.032   2.956  0.00  0.00     0.017 A 
ATOM      5  C4  UNL d   1      -2.346  -0.605   2.775  0.00  0.00     0.017 A 
ATOM      6  C5  UNL d   1      -3.401   0.178   2.297  0.00  0.00     0.034 A 
ATOM      7 Cl   UNL d   1      -2.669  -2.267   3.122  0.00  0.00    -0.070 Cl
ATOM      8 Cl1  UNL d   1       0.271  -0.933   3.542  0.00  0.00    -0.070 Cl
ENDROOT
TORSDOF 0
ENDMDL
