MODEL 1
REMARK minimizedAffinity 15.0640926
REMARK minimizedRMSD -1
REMARK  0 active torsions:
REMARK  status: ('A' for Active; 'I' for Inactive)
ROOT
ATOM      1  C   UNL d   1       4.694   2.239   4.551  0.00  0.00     0.020 A 
ATOM      2  C1  UNL d   1       5.596   1.248   4.166  0.00  0.00     0.020 A 
ATOM      3  C2  UNL d   1       5.986   1.139   2.830  0.00  0.00     0.034 A 
ATOM      4  C3  UNL d   1       5.474   2.022   1.873  0.00  0.00     0.017 A 
ATOM      5  C4  UNL d   1       4.568   3.017   2.260  0.00  0.00     0.017 A 
ATOM      6  C5  UNL d   1       4.181   3.121   3.599  0.00  0.00     0.034 A 
ATOM      7 Cl   UNL d   1       3.893   4.143   1.136  0.00  0.00    -0.070 Cl
ATOM      8 Cl1  UNL d   1       6.000   1.830   0.238  0.00  0.00    -0.070 Cl
ENDROOT
TORSDOF 0
ENDMDL
