MODEL 1
REMARK minimizedAffinity 13.0107555
REMARK minimizedRMSD -1
REMARK  0 active torsions:
REMARK  status: ('A' for Active; 'I' for Inactive)
ROOT
ATOM      1  C   UNL d   1       1.542  -1.103  -4.518  0.00  0.00     0.020 A 
ATOM      2  C1  UNL d   1       0.559  -1.061  -5.506  0.00  0.00     0.020 A 
ATOM      3  C2  UNL d   1      -0.789  -1.163  -5.155  0.00  0.00     0.034 A 
ATOM      4  C3  UNL d   1      -1.158  -1.307  -3.813  0.00  0.00     0.017 A 
ATOM      5  C4  UNL d   1      -0.171  -1.349  -2.822  0.00  0.00     0.017 A 
ATOM      6  C5  UNL d   1       1.177  -1.246  -3.178  0.00  0.00     0.034 A 
ATOM      7 Cl   UNL d   1      -0.549  -1.524  -1.144  0.00  0.00    -0.070 Cl
ATOM      8 Cl1  UNL d   1      -2.843  -1.427  -3.452  0.00  0.00    -0.070 Cl
ENDROOT
TORSDOF 0
ENDMDL
