MODEL 1
REMARK minimizedAffinity 14.0185003
REMARK minimizedRMSD -1
REMARK  0 active torsions:
REMARK  status: ('A' for Active; 'I' for Inactive)
ROOT
ATOM      1  C   UNL d   1       1.069  -0.428  -4.752  0.00  0.00     0.020 A 
ATOM      2  C1  UNL d   1       1.835  -1.095  -3.797  0.00  0.00     0.020 A 
ATOM      3  C2  UNL d   1       1.220  -1.654  -2.675  0.00  0.00     0.034 A 
ATOM      4  C3  UNL d   1      -0.164  -1.545  -2.504  0.00  0.00     0.017 A 
ATOM      5  C4  UNL d   1      -0.933  -0.875  -3.463  0.00  0.00     0.017 A 
ATOM      6  C5  UNL d   1      -0.312  -0.318  -4.585  0.00  0.00     0.034 A 
ATOM      7 Cl   UNL d   1      -2.646  -0.701  -3.321  0.00  0.00    -0.070 Cl
ATOM      8 Cl1  UNL d   1      -0.858  -2.260  -1.092  0.00  0.00    -0.070 Cl
ENDROOT
TORSDOF 0
ENDMDL
