MODEL 1
REMARK minimizedAffinity 20.4044094
REMARK minimizedRMSD -1
REMARK  0 active torsions:
REMARK  status: ('A' for Active; 'I' for Inactive)
ROOT
ATOM      1  C   UNL d   1      -1.870  -1.876   2.287  0.00  0.00     0.020 A 
ATOM      2  C1  UNL d   1      -3.017  -1.101   2.458  0.00  0.00     0.020 A 
ATOM      3  C2  UNL d   1      -2.917   0.290   2.520  0.00  0.00     0.034 A 
ATOM      4  C3  UNL d   1      -1.667   0.912   2.410  0.00  0.00     0.017 A 
ATOM      5  C4  UNL d   1      -0.517   0.133   2.239  0.00  0.00     0.017 A 
ATOM      6  C5  UNL d   1      -0.623  -1.260   2.178  0.00  0.00     0.034 A 
ATOM      7 Cl   UNL d   1       1.060   0.827   2.096  0.00  0.00    -0.070 Cl
ATOM      8 Cl1  UNL d   1      -1.617   2.637   2.495  0.00  0.00    -0.070 Cl
ENDROOT
TORSDOF 0
ENDMDL
