MODEL 1
REMARK minimizedAffinity 14.1587534
REMARK minimizedRMSD -1
REMARK  0 active torsions:
REMARK  status: ('A' for Active; 'I' for Inactive)
ROOT
ATOM      1  C   UNL d   1      -0.749  -5.231  -5.811  0.00  0.00     0.020 A 
ATOM      2  C1  UNL d   1      -1.195  -5.713  -4.581  0.00  0.00     0.020 A 
ATOM      3  C2  UNL d   1      -1.289  -4.851  -3.487  0.00  0.00     0.034 A 
ATOM      4  C3  UNL d   1      -0.936  -3.503  -3.620  0.00  0.00     0.017 A 
ATOM      5  C4  UNL d   1      -0.488  -3.021  -4.855  0.00  0.00     0.017 A 
ATOM      6  C5  UNL d   1      -0.396  -3.888  -5.948  0.00  0.00     0.034 A 
ATOM      7 Cl   UNL d   1      -0.035  -1.371  -5.096  0.00  0.00    -0.070 Cl
ATOM      8 Cl1  UNL d   1      -1.077  -2.494  -2.224  0.00  0.00    -0.070 Cl
ENDROOT
TORSDOF 0
ENDMDL
