MODEL 1
REMARK minimizedAffinity -4.22561979
REMARK minimizedRMSD -1
REMARK  0 active torsions:
REMARK  status: ('A' for Active; 'I' for Inactive)
ROOT
ATOM      1  C   UNL d   1       1.498  -0.688   2.772  0.00  0.00     0.023 A 
ATOM      2  C1  UNL d   1       0.290  -1.229   2.333  0.00  0.00     0.003 A 
ATOM      3  C2  UNL d   1      -0.254  -0.827   1.111  0.00  0.00     0.048 A 
ATOM      4  C3  UNL d   1       0.417   0.114   0.332  0.00  0.00     0.023 A 
ATOM      5  C4  UNL d   1       1.628   0.658   0.767  0.00  0.00     0.048 A 
ATOM      6  C5  UNL d   1       2.167   0.254   1.990  0.00  0.00     0.003 A 
ATOM      7  I   UNL d   1      -0.389   0.713  -1.487  0.00  0.00    -0.146 I 
ENDROOT
TORSDOF 0
ENDMDL
