MODEL 1
REMARK minimizedAffinity -0.981354773
REMARK minimizedRMSD -1
REMARK  0 active torsions:
REMARK  status: ('A' for Active; 'I' for Inactive)
ROOT
ATOM      1  C   UNL d   1      -0.638   0.327  -1.469  0.00  0.00     0.023 A 
ATOM      2  C1  UNL d   1      -1.505   0.265  -0.378  0.00  0.00     0.003 A 
ATOM      3  C2  UNL d   1      -1.003   0.016   0.901  0.00  0.00     0.048 A 
ATOM      4  C3  UNL d   1       0.368  -0.168   1.082  0.00  0.00     0.023 A 
ATOM      5  C4  UNL d   1       1.239  -0.105  -0.007  0.00  0.00     0.048 A 
ATOM      6  C5  UNL d   1       0.732   0.143  -1.284  0.00  0.00     0.003 A 
ATOM      7  I   UNL d   1       1.117  -0.538   2.985  0.00  0.00    -0.146 I 
ENDROOT
TORSDOF 0
ENDMDL
