MODEL 1
REMARK minimizedAffinity -1.12244081
REMARK minimizedRMSD -1
REMARK  0 active torsions:
REMARK  status: ('A' for Active; 'I' for Inactive)
ROOT
ATOM      1  C   UNL d   1      -4.933   1.861  -4.899  0.00  0.00     0.023 A 
ATOM      2  C1  UNL d   1      -3.688   1.252  -5.058  0.00  0.00     0.003 A 
ATOM      3  C2  UNL d   1      -2.583   1.723  -4.344  0.00  0.00     0.048 A 
ATOM      4  C3  UNL d   1      -2.732   2.802  -3.473  0.00  0.00     0.023 A 
ATOM      5  C4  UNL d   1      -3.976   3.413  -3.310  0.00  0.00     0.048 A 
ATOM      6  C5  UNL d   1      -5.077   2.939  -4.026  0.00  0.00     0.003 A 
ATOM      7  I   UNL d   1      -1.089   3.504  -2.410  0.00  0.00    -0.146 I 
ENDROOT
TORSDOF 0
ENDMDL
