MODEL 1
REMARK minimizedAffinity -3.45949626
REMARK minimizedRMSD -1
REMARK  0 active torsions:
REMARK  status: ('A' for Active; 'I' for Inactive)
ROOT
ATOM      1  C   UNL d   1       0.784  -0.854   3.096  0.00  0.00     0.023 A 
ATOM      2  C1  UNL d   1      -0.525  -0.769   2.621  0.00  0.00     0.003 A 
ATOM      3  C2  UNL d   1      -0.775  -0.247   1.350  0.00  0.00     0.048 A 
ATOM      4  C3  UNL d   1       0.288   0.188   0.560  0.00  0.00     0.023 A 
ATOM      5  C4  UNL d   1       1.600   0.104   1.031  0.00  0.00     0.048 A 
ATOM      6  C5  UNL d   1       1.845  -0.418   2.303  0.00  0.00     0.003 A 
ATOM      7  I   UNL d   1      -0.081   0.965  -1.332  0.00  0.00    -0.146 I 
ENDROOT
TORSDOF 0
ENDMDL
