MODEL 1
REMARK minimizedAffinity -5.29210663
REMARK minimizedRMSD -1
REMARK  0 active torsions:
REMARK  status: ('A' for Active; 'I' for Inactive)
ROOT
ATOM      1  C   UNL d   1       1.470  -1.244   2.598  0.00  0.00     0.023 A 
ATOM      2  C1  UNL d   1       0.264  -0.542   2.580  0.00  0.00     0.003 A 
ATOM      3  C2  UNL d   1      -0.294  -0.142   1.364  0.00  0.00     0.048 A 
ATOM      4  C3  UNL d   1       0.358  -0.448   0.170  0.00  0.00     0.023 A 
ATOM      5  C4  UNL d   1       1.564  -1.151   0.183  0.00  0.00     0.048 A 
ATOM      6  C5  UNL d   1       2.119  -1.548   1.401  0.00  0.00     0.003 A 
ATOM      7  I   UNL d   1      -0.472   0.146  -1.641  0.00  0.00    -0.146 I 
ENDROOT
TORSDOF 0
ENDMDL
