MODEL 1
REMARK minimizedAffinity -2.24220157
REMARK minimizedRMSD -1
REMARK  0 active torsions:
REMARK  status: ('A' for Active; 'I' for Inactive)
ROOT
ATOM      1  C   UNL d   1       1.872  -1.591   2.668  0.00  0.00     0.023 A 
ATOM      2  C1  UNL d   1       2.453  -1.846   1.426  0.00  0.00     0.003 A 
ATOM      3  C2  UNL d   1       1.856  -1.360   0.261  0.00  0.00     0.048 A 
ATOM      4  C3  UNL d   1       0.678  -0.618   0.346  0.00  0.00     0.023 A 
ATOM      5  C4  UNL d   1       0.093  -0.360   1.587  0.00  0.00     0.048 A 
ATOM      6  C5  UNL d   1       0.694  -0.849   2.748  0.00  0.00     0.003 A 
ATOM      7  I   UNL d   1      -0.213   0.106  -1.386  0.00  0.00    -0.146 I 
ENDROOT
TORSDOF 0
ENDMDL
