MODEL 1
REMARK minimizedAffinity -0.853241742
REMARK minimizedRMSD -1
REMARK  0 active torsions:
REMARK  status: ('A' for Active; 'I' for Inactive)
ROOT
ATOM      1  C   UNL d   1      -0.816   0.146  -1.111  0.00  0.00     0.023 A 
ATOM      2  C1  UNL d   1      -1.483   0.043   0.110  0.00  0.00     0.003 A 
ATOM      3  C2  UNL d   1      -0.778  -0.298   1.266  0.00  0.00     0.048 A 
ATOM      4  C3  UNL d   1       0.594  -0.533   1.194  0.00  0.00     0.023 A 
ATOM      5  C4  UNL d   1       1.266  -0.430  -0.025  0.00  0.00     0.048 A 
ATOM      6  C5  UNL d   1       0.557  -0.090  -1.178  0.00  0.00     0.003 A 
ATOM      7  I   UNL d   1       1.646  -1.040   2.914  0.00  0.00    -0.146 I 
ENDROOT
TORSDOF 0
ENDMDL
