MODEL 1
REMARK minimizedAffinity -1.99466932
REMARK minimizedRMSD -1
REMARK  0 active torsions:
REMARK  status: ('A' for Active; 'I' for Inactive)
ROOT
ATOM      1  C   UNL d   1       0.722  -0.507   2.609  0.00  0.00     0.023 A 
ATOM      2  C1  UNL d   1      -0.622  -0.538   2.234  0.00  0.00     0.003 A 
ATOM      3  C2  UNL d   1      -0.999  -0.136   0.951  0.00  0.00     0.048 A 
ATOM      4  C3  UNL d   1      -0.028   0.295   0.048  0.00  0.00     0.023 A 
ATOM      5  C4  UNL d   1       1.318   0.326   0.419  0.00  0.00     0.048 A 
ATOM      6  C5  UNL d   1       1.690  -0.076   1.703  0.00  0.00     0.003 A 
ATOM      7  I   UNL d   1      -0.587   0.893  -1.862  0.00  0.00    -0.146 I 
ENDROOT
TORSDOF 0
ENDMDL
