MODEL 1
REMARK minimizedAffinity -1.52859128
REMARK minimizedRMSD -1
REMARK  0 active torsions:
REMARK  status: ('A' for Active; 'I' for Inactive)
ROOT
ATOM      1  C   UNL d   1       0.972  -0.752   3.093  0.00  0.00     0.023 A 
ATOM      2  C1  UNL d   1       1.696   0.010   2.174  0.00  0.00     0.003 A 
ATOM      3  C2  UNL d   1       1.240   0.141   0.861  0.00  0.00     0.048 A 
ATOM      4  C3  UNL d   1       0.059  -0.491   0.473  0.00  0.00     0.023 A 
ATOM      5  C4  UNL d   1      -0.669  -1.254   1.389  0.00  0.00     0.048 A 
ATOM      6  C5  UNL d   1      -0.208  -1.383   2.700  0.00  0.00     0.003 A 
ATOM      7  I   UNL d   1      -0.622  -0.298  -1.481  0.00  0.00    -0.146 I 
ENDROOT
TORSDOF 0
ENDMDL
