MODEL 1
REMARK minimizedAffinity -1.78596854
REMARK minimizedRMSD -1
REMARK  0 active torsions:
REMARK  status: ('A' for Active; 'I' for Inactive)
ROOT
ATOM      1  C1  DEN d   1       0.779   0.761  -2.453  0.00  0.00     0.130 A 
ATOM      2  C2  DEN d   1       1.906   0.336  -1.627  0.00  0.00    -0.031 A 
ATOM      3  C3  DEN d   1       3.150   0.638  -2.363  0.00  0.00     0.027 A 
ATOM      4  C4  DEN d   1       3.441   1.720  -4.685  0.00  0.00     0.027 A 
ATOM      5  C5  DEN d   1       2.774   2.240  -5.773  0.00  0.00    -0.003 A 
ATOM      6  C6  DEN d   1       1.407   2.272  -5.844  0.00  0.00     0.001 A 
ATOM      7  C7  DEN d   1       0.661   1.816  -4.789  0.00  0.00     0.017 A 
ATOM      8  C8  DEN d   1       1.326   1.284  -3.692  0.00  0.00    -0.094 A 
ATOM      9  C9  DEN d   1       2.709   1.272  -3.634  0.00  0.00    -0.072 A 
ENDROOT
TORSDOF 0
ENDMDL
