MODEL 1
REMARK minimizedAffinity -0.175979137
REMARK minimizedRMSD -1
REMARK  0 active torsions:
REMARK  status: ('A' for Active; 'I' for Inactive)
ROOT
ATOM      1  C1  DEN d   1       3.727   2.136  -4.338  0.00  0.00     0.130 A 
ATOM      2  C2  DEN d   1       3.034   2.443  -5.586  0.00  0.00    -0.031 A 
ATOM      3  C3  DEN d   1       1.633   1.996  -5.452  0.00  0.00     0.027 A 
ATOM      4  C4  DEN d   1       0.475   0.868  -3.442  0.00  0.00     0.027 A 
ATOM      5  C5  DEN d   1       0.659   0.393  -2.162  0.00  0.00    -0.003 A 
ATOM      6  C6  DEN d   1       1.876   0.435  -1.536  0.00  0.00     0.001 A 
ATOM      7  C7  DEN d   1       2.948   1.004  -2.172  0.00  0.00     0.017 A 
ATOM      8  C8  DEN d   1       2.772   1.478  -3.465  0.00  0.00    -0.094 A 
ATOM      9  C9  DEN d   1       1.531   1.438  -4.077  0.00  0.00    -0.072 A 
ENDROOT
TORSDOF 0
ENDMDL
