MODEL 1
REMARK minimizedAffinity 2.40065837
REMARK minimizedRMSD -1
REMARK  0 active torsions:
REMARK  status: ('A' for Active; 'I' for Inactive)
ROOT
ATOM      1  C1  DEN d   1       3.662   5.870   4.384  0.00  0.00     0.130 A 
ATOM      2  C2  DEN d   1       4.872   5.622   5.163  0.00  0.00    -0.031 A 
ATOM      3  C3  DEN d   1       5.992   5.432   4.219  0.00  0.00     0.027 A 
ATOM      4  C4  DEN d   1       5.971   5.502   1.641  0.00  0.00     0.027 A 
ATOM      5  C5  DEN d   1       5.175   5.668   0.529  0.00  0.00    -0.003 A 
ATOM      6  C6  DEN d   1       3.825   5.877   0.622  0.00  0.00     0.001 A 
ATOM      7  C7  DEN d   1       3.236   5.971   1.855  0.00  0.00     0.017 A 
ATOM      8  C8  DEN d   1       4.030   5.797   2.981  0.00  0.00    -0.094 A 
ATOM      9  C9  DEN d   1       5.396   5.599   2.866  0.00  0.00    -0.072 A 
ENDROOT
TORSDOF 0
ENDMDL
