MODEL 1
REMARK minimizedAffinity -2.98854804
REMARK minimizedRMSD -1
REMARK  0 active torsions:
REMARK  status: ('A' for Active; 'I' for Inactive)
ROOT
ATOM      1  C1  DEN d   1      -0.690   1.739  -2.237  0.00  0.00     0.130 A 
ATOM      2  C2  DEN d   1      -0.291   2.999  -2.857  0.00  0.00    -0.031 A 
ATOM      3  C3  DEN d   1       1.173   2.970  -3.049  0.00  0.00     0.027 A 
ATOM      4  C4  DEN d   1       2.851   1.104  -2.454  0.00  0.00     0.027 A 
ATOM      5  C5  DEN d   1       2.986  -0.149  -1.899  0.00  0.00    -0.003 A 
ATOM      6  C6  DEN d   1       1.919  -0.841  -1.391  0.00  0.00     0.001 A 
ATOM      7  C7  DEN d   1       0.661  -0.303  -1.469  0.00  0.00     0.017 A 
ATOM      8  C8  DEN d   1       0.519   0.964  -2.020  0.00  0.00    -0.094 A 
ATOM      9  C9  DEN d   1       1.608   1.642  -2.539  0.00  0.00    -0.072 A 
ENDROOT
TORSDOF 0
ENDMDL
