MODEL 1
REMARK minimizedAffinity -1.19268525
REMARK minimizedRMSD -1
REMARK  0 active torsions:
REMARK  status: ('A' for Active; 'I' for Inactive)
ROOT
ATOM      1  C1  DEN d   1       2.655   2.337  -5.491  0.00  0.00     0.130 A 
ATOM      2  C2  DEN d   1       4.092   2.265  -5.241  0.00  0.00    -0.031 A 
ATOM      3  C3  DEN d   1       4.293   1.712  -3.886  0.00  0.00     0.027 A 
ATOM      4  C4  DEN d   1       2.528   0.960  -2.163  0.00  0.00     0.027 A 
ATOM      5  C5  DEN d   1       1.177   0.841  -1.918  0.00  0.00    -0.003 A 
ATOM      6  C6  DEN d   1       0.233   1.241  -2.825  0.00  0.00     0.001 A 
ATOM      7  C7  DEN d   1       0.626   1.737  -4.040  0.00  0.00     0.017 A 
ATOM      8  C8  DEN d   1       1.985   1.867  -4.292  0.00  0.00    -0.094 A 
ATOM      9  C9  DEN d   1       2.925   1.445  -3.366  0.00  0.00    -0.072 A 
ENDROOT
TORSDOF 0
ENDMDL
