MODEL 1
REMARK minimizedAffinity -1.22887635
REMARK minimizedRMSD -1
REMARK  0 active torsions:
REMARK  status: ('A' for Active; 'I' for Inactive)
ROOT
ATOM      1  C1  DEN d   1       0.371   0.378  -2.838  0.00  0.00     0.130 A 
ATOM      2  C2  DEN d   1       1.223   0.261  -1.659  0.00  0.00    -0.031 A 
ATOM      3  C3  DEN d   1       2.544   0.832  -1.991  0.00  0.00     0.027 A 
ATOM      4  C4  DEN d   1       3.346   1.883  -4.206  0.00  0.00     0.027 A 
ATOM      5  C5  DEN d   1       2.982   2.194  -5.498  0.00  0.00    -0.003 A 
ATOM      6  C6  DEN d   1       1.743   1.893  -6.000  0.00  0.00     0.001 A 
ATOM      7  C7  DEN d   1       0.808   1.303  -5.191  0.00  0.00     0.017 A 
ATOM      8  C8  DEN d   1       1.170   0.980  -3.890  0.00  0.00    -0.094 A 
ATOM      9  C9  DEN d   1       2.423   1.303  -3.398  0.00  0.00    -0.072 A 
ENDROOT
TORSDOF 0
ENDMDL
