MODEL 1
REMARK minimizedAffinity -0.128591895
REMARK minimizedRMSD -1
REMARK  0 active torsions:
REMARK  status: ('A' for Active; 'I' for Inactive)
ROOT
ATOM      1  C1  DEN d   1       1.431  -0.718  -1.485  0.00  0.00     0.130 A 
ATOM      2  C2  DEN d   1       2.760  -1.310  -1.359  0.00  0.00    -0.031 A 
ATOM      3  C3  DEN d   1       3.704  -0.484  -2.138  0.00  0.00     0.027 A 
ATOM      4  C4  DEN d   1       3.240   1.647  -3.515  0.00  0.00     0.027 A 
ATOM      5  C5  DEN d   1       2.263   2.525  -3.930  0.00  0.00    -0.003 A 
ATOM      6  C6  DEN d   1       0.946   2.366  -3.590  0.00  0.00     0.001 A 
ATOM      7  C7  DEN d   1       0.576   1.329  -2.774  0.00  0.00     0.017 A 
ATOM      8  C8  DEN d   1       1.554   0.435  -2.358  0.00  0.00    -0.094 A 
ATOM      9  C9  DEN d   1       2.882   0.620  -2.703  0.00  0.00    -0.072 A 
ENDROOT
TORSDOF 0
ENDMDL
