MODEL 1
REMARK minimizedAffinity 9.57427502
REMARK minimizedRMSD -1
REMARK  0 active torsions:
REMARK  status: ('A' for Active; 'I' for Inactive)
ROOT
ATOM      1  C1  DEN d   1       4.769   5.017   2.501  0.00  0.00     0.130 A 
ATOM      2  C2  DEN d   1       6.000   5.207   1.738  0.00  0.00    -0.031 A 
ATOM      3  C3  DEN d   1       5.630   5.623   0.370  0.00  0.00     0.027 A 
ATOM      4  C4  DEN d   1       3.284   5.994  -0.634  0.00  0.00     0.027 A 
ATOM      5  C5  DEN d   1       1.932   5.945  -0.376  0.00  0.00    -0.003 A 
ATOM      6  C6  DEN d   1       1.434   5.555   0.839  0.00  0.00     0.001 A 
ATOM      7  C7  DEN d   1       2.296   5.240   1.856  0.00  0.00     0.017 A 
ATOM      8  C8  DEN d   1       3.660   5.279   1.601  0.00  0.00    -0.094 A 
ATOM      9  C9  DEN d   1       4.144   5.689   0.370  0.00  0.00    -0.072 A 
ENDROOT
TORSDOF 0
ENDMDL
