MODEL 1
REMARK minimizedAffinity -3.7117753
REMARK minimizedRMSD -1
REMARK  0 active torsions:
REMARK  status: ('A' for Active; 'I' for Inactive)
ROOT
ATOM      1  C1  DEN d   1       3.004   1.510  -2.560  0.00  0.00     0.130 A 
ATOM      2  C2  DEN d   1       4.307   1.907  -3.087  0.00  0.00    -0.031 A 
ATOM      3  C3  DEN d   1       4.155   2.165  -4.533  0.00  0.00     0.027 A 
ATOM      4  C4  DEN d   1       2.039   1.995  -5.998  0.00  0.00     0.027 A 
ATOM      5  C5  DEN d   1       0.697   1.686  -6.000  0.00  0.00    -0.003 A 
ATOM      6  C6  DEN d   1       0.042   1.266  -4.871  0.00  0.00     0.001 A 
ATOM      7  C7  DEN d   1       0.720   1.189  -3.683  0.00  0.00     0.017 A 
ATOM      8  C8  DEN d   1       2.075   1.492  -3.675  0.00  0.00    -0.094 A 
ATOM      9  C9  DEN d   1       2.715   1.926  -4.824  0.00  0.00    -0.072 A 
ENDROOT
TORSDOF 0
ENDMDL
