MODEL 1
REMARK minimizedAffinity -0.0900749862
REMARK minimizedRMSD -1
REMARK  0 active torsions:
REMARK  status: ('A' for Active; 'I' for Inactive)
ROOT
ATOM      1  C1  DEN d   1       1.613   0.322  -1.333  0.00  0.00     0.130 A 
ATOM      2  C2  DEN d   1       3.009  -0.103  -1.276  0.00  0.00    -0.031 A 
ATOM      3  C3  DEN d   1       3.697   0.428  -2.471  0.00  0.00     0.027 A 
ATOM      4  C4  DEN d   1       2.742   1.862  -4.390  0.00  0.00     0.027 A 
ATOM      5  C5  DEN d   1       1.606   2.465  -4.883  0.00  0.00    -0.003 A 
ATOM      6  C6  DEN d   1       0.395   2.368  -4.250  0.00  0.00     0.001 A 
ATOM      7  C7  DEN d   1       0.302   1.689  -3.063  0.00  0.00     0.017 A 
ATOM      8  C8  DEN d   1       1.441   1.073  -2.564  0.00  0.00    -0.094 A 
ATOM      9  C9  DEN d   1       2.659   1.193  -3.212  0.00  0.00    -0.072 A 
ENDROOT
TORSDOF 0
ENDMDL
