MODEL 1
REMARK minimizedAffinity 7.33080482
REMARK minimizedRMSD -1
REMARK  0 active torsions:
REMARK  status: ('A' for Active; 'I' for Inactive)
ROOT
ATOM      1  C1  DEN d   1       0.173   1.573  -3.744  0.00  0.00     0.130 A 
ATOM      2  C2  DEN d   1       0.139   1.118  -2.357  0.00  0.00    -0.031 A 
ATOM      3  C3  DEN d   1       1.527   1.085  -1.853  0.00  0.00     0.027 A 
ATOM      4  C4  DEN d   1       3.713   1.695  -3.078  0.00  0.00     0.027 A 
ATOM      5  C5  DEN d   1       4.248   2.123  -4.273  0.00  0.00    -0.003 A 
ATOM      6  C6  DEN d   1       3.473   2.363  -5.376  0.00  0.00     0.001 A 
ATOM      7  C7  DEN d   1       2.113   2.220  -5.294  0.00  0.00     0.017 A 
ATOM      8  C8  DEN d   1       1.566   1.782  -4.095  0.00  0.00    -0.094 A 
ATOM      9  C9  DEN d   1       2.366   1.556  -2.987  0.00  0.00    -0.072 A 
ENDROOT
TORSDOF 0
ENDMDL
