MODEL 1
REMARK minimizedAffinity 5.04118204
REMARK minimizedRMSD -1
REMARK  0 active torsions:
REMARK  status: ('A' for Active; 'I' for Inactive)
ROOT
ATOM      1  C1  DEN d   1      -2.485   0.586   3.151  0.00  0.00     0.130 A 
ATOM      2  C2  DEN d   1      -3.085   1.911   3.016  0.00  0.00    -0.031 A 
ATOM      3  C3  DEN d   1      -4.514   1.734   2.687  0.00  0.00     0.027 A 
ATOM      4  C4  DEN d   1      -5.849  -0.451   2.380  0.00  0.00     0.027 A 
ATOM      5  C5  DEN d   1      -5.769  -1.826   2.384  0.00  0.00    -0.003 A 
ATOM      6  C6  DEN d   1      -4.591  -2.488   2.609  0.00  0.00     0.001 A 
ATOM      7  C7  DEN d   1      -3.454  -1.775   2.884  0.00  0.00     0.017 A 
ATOM      8  C8  DEN d   1      -3.525  -0.388   2.874  0.00  0.00    -0.094 A 
ATOM      9  C9  DEN d   1      -4.728   0.262   2.657  0.00  0.00    -0.072 A 
ENDROOT
TORSDOF 0
ENDMDL
