MODEL 1
REMARK minimizedAffinity 4.49838972
REMARK minimizedRMSD -1
REMARK  0 active torsions:
REMARK  status: ('A' for Active; 'I' for Inactive)
ROOT
ATOM      1  C1  DEN d   1       2.615   1.126  -2.007  0.00  0.00     0.130 A 
ATOM      2  C2  DEN d   1       1.368   0.494  -1.586  0.00  0.00    -0.031 A 
ATOM      3  C3  DEN d   1       0.462   0.449  -2.751  0.00  0.00     0.027 A 
ATOM      4  C4  DEN d   1       0.870   1.288  -5.156  0.00  0.00     0.027 A 
ATOM      5  C5  DEN d   1       1.774   1.907  -5.991  0.00  0.00    -0.003 A 
ATOM      6  C6  DEN d   1       2.998   2.336  -5.552  0.00  0.00     0.001 A 
ATOM      7  C7  DEN d   1       3.370   2.111  -4.253  0.00  0.00     0.017 A 
ATOM      8  C8  DEN d   1       2.462   1.494  -3.403  0.00  0.00    -0.094 A 
ATOM      9  C9  DEN d   1       1.233   1.057  -3.869  0.00  0.00    -0.072 A 
ENDROOT
TORSDOF 0
ENDMDL
