MODEL 1
REMARK minimizedAffinity 5.16040516
REMARK minimizedRMSD -1
REMARK  0 active torsions:
REMARK  status: ('A' for Active; 'I' for Inactive)
ROOT
ATOM      1  C1  DEN d   1       0.601   1.209  -3.311  0.00  0.00     0.130 A 
ATOM      2  C2  DEN d   1       0.936   0.721  -1.976  0.00  0.00    -0.031 A 
ATOM      3  C3  DEN d   1       2.391   0.887  -1.781  0.00  0.00     0.027 A 
ATOM      4  C4  DEN d   1       4.146   1.853  -3.405  0.00  0.00     0.027 A 
ATOM      5  C5  DEN d   1       4.341   2.386  -4.660  0.00  0.00    -0.003 A 
ATOM      6  C6  DEN d   1       3.317   2.532  -5.558  0.00  0.00     0.001 A 
ATOM      7  C7  DEN d   1       2.042   2.182  -5.198  0.00  0.00     0.017 A 
ATOM      8  C8  DEN d   1       1.840   1.636  -3.937  0.00  0.00    -0.094 A 
ATOM      9  C9  DEN d   1       2.886   1.508  -3.039  0.00  0.00    -0.072 A 
ENDROOT
TORSDOF 0
ENDMDL
