MODEL 1
REMARK minimizedAffinity -0.0903951526
REMARK minimizedRMSD -1
REMARK  0 active torsions:
REMARK  status: ('A' for Active; 'I' for Inactive)
ROOT
ATOM      1  C1  DEN d   1       6.000   4.341   4.865  0.00  0.00     0.130 A 
ATOM      2  C2  DEN d   1       5.232   5.181   5.780  0.00  0.00    -0.031 A 
ATOM      3  C3  DEN d   1       4.285   5.982   4.978  0.00  0.00     0.027 A 
ATOM      4  C4  DEN d   1       3.932   6.000   2.423  0.00  0.00     0.027 A 
ATOM      5  C5  DEN d   1       4.359   5.466   1.228  0.00  0.00    -0.003 A 
ATOM      6  C6  DEN d   1       5.377   4.552   1.158  0.00  0.00     0.001 A 
ATOM      7  C7  DEN d   1       5.973   4.111   2.309  0.00  0.00     0.017 A 
ATOM      8  C8  DEN d   1       5.553   4.650   3.518  0.00  0.00    -0.094 A 
ATOM      9  C9  DEN d   1       4.514   5.564   3.569  0.00  0.00    -0.072 A 
ENDROOT
TORSDOF 0
ENDMDL
