MODEL 1
REMARK minimizedAffinity 5.27119589
REMARK minimizedRMSD -1
REMARK  0 active torsions:
REMARK  status: ('A' for Active; 'I' for Inactive)
ROOT
ATOM      1  C1  DEN d   1       3.938   5.792   4.021  0.00  0.00     0.130 A 
ATOM      2  C2  DEN d   1       4.994   5.167   4.813  0.00  0.00    -0.031 A 
ATOM      3  C3  DEN d   1       5.989   4.600   3.880  0.00  0.00     0.027 A 
ATOM      4  C4  DEN d   1       5.999   4.633   1.301  0.00  0.00     0.027 A 
ATOM      5  C5  DEN d   1       5.307   5.038   0.181  0.00  0.00    -0.003 A 
ATOM      6  C6  DEN d   1       4.103   5.687   0.261  0.00  0.00     0.001 A 
ATOM      7  C7  DEN d   1       3.576   5.991   1.489  0.00  0.00     0.017 A 
ATOM      8  C8  DEN d   1       4.265   5.579   2.623  0.00  0.00    -0.094 A 
ATOM      9  C9  DEN d   1       5.486   4.935   2.521  0.00  0.00    -0.072 A 
ENDROOT
TORSDOF 0
ENDMDL
