MODEL 1
REMARK minimizedAffinity 2.12397265
REMARK minimizedRMSD -1
REMARK  0 active torsions:
REMARK  status: ('A' for Active; 'I' for Inactive)
ROOT
ATOM      1  C1  DEN d   1       2.786   1.180  -2.212  0.00  0.00     0.130 A 
ATOM      2  C2  DEN d   1       1.723   0.486  -1.491  0.00  0.00    -0.031 A 
ATOM      3  C3  DEN d   1       0.610   0.251  -2.433  0.00  0.00     0.027 A 
ATOM      4  C4  DEN d   1       0.434   0.886  -4.926  0.00  0.00     0.027 A 
ATOM      5  C5  DEN d   1       1.081   1.498  -5.977  0.00  0.00    -0.003 A 
ATOM      6  C6  DEN d   1       2.317   2.072  -5.840  0.00  0.00     0.001 A 
ATOM      7  C7  DEN d   1       2.965   2.007  -4.634  0.00  0.00     0.017 A 
ATOM      8  C8  DEN d   1       2.316   1.398  -3.568  0.00  0.00    -0.094 A 
ATOM      9  C9  DEN d   1       1.072   0.813  -3.731  0.00  0.00    -0.072 A 
ENDROOT
TORSDOF 0
ENDMDL
