MODEL 1
REMARK minimizedAffinity -5.84241819
REMARK minimizedRMSD -1
REMARK  0 active torsions:
REMARK  status: ('A' for Active; 'I' for Inactive)
ROOT
ATOM      1  C1  DEN d   1       0.469   0.630  -2.609  0.00  0.00     0.130 A 
ATOM      2  C2  DEN d   1       1.437   0.323  -1.559  0.00  0.00    -0.031 A 
ATOM      3  C3  DEN d   1       2.763   0.790  -2.010  0.00  0.00     0.027 A 
ATOM      4  C4  DEN d   1       3.409   1.956  -4.218  0.00  0.00     0.027 A 
ATOM      5  C5  DEN d   1       2.932   2.418  -5.425  0.00  0.00    -0.003 A 
ATOM      6  C6  DEN d   1       1.618   2.287  -5.789  0.00  0.00     0.001 A 
ATOM      7  C7  DEN d   1       0.725   1.719  -4.918  0.00  0.00     0.017 A 
ATOM      8  C8  DEN d   1       1.201   1.244  -3.703  0.00  0.00    -0.094 A 
ATOM      9  C9  DEN d   1       2.530   1.397  -3.348  0.00  0.00    -0.072 A 
ENDROOT
TORSDOF 0
ENDMDL
