MODEL 1
REMARK minimizedAffinity 12.7063665
REMARK minimizedRMSD -1
REMARK  0 active torsions:
REMARK  status: ('A' for Active; 'I' for Inactive)
ROOT
ATOM      1  N1  IND d   1      -0.701  -0.177   3.393  0.00  0.00    -0.196 N 
ATOM      2  C2  IND d   1       0.283  -0.986   3.889  0.00  0.00     0.054 A 
ATOM      3  C3  IND d   1       1.485  -0.374   3.800  0.00  0.00    -0.031 A 
ATOM      4  C4  IND d   1       2.057   1.994   2.969  0.00  0.00     0.051 A 
ATOM      5  C5  IND d   1       1.497   3.095   2.384  0.00  0.00    -0.031 A 
ATOM      6  C6  IND d   1       0.148   3.164   2.102  0.00  0.00     0.015 A 
ATOM      7  C7  IND d   1      -0.697   2.134   2.406  0.00  0.00    -0.016 A 
ATOM      8  C8  IND d   1      -0.131   1.012   2.994  0.00  0.00    -0.047 A 
ATOM      9  C9  IND d   1       1.245   0.919   3.244  0.00  0.00    -0.096 A 
ATOM     10  HN1 IND d   1      -1.535  -0.377   3.338  0.00  0.00     0.298 HD
ENDROOT
TORSDOF 0
ENDMDL
