MODEL 1
REMARK minimizedAffinity 2.4957819
REMARK minimizedRMSD -1
REMARK  0 active torsions:
REMARK  status: ('A' for Active; 'I' for Inactive)
ROOT
ATOM      1  N1  IND d   1       1.285   3.865   0.015  0.00  0.00    -0.196 N 
ATOM      2  C2  IND d   1       0.216   4.263  -0.739  0.00  0.00     0.054 A 
ATOM      3  C3  IND d   1      -0.939   3.849  -0.172  0.00  0.00    -0.031 A 
ATOM      4  C4  IND d   1      -1.316   2.591   2.043  0.00  0.00     0.051 A 
ATOM      5  C5  IND d   1      -0.642   1.980   3.062  0.00  0.00    -0.031 A 
ATOM      6  C6  IND d   1       0.737   1.968   3.121  0.00  0.00     0.015 A 
ATOM      7  C7  IND d   1       1.496   2.579   2.163  0.00  0.00    -0.016 A 
ATOM      8  C8  IND d   1       0.815   3.195   1.123  0.00  0.00    -0.047 A 
ATOM      9  C9  IND d   1      -0.583   3.173   1.036  0.00  0.00    -0.096 A 
ATOM     10  HN1 IND d   1       2.112   4.008  -0.173  0.00  0.00     0.298 HD
ENDROOT
TORSDOF 0
ENDMDL
