MODEL 1
REMARK minimizedAffinity 7.95174456
REMARK minimizedRMSD -1
REMARK  0 active torsions:
REMARK  status: ('A' for Active; 'I' for Inactive)
ROOT
ATOM      1  N1  IND d   1      -0.333   2.058  -0.744  0.00  0.00    -0.196 N 
ATOM      2  C2  IND d   1      -0.628   1.619   0.517  0.00  0.00     0.054 A 
ATOM      3  C3  IND d   1      -1.086   2.640   1.275  0.00  0.00    -0.031 A 
ATOM      4  C4  IND d   1      -1.529   5.091   0.623  0.00  0.00     0.051 A 
ATOM      5  C5  IND d   1      -1.380   5.975  -0.409  0.00  0.00    -0.031 A 
ATOM      6  C6  IND d   1      -0.866   5.590  -1.630  0.00  0.00     0.015 A 
ATOM      7  C7  IND d   1      -0.491   4.299  -1.870  0.00  0.00    -0.016 A 
ATOM      8  C8  IND d   1      -0.635   3.399  -0.823  0.00  0.00    -0.047 A 
ATOM      9  C9  IND d   1      -1.116   3.793   0.432  0.00  0.00    -0.096 A 
ATOM     10  HN1 IND d   1      -0.013   1.577  -1.381  0.00  0.00     0.298 HD
ENDROOT
TORSDOF 0
ENDMDL
