MODEL 1
REMARK minimizedAffinity 6.37907219
REMARK minimizedRMSD -1
REMARK  0 active torsions:
REMARK  status: ('A' for Active; 'I' for Inactive)
ROOT
ATOM      1  N1  IND d   1       0.955   4.350   0.157  0.00  0.00    -0.196 N 
ATOM      2  C2  IND d   1      -0.197   4.158  -0.554  0.00  0.00     0.054 A 
ATOM      3  C3  IND d   1      -0.994   3.265   0.074  0.00  0.00    -0.031 A 
ATOM      4  C4  IND d   1      -0.652   2.069   2.328  0.00  0.00     0.051 A 
ATOM      5  C5  IND d   1       0.264   1.895   3.327  0.00  0.00    -0.031 A 
ATOM      6  C6  IND d   1       1.480   2.547   3.322  0.00  0.00     0.015 A 
ATOM      7  C7  IND d   1       1.823   3.408   2.319  0.00  0.00    -0.016 A 
ATOM      8  C8  IND d   1       0.898   3.581   1.298  0.00  0.00    -0.047 A 
ATOM      9  C9  IND d   1      -0.320   2.890   1.276  0.00  0.00    -0.096 A 
ATOM     10  HN1 IND d   1       1.605   4.863  -0.071  0.00  0.00     0.298 HD
ENDROOT
TORSDOF 0
ENDMDL
