MODEL 1
REMARK minimizedAffinity 1.28297424
REMARK minimizedRMSD -1
REMARK  0 active torsions:
REMARK  status: ('A' for Active; 'I' for Inactive)
ROOT
ATOM      1  N1  IND d   1      -0.579   4.221  -2.028  0.00  0.00    -0.196 N 
ATOM      2  C2  IND d   1      -0.601   5.519  -1.597  0.00  0.00     0.054 A 
ATOM      3  C3  IND d   1      -0.741   5.566  -0.253  0.00  0.00    -0.031 A 
ATOM      4  C4  IND d   1      -0.851   3.637   1.448  0.00  0.00     0.051 A 
ATOM      5  C5  IND d   1      -0.906   2.274   1.529  0.00  0.00    -0.031 A 
ATOM      6  C6  IND d   1      -0.852   1.474   0.406  0.00  0.00     0.015 A 
ATOM      7  C7  IND d   1      -0.728   2.010  -0.844  0.00  0.00    -0.016 A 
ATOM      8  C8  IND d   1      -0.678   3.394  -0.931  0.00  0.00    -0.047 A 
ATOM      9  C9  IND d   1      -0.776   4.212   0.202  0.00  0.00    -0.096 A 
ATOM     10  HN1 IND d   1      -0.515   3.966  -2.846  0.00  0.00     0.298 HD
ENDROOT
TORSDOF 0
ENDMDL
