MODEL 1
REMARK minimizedAffinity 8.65392208
REMARK minimizedRMSD -1
REMARK  0 active torsions:
REMARK  status: ('A' for Active; 'I' for Inactive)
ROOT
ATOM      1  N1  IND d   1       1.739   2.827  -0.187  0.00  0.00    -0.196 N 
ATOM      2  C2  IND d   1       1.034   3.620  -1.049  0.00  0.00     0.054 A 
ATOM      3  C3  IND d   1      -0.282   3.596  -0.742  0.00  0.00    -0.031 A 
ATOM      4  C4  IND d   1      -1.487   2.404   1.196  0.00  0.00     0.051 A 
ATOM      5  C5  IND d   1      -1.271   1.531   2.225  0.00  0.00    -0.031 A 
ATOM      6  C6  IND d   1      -0.014   1.039   2.511  0.00  0.00     0.015 A 
ATOM      7  C7  IND d   1       1.080   1.410   1.781  0.00  0.00    -0.016 A 
ATOM      8  C8  IND d   1       0.862   2.290   0.730  0.00  0.00    -0.047 A 
ATOM      9  C9  IND d   1      -0.417   2.761   0.409  0.00  0.00    -0.096 A 
ATOM     10  HN1 IND d   1       2.587   2.687  -0.213  0.00  0.00     0.298 HD
ENDROOT
TORSDOF 0
ENDMDL
