MODEL 1
REMARK minimizedAffinity 7.51464939
REMARK minimizedRMSD -1
REMARK  0 active torsions:
REMARK  status: ('A' for Active; 'I' for Inactive)
ROOT
ATOM      1  N1  IND d   1      -1.148   1.797   2.801  0.00  0.00    -0.196 N 
ATOM      2  C2  IND d   1      -0.753   2.632   1.793  0.00  0.00     0.054 A 
ATOM      3  C3  IND d   1       0.451   2.249   1.310  0.00  0.00    -0.031 A 
ATOM      4  C4  IND d   1       1.903   0.224   1.957  0.00  0.00     0.051 A 
ATOM      5  C5  IND d   1       1.977  -0.806   2.851  0.00  0.00    -0.031 A 
ATOM      6  C6  IND d   1       0.992  -1.028   3.791  0.00  0.00     0.015 A 
ATOM      7  C7  IND d   1      -0.114  -0.231   3.866  0.00  0.00    -0.016 A 
ATOM      8  C8  IND d   1      -0.190   0.821   2.964  0.00  0.00    -0.047 A 
ATOM      9  C9  IND d   1       0.827   1.077   2.035  0.00  0.00    -0.096 A 
ATOM     10  HN1 IND d   1      -1.874   1.870   3.257  0.00  0.00     0.298 HD
ENDROOT
TORSDOF 0
ENDMDL
