MODEL 1
REMARK minimizedAffinity -2.2479794
REMARK minimizedRMSD -1
REMARK  0 active torsions:
REMARK  status: ('A' for Active; 'I' for Inactive)
ROOT
ATOM      1  C   UNL d   1       3.316  -0.248   0.596  0.00  0.00     0.023 A 
ATOM      2  C1  UNL d   1       2.547  -1.339   0.189  0.00  0.00     0.003 A 
ATOM      3  C2  UNL d   1       1.181  -1.179  -0.055  0.00  0.00     0.048 A 
ATOM      4  C3  UNL d   1       0.591   0.074   0.109  0.00  0.00     0.023 A 
ATOM      5  C4  UNL d   1       1.357   1.168   0.515  0.00  0.00     0.048 A 
ATOM      6  C5  UNL d   1       2.722   1.003   0.759  0.00  0.00     0.003 A 
ATOM      7  I   UNL d   1      -1.441   0.314  -0.254  0.00  0.00    -0.146 I 
ENDROOT
TORSDOF 0
ENDMDL
