MODEL 1
REMARK minimizedAffinity -4.29723883
REMARK minimizedRMSD -1
REMARK  0 active torsions:
REMARK  status: ('A' for Active; 'I' for Inactive)
ROOT
ATOM      1  C   UNL d   1       3.138  -0.052   0.923  0.00  0.00     0.023 A 
ATOM      2  C1  UNL d   1       2.377   1.116   0.938  0.00  0.00     0.003 A 
ATOM      3  C2  UNL d   1       1.067   1.105   0.454  0.00  0.00     0.048 A 
ATOM      4  C3  UNL d   1       0.524  -0.080  -0.043  0.00  0.00     0.023 A 
ATOM      5  C4  UNL d   1       1.281  -1.252  -0.059  0.00  0.00     0.048 A 
ATOM      6  C5  UNL d   1       2.591  -1.235   0.425  0.00  0.00     0.003 A 
ATOM      7  I   UNL d   1      -1.426  -0.100  -0.763  0.00  0.00    -0.146 I 
ENDROOT
TORSDOF 0
ENDMDL
