MODEL 1
REMARK minimizedAffinity -3.07721591
REMARK minimizedRMSD -1
REMARK  0 active torsions:
REMARK  status: ('A' for Active; 'I' for Inactive)
ROOT
ATOM      1  C   UNL d   1       2.634   0.440   1.148  0.00  0.00     0.023 A 
ATOM      2  C1  UNL d   1       1.903  -0.740   1.292  0.00  0.00     0.003 A 
ATOM      3  C2  UNL d   1       0.646  -0.862   0.697  0.00  0.00     0.048 A 
ATOM      4  C3  UNL d   1       0.126   0.200  -0.042  0.00  0.00     0.023 A 
ATOM      5  C4  UNL d   1       0.853   1.382  -0.190  0.00  0.00     0.048 A 
ATOM      6  C5  UNL d   1       2.109   1.499   0.408  0.00  0.00     0.003 A 
ATOM      7  I   UNL d   1      -1.745   0.021  -0.930  0.00  0.00    -0.146 I 
ENDROOT
TORSDOF 0
ENDMDL
