MODEL 1
REMARK minimizedAffinity -2.45765471
REMARK minimizedRMSD -1
REMARK  0 active torsions:
REMARK  status: ('A' for Active; 'I' for Inactive)
ROOT
ATOM      1  C   UNL d   1       2.690   0.758   1.043  0.00  0.00     0.023 A 
ATOM      2  C1  UNL d   1       2.323  -0.576   0.865  0.00  0.00     0.003 A 
ATOM      3  C2  UNL d   1       1.008  -0.901   0.527  0.00  0.00     0.048 A 
ATOM      4  C3  UNL d   1       0.065   0.112   0.366  0.00  0.00     0.023 A 
ATOM      5  C4  UNL d   1       0.427   1.449   0.542  0.00  0.00     0.048 A 
ATOM      6  C5  UNL d   1       1.742   1.770   0.881  0.00  0.00     0.003 A 
ATOM      7  I   UNL d   1      -1.893  -0.369  -0.137  0.00  0.00    -0.146 I 
ENDROOT
TORSDOF 0
ENDMDL
