MODEL 1
REMARK minimizedAffinity -3.94393206
REMARK minimizedRMSD -1
REMARK  0 active torsions:
REMARK  status: ('A' for Active; 'I' for Inactive)
ROOT
ATOM      1  C   UNL d   1       3.439  -0.416   0.462  0.00  0.00     0.023 A 
ATOM      2  C1  UNL d   1       2.984   0.616  -0.358  0.00  0.00     0.003 A 
ATOM      3  C2  UNL d   1       1.613   0.842  -0.503  0.00  0.00     0.048 A 
ATOM      4  C3  UNL d   1       0.704   0.033   0.178  0.00  0.00     0.023 A 
ATOM      5  C4  UNL d   1       1.155  -1.000   1.000  0.00  0.00     0.048 A 
ATOM      6  C5  UNL d   1       2.526  -1.223   1.141  0.00  0.00     0.003 A 
ATOM      7  I   UNL d   1      -1.337   0.368  -0.036  0.00  0.00    -0.146 I 
ENDROOT
TORSDOF 0
ENDMDL
