MODEL 1
REMARK minimizedAffinity -3.22859931
REMARK minimizedRMSD -1
REMARK  0 active torsions:
REMARK  status: ('A' for Active; 'I' for Inactive)
ROOT
ATOM      1  C   UNL d   1       2.847   0.045   1.139  0.00  0.00     0.023 A 
ATOM      2  C1  UNL d   1       2.205  -1.183   0.978  0.00  0.00     0.003 A 
ATOM      3  C2  UNL d   1       0.963  -1.245   0.343  0.00  0.00     0.048 A 
ATOM      4  C3  UNL d   1       0.369  -0.076  -0.129  0.00  0.00     0.023 A 
ATOM      5  C4  UNL d   1       1.007   1.155   0.029  0.00  0.00     0.048 A 
ATOM      6  C5  UNL d   1       2.249   1.213   0.665  0.00  0.00     0.003 A 
ATOM      7  I   UNL d   1      -1.480  -0.166  -1.075  0.00  0.00    -0.146 I 
ENDROOT
TORSDOF 0
ENDMDL
