MODEL 1
REMARK minimizedAffinity -4.10266352
REMARK minimizedRMSD -1
REMARK  0 active torsions:
REMARK  status: ('A' for Active; 'I' for Inactive)
ROOT
ATOM      1  C   UNL d   1       2.936  -0.169   0.893  0.00  0.00     0.023 A 
ATOM      2  C1  UNL d   1       2.260  -1.368   0.668  0.00  0.00     0.003 A 
ATOM      3  C2  UNL d   1       0.896  -1.356   0.372  0.00  0.00     0.048 A 
ATOM      4  C3  UNL d   1       0.214  -0.142   0.300  0.00  0.00     0.023 A 
ATOM      5  C4  UNL d   1       0.887   1.060   0.524  0.00  0.00     0.048 A 
ATOM      6  C5  UNL d   1       2.251   1.044   0.821  0.00  0.00     0.003 A 
ATOM      7  I   UNL d   1      -1.817  -0.122  -0.141  0.00  0.00    -0.146 I 
ENDROOT
TORSDOF 0
ENDMDL
