MODEL 1
REMARK minimizedAffinity -3.86476612
REMARK minimizedRMSD -1
REMARK  0 active torsions:
REMARK  status: ('A' for Active; 'I' for Inactive)
ROOT
ATOM      1  C   UNL d   1      -2.268   0.325  -1.713  0.00  0.00     0.023 A 
ATOM      2  C1  UNL d   1      -2.283  -0.268  -0.450  0.00  0.00     0.003 A 
ATOM      3  C2  UNL d   1      -1.090  -0.443   0.254  0.00  0.00     0.048 A 
ATOM      4  C3  UNL d   1       0.114  -0.023  -0.310  0.00  0.00     0.023 A 
ATOM      5  C4  UNL d   1       0.134   0.571  -1.573  0.00  0.00     0.048 A 
ATOM      6  C5  UNL d   1      -1.062   0.743  -2.274  0.00  0.00     0.003 A 
ATOM      7  I   UNL d   1       1.891  -0.283   0.736  0.00  0.00    -0.146 I 
ENDROOT
TORSDOF 0
ENDMDL
