MODEL 1
REMARK minimizedAffinity -4.6736412
REMARK minimizedRMSD -1
REMARK  0 active torsions:
REMARK  status: ('A' for Active; 'I' for Inactive)
ROOT
ATOM      1  C   UNL d   1      -1.122   0.724   2.529  0.00  0.00     0.023 A 
ATOM      2  C1  UNL d   1       0.241   0.822   2.252  0.00  0.00     0.003 A 
ATOM      3  C2  UNL d   1       0.719   0.515   0.976  0.00  0.00     0.048 A 
ATOM      4  C3  UNL d   1      -0.172   0.112  -0.018  0.00  0.00     0.023 A 
ATOM      5  C4  UNL d   1      -1.537   0.014   0.255  0.00  0.00     0.048 A 
ATOM      6  C5  UNL d   1      -2.010   0.320   1.532  0.00  0.00     0.003 A 
ATOM      7  I   UNL d   1       0.538  -0.344  -1.918  0.00  0.00    -0.146 I 
ENDROOT
TORSDOF 0
ENDMDL
