MODEL 1
REMARK minimizedAffinity -2.17653441
REMARK minimizedRMSD -1
REMARK  0 active torsions:
REMARK  status: ('A' for Active; 'I' for Inactive)
ROOT
ATOM      1  C   UNL d   1      -0.570   1.601   2.727  0.00  0.00     0.023 A 
ATOM      2  C1  UNL d   1      -0.339   1.406   1.365  0.00  0.00     0.003 A 
ATOM      3  C2  UNL d   1      -1.174   0.564   0.628  0.00  0.00     0.048 A 
ATOM      4  C3  UNL d   1      -2.239  -0.078   1.259  0.00  0.00     0.023 A 
ATOM      5  C4  UNL d   1      -2.474   0.115   2.621  0.00  0.00     0.048 A 
ATOM      6  C5  UNL d   1      -1.636   0.956   3.354  0.00  0.00     0.003 A 
ATOM      7  I   UNL d   1      -3.484  -1.332   0.163  0.00  0.00    -0.146 I 
ENDROOT
TORSDOF 0
ENDMDL
