MODEL 1
REMARK minimizedAffinity -2.09343553
REMARK minimizedRMSD -1
REMARK  0 active torsions:
REMARK  status: ('A' for Active; 'I' for Inactive)
ROOT
ATOM      1  C   UNL d   1       1.365   1.023   1.991  0.00  0.00     0.023 A 
ATOM      2  C1  UNL d   1       0.177   1.494   2.548  0.00  0.00     0.003 A 
ATOM      3  C2  UNL d   1      -1.048   1.171   1.960  0.00  0.00     0.048 A 
ATOM      4  C3  UNL d   1      -1.077   0.375   0.815  0.00  0.00     0.023 A 
ATOM      5  C4  UNL d   1       0.110  -0.100   0.255  0.00  0.00     0.048 A 
ATOM      6  C5  UNL d   1       1.332   0.227   0.845  0.00  0.00     0.003 A 
ATOM      7  I   UNL d   1      -2.898  -0.108  -0.062  0.00  0.00    -0.146 I 
ENDROOT
TORSDOF 0
ENDMDL
