MODEL 1
REMARK minimizedAffinity 0.449296981
REMARK minimizedRMSD -1
REMARK  0 active torsions:
REMARK  status: ('A' for Active; 'I' for Inactive)
ROOT
ATOM      1  C   UNL d   1       0.382  -0.632   0.501  0.00  0.00     0.023 A 
ATOM      2  C1  UNL d   1       0.260  -1.460  -0.615  0.00  0.00     0.003 A 
ATOM      3  C2  UNL d   1       0.507  -0.953  -1.893  0.00  0.00     0.048 A 
ATOM      4  C3  UNL d   1       0.875   0.383  -2.047  0.00  0.00     0.023 A 
ATOM      5  C4  UNL d   1       0.999   1.215  -0.933  0.00  0.00     0.048 A 
ATOM      6  C5  UNL d   1       0.751   0.704   0.342  0.00  0.00     0.003 A 
ATOM      7  I   UNL d   1       1.243   1.140  -3.948  0.00  0.00    -0.146 I 
ENDROOT
TORSDOF 0
ENDMDL
