MODEL 1
REMARK minimizedAffinity -3.9031744
REMARK minimizedRMSD -1
REMARK  0 active torsions:
REMARK  status: ('A' for Active; 'I' for Inactive)
ROOT
ATOM      1  C   UNL d   1      -1.271   1.271   2.838  0.00  0.00     0.023 A 
ATOM      2  C1  UNL d   1      -2.128   0.895   1.804  0.00  0.00     0.003 A 
ATOM      3  C2  UNL d   1      -1.606   0.391   0.610  0.00  0.00     0.048 A 
ATOM      4  C3  UNL d   1      -0.226   0.265   0.459  0.00  0.00     0.023 A 
ATOM      5  C4  UNL d   1       0.636   0.639   1.491  0.00  0.00     0.048 A 
ATOM      6  C5  UNL d   1       0.109   1.143   2.682  0.00  0.00     0.003 A 
ATOM      7  I   UNL d   1       0.553  -0.485  -1.316  0.00  0.00    -0.146 I 
ENDROOT
TORSDOF 0
ENDMDL
