MODEL 1
REMARK minimizedAffinity -4.3354516
REMARK minimizedRMSD -1
REMARK  0 active torsions:
REMARK  status: ('A' for Active; 'I' for Inactive)
ROOT
ATOM      1  C   UNL d   1      -2.124   0.766   2.375  0.00  0.00     0.023 A 
ATOM      2  C1  UNL d   1      -2.676   0.077   1.294  0.00  0.00     0.003 A 
ATOM      3  C2  UNL d   1      -1.877  -0.264   0.201  0.00  0.00     0.048 A 
ATOM      4  C3  UNL d   1      -0.527   0.085   0.195  0.00  0.00     0.023 A 
ATOM      5  C4  UNL d   1       0.030   0.773   1.274  0.00  0.00     0.048 A 
ATOM      6  C5  UNL d   1      -0.773   1.113   2.365  0.00  0.00     0.003 A 
ATOM      7  I   UNL d   1       0.664  -0.422  -1.431  0.00  0.00    -0.146 I 
ENDROOT
TORSDOF 0
ENDMDL
