MODEL 1
REMARK minimizedAffinity -3.13547349
REMARK minimizedRMSD -1
REMARK  0 active torsions:
REMARK  status: ('A' for Active; 'I' for Inactive)
ROOT
ATOM      1  C   UNL d   1      -1.930   0.758   2.462  0.00  0.00     0.023 A 
ATOM      2  C1  UNL d   1      -2.628   0.334   1.331  0.00  0.00     0.003 A 
ATOM      3  C2  UNL d   1      -1.934  -0.014   0.170  0.00  0.00     0.048 A 
ATOM      4  C3  UNL d   1      -0.542   0.063   0.148  0.00  0.00     0.023 A 
ATOM      5  C4  UNL d   1       0.161   0.486   1.278  0.00  0.00     0.048 A 
ATOM      6  C5  UNL d   1      -0.537   0.834   2.435  0.00  0.00     0.003 A 
ATOM      7  I   UNL d   1       0.494  -0.455  -1.578  0.00  0.00    -0.146 I 
ENDROOT
TORSDOF 0
ENDMDL
