MODEL 1
REMARK minimizedAffinity -1.10340703
REMARK minimizedRMSD -1
REMARK  0 active torsions:
REMARK  status: ('A' for Active; 'I' for Inactive)
ROOT
ATOM      1  C   UNL d   1      -2.625   0.758   1.969  0.00  0.00     0.023 A 
ATOM      2  C1  UNL d   1      -3.034   0.168   0.773  0.00  0.00     0.003 A 
ATOM      3  C2  UNL d   1      -2.085  -0.253  -0.160  0.00  0.00     0.048 A 
ATOM      4  C3  UNL d   1      -0.727  -0.081   0.110  0.00  0.00     0.023 A 
ATOM      5  C4  UNL d   1      -0.313   0.508   1.305  0.00  0.00     0.048 A 
ATOM      6  C5  UNL d   1      -1.266   0.928   2.235  0.00  0.00     0.003 A 
ATOM      7  I   UNL d   1       0.688  -0.707  -1.278  0.00  0.00    -0.146 I 
ENDROOT
TORSDOF 0
ENDMDL
