MODEL 1
REMARK minimizedAffinity -0.705864847
REMARK minimizedRMSD -1
REMARK  2 active torsions:
REMARK  status: ('A' for Active; 'I' for Inactive)
REMARK    1  A    between atoms: C1_2  and  C2_3 
REMARK    2  A    between atoms: C2_3  and  C3_4 
ROOT
ATOM      1  C3  UNL d   1      -0.272  -0.125  -0.772  0.00  0.00    -0.075 A 
ATOM      2  C4  UNL d   1      -1.531   0.117  -0.203  0.00  0.00     0.002 A 
ATOM      3  C5  UNL d   1      -2.014   1.421  -0.081  0.00  0.00     0.002 A 
ATOM      4  C6  UNL d   1      -1.243   2.496  -0.515  0.00  0.00    -0.004 A 
ATOM      5  C7  UNL d   1       0.016   2.268  -1.066  0.00  0.00     0.002 A 
ATOM      6  C8  UNL d   1       0.500   0.965  -1.194  0.00  0.00     0.002 A 
ENDROOT
BRANCH   1   7
ATOM      7  C2  UNL d   1       0.244  -1.535  -0.933  0.00  0.00     0.056 C 
BRANCH   7   8
ATOM      8  C1  UNL d   1      -0.128  -2.185  -2.270  0.00  0.00     0.007 C 
ATOM      9  C   UNL d   1      -0.201  -3.705  -2.198  0.00  0.00     0.009 C 
ENDBRANCH   7   8
ENDBRANCH   1   7
TORSDOF 2
ENDMDL
