MODEL 1
REMARK minimizedAffinity -3.36617804
REMARK minimizedRMSD -1
REMARK  2 active torsions:
REMARK  status: ('A' for Active; 'I' for Inactive)
REMARK    1  A    between atoms: C1_2  and  C2_3 
REMARK    2  A    between atoms: C2_3  and  C3_4 
ROOT
ATOM      1  C3  UNL d   1       0.366  -0.444  -0.391  0.00  0.00    -0.075 A 
ATOM      2  C4  UNL d   1      -0.403  -0.338   0.777  0.00  0.00     0.002 A 
ATOM      3  C5  UNL d   1      -1.078   0.845   1.075  0.00  0.00     0.002 A 
ATOM      4  C6  UNL d   1      -0.984   1.940   0.218  0.00  0.00    -0.004 A 
ATOM      5  C7  UNL d   1      -0.209   1.852  -0.936  0.00  0.00     0.002 A 
ATOM      6  C8  UNL d   1       0.464   0.667  -1.239  0.00  0.00     0.002 A 
ENDROOT
BRANCH   1   7
ATOM      7  C2  UNL d   1       1.076  -1.732  -0.735  0.00  0.00     0.056 C 
BRANCH   7   8
ATOM      8  C1  UNL d   1       0.460  -2.486  -1.919  0.00  0.00     0.007 C 
ATOM      9  C   UNL d   1       0.195  -3.956  -1.622  0.00  0.00     0.009 C 
ENDBRANCH   7   8
ENDBRANCH   1   7
TORSDOF 2
ENDMDL
