MODEL 1
REMARK minimizedAffinity -4.09325838
REMARK minimizedRMSD -1
REMARK  2 active torsions:
REMARK  status: ('A' for Active; 'I' for Inactive)
REMARK    1  A    between atoms: C1_2  and  C2_3 
REMARK    2  A    between atoms: C2_3  and  C3_4 
ROOT
ATOM      1  C3  UNL d   1      -1.004   1.012   0.174  0.00  0.00    -0.075 A 
ATOM      2  C4  UNL d   1      -0.463  -0.254   0.440  0.00  0.00     0.002 A 
ATOM      3  C5  UNL d   1       0.653  -0.709  -0.263  0.00  0.00     0.002 A 
ATOM      4  C6  UNL d   1       1.235   0.089  -1.244  0.00  0.00    -0.004 A 
ATOM      5  C7  UNL d   1       0.696   1.343  -1.528  0.00  0.00     0.002 A 
ATOM      6  C8  UNL d   1      -0.418   1.802  -0.823  0.00  0.00     0.002 A 
ENDROOT
BRANCH   1   7
ATOM      7  C2  UNL d   1      -2.194   1.522   0.951  0.00  0.00     0.056 C 
BRANCH   7   8
ATOM      8  C1  UNL d   1      -1.829   2.469   2.100  0.00  0.00     0.007 C 
ATOM      9  C   UNL d   1      -0.835   1.865   3.083  0.00  0.00     0.009 C 
ENDBRANCH   7   8
ENDBRANCH   1   7
TORSDOF 2
ENDMDL
