MODEL 1
REMARK minimizedAffinity -4.53761196
REMARK minimizedRMSD -1
REMARK  2 active torsions:
REMARK  status: ('A' for Active; 'I' for Inactive)
REMARK    1  A    between atoms: C1_2  and  C2_3 
REMARK    2  A    between atoms: C2_3  and  C3_4 
ROOT
ATOM      1  C3  UNL d   1       0.316  -0.089  -0.046  0.00  0.00    -0.075 A 
ATOM      2  C4  UNL d   1      -0.373   1.048  -0.491  0.00  0.00     0.002 A 
ATOM      3  C5  UNL d   1      -1.220   1.746   0.371  0.00  0.00     0.002 A 
ATOM      4  C6  UNL d   1      -1.397   1.310   1.682  0.00  0.00    -0.004 A 
ATOM      5  C7  UNL d   1      -0.731   0.171   2.130  0.00  0.00     0.002 A 
ATOM      6  C8  UNL d   1       0.121  -0.526   1.272  0.00  0.00     0.002 A 
ENDROOT
BRANCH   1   7
ATOM      7  C2  UNL d   1       1.258  -0.831  -0.964  0.00  0.00     0.056 C 
BRANCH   7   8
ATOM      8  C1  UNL d   1       0.895  -2.305  -1.170  0.00  0.00     0.007 C 
ATOM      9  C   UNL d   1       0.412  -2.614  -2.581  0.00  0.00     0.009 C 
ENDBRANCH   7   8
ENDBRANCH   1   7
TORSDOF 2
ENDMDL
