MODEL 1
REMARK minimizedAffinity -1.09296453
REMARK minimizedRMSD -1
REMARK  2 active torsions:
REMARK  status: ('A' for Active; 'I' for Inactive)
REMARK    1  A    between atoms: C1_2  and  C2_3 
REMARK    2  A    between atoms: C2_3  and  C3_4 
ROOT
ATOM      1  C3  UNL d   1       0.531  -0.687  -0.343  0.00  0.00    -0.075 A 
ATOM      2  C4  UNL d   1      -0.168  -0.967   0.840  0.00  0.00     0.002 A 
ATOM      3  C5  UNL d   1      -0.803   0.055   1.547  0.00  0.00     0.002 A 
ATOM      4  C6  UNL d   1      -0.739   1.368   1.086  0.00  0.00    -0.004 A 
ATOM      5  C7  UNL d   1      -0.033   1.660  -0.079  0.00  0.00     0.002 A 
ATOM      6  C8  UNL d   1       0.599   0.639  -0.791  0.00  0.00     0.002 A 
ENDROOT
BRANCH   1   7
ATOM      7  C2  UNL d   1       1.195  -1.793  -1.128  0.00  0.00     0.056 C 
BRANCH   7   8
ATOM      8  C1  UNL d   1       0.251  -2.937  -1.515  0.00  0.00     0.007 C 
ATOM      9  C   UNL d   1      -0.243  -2.848  -2.953  0.00  0.00     0.009 C 
ENDBRANCH   7   8
ENDBRANCH   1   7
TORSDOF 2
ENDMDL
