MODEL 1
REMARK minimizedAffinity -4.94570971
REMARK minimizedRMSD -1
REMARK  2 active torsions:
REMARK  status: ('A' for Active; 'I' for Inactive)
REMARK    1  A    between atoms: C1_2  and  C2_3 
REMARK    2  A    between atoms: C2_3  and  C3_4 
ROOT
ATOM      1  C3  UNL d   1      -0.270  -0.028   0.023  0.00  0.00    -0.075 A 
ATOM      2  C4  UNL d   1      -0.560  -0.069   1.394  0.00  0.00     0.002 A 
ATOM      3  C5  UNL d   1      -1.431   0.862   1.962  0.00  0.00     0.002 A 
ATOM      4  C6  UNL d   1      -2.013   1.849   1.170  0.00  0.00    -0.004 A 
ATOM      5  C7  UNL d   1      -1.718   1.910  -0.190  0.00  0.00     0.002 A 
ATOM      6  C8  UNL d   1      -0.851   0.977  -0.762  0.00  0.00     0.002 A 
ENDROOT
BRANCH   1   7
ATOM      7  C2  UNL d   1       0.648  -1.051  -0.604  0.00  0.00     0.056 C 
BRANCH   7   8
ATOM      8  C1  UNL d   1       0.159  -1.583  -1.955  0.00  0.00     0.007 C 
ATOM      9  C   UNL d   1       0.232  -3.100  -2.064  0.00  0.00     0.009 C 
ENDBRANCH   7   8
ENDBRANCH   1   7
TORSDOF 2
ENDMDL
