MODEL 1
REMARK minimizedAffinity -3.31739402
REMARK minimizedRMSD -1
REMARK  2 active torsions:
REMARK  status: ('A' for Active; 'I' for Inactive)
REMARK    1  A    between atoms: C1_2  and  C2_3 
REMARK    2  A    between atoms: C2_3  and  C3_4 
ROOT
ATOM      1  C3  UNL d   1      -0.241   0.246  -0.401  0.00  0.00    -0.075 A 
ATOM      2  C4  UNL d   1      -0.580   1.447  -1.040  0.00  0.00     0.002 A 
ATOM      3  C5  UNL d   1      -1.446   2.355  -0.430  0.00  0.00     0.002 A 
ATOM      4  C6  UNL d   1      -1.992   2.069   0.820  0.00  0.00    -0.004 A 
ATOM      5  C7  UNL d   1      -1.675   0.870   1.456  0.00  0.00     0.002 A 
ATOM      6  C8  UNL d   1      -0.805  -0.037   0.850  0.00  0.00     0.002 A 
ENDROOT
BRANCH   1   7
ATOM      7  C2  UNL d   1       0.719  -0.727  -1.044  0.00  0.00     0.056 C 
BRANCH   7   8
ATOM      8  C1  UNL d   1       0.080  -1.619  -2.114  0.00  0.00     0.007 C 
ATOM      9  C   UNL d   1       0.311  -3.105  -1.872  0.00  0.00     0.009 C 
ENDBRANCH   7   8
ENDBRANCH   1   7
TORSDOF 2
ENDMDL
