MODEL 1
REMARK minimizedAffinity -4.25243807
REMARK minimizedRMSD -1
REMARK  2 active torsions:
REMARK  status: ('A' for Active; 'I' for Inactive)
REMARK    1  A    between atoms: C1_2  and  C2_3 
REMARK    2  A    between atoms: C2_3  and  C3_4 
ROOT
ATOM      1  C3  UNL d   1       0.263  -0.148  -0.088  0.00  0.00    -0.075 A 
ATOM      2  C4  UNL d   1      -0.497  -0.406   1.062  0.00  0.00     0.002 A 
ATOM      3  C5  UNL d   1      -1.335   0.575   1.593  0.00  0.00     0.002 A 
ATOM      4  C6  UNL d   1      -1.416   1.827   0.988  0.00  0.00    -0.004 A 
ATOM      5  C7  UNL d   1      -0.653   2.100  -0.146  0.00  0.00     0.002 A 
ATOM      6  C8  UNL d   1       0.183   1.119  -0.681  0.00  0.00     0.002 A 
ENDROOT
BRANCH   1   7
ATOM      7  C2  UNL d   1       1.150  -1.215  -0.683  0.00  0.00     0.056 C 
BRANCH   7   8
ATOM      8  C1  UNL d   1       0.647  -1.770  -2.020  0.00  0.00     0.007 C 
ATOM      9  C   UNL d   1       0.899  -3.262  -2.185  0.00  0.00     0.009 C 
ENDBRANCH   7   8
ENDBRANCH   1   7
TORSDOF 2
ENDMDL
