MODEL 1
REMARK minimizedAffinity -3.79261994
REMARK minimizedRMSD -1
REMARK  2 active torsions:
REMARK  status: ('A' for Active; 'I' for Inactive)
REMARK    1  A    between atoms: C1_2  and  C2_3 
REMARK    2  A    between atoms: C2_3  and  C3_4 
ROOT
ATOM      1  C3  UNL d   1       0.279  -0.066  -0.593  0.00  0.00    -0.075 A 
ATOM      2  C4  UNL d   1      -0.231  -0.325   0.688  0.00  0.00     0.002 A 
ATOM      3  C5  UNL d   1      -1.156   0.541   1.270  0.00  0.00     0.002 A 
ATOM      4  C6  UNL d   1      -1.576   1.680   0.586  0.00  0.00    -0.004 A 
ATOM      5  C7  UNL d   1      -1.065   1.956  -0.680  0.00  0.00     0.002 A 
ATOM      6  C8  UNL d   1      -0.141   1.089  -1.267  0.00  0.00     0.002 A 
ENDROOT
BRANCH   1   7
ATOM      7  C2  UNL d   1       1.258  -1.014  -1.242  0.00  0.00     0.056 C 
BRANCH   7   8
ATOM      8  C1  UNL d   1       0.641  -2.348  -1.674  0.00  0.00     0.007 C 
ATOM      9  C   UNL d   1      -0.012  -2.290  -3.049  0.00  0.00     0.009 C 
ENDBRANCH   7   8
ENDBRANCH   1   7
TORSDOF 2
ENDMDL
