MODEL 1
REMARK minimizedAffinity -4.47179174
REMARK minimizedRMSD -1
REMARK  2 active torsions:
REMARK  status: ('A' for Active; 'I' for Inactive)
REMARK    1  A    between atoms: C1_2  and  C2_3 
REMARK    2  A    between atoms: C2_3  and  C3_4 
ROOT
ATOM      1  C3  UNL d   1       0.181  -0.341  -0.166  0.00  0.00    -0.075 A 
ATOM      2  C4  UNL d   1      -0.420   0.870  -0.539  0.00  0.00     0.002 A 
ATOM      3  C5  UNL d   1      -1.360   1.480   0.293  0.00  0.00     0.002 A 
ATOM      4  C6  UNL d   1      -1.717   0.884   1.500  0.00  0.00    -0.004 A 
ATOM      5  C7  UNL d   1      -1.138  -0.327   1.873  0.00  0.00     0.002 A 
ATOM      6  C8  UNL d   1      -0.194  -0.938   1.045  0.00  0.00     0.002 A 
ENDROOT
BRANCH   1   7
ATOM      7  C2  UNL d   1       1.220  -0.991  -1.047  0.00  0.00     0.056 C 
BRANCH   7   8
ATOM      8  C1  UNL d   1       0.919  -2.454  -1.392  0.00  0.00     0.007 C 
ATOM      9  C   UNL d   1       0.229  -2.623  -2.739  0.00  0.00     0.009 C 
ENDBRANCH   7   8
ENDBRANCH   1   7
TORSDOF 2
ENDMDL
