MODEL 1
REMARK minimizedAffinity -4.4444685
REMARK minimizedRMSD -1
REMARK  2 active torsions:
REMARK  status: ('A' for Active; 'I' for Inactive)
REMARK    1  A    between atoms: C1_2  and  C2_3 
REMARK    2  A    between atoms: C2_3  and  C3_4 
ROOT
ATOM      1  C3  UNL d   1      -0.396   0.620   0.412  0.00  0.00    -0.075 A 
ATOM      2  C4  UNL d   1      -0.205   1.751  -0.396  0.00  0.00     0.002 A 
ATOM      3  C5  UNL d   1      -0.848   2.952  -0.098  0.00  0.00     0.002 A 
ATOM      4  C6  UNL d   1      -1.697   3.036   1.003  0.00  0.00    -0.004 A 
ATOM      5  C7  UNL d   1      -1.908   1.915   1.803  0.00  0.00     0.002 A 
ATOM      6  C8  UNL d   1      -1.262   0.713   1.510  0.00  0.00     0.002 A 
ENDROOT
BRANCH   1   7
ATOM      7  C2  UNL d   1       0.320  -0.675   0.111  0.00  0.00     0.056 C 
BRANCH   7   8
ATOM      8  C1  UNL d   1       1.264  -0.600  -1.093  0.00  0.00     0.007 C 
ATOM      9  C   UNL d   1       1.359  -1.910  -1.864  0.00  0.00     0.009 C 
ENDBRANCH   7   8
ENDBRANCH   1   7
TORSDOF 2
ENDMDL
