MODEL 1
REMARK minimizedAffinity -3.40759087
REMARK minimizedRMSD -1
REMARK  2 active torsions:
REMARK  status: ('A' for Active; 'I' for Inactive)
REMARK    1  A    between atoms: C1_2  and  C2_3 
REMARK    2  A    between atoms: C2_3  and  C3_4 
ROOT
ATOM      1  C3  UNL d   1       0.168   0.034   0.182  0.00  0.00    -0.075 A 
ATOM      2  C4  UNL d   1       0.207  -0.452   1.497  0.00  0.00     0.002 A 
ATOM      3  C5  UNL d   1      -0.416   0.249   2.530  0.00  0.00     0.002 A 
ATOM      4  C6  UNL d   1      -1.077   1.446   2.264  0.00  0.00    -0.004 A 
ATOM      5  C7  UNL d   1      -1.108   1.947   0.964  0.00  0.00     0.002 A 
ATOM      6  C8  UNL d   1      -0.489   1.245  -0.072  0.00  0.00     0.002 A 
ENDROOT
BRANCH   1   7
ATOM      7  C2  UNL d   1       0.815  -0.735  -0.945  0.00  0.00     0.056 C 
BRANCH   7   8
ATOM      8  C1  UNL d   1       0.846  -2.252  -0.728  0.00  0.00     0.007 C 
ATOM      9  C   UNL d   1       0.295  -3.039  -1.910  0.00  0.00     0.009 C 
ENDBRANCH   7   8
ENDBRANCH   1   7
TORSDOF 2
ENDMDL
