MODEL 1
REMARK minimizedAffinity -5.99814415
REMARK minimizedRMSD -1
REMARK  2 active torsions:
REMARK  status: ('A' for Active; 'I' for Inactive)
REMARK    1  A    between atoms: C1_2  and  C2_3 
REMARK    2  A    between atoms: C2_3  and  C3_4 
ROOT
ATOM      1  C3  UNL d   1      -0.568   0.979  -0.006  0.00  0.00    -0.075 A 
ATOM      2  C4  UNL d   1       0.075  -0.115   0.592  0.00  0.00     0.002 A 
ATOM      3  C5  UNL d   1       1.260  -0.620   0.055  0.00  0.00     0.002 A 
ATOM      4  C6  UNL d   1       1.810  -0.046  -1.089  0.00  0.00    -0.004 A 
ATOM      5  C7  UNL d   1       1.171   1.030  -1.700  0.00  0.00     0.002 A 
ATOM      6  C8  UNL d   1      -0.012   1.540  -1.163  0.00  0.00     0.002 A 
ENDROOT
BRANCH   1   7
ATOM      7  C2  UNL d   1      -1.834   1.548   0.588  0.00  0.00     0.056 C 
BRANCH   7   8
ATOM      8  C1  UNL d   1      -1.695   2.989   1.089  0.00  0.00     0.007 C 
ATOM      9  C   UNL d   1      -0.464   3.205   1.960  0.00  0.00     0.009 C 
ENDBRANCH   7   8
ENDBRANCH   1   7
TORSDOF 2
ENDMDL
