MODEL 1
REMARK minimizedAffinity -3.99241757
REMARK minimizedRMSD -1
REMARK  2 active torsions:
REMARK  status: ('A' for Active; 'I' for Inactive)
REMARK    1  A    between atoms: C1_2  and  C2_3 
REMARK    2  A    between atoms: C2_3  and  C3_4 
ROOT
ATOM      1  C3  UNL d   1      -0.923   1.200  -0.066  0.00  0.00    -0.075 A 
ATOM      2  C4  UNL d   1      -0.353  -0.045   0.239  0.00  0.00     0.002 A 
ATOM      3  C5  UNL d   1       0.872  -0.418  -0.316  0.00  0.00     0.002 A 
ATOM      4  C6  UNL d   1       1.535   0.440  -1.189  0.00  0.00    -0.004 A 
ATOM      5  C7  UNL d   1       0.970   1.672  -1.513  0.00  0.00     0.002 A 
ATOM      6  C8  UNL d   1      -0.253   2.050  -0.956  0.00  0.00     0.002 A 
ENDROOT
BRANCH   1   7
ATOM      7  C2  UNL d   1      -2.233   1.623   0.554  0.00  0.00     0.056 C 
BRANCH   7   8
ATOM      8  C1  UNL d   1      -2.078   2.493   1.806  0.00  0.00     0.007 C 
ATOM      9  C   UNL d   1      -0.829   2.166   2.613  0.00  0.00     0.009 C 
ENDBRANCH   7   8
ENDBRANCH   1   7
TORSDOF 2
ENDMDL
