MODEL 1
REMARK minimizedAffinity -4.7715106
REMARK minimizedRMSD -1
REMARK  2 active torsions:
REMARK  status: ('A' for Active; 'I' for Inactive)
REMARK    1  A    between atoms: C1_2  and  C2_3 
REMARK    2  A    between atoms: C2_3  and  C3_4 
ROOT
ATOM      1  C3  UNL d   1      -0.141  -0.321  -0.180  0.00  0.00    -0.075 A 
ATOM      2  C4  UNL d   1      -0.457  -0.429   1.182  0.00  0.00     0.002 A 
ATOM      3  C5  UNL d   1      -1.196   0.569   1.818  0.00  0.00     0.002 A 
ATOM      4  C6  UNL d   1      -1.619   1.688   1.106  0.00  0.00    -0.004 A 
ATOM      5  C7  UNL d   1      -1.297   1.814  -0.244  0.00  0.00     0.002 A 
ATOM      6  C8  UNL d   1      -0.562   0.815  -0.884  0.00  0.00     0.002 A 
ENDROOT
BRANCH   1   7
ATOM      7  C2  UNL d   1       0.633  -1.411  -0.882  0.00  0.00     0.056 C 
BRANCH   7   8
ATOM      8  C1  UNL d   1      -0.108  -2.038  -2.068  0.00  0.00     0.007 C 
ATOM      9  C   UNL d   1       0.252  -3.500  -2.296  0.00  0.00     0.009 C 
ENDBRANCH   7   8
ENDBRANCH   1   7
TORSDOF 2
ENDMDL
