MODEL 1
REMARK minimizedAffinity 2.80657077
REMARK minimizedRMSD -1
REMARK  0 active torsions:
REMARK  status: ('A' for Active; 'I' for Inactive)
ROOT
ATOM      1  C   UNL d   1       3.451  -2.027  -0.437  0.00  0.00     0.078 C 
ATOM      2  C1  UNL d   1       3.939  -0.614  -0.547  0.00  0.00    -0.077 A 
ATOM      3  C2  UNL d   1       5.275  -0.334  -0.858  0.00  0.00    -0.001 A 
ATOM      4  C3  UNL d   1       5.718   0.986  -0.948  0.00  0.00     0.003 A 
ATOM      5  C4  UNL d   1       4.832   2.038  -0.725  0.00  0.00    -0.005 A 
ATOM      6  C5  UNL d   1       3.501   1.770  -0.412  0.00  0.00     0.003 A 
ATOM      7  C6  UNL d   1       3.056   0.450  -0.323  0.00  0.00    -0.001 A 
ENDROOT
TORSDOF 0
ENDMDL
