MODEL 1
REMARK minimizedAffinity 9.44788933
REMARK minimizedRMSD -1
REMARK  0 active torsions:
REMARK  status: ('A' for Active; 'I' for Inactive)
ROOT
ATOM      1  C   UNL d   1       2.384  -0.423  -0.642  0.00  0.00     0.078 C 
ATOM      2  C1  UNL d   1       3.649   0.375  -0.752  0.00  0.00    -0.077 A 
ATOM      3  C2  UNL d   1       4.356   0.767   0.391  0.00  0.00    -0.001 A 
ATOM      4  C3  UNL d   1       5.527   1.518   0.274  0.00  0.00     0.003 A 
ATOM      5  C4  UNL d   1       6.000   1.885  -0.985  0.00  0.00    -0.005 A 
ATOM      6  C5  UNL d   1       5.301   1.502  -2.128  0.00  0.00     0.003 A 
ATOM      7  C6  UNL d   1       4.131   0.750  -2.013  0.00  0.00    -0.001 A 
ENDROOT
TORSDOF 0
ENDMDL
