MODEL 1
REMARK minimizedAffinity 7.9334569
REMARK minimizedRMSD -1
REMARK  0 active torsions:
REMARK  status: ('A' for Active; 'I' for Inactive)
ROOT
ATOM      1  C   UNL d   1       0.062   1.080  -1.057  0.00  0.00     0.078 C 
ATOM      2  C1  UNL d   1      -0.957   1.692  -0.143  0.00  0.00    -0.077 A 
ATOM      3  C2  UNL d   1      -2.201   1.082   0.063  0.00  0.00    -0.001 A 
ATOM      4  C3  UNL d   1      -3.143   1.668   0.909  0.00  0.00     0.003 A 
ATOM      5  C4  UNL d   1      -2.853   2.868   1.555  0.00  0.00    -0.005 A 
ATOM      6  C5  UNL d   1      -1.619   3.483   1.356  0.00  0.00     0.003 A 
ATOM      7  C6  UNL d   1      -0.675   2.899   0.510  0.00  0.00    -0.001 A 
ENDROOT
TORSDOF 0
ENDMDL
