MODEL 1
REMARK minimizedAffinity 12.8114538
REMARK minimizedRMSD -1
REMARK  0 active torsions:
REMARK  status: ('A' for Active; 'I' for Inactive)
ROOT
ATOM      1  C   UNL d   1       5.712   1.035  -2.850  0.00  0.00     0.078 C 
ATOM      2  C1  UNL d   1       4.617   0.556  -1.944  0.00  0.00    -0.077 A 
ATOM      3  C2  UNL d   1       3.980   1.432  -1.057  0.00  0.00    -0.001 A 
ATOM      4  C3  UNL d   1       2.969   0.970  -0.212  0.00  0.00     0.003 A 
ATOM      5  C4  UNL d   1       2.587  -0.370  -0.245  0.00  0.00    -0.005 A 
ATOM      6  C5  UNL d   1       3.217  -1.250  -1.123  0.00  0.00     0.003 A 
ATOM      7  C6  UNL d   1       4.228  -0.790  -1.968  0.00  0.00    -0.001 A 
ENDROOT
TORSDOF 0
ENDMDL
