MODEL 1
REMARK minimizedAffinity 9.2647295
REMARK minimizedRMSD -1
REMARK  0 active torsions:
REMARK  status: ('A' for Active; 'I' for Inactive)
ROOT
ATOM      1  C   UNL d   1      -5.996   1.663  -3.260  0.00  0.00     0.078 C 
ATOM      2  C1  UNL d   1      -4.818   0.988  -3.895  0.00  0.00    -0.077 A 
ATOM      3  C2  UNL d   1      -4.960   0.245  -5.074  0.00  0.00    -0.001 A 
ATOM      4  C3  UNL d   1      -3.856  -0.386  -5.648  0.00  0.00     0.003 A 
ATOM      5  C4  UNL d   1      -2.602  -0.283  -5.051  0.00  0.00    -0.005 A 
ATOM      6  C5  UNL d   1      -2.450   0.452  -3.877  0.00  0.00     0.003 A 
ATOM      7  C6  UNL d   1      -3.553   1.084  -3.300  0.00  0.00    -0.001 A 
ENDROOT
TORSDOF 0
ENDMDL
