MODEL 1
REMARK minimizedAffinity 9.62716961
REMARK minimizedRMSD -1
REMARK  0 active torsions:
REMARK  status: ('A' for Active; 'I' for Inactive)
ROOT
ATOM      1  C   UNL d   1      -5.997   3.598  -2.950  0.00  0.00     0.078 C 
ATOM      2  C1  UNL d   1      -5.320   2.542  -3.770  0.00  0.00    -0.077 A 
ATOM      3  C2  UNL d   1      -5.998   1.376  -4.147  0.00  0.00    -0.001 A 
ATOM      4  C3  UNL d   1      -5.352   0.396  -4.902  0.00  0.00     0.003 A 
ATOM      5  C4  UNL d   1      -4.024   0.572  -5.287  0.00  0.00    -0.005 A 
ATOM      6  C5  UNL d   1      -3.340   1.728  -4.916  0.00  0.00     0.003 A 
ATOM      7  C6  UNL d   1      -3.985   2.708  -4.160  0.00  0.00    -0.001 A 
ENDROOT
TORSDOF 0
ENDMDL
