MODEL 1
REMARK minimizedAffinity 3.60665107
REMARK minimizedRMSD -1
REMARK  0 active torsions:
REMARK  status: ('A' for Active; 'I' for Inactive)
ROOT
ATOM      1  C   UNL d   1       5.996   2.463  -0.408  0.00  0.00     0.078 C 
ATOM      2  C1  UNL d   1       5.305   1.132  -0.392  0.00  0.00    -0.077 A 
ATOM      3  C2  UNL d   1       3.964   1.011  -0.777  0.00  0.00    -0.001 A 
ATOM      4  C3  UNL d   1       3.331  -0.233  -0.748  0.00  0.00     0.003 A 
ATOM      5  C4  UNL d   1       4.031  -1.364  -0.333  0.00  0.00    -0.005 A 
ATOM      6  C5  UNL d   1       5.365  -1.253   0.054  0.00  0.00     0.003 A 
ATOM      7  C6  UNL d   1       5.999  -0.010   0.026  0.00  0.00    -0.001 A 
ENDROOT
TORSDOF 0
ENDMDL
