MODEL 1
REMARK minimizedAffinity 12.8610821
REMARK minimizedRMSD -1
REMARK  0 active torsions:
REMARK  status: ('A' for Active; 'I' for Inactive)
ROOT
ATOM      1  O1  BZF d   1      -3.788   4.433  -3.521  0.00  0.00    -0.204 OA
ATOM      2  C2  BZF d   1      -4.691   5.056  -4.360  0.00  0.00     0.174 A 
ATOM      3  C3  BZF d   1      -5.554   4.162  -4.883  0.00  0.00    -0.012 A 
ATOM      4  C3A BZF d   1      -5.223   2.914  -4.266  0.00  0.00    -0.107 A 
ATOM      5  C4  BZF d   1      -5.736   1.652  -4.366  0.00  0.00     0.055 A 
ATOM      6  C5  BZF d   1      -5.138   0.641  -3.683  0.00  0.00    -0.016 A 
ATOM      7  C6  BZF d   1      -4.025   0.854  -2.897  0.00  0.00     0.022 A 
ATOM      8  C7  BZF d   1      -3.483   2.089  -2.763  0.00  0.00     0.029 A 
ATOM      9  C7A BZF d   1      -4.105   3.119  -3.425  0.00  0.00     0.058 A 
ENDROOT
TORSDOF 0
ENDMDL
