MODEL 1
REMARK minimizedAffinity 9.68593884
REMARK minimizedRMSD -1
REMARK  0 active torsions:
REMARK  status: ('A' for Active; 'I' for Inactive)
ROOT
ATOM      1  O1  BZF d   1       4.141  -4.571  -1.445  0.00  0.00    -0.204 OA
ATOM      2  C2  BZF d   1       5.458  -4.989  -1.434  0.00  0.00     0.174 A 
ATOM      3  C3  BZF d   1       6.000  -4.830  -0.209  0.00  0.00    -0.012 A 
ATOM      4  C3A BZF d   1       4.930  -4.365   0.619  0.00  0.00    -0.107 A 
ATOM      5  C4  BZF d   1       4.840  -4.041   1.942  0.00  0.00     0.055 A 
ATOM      6  C5  BZF d   1       3.668  -3.549   2.423  0.00  0.00    -0.016 A 
ATOM      7  C6  BZF d   1       2.569  -3.364   1.609  0.00  0.00     0.022 A 
ATOM      8  C7  BZF d   1       2.609  -3.676   0.291  0.00  0.00     0.029 A 
ATOM      9  C7A BZF d   1       3.782  -4.204  -0.191  0.00  0.00     0.058 A 
ENDROOT
TORSDOF 0
ENDMDL
