MODEL 1
REMARK minimizedAffinity 5.88720751
REMARK minimizedRMSD -1
REMARK  0 active torsions:
REMARK  status: ('A' for Active; 'I' for Inactive)
ROOT
ATOM      1  O1  BZF d   1      -2.140   1.804  -1.897  0.00  0.00    -0.204 OA
ATOM      2  C2  BZF d   1      -1.622   2.997  -2.363  0.00  0.00     0.174 A 
ATOM      3  C3  BZF d   1      -0.274   2.962  -2.370  0.00  0.00    -0.012 A 
ATOM      4  C3A BZF d   1       0.071   1.634  -1.964  0.00  0.00    -0.107 A 
ATOM      5  C4  BZF d   1       1.259   0.983  -1.794  0.00  0.00     0.055 A 
ATOM      6  C5  BZF d   1       1.252  -0.290  -1.317  0.00  0.00    -0.016 A 
ATOM      7  C6  BZF d   1       0.078  -0.939  -0.996  0.00  0.00     0.022 A 
ATOM      8  C7  BZF d   1      -1.126  -0.336  -1.153  0.00  0.00     0.029 A 
ATOM      9  C7A BZF d   1      -1.124   0.939  -1.666  0.00  0.00     0.058 A 
ENDROOT
TORSDOF 0
ENDMDL
