MODEL 1
REMARK minimizedAffinity 9.60547733
REMARK minimizedRMSD -1
REMARK  0 active torsions:
REMARK  status: ('A' for Active; 'I' for Inactive)
ROOT
ATOM      1  O1  BZF d   1      -3.268  -2.033  -0.238  0.00  0.00    -0.204 OA
ATOM      2  C2  BZF d   1      -3.848  -1.501  -1.374  0.00  0.00     0.174 A 
ATOM      3  C3  BZF d   1      -4.475  -0.341  -1.092  0.00  0.00    -0.012 A 
ATOM      4  C3A BZF d   1      -4.196  -0.088   0.289  0.00  0.00    -0.107 A 
ATOM      5  C4  BZF d   1      -4.531   0.922   1.145  0.00  0.00     0.055 A 
ATOM      6  C5  BZF d   1      -4.160   0.833   2.449  0.00  0.00    -0.016 A 
ATOM      7  C6  BZF d   1      -3.460  -0.253   2.932  0.00  0.00     0.022 A 
ATOM      8  C7  BZF d   1      -3.101  -1.277   2.120  0.00  0.00     0.029 A 
ATOM      9  C7A BZF d   1      -3.445  -1.174   0.794  0.00  0.00     0.058 A 
ENDROOT
TORSDOF 0
ENDMDL
