MODEL 1
REMARK minimizedAffinity 9.89556599
REMARK minimizedRMSD -1
REMARK  0 active torsions:
REMARK  status: ('A' for Active; 'I' for Inactive)
ROOT
ATOM      1  O1  BZF d   1      -1.758  -0.494   3.689  0.00  0.00    -0.204 OA
ATOM      2  C2  BZF d   1      -2.728  -1.283   3.101  0.00  0.00     0.174 A 
ATOM      3  C3  BZF d   1      -2.166  -2.267   2.370  0.00  0.00    -0.012 A 
ATOM      4  C3A BZF d   1      -0.757  -2.138   2.586  0.00  0.00    -0.107 A 
ATOM      5  C4  BZF d   1       0.329  -2.837   2.142  0.00  0.00     0.055 A 
ATOM      6  C5  BZF d   1       1.574  -2.407   2.478  0.00  0.00    -0.016 A 
ATOM      7  C6  BZF d   1       1.769  -1.282   3.252  0.00  0.00     0.022 A 
ATOM      8  C7  BZF d   1       0.723  -0.559   3.720  0.00  0.00     0.029 A 
ATOM      9  C7A BZF d   1      -0.537  -1.009   3.409  0.00  0.00     0.058 A 
ENDROOT
TORSDOF 0
ENDMDL
