MODEL 1
REMARK minimizedAffinity 12.782896
REMARK minimizedRMSD -1
REMARK  0 active torsions:
REMARK  status: ('A' for Active; 'I' for Inactive)
ROOT
ATOM      1  O1  BZF d   1      -1.774   3.738  -3.899  0.00  0.00    -0.204 OA
ATOM      2  C2  BZF d   1      -1.132   4.293  -4.989  0.00  0.00     0.174 A 
ATOM      3  C3  BZF d   1      -2.000   4.503  -6.000  0.00  0.00    -0.012 A 
ATOM      4  C3A BZF d   1      -3.281   4.136  -5.478  0.00  0.00    -0.107 A 
ATOM      5  C4  BZF d   1      -4.543   4.138  -6.000  0.00  0.00     0.055 A 
ATOM      6  C5  BZF d   1      -5.567   3.649  -5.253  0.00  0.00    -0.016 A 
ATOM      7  C6  BZF d   1      -5.365   3.146  -3.984  0.00  0.00     0.022 A 
ATOM      8  C7  BZF d   1      -4.132   3.128  -3.422  0.00  0.00     0.029 A 
ATOM      9  C7A BZF d   1      -3.100   3.652  -4.162  0.00  0.00     0.058 A 
ENDROOT
TORSDOF 0
ENDMDL
