MODEL 1
REMARK minimizedAffinity 12.3530884
REMARK minimizedRMSD -1
REMARK  0 active torsions:
REMARK  status: ('A' for Active; 'I' for Inactive)
ROOT
ATOM      1  O1  BZF d   1       1.135  -5.107   1.844  0.00  0.00    -0.204 OA
ATOM      2  C2  BZF d   1       2.307  -4.521   1.406  0.00  0.00     0.174 A 
ATOM      3  C3  BZF d   1       2.264  -3.183   1.572  0.00  0.00    -0.012 A 
ATOM      4  C3A BZF d   1       1.023  -2.926   2.234  0.00  0.00    -0.107 A 
ATOM      5  C4  BZF d   1       0.416  -1.787   2.682  0.00  0.00     0.055 A 
ATOM      6  C5  BZF d   1      -0.829  -1.870   3.220  0.00  0.00    -0.016 A 
ATOM      7  C6  BZF d   1      -1.498  -3.072   3.320  0.00  0.00     0.022 A 
ATOM      8  C7  BZF d   1      -0.936  -4.229   2.893  0.00  0.00     0.029 A 
ATOM      9  C7A BZF d   1       0.336  -4.153   2.380  0.00  0.00     0.058 A 
ENDROOT
TORSDOF 0
ENDMDL
