MODEL 1
REMARK minimizedAffinity 15.619483
REMARK minimizedRMSD -1
REMARK  0 active torsions:
REMARK  status: ('A' for Active; 'I' for Inactive)
ROOT
ATOM      1  O1  BZF d   1      -2.760  -1.630  -1.415  0.00  0.00    -0.204 OA
ATOM      2  C2  BZF d   1      -2.487  -0.360  -0.946  0.00  0.00     0.174 A 
ATOM      3  C3  BZF d   1      -3.221   0.561  -1.603  0.00  0.00    -0.012 A 
ATOM      4  C3A BZF d   1      -4.069  -0.189  -2.478  0.00  0.00    -0.107 A 
ATOM      5  C4  BZF d   1      -5.035   0.162  -3.378  0.00  0.00     0.055 A 
ATOM      6  C5  BZF d   1      -5.624  -0.807  -4.126  0.00  0.00    -0.016 A 
ATOM      7  C6  BZF d   1      -5.268  -2.135  -4.005  0.00  0.00     0.022 A 
ATOM      8  C7  BZF d   1      -4.319  -2.532  -3.122  0.00  0.00     0.029 A 
ATOM      9  C7A BZF d   1      -3.746  -1.558  -2.341  0.00  0.00     0.058 A 
ENDROOT
TORSDOF 0
ENDMDL
