MODEL 1
REMARK minimizedAffinity 6.38697433
REMARK minimizedRMSD -1
REMARK  0 active torsions:
REMARK  status: ('A' for Active; 'I' for Inactive)
ROOT
ATOM      1  O1  BZF d   1       0.714  -1.677   1.593  0.00  0.00    -0.204 OA
ATOM      2  C2  BZF d   1      -0.342  -1.962   2.437  0.00  0.00     0.174 A 
ATOM      3  C3  BZF d   1      -0.224  -3.204   2.948  0.00  0.00    -0.012 A 
ATOM      4  C3A BZF d   1       1.028  -3.694   2.461  0.00  0.00    -0.107 A 
ATOM      5  C4  BZF d   1       1.710  -4.865   2.636  0.00  0.00     0.055 A 
ATOM      6  C5  BZF d   1       2.874  -5.057   1.962  0.00  0.00    -0.016 A 
ATOM      7  C6  BZF d   1       3.382  -4.105   1.103  0.00  0.00     0.022 A 
ATOM      8  C7  BZF d   1       2.744  -2.926   0.901  0.00  0.00     0.029 A 
ATOM      9  C7A BZF d   1       1.584  -2.715   1.606  0.00  0.00     0.058 A 
ENDROOT
TORSDOF 0
ENDMDL
