MODEL 1
REMARK minimizedAffinity -2.89103198
REMARK minimizedRMSD -1
REMARK  1 active torsions:
REMARK  status: ('A' for Active; 'I' for Inactive)
REMARK    1  A    between atoms: N_2  and  C1_3 
ROOT
ATOM      1  C1  UNL d   1      -0.093  -0.070  -0.098  0.00  0.00     0.143 A 
ATOM      2  C2  UNL d   1       0.855   0.955  -0.011  0.00  0.00    -0.057 A 
ATOM      3  C3  UNL d   1       0.838   1.872   1.047  0.00  0.00     0.033 A 
ATOM      4  C4  UNL d   1      -0.149   1.797   2.025  0.00  0.00    -0.042 A 
ATOM      5  C5  UNL d   1      -1.116   0.802   1.945  0.00  0.00     0.033 A 
ATOM      6  C6  UNL d   1      -1.090  -0.115   0.890  0.00  0.00    -0.057 A 
ENDROOT
BRANCH   1   7
ATOM      7  N   UNL d   1      -0.189  -0.951  -1.177  0.00  0.00    -0.732 N 
ATOM      8  C   UNL d   1      -1.470  -1.499  -1.571  0.00  0.00     0.284 C 
ATOM      9  H3  UNL d   1       0.403  -0.676  -1.957  0.00  0.00     0.395 HD
ENDBRANCH   1   7
TORSDOF 1
ENDMDL
