MODEL 1
REMARK minimizedAffinity -4.38169909
REMARK minimizedRMSD -1
REMARK  1 active torsions:
REMARK  status: ('A' for Active; 'I' for Inactive)
REMARK    1  A    between atoms: N_2  and  C1_3 
ROOT
ATOM      1  C1  UNL d   1       0.787   0.953   0.168  0.00  0.00     0.143 A 
ATOM      2  C2  UNL d   1       1.882   0.342  -0.453  0.00  0.00    -0.057 A 
ATOM      3  C3  UNL d   1       1.827  -0.992  -0.873  0.00  0.00     0.033 A 
ATOM      4  C4  UNL d   1       0.683  -1.752  -0.650  0.00  0.00    -0.042 A 
ATOM      5  C5  UNL d   1      -0.408  -1.173  -0.011  0.00  0.00     0.033 A 
ATOM      6  C6  UNL d   1      -0.350   0.162   0.399  0.00  0.00    -0.057 A 
ENDROOT
BRANCH   1   7
ATOM      7  N   UNL d   1       0.814   2.246   0.696  0.00  0.00    -0.732 N 
ATOM      8  C   UNL d   1       1.033   2.460   2.111  0.00  0.00     0.284 C 
ATOM      9  H3  UNL d   1       1.308   2.901   0.095  0.00  0.00     0.395 HD
ENDBRANCH   1   7
TORSDOF 1
ENDMDL
