MODEL 1
REMARK minimizedAffinity -1.34709466
REMARK minimizedRMSD -1
REMARK  1 active torsions:
REMARK  status: ('A' for Active; 'I' for Inactive)
REMARK    1  A    between atoms: N_2  and  C1_3 
ROOT
ATOM      1  C1  UNL d   1       2.447   3.152  -3.533  0.00  0.00     0.143 A 
ATOM      2  C2  UNL d   1       1.855   3.558  -4.734  0.00  0.00    -0.057 A 
ATOM      3  C3  UNL d   1       2.516   3.400  -5.958  0.00  0.00     0.033 A 
ATOM      4  C4  UNL d   1       3.796   2.858  -5.999  0.00  0.00    -0.042 A 
ATOM      5  C5  UNL d   1       4.414   2.471  -4.815  0.00  0.00     0.033 A 
ATOM      6  C6  UNL d   1       3.746   2.625  -3.597  0.00  0.00    -0.057 A 
ENDROOT
BRANCH   1   7
ATOM      7  N   UNL d   1       1.882   3.373  -2.274  0.00  0.00    -0.732 N 
ATOM      8  C   UNL d   1       1.496   2.260  -1.434  0.00  0.00     0.284 C 
ATOM      9  H3  UNL d   1       2.334   4.135  -1.774  0.00  0.00     0.395 HD
ENDBRANCH   1   7
TORSDOF 1
ENDMDL
