MODEL 1
REMARK minimizedAffinity -2.43410611
REMARK minimizedRMSD -1
REMARK  1 active torsions:
REMARK  status: ('A' for Active; 'I' for Inactive)
REMARK    1  A    between atoms: N_2  and  C1_3 
ROOT
ATOM      1  C1  UNL d   1      -0.419   0.190   0.010  0.00  0.00     0.143 A 
ATOM      2  C2  UNL d   1       0.180   1.257  -0.668  0.00  0.00    -0.057 A 
ATOM      3  C3  UNL d   1       0.771   2.319   0.026  0.00  0.00     0.033 A 
ATOM      4  C4  UNL d   1       0.748   2.347   1.417  0.00  0.00    -0.042 A 
ATOM      5  C5  UNL d   1       0.136   1.310   2.112  0.00  0.00     0.033 A 
ATOM      6  C6  UNL d   1      -0.447   0.249   1.413  0.00  0.00    -0.057 A 
ENDROOT
BRANCH   1   7
ATOM      7  N   UNL d   1      -1.110  -0.846  -0.624  0.00  0.00    -0.732 N 
ATOM      8  C   UNL d   1      -1.848  -0.600  -1.844  0.00  0.00     0.284 C 
ATOM      9  H3  UNL d   1      -0.588  -1.719  -0.622  0.00  0.00     0.395 HD
ENDBRANCH   1   7
TORSDOF 1
ENDMDL
