MODEL 1
REMARK minimizedAffinity -3.40841722
REMARK minimizedRMSD -1
REMARK  1 active torsions:
REMARK  status: ('A' for Active; 'I' for Inactive)
REMARK    1  A    between atoms: N_2  and  C1_3 
ROOT
ATOM      1  C1  UNL d   1      -4.145   4.864  -4.666  0.00  0.00     0.143 A 
ATOM      2  C2  UNL d   1      -2.976   4.242  -5.118  0.00  0.00    -0.057 A 
ATOM      3  C3  UNL d   1      -1.744   4.471  -4.493  0.00  0.00     0.033 A 
ATOM      4  C4  UNL d   1      -1.654   5.351  -3.420  0.00  0.00    -0.042 A 
ATOM      5  C5  UNL d   1      -2.799   6.000  -2.970  0.00  0.00     0.033 A 
ATOM      6  C6  UNL d   1      -4.027   5.763  -3.594  0.00  0.00    -0.057 A 
ENDROOT
BRANCH   1   7
ATOM      7  N   UNL d   1      -5.381   4.754  -5.307  0.00  0.00    -0.732 N 
ATOM      8  C   UNL d   1      -6.000   5.911  -5.919  0.00  0.00     0.284 C 
ATOM      9  H3  UNL d   1      -5.460   3.901  -5.855  0.00  0.00     0.395 HD
ENDBRANCH   1   7
TORSDOF 1
ENDMDL
