MODEL 1
REMARK minimizedAffinity -3.45135951
REMARK minimizedRMSD -1
REMARK  1 active torsions:
REMARK  status: ('A' for Active; 'I' for Inactive)
REMARK    1  A    between atoms: N_2  and  C1_3 
ROOT
ATOM      1  C1  UNL d   1      -0.381  -0.098   0.492  0.00  0.00     0.143 A 
ATOM      2  C2  UNL d   1      -0.783   0.364   1.750  0.00  0.00    -0.057 A 
ATOM      3  C3  UNL d   1      -0.025   1.307   2.454  0.00  0.00     0.033 A 
ATOM      4  C4  UNL d   1       1.169   1.784   1.924  0.00  0.00    -0.042 A 
ATOM      5  C5  UNL d   1       1.602   1.321   0.686  0.00  0.00     0.033 A 
ATOM      6  C6  UNL d   1       0.836   0.384  -0.015  0.00  0.00    -0.057 A 
ENDROOT
BRANCH   1   7
ATOM      7  N   UNL d   1      -1.040  -1.108  -0.213  0.00  0.00    -0.732 N 
ATOM      8  C   UNL d   1      -1.525  -0.873  -1.556  0.00  0.00     0.284 C 
ATOM      9  H3  UNL d   1      -0.608  -2.020  -0.080  0.00  0.00     0.395 HD
ENDBRANCH   1   7
TORSDOF 1
ENDMDL
