MODEL 1
REMARK minimizedAffinity -4.54421997
REMARK minimizedRMSD -1
REMARK  1 active torsions:
REMARK  status: ('A' for Active; 'I' for Inactive)
REMARK    1  A    between atoms: N_2  and  C1_3 
ROOT
ATOM      1  C1  UNL d   1       0.266   0.144   0.667  0.00  0.00     0.143 A 
ATOM      2  C2  UNL d   1      -0.154   0.398   1.977  0.00  0.00    -0.057 A 
ATOM      3  C3  UNL d   1       0.216   1.572   2.643  0.00  0.00     0.033 A 
ATOM      4  C4  UNL d   1       1.039   2.504   2.019  0.00  0.00    -0.042 A 
ATOM      5  C5  UNL d   1       1.489   2.261   0.726  0.00  0.00     0.033 A 
ATOM      6  C6  UNL d   1       1.111   1.089   0.063  0.00  0.00    -0.057 A 
ENDROOT
BRANCH   1   7
ATOM      7  N   UNL d   1       0.013  -1.049  -0.014  0.00  0.00    -0.732 N 
ATOM      8  C   UNL d   1      -1.089  -1.147  -0.947  0.00  0.00     0.284 C 
ATOM      9  H3  UNL d   1       0.867  -1.505  -0.330  0.00  0.00     0.395 HD
ENDBRANCH   1   7
TORSDOF 1
ENDMDL
