MODEL 1
REMARK minimizedAffinity -3.07241964
REMARK minimizedRMSD -1
REMARK  1 active torsions:
REMARK  status: ('A' for Active; 'I' for Inactive)
REMARK    1  A    between atoms: N_2  and  C1_3 
ROOT
ATOM      1  C1  UNL d   1      -0.003  -0.410  -0.025  0.00  0.00     0.143 A 
ATOM      2  C2  UNL d   1      -0.769  -0.047   1.088  0.00  0.00    -0.057 A 
ATOM      3  C3  UNL d   1      -0.411   1.042   1.893  0.00  0.00     0.033 A 
ATOM      4  C4  UNL d   1       0.740   1.772   1.614  0.00  0.00    -0.042 A 
ATOM      5  C5  UNL d   1       1.530   1.414   0.527  0.00  0.00     0.033 A 
ATOM      6  C6  UNL d   1       1.164   0.330  -0.276  0.00  0.00    -0.057 A 
ENDROOT
BRANCH   1   7
ATOM      7  N   UNL d   1      -0.252  -1.541  -0.805  0.00  0.00    -0.732 N 
ATOM      8  C   UNL d   1      -1.601  -1.880  -1.204  0.00  0.00     0.284 C 
ATOM      9  H3  UNL d   1       0.442  -1.667  -1.539  0.00  0.00     0.395 HD
ENDBRANCH   1   7
TORSDOF 1
ENDMDL
