MODEL 1
REMARK minimizedAffinity -2.01810598
REMARK minimizedRMSD -1
REMARK  1 active torsions:
REMARK  status: ('A' for Active; 'I' for Inactive)
REMARK    1  A    between atoms: N_2  and  C1_3 
ROOT
ATOM      1  C1  UNL d   1       1.650  -0.137   0.088  0.00  0.00     0.143 A 
ATOM      2  C2  UNL d   1       0.682  -1.127  -0.108  0.00  0.00    -0.057 A 
ATOM      3  C3  UNL d   1      -0.571  -1.050   0.512  0.00  0.00     0.033 A 
ATOM      4  C4  UNL d   1      -0.868   0.007   1.366  0.00  0.00    -0.042 A 
ATOM      5  C5  UNL d   1       0.089   0.990   1.595  0.00  0.00     0.033 A 
ATOM      6  C6  UNL d   1       1.335   0.911   0.968  0.00  0.00    -0.057 A 
ENDROOT
BRANCH   1   7
ATOM      7  N   UNL d   1       2.949  -0.207  -0.422  0.00  0.00    -0.732 N 
ATOM      8  C   UNL d   1       3.992   0.652   0.097  0.00  0.00     0.284 C 
ATOM      9  H3  UNL d   1       3.247  -1.164  -0.597  0.00  0.00     0.395 HD
ENDBRANCH   1   7
TORSDOF 1
ENDMDL
