MODEL 1
REMARK minimizedAffinity -4.65345812
REMARK minimizedRMSD -1
REMARK  1 active torsions:
REMARK  status: ('A' for Active; 'I' for Inactive)
REMARK    1  A    between atoms: N_2  and  C1_3 
ROOT
ATOM      1  C1  UNL d   1       0.097   0.230   0.208  0.00  0.00     0.143 A 
ATOM      2  C2  UNL d   1      -0.460   0.704   1.400  0.00  0.00    -0.057 A 
ATOM      3  C3  UNL d   1       0.037   1.853   2.027  0.00  0.00     0.033 A 
ATOM      4  C4  UNL d   1       1.124   2.533   1.487  0.00  0.00    -0.042 A 
ATOM      5  C5  UNL d   1       1.710   2.065   0.316  0.00  0.00     0.033 A 
ATOM      6  C6  UNL d   1       1.204   0.921  -0.309  0.00  0.00    -0.057 A 
ENDROOT
BRANCH   1   7
ATOM      7  N   UNL d   1      -0.289  -0.961  -0.412  0.00  0.00    -0.732 N 
ATOM      8  C   UNL d   1      -0.986  -0.941  -1.680  0.00  0.00     0.284 C 
ATOM      9  H3  UNL d   1       0.422  -1.685  -0.340  0.00  0.00     0.395 HD
ENDBRANCH   1   7
TORSDOF 1
ENDMDL
