MODEL 1
REMARK minimizedAffinity -3.64081883
REMARK minimizedRMSD -1
REMARK  1 active torsions:
REMARK  status: ('A' for Active; 'I' for Inactive)
REMARK    1  A    between atoms: N_2  and  C1_3 
ROOT
ATOM      1  C1  UNL d   1      -0.926  -0.633  -0.892  0.00  0.00     0.143 A 
ATOM      2  C2  UNL d   1      -1.813  -1.619  -0.449  0.00  0.00    -0.057 A 
ATOM      3  C3  UNL d   1      -2.757  -2.188  -1.313  0.00  0.00     0.033 A 
ATOM      4  C4  UNL d   1      -2.849  -1.758  -2.632  0.00  0.00    -0.042 A 
ATOM      5  C5  UNL d   1      -1.994  -0.761  -3.088  0.00  0.00     0.033 A 
ATOM      6  C6  UNL d   1      -1.050  -0.201  -2.222  0.00  0.00    -0.057 A 
ENDROOT
BRANCH   1   7
ATOM      7  N   UNL d   1      -0.032   0.042  -0.056  0.00  0.00    -0.732 N 
ATOM      8  C   UNL d   1      -0.513   0.797   1.081  0.00  0.00     0.284 C 
ATOM      9  H3  UNL d   1       0.809  -0.500   0.130  0.00  0.00     0.395 HD
ENDBRANCH   1   7
TORSDOF 1
ENDMDL
