MODEL 1
REMARK minimizedAffinity -2.97399139
REMARK minimizedRMSD -1
REMARK  1 active torsions:
REMARK  status: ('A' for Active; 'I' for Inactive)
REMARK    1  A    between atoms: N_2  and  C1_3 
ROOT
ATOM      1  C1  UNL d   1       0.735  -0.246   0.416  0.00  0.00     0.143 A 
ATOM      2  C2  UNL d   1      -0.216  -0.569   1.390  0.00  0.00    -0.057 A 
ATOM      3  C3  UNL d   1      -0.895   0.428   2.100  0.00  0.00     0.033 A 
ATOM      4  C4  UNL d   1      -0.613   1.770   1.868  0.00  0.00    -0.042 A 
ATOM      5  C5  UNL d   1       0.346   2.114   0.922  0.00  0.00     0.033 A 
ATOM      6  C6  UNL d   1       1.016   1.113   0.211  0.00  0.00    -0.057 A 
ENDROOT
BRANCH   1   7
ATOM      7  N   UNL d   1       1.514  -1.193  -0.254  0.00  0.00    -0.732 N 
ATOM      8  C   UNL d   1       2.861  -0.873  -0.676  0.00  0.00     0.284 C 
ATOM      9  H3  UNL d   1       1.411  -2.127   0.136  0.00  0.00     0.395 HD
ENDBRANCH   1   7
TORSDOF 1
ENDMDL
