MODEL 1
REMARK minimizedAffinity 9.34630585
REMARK minimizedRMSD -1
REMARK  0 active torsions:
REMARK  status: ('A' for Active; 'I' for Inactive)
ROOT
ATOM      1  C   UNL d   1       5.450   1.310  -1.033  0.00  0.00     0.020 A 
ATOM      2  C1  UNL d   1       4.154   1.127  -1.513  0.00  0.00     0.020 A 
ATOM      3  C2  UNL d   1       3.407   0.021  -1.102  0.00  0.00     0.034 A 
ATOM      4  C3  UNL d   1       3.955  -0.906  -0.208  0.00  0.00     0.017 A 
ATOM      5  C4  UNL d   1       5.256  -0.721   0.274  0.00  0.00     0.017 A 
ATOM      6  C5  UNL d   1       6.000   0.387  -0.141  0.00  0.00     0.034 A 
ATOM      7 Cl   UNL d   1       6.000  -1.822   1.379  0.00  0.00    -0.070 Cl
ATOM      8 Cl1  UNL d   1       2.973  -2.250   0.258  0.00  0.00    -0.070 Cl
ENDROOT
TORSDOF 0
ENDMDL
