MODEL 1
REMARK minimizedAffinity 5.32808352
REMARK minimizedRMSD -1
REMARK  0 active torsions:
REMARK  status: ('A' for Active; 'I' for Inactive)
ROOT
ATOM      1  C   UNL d   1       2.423  -2.961  -1.350  0.00  0.00     0.020 A 
ATOM      2  C1  UNL d   1       1.336  -2.545  -0.583  0.00  0.00     0.020 A 
ATOM      3  C2  UNL d   1       1.295  -1.245  -0.076  0.00  0.00     0.034 A 
ATOM      4  C3  UNL d   1       2.344  -0.355  -0.335  0.00  0.00     0.017 A 
ATOM      5  C4  UNL d   1       3.436  -0.774  -1.105  0.00  0.00     0.017 A 
ATOM      6  C5  UNL d   1       3.471  -2.077  -1.611  0.00  0.00     0.034 A 
ATOM      7 Cl   UNL d   1       4.767   0.267  -1.468  0.00  0.00    -0.070 Cl
ATOM      8 Cl1  UNL d   1       2.228   1.238   0.323  0.00  0.00    -0.070 Cl
ENDROOT
TORSDOF 0
ENDMDL
