MODEL 1
REMARK minimizedAffinity 7.19253016
REMARK minimizedRMSD -1
REMARK  0 active torsions:
REMARK  status: ('A' for Active; 'I' for Inactive)
ROOT
ATOM      1  C   UNL d   1       4.513   0.796  -1.586  0.00  0.00     0.020 A 
ATOM      2  C1  UNL d   1       3.959   0.570  -0.326  0.00  0.00     0.020 A 
ATOM      3  C2  UNL d   1       3.336  -0.647  -0.045  0.00  0.00     0.034 A 
ATOM      4  C3  UNL d   1       3.263  -1.644  -1.025  0.00  0.00     0.017 A 
ATOM      5  C4  UNL d   1       3.819  -1.417  -2.289  0.00  0.00     0.017 A 
ATOM      6  C5  UNL d   1       4.443  -0.196  -2.565  0.00  0.00     0.034 A 
ATOM      7 Cl   UNL d   1       3.770  -2.599  -3.550  0.00  0.00    -0.070 Cl
ATOM      8 Cl1  UNL d   1       2.478  -3.125  -0.608  0.00  0.00    -0.070 Cl
ENDROOT
TORSDOF 0
ENDMDL
