MODEL 1
REMARK minimizedAffinity 12.7574434
REMARK minimizedRMSD -1
REMARK  0 active torsions:
REMARK  status: ('A' for Active; 'I' for Inactive)
ROOT
ATOM      1  C   UNL d   1       4.832  -2.286   1.130  0.00  0.00     0.020 A 
ATOM      2  C1  UNL d   1       5.996  -1.580   0.831  0.00  0.00     0.020 A 
ATOM      3  C2  UNL d   1       5.934  -0.439   0.027  0.00  0.00     0.034 A 
ATOM      4  C3  UNL d   1       4.705  -0.003  -0.481  0.00  0.00     0.017 A 
ATOM      5  C4  UNL d   1       3.537  -0.713  -0.180  0.00  0.00     0.017 A 
ATOM      6  C5  UNL d   1       3.605  -1.854   0.625  0.00  0.00     0.034 A 
ATOM      7 Cl   UNL d   1       1.984  -0.235  -0.770  0.00  0.00    -0.070 Cl
ATOM      8 Cl1  UNL d   1       4.702   1.416  -1.468  0.00  0.00    -0.070 Cl
ENDROOT
TORSDOF 0
ENDMDL
