MODEL 1
REMARK minimizedAffinity 17.3937645
REMARK minimizedRMSD -1
REMARK  0 active torsions:
REMARK  status: ('A' for Active; 'I' for Inactive)
ROOT
ATOM      1  C   UNL d   1      -2.001  -6.000  -4.842  0.00  0.00     0.020 A 
ATOM      2  C1  UNL d   1      -3.056  -5.120  -5.079  0.00  0.00     0.020 A 
ATOM      3  C2  UNL d   1      -3.378  -4.146  -4.131  0.00  0.00     0.034 A 
ATOM      4  C3  UNL d   1      -2.645  -4.049  -2.943  0.00  0.00     0.017 A 
ATOM      5  C4  UNL d   1      -1.586  -4.933  -2.706  0.00  0.00     0.017 A 
ATOM      6  C5  UNL d   1      -1.267  -5.907  -3.658  0.00  0.00     0.034 A 
ATOM      7 Cl   UNL d   1      -0.636  -4.876  -1.264  0.00  0.00    -0.070 Cl
ATOM      8 Cl1  UNL d   1      -3.099  -2.820  -1.817  0.00  0.00    -0.070 Cl
ENDROOT
TORSDOF 0
ENDMDL
