MODEL 1
REMARK minimizedAffinity 2.02380991
REMARK minimizedRMSD -1
REMARK  0 active torsions:
REMARK  status: ('A' for Active; 'I' for Inactive)
ROOT
ATOM      1  C   UNL d   1       5.427   1.187  -0.588  0.00  0.00     0.020 A 
ATOM      2  C1  UNL d   1       4.175   0.987  -1.169  0.00  0.00     0.020 A 
ATOM      3  C2  UNL d   1       3.466  -0.188  -0.912  0.00  0.00     0.034 A 
ATOM      4  C3  UNL d   1       4.008  -1.168  -0.072  0.00  0.00     0.017 A 
ATOM      5  C4  UNL d   1       5.264  -0.966   0.511  0.00  0.00     0.017 A 
ATOM      6  C5  UNL d   1       5.970   0.213   0.250  0.00  0.00     0.034 A 
ATOM      7 Cl   UNL d   1       5.998  -2.129   1.558  0.00  0.00    -0.070 Cl
ATOM      8 Cl1  UNL d   1       3.075  -2.597   0.202  0.00  0.00    -0.070 Cl
ENDROOT
TORSDOF 0
ENDMDL
