MODEL 1
REMARK minimizedAffinity 6.71261024
REMARK minimizedRMSD -1
REMARK  0 active torsions:
REMARK  status: ('A' for Active; 'I' for Inactive)
ROOT
ATOM      1  C   UNL d   1       4.935  -1.624   0.658  0.00  0.00     0.020 A 
ATOM      2  C1  UNL d   1       5.997  -0.755   0.411  0.00  0.00     0.020 A 
ATOM      3  C2  UNL d   1       5.762   0.479  -0.199  0.00  0.00     0.034 A 
ATOM      4  C3  UNL d   1       4.462   0.847  -0.566  0.00  0.00     0.017 A 
ATOM      5  C4  UNL d   1       3.397  -0.026  -0.318  0.00  0.00     0.017 A 
ATOM      6  C5  UNL d   1       3.638  -1.260   0.294  0.00  0.00     0.034 A 
ATOM      7 Cl   UNL d   1       1.766   0.358  -0.741  0.00  0.00    -0.070 Cl
ATOM      8 Cl1  UNL d   1       4.245   2.388  -1.316  0.00  0.00    -0.070 Cl
ENDROOT
TORSDOF 0
ENDMDL
