MODEL 1
REMARK minimizedAffinity 8.87524605
REMARK minimizedRMSD -1
REMARK  0 active torsions:
REMARK  status: ('A' for Active; 'I' for Inactive)
ROOT
ATOM      1  C   UNL d   1       6.000   0.551  -0.707  0.00  0.00     0.020 A 
ATOM      2  C1  UNL d   1       5.252   1.711  -0.908  0.00  0.00     0.020 A 
ATOM      3  C2  UNL d   1       3.857   1.656  -0.880  0.00  0.00     0.034 A 
ATOM      4  C3  UNL d   1       3.205   0.439  -0.650  0.00  0.00     0.017 A 
ATOM      5  C4  UNL d   1       3.956  -0.725  -0.449  0.00  0.00     0.017 A 
ATOM      6  C5  UNL d   1       5.353  -0.664  -0.479  0.00  0.00     0.034 A 
ATOM      7 Cl   UNL d   1       3.223  -2.263  -0.161  0.00  0.00    -0.070 Cl
ATOM      8 Cl1  UNL d   1       1.477   0.445  -0.628  0.00  0.00    -0.070 Cl
ENDROOT
TORSDOF 0
ENDMDL
