MODEL 1
REMARK minimizedAffinity 8.74209404
REMARK minimizedRMSD -1
REMARK  0 active torsions:
REMARK  status: ('A' for Active; 'I' for Inactive)
ROOT
ATOM      1  C   UNL d   1       5.971   5.499  -1.844  0.00  0.00     0.020 A 
ATOM      2  C1  UNL d   1       5.999   5.802  -0.483  0.00  0.00     0.020 A 
ATOM      3  C2  UNL d   1       5.827   4.789   0.462  0.00  0.00     0.034 A 
ATOM      4  C3  UNL d   1       5.626   3.467   0.048  0.00  0.00     0.017 A 
ATOM      5  C4  UNL d   1       5.599   3.163  -1.318  0.00  0.00     0.017 A 
ATOM      6  C5  UNL d   1       5.772   4.182  -2.260  0.00  0.00     0.034 A 
ATOM      7 Cl   UNL d   1       5.356   1.556  -1.905  0.00  0.00    -0.070 Cl
ATOM      8 Cl1  UNL d   1       5.421   2.264   1.271  0.00  0.00    -0.070 Cl
ENDROOT
TORSDOF 0
ENDMDL
