MODEL 1
REMARK minimizedAffinity -1.91298616
REMARK minimizedRMSD -1
REMARK  1 active torsions:
REMARK  status: ('A' for Active; 'I' for Inactive)
REMARK    1  A    between atoms: C1_2  and  C2_3 
ROOT
ATOM      1  C2  UNL d   1       5.994   1.083   3.523  0.00  0.00    -0.081 A 
ATOM      2  C3  UNL d   1       5.999   1.571   4.836  0.00  0.00     0.006 A 
ATOM      3  C4  UNL d   1       6.000   2.946   5.080  0.00  0.00     0.002 A 
ATOM      4  C5  UNL d   1       5.987   3.856   4.018  0.00  0.00    -0.080 A 
ATOM      5  C6  UNL d   1       5.957   5.335   4.266  0.00  0.00     0.076 C 
ATOM      6  C7  UNL d   1       5.999   3.369   2.706  0.00  0.00     0.002 A 
ATOM      7  C8  UNL d   1       6.000   1.994   2.461  0.00  0.00     0.006 A 
ENDROOT
BRANCH   1   8
ATOM      8  C1  UNL d   1       5.928  -0.399   3.257  0.00  0.00     0.054 C 
ATOM      9  C   UNL d   1       5.249  -0.692   1.927  0.00  0.00     0.018 C 
ENDBRANCH   1   8
TORSDOF 1
ENDMDL
