MODEL 1
REMARK minimizedAffinity 1.71063983
REMARK minimizedRMSD -1
REMARK  1 active torsions:
REMARK  status: ('A' for Active; 'I' for Inactive)
REMARK    1  A    between atoms: C1_2  and  C2_3 
ROOT
ATOM      1  C2  UNL d   1       4.451   2.544  -3.395  0.00  0.00    -0.081 A 
ATOM      2  C3  UNL d   1       4.359   3.678  -2.580  0.00  0.00     0.006 A 
ATOM      3  C4  UNL d   1       4.178   3.547  -1.201  0.00  0.00     0.002 A 
ATOM      4  C5  UNL d   1       4.094   2.280  -0.614  0.00  0.00    -0.080 A 
ATOM      5  C6  UNL d   1       3.930   2.125   0.869  0.00  0.00     0.076 C 
ATOM      6  C7  UNL d   1       4.168   1.146  -1.431  0.00  0.00     0.002 A 
ATOM      7  C8  UNL d   1       4.349   1.277  -2.809  0.00  0.00     0.006 A 
ENDROOT
BRANCH   1   8
ATOM      8  C1  UNL d   1       4.711   2.681  -4.874  0.00  0.00     0.054 C 
ATOM      9  C   UNL d   1       5.998   1.976  -5.277  0.00  0.00     0.018 C 
ENDBRANCH   1   8
TORSDOF 1
ENDMDL
