MODEL 1
REMARK minimizedAffinity -3.51243663
REMARK minimizedRMSD -1
REMARK  1 active torsions:
REMARK  status: ('A' for Active; 'I' for Inactive)
REMARK    1  A    between atoms: C1_2  and  C2_3 
ROOT
ATOM      1  C2  UNL d   1       5.738   2.635   3.336  0.00  0.00    -0.081 A 
ATOM      2  C3  UNL d   1       5.932   2.249   4.668  0.00  0.00     0.006 A 
ATOM      3  C4  UNL d   1       5.766   0.916   5.050  0.00  0.00     0.002 A 
ATOM      4  C5  UNL d   1       5.410  -0.054   4.107  0.00  0.00    -0.080 A 
ATOM      5  C6  UNL d   1       5.258  -1.493   4.499  0.00  0.00     0.076 C 
ATOM      6  C7  UNL d   1       5.199   0.334   2.780  0.00  0.00     0.002 A 
ATOM      7  C8  UNL d   1       5.364   1.667   2.397  0.00  0.00     0.006 A 
ENDROOT
BRANCH   1   8
ATOM      8  C1  UNL d   1       5.979   4.060   2.907  0.00  0.00     0.054 C 
ATOM      9  C   UNL d   1       5.993   5.002   4.102  0.00  0.00     0.018 C 
ENDBRANCH   1   8
TORSDOF 1
ENDMDL
