MODEL 1
REMARK minimizedAffinity -0.145768166
REMARK minimizedRMSD -1
REMARK  1 active torsions:
REMARK  status: ('A' for Active; 'I' for Inactive)
REMARK    1  A    between atoms: C1_2  and  C2_3 
ROOT
ATOM      1  C2  UNL d   1       5.898   0.480   4.061  0.00  0.00    -0.081 A 
ATOM      2  C3  UNL d   1       5.888   0.832   2.706  0.00  0.00     0.006 A 
ATOM      3  C4  UNL d   1       5.905   2.175   2.323  0.00  0.00     0.002 A 
ATOM      4  C5  UNL d   1       5.942   3.188   3.288  0.00  0.00    -0.080 A 
ATOM      5  C6  UNL d   1       5.992   4.633   2.890  0.00  0.00     0.076 C 
ATOM      6  C7  UNL d   1       5.934   2.836   4.642  0.00  0.00     0.002 A 
ATOM      7  C8  UNL d   1       5.916   1.493   5.025  0.00  0.00     0.006 A 
ENDROOT
BRANCH   1   8
ATOM      8  C1  UNL d   1       5.944  -0.969   4.476  0.00  0.00     0.054 C 
ATOM      9  C   UNL d   1       5.998  -1.109   5.991  0.00  0.00     0.018 C 
ENDBRANCH   1   8
TORSDOF 1
ENDMDL
