MODEL 1
REMARK minimizedAffinity -1.73479593
REMARK minimizedRMSD -1
REMARK  1 active torsions:
REMARK  status: ('A' for Active; 'I' for Inactive)
REMARK    1  A    between atoms: C1_2  and  C2_3 
ROOT
ATOM      1  C2  UNL d   1       4.881   1.785   4.035  0.00  0.00    -0.081 A 
ATOM      2  C3  UNL d   1       5.648   2.048   2.893  0.00  0.00     0.006 A 
ATOM      3  C4  UNL d   1       6.000   3.358   2.562  0.00  0.00     0.002 A 
ATOM      4  C5  UNL d   1       5.599   4.427   3.371  0.00  0.00    -0.080 A 
ATOM      5  C6  UNL d   1       5.997   5.836   3.044  0.00  0.00     0.076 C 
ATOM      6  C7  UNL d   1       4.819   4.166   4.503  0.00  0.00     0.002 A 
ATOM      7  C8  UNL d   1       4.466   2.856   4.834  0.00  0.00     0.006 A 
ENDROOT
BRANCH   1   8
ATOM      8  C1  UNL d   1       4.554   0.368   4.430  0.00  0.00     0.054 C 
ATOM      9  C   UNL d   1       5.802  -0.504   4.443  0.00  0.00     0.018 C 
ENDBRANCH   1   8
TORSDOF 1
ENDMDL
