MODEL 1
REMARK minimizedAffinity -1.9480747
REMARK minimizedRMSD -1
REMARK  1 active torsions:
REMARK  status: ('A' for Active; 'I' for Inactive)
REMARK    1  A    between atoms: C1_2  and  C2_3 
ROOT
ATOM      1  C2  UNL d   1       5.938   0.322   4.582  0.00  0.00    -0.081 A 
ATOM      2  C3  UNL d   1       5.907   0.303   3.182  0.00  0.00     0.006 A 
ATOM      3  C4  UNL d   1       5.913   1.496   2.457  0.00  0.00     0.002 A 
ATOM      4  C5  UNL d   1       5.957   2.729   3.118  0.00  0.00    -0.080 A 
ATOM      5  C6  UNL d   1       5.994   4.017   2.351  0.00  0.00     0.076 C 
ATOM      6  C7  UNL d   1       5.970   2.749   4.517  0.00  0.00     0.002 A 
ATOM      7  C8  UNL d   1       5.963   1.555   5.242  0.00  0.00     0.006 A 
ENDROOT
BRANCH   1   8
ATOM      8  C1  UNL d   1       5.997  -0.964   5.365  0.00  0.00     0.054 C 
ATOM      9  C   UNL d   1       5.765  -2.170   4.467  0.00  0.00     0.018 C 
ENDBRANCH   1   8
TORSDOF 1
ENDMDL
