MODEL 1
REMARK minimizedAffinity -0.586129069
REMARK minimizedRMSD -1
REMARK  1 active torsions:
REMARK  status: ('A' for Active; 'I' for Inactive)
REMARK    1  A    between atoms: C1_2  and  C2_3 
ROOT
ATOM      1  C2  UNL d   1       5.995   2.803   3.295  0.00  0.00    -0.081 A 
ATOM      2  C3  UNL d   1       6.000   1.694   2.440  0.00  0.00     0.006 A 
ATOM      3  C4  UNL d   1       5.999   0.398   2.961  0.00  0.00     0.002 A 
ATOM      4  C5  UNL d   1       5.985   0.189   4.344  0.00  0.00    -0.080 A 
ATOM      5  C6  UNL d   1       5.953  -1.197   4.916  0.00  0.00     0.076 C 
ATOM      6  C7  UNL d   1       5.998   1.297   5.199  0.00  0.00     0.002 A 
ATOM      7  C8  UNL d   1       5.999   2.593   4.678  0.00  0.00     0.006 A 
ENDROOT
BRANCH   1   8
ATOM      8  C1  UNL d   1       5.930   4.202   2.736  0.00  0.00     0.054 C 
ATOM      9  C   UNL d   1       5.999   4.194   1.216  0.00  0.00     0.018 C 
ENDBRANCH   1   8
TORSDOF 1
ENDMDL
