MODEL 1
REMARK minimizedAffinity 1.31672764
REMARK minimizedRMSD -1
REMARK  1 active torsions:
REMARK  status: ('A' for Active; 'I' for Inactive)
REMARK    1  A    between atoms: C1_2  and  C2_3 
ROOT
ATOM      1  C2  UNL d   1       5.996   1.646   3.453  0.00  0.00    -0.081 A 
ATOM      2  C3  UNL d   1       5.999   2.359   4.658  0.00  0.00     0.006 A 
ATOM      3  C4  UNL d   1       5.996   3.756   4.654  0.00  0.00     0.002 A 
ATOM      4  C5  UNL d   1       5.982   4.463   3.447  0.00  0.00    -0.080 A 
ATOM      5  C6  UNL d   1       5.948   5.962   3.430  0.00  0.00     0.076 C 
ATOM      6  C7  UNL d   1       5.996   3.751   2.243  0.00  0.00     0.002 A 
ATOM      7  C8  UNL d   1       6.000   2.354   2.246  0.00  0.00     0.006 A 
ENDROOT
BRANCH   1   8
ATOM      8  C1  UNL d   1       5.934   0.140   3.453  0.00  0.00     0.054 C 
ATOM      9  C   UNL d   1       5.891  -0.411   4.871  0.00  0.00     0.018 C 
ENDBRANCH   1   8
TORSDOF 1
ENDMDL
