MODEL 1
REMARK minimizedAffinity -3.47544575
REMARK minimizedRMSD -1
REMARK  1 active torsions:
REMARK  status: ('A' for Active; 'I' for Inactive)
REMARK    1  A    between atoms: C1_2  and  C2_3 
ROOT
ATOM      1  C2  UNL d   1       5.698  -0.211   4.553  0.00  0.00    -0.081 A 
ATOM      2  C3  UNL d   1       5.633   0.584   5.704  0.00  0.00     0.006 A 
ATOM      3  C4  UNL d   1       5.742   1.974   5.612  0.00  0.00     0.002 A 
ATOM      4  C5  UNL d   1       5.911   2.592   4.369  0.00  0.00    -0.080 A 
ATOM      5  C6  UNL d   1       6.000   4.084   4.253  0.00  0.00     0.076 C 
ATOM      6  C7  UNL d   1       5.994   1.797   3.221  0.00  0.00     0.002 A 
ATOM      7  C8  UNL d   1       5.885   0.407   3.312  0.00  0.00     0.006 A 
ENDROOT
BRANCH   1   8
ATOM      8  C1  UNL d   1       5.516  -1.704   4.641  0.00  0.00     0.054 C 
ATOM      9  C   UNL d   1       5.956  -2.236   5.998  0.00  0.00     0.018 C 
ENDBRANCH   1   8
TORSDOF 1
ENDMDL
