MODEL 1
REMARK minimizedAffinity -0.710420668
REMARK minimizedRMSD -1
REMARK  1 active torsions:
REMARK  status: ('A' for Active; 'I' for Inactive)
REMARK    1  A    between atoms: C1_2  and  C2_3 
ROOT
ATOM      1  C2  UNL d   1       5.978   0.001   4.895  0.00  0.00    -0.081 A 
ATOM      2  C3  UNL d   1       5.988   1.004   5.872  0.00  0.00     0.006 A 
ATOM      3  C4  UNL d   1       5.999   2.352   5.504  0.00  0.00     0.002 A 
ATOM      4  C5  UNL d   1       5.991   2.719   4.154  0.00  0.00    -0.080 A 
ATOM      5  C6  UNL d   1       5.971   4.162   3.745  0.00  0.00     0.076 C 
ATOM      6  C7  UNL d   1       5.999   1.717   3.178  0.00  0.00     0.002 A 
ATOM      7  C8  UNL d   1       5.989   0.369   3.545  0.00  0.00     0.006 A 
ENDROOT
BRANCH   1   8
ATOM      8  C1  UNL d   1       5.902  -1.452   5.289  0.00  0.00     0.054 C 
ATOM      9  C   UNL d   1       5.283  -2.293   4.182  0.00  0.00     0.018 C 
ENDBRANCH   1   8
TORSDOF 1
ENDMDL
