MODEL 1
REMARK minimizedAffinity -2.3147018
REMARK minimizedRMSD -1
REMARK  1 active torsions:
REMARK  status: ('A' for Active; 'I' for Inactive)
REMARK    1  A    between atoms: C1_2  and  C2_3 
ROOT
ATOM      1  C2  UNL d   1       5.903  -0.056   4.868  0.00  0.00    -0.081 A 
ATOM      2  C3  UNL d   1       5.983  -0.039   3.470  0.00  0.00     0.006 A 
ATOM      3  C4  UNL d   1       6.000   1.174   2.777  0.00  0.00     0.002 A 
ATOM      4  C5  UNL d   1       5.945   2.388   3.469  0.00  0.00    -0.080 A 
ATOM      5  C6  UNL d   1       5.993   3.697   2.739  0.00  0.00     0.076 C 
ATOM      6  C7  UNL d   1       5.848   2.371   4.865  0.00  0.00     0.002 A 
ATOM      7  C8  UNL d   1       5.830   1.159   5.559  0.00  0.00     0.006 A 
ENDROOT
BRANCH   1   8
ATOM      8  C1  UNL d   1       5.950  -1.360   5.622  0.00  0.00     0.054 C 
ATOM      9  C   UNL d   1       5.986  -2.548   4.672  0.00  0.00     0.018 C 
ENDBRANCH   1   8
TORSDOF 1
ENDMDL
