MODEL 1
REMARK minimizedAffinity -2.46353388
REMARK minimizedRMSD -1
REMARK  1 active torsions:
REMARK  status: ('A' for Active; 'I' for Inactive)
REMARK    1  A    between atoms: C1_2  and  C2_3 
ROOT
ATOM      1  C2  UNL d   1       5.924   2.466   4.288  0.00  0.00    -0.081 A 
ATOM      2  C3  UNL d   1       5.842   2.051   5.622  0.00  0.00     0.006 A 
ATOM      3  C4  UNL d   1       5.842   0.691   5.942  0.00  0.00     0.002 A 
ATOM      4  C5  UNL d   1       5.934  -0.275   4.934  0.00  0.00    -0.080 A 
ATOM      5  C6  UNL d   1       5.966  -1.738   5.266  0.00  0.00     0.076 C 
ATOM      6  C7  UNL d   1       5.998   0.139   3.600  0.00  0.00     0.002 A 
ATOM      7  C8  UNL d   1       5.997   1.499   3.280  0.00  0.00     0.006 A 
ENDROOT
BRANCH   1   8
ATOM      8  C1  UNL d   1       5.989   3.932   3.944  0.00  0.00     0.054 C 
ATOM      9  C   UNL d   1       5.969   4.149   2.438  0.00  0.00     0.018 C 
ENDBRANCH   1   8
TORSDOF 1
ENDMDL
