MODEL 1
REMARK minimizedAffinity 0.0964947343
REMARK minimizedRMSD -1
REMARK  1 active torsions:
REMARK  status: ('A' for Active; 'I' for Inactive)
REMARK    1  A    between atoms: N_2  and  C1_3 
ROOT
ATOM      1  C1  UNL d   1       1.210  -1.620   0.555  0.00  0.00     0.143 A 
ATOM      2  C2  UNL d   1       1.493  -0.736   1.602  0.00  0.00    -0.057 A 
ATOM      3  C3  UNL d   1       0.517   0.132   2.104  0.00  0.00     0.033 A 
ATOM      4  C4  UNL d   1      -0.757   0.153   1.546  0.00  0.00    -0.042 A 
ATOM      5  C5  UNL d   1      -1.054  -0.699   0.488  0.00  0.00     0.033 A 
ATOM      6  C6  UNL d   1      -0.077  -1.569  -0.004  0.00  0.00    -0.057 A 
ENDROOT
BRANCH   1   7
ATOM      7  N   UNL d   1       2.165  -2.438  -0.052  0.00  0.00    -0.732 N 
ATOM      8  C   UNL d   1       2.232  -3.850   0.259  0.00  0.00     0.284 C 
ATOM      9  H3  UNL d   1       2.289  -2.223  -1.039  0.00  0.00     0.395 HD
ENDBRANCH   1   7
TORSDOF 1
ENDMDL
