MODEL 1
REMARK minimizedAffinity 0.357623965
REMARK minimizedRMSD -1
REMARK  1 active torsions:
REMARK  status: ('A' for Active; 'I' for Inactive)
REMARK    1  A    between atoms: N_2  and  C1_3 
ROOT
ATOM      1  C1  UNL d   1      -0.190  -1.171   0.972  0.00  0.00     0.143 A 
ATOM      2  C2  UNL d   1       0.215  -2.189   1.842  0.00  0.00    -0.057 A 
ATOM      3  C3  UNL d   1       1.303  -3.015   1.535  0.00  0.00     0.033 A 
ATOM      4  C4  UNL d   1       1.989  -2.856   0.336  0.00  0.00    -0.042 A 
ATOM      5  C5  UNL d   1       1.589  -1.866  -0.555  0.00  0.00     0.033 A 
ATOM      6  C6  UNL d   1       0.506  -1.040  -0.240  0.00  0.00    -0.057 A 
ENDROOT
BRANCH   1   7
ATOM      7  N   UNL d   1      -1.324  -0.381   1.174  0.00  0.00    -0.732 N 
ATOM      8  C   UNL d   1      -2.265  -0.153   0.099  0.00  0.00     0.284 C 
ATOM      9  H3  UNL d   1      -1.759  -0.550   2.079  0.00  0.00     0.395 HD
ENDBRANCH   1   7
TORSDOF 1
ENDMDL
