MODEL 1
REMARK minimizedAffinity 6.88356304
REMARK minimizedRMSD -1
REMARK  1 active torsions:
REMARK  status: ('A' for Active; 'I' for Inactive)
REMARK    1  A    between atoms: N_2  and  C1_3 
ROOT
ATOM      1  C1  UNL d   1       1.342  -1.802   0.519  0.00  0.00     0.143 A 
ATOM      2  C2  UNL d   1       1.860  -0.571   0.934  0.00  0.00    -0.057 A 
ATOM      3  C3  UNL d   1       1.118   0.289   1.753  0.00  0.00     0.033 A 
ATOM      4  C4  UNL d   1      -0.170  -0.056   2.149  0.00  0.00    -0.042 A 
ATOM      5  C5  UNL d   1      -0.714  -1.264   1.727  0.00  0.00     0.033 A 
ATOM      6  C6  UNL d   1       0.034  -2.121   0.915  0.00  0.00    -0.057 A 
ENDROOT
BRANCH   1   7
ATOM      7  N   UNL d   1       1.991  -2.657  -0.376  0.00  0.00    -0.732 N 
ATOM      8  C   UNL d   1       2.466  -3.954   0.056  0.00  0.00     0.284 C 
ATOM      9  H3  UNL d   1       1.557  -2.658  -1.296  0.00  0.00     0.395 HD
ENDBRANCH   1   7
TORSDOF 1
ENDMDL
