MODEL 1
REMARK minimizedAffinity 0.46657753
REMARK minimizedRMSD -1
REMARK  1 active torsions:
REMARK  status: ('A' for Active; 'I' for Inactive)
REMARK    1  A    between atoms: N_2  and  C1_3 
ROOT
ATOM      1  C1  UNL d   1       1.623  -3.018   0.552  0.00  0.00     0.143 A 
ATOM      2  C2  UNL d   1       1.548  -1.930  -0.324  0.00  0.00    -0.057 A 
ATOM      3  C3  UNL d   1       0.722  -0.833  -0.051  0.00  0.00     0.033 A 
ATOM      4  C4  UNL d   1      -0.069  -0.819   1.094  0.00  0.00    -0.042 A 
ATOM      5  C5  UNL d   1      -0.029  -1.901   1.966  0.00  0.00     0.033 A 
ATOM      6  C6  UNL d   1       0.803  -2.990   1.691  0.00  0.00    -0.057 A 
ENDROOT
BRANCH   1   7
ATOM      7  N   UNL d   1       2.351  -4.181   0.287  0.00  0.00    -0.732 N 
ATOM      8  C   UNL d   1       2.143  -5.376   1.076  0.00  0.00     0.284 C 
ATOM      9  H3  UNL d   1       2.456  -4.354  -0.710  0.00  0.00     0.395 HD
ENDBRANCH   1   7
TORSDOF 1
ENDMDL
