MODEL 1
REMARK minimizedAffinity -5.27118635
REMARK minimizedRMSD -1
REMARK  1 active torsions:
REMARK  status: ('A' for Active; 'I' for Inactive)
REMARK    1  A    between atoms: N_2  and  C1_3 
ROOT
ATOM      1  C1  UNL d   1       1.728  -3.385   1.205  0.00  0.00     0.143 A 
ATOM      2  C2  UNL d   1       0.746  -2.717   1.945  0.00  0.00    -0.057 A 
ATOM      3  C3  UNL d   1       0.280  -1.454   1.560  0.00  0.00     0.033 A 
ATOM      4  C4  UNL d   1       0.811  -0.822   0.440  0.00  0.00    -0.042 A 
ATOM      5  C5  UNL d   1       1.806  -1.456  -0.296  0.00  0.00     0.033 A 
ATOM      6  C6  UNL d   1       2.262  -2.720   0.090  0.00  0.00    -0.057 A 
ENDROOT
BRANCH   1   7
ATOM      7  N   UNL d   1       2.303  -4.598   1.591  0.00  0.00    -0.732 N 
ATOM      8  C   UNL d   1       3.490  -4.621   2.419  0.00  0.00     0.284 C 
ATOM      9  H3  UNL d   1       1.606  -5.295   1.844  0.00  0.00     0.395 HD
ENDBRANCH   1   7
TORSDOF 1
ENDMDL
