MODEL 1
REMARK minimizedAffinity 4.66579485
REMARK minimizedRMSD -1
REMARK  1 active torsions:
REMARK  status: ('A' for Active; 'I' for Inactive)
REMARK    1  A    between atoms: N_2  and  C1_3 
ROOT
ATOM      1  C1  UNL d   1       1.446  -2.449   0.350  0.00  0.00     0.143 A 
ATOM      2  C2  UNL d   1       0.637  -2.999   1.349  0.00  0.00    -0.057 A 
ATOM      3  C3  UNL d   1      -0.156  -2.189   2.170  0.00  0.00     0.033 A 
ATOM      4  C4  UNL d   1      -0.131  -0.806   2.025  0.00  0.00    -0.042 A 
ATOM      5  C5  UNL d   1       0.685  -0.234   1.054  0.00  0.00     0.033 A 
ATOM      6  C6  UNL d   1       1.469  -1.050   0.233  0.00  0.00    -0.057 A 
ENDROOT
BRANCH   1   7
ATOM      7  N   UNL d   1       2.332  -3.194  -0.433  0.00  0.00    -0.732 N 
ATOM      8  C   UNL d   1       2.954  -4.389   0.094  0.00  0.00     0.284 C 
ATOM      9  H3  UNL d   1       2.021  -3.278  -1.398  0.00  0.00     0.395 HD
ENDBRANCH   1   7
TORSDOF 1
ENDMDL
