MODEL 1
REMARK minimizedAffinity -2.07198429
REMARK minimizedRMSD -1
REMARK  1 active torsions:
REMARK  status: ('A' for Active; 'I' for Inactive)
REMARK    1  A    between atoms: N_2  and  C1_3 
ROOT
ATOM      1  C1  UNL d   1       1.747  -3.495   0.751  0.00  0.00     0.143 A 
ATOM      2  C2  UNL d   1       0.666  -3.747   1.604  0.00  0.00    -0.057 A 
ATOM      3  C3  UNL d   1      -0.172  -2.714   2.039  0.00  0.00     0.033 A 
ATOM      4  C4  UNL d   1       0.073  -1.401   1.651  0.00  0.00    -0.042 A 
ATOM      5  C5  UNL d   1       1.156  -1.123   0.824  0.00  0.00     0.033 A 
ATOM      6  C6  UNL d   1       1.986  -2.160   0.387  0.00  0.00    -0.057 A 
ENDROOT
BRANCH   1   7
ATOM      7  N   UNL d   1       2.675  -4.464   0.363  0.00  0.00    -0.732 N 
ATOM      8  C   UNL d   1       4.094  -4.190   0.420  0.00  0.00     0.284 C 
ATOM      9  H3  UNL d   1       2.418  -5.396   0.681  0.00  0.00     0.395 HD
ENDBRANCH   1   7
TORSDOF 1
ENDMDL
