MODEL 1
REMARK minimizedAffinity 5.18059444
REMARK minimizedRMSD -1
REMARK  1 active torsions:
REMARK  status: ('A' for Active; 'I' for Inactive)
REMARK    1  A    between atoms: N_2  and  C1_3 
ROOT
ATOM      1  C1  UNL d   1       0.484  -1.649   0.354  0.00  0.00     0.143 A 
ATOM      2  C2  UNL d   1       0.769  -0.757   1.394  0.00  0.00    -0.057 A 
ATOM      3  C3  UNL d   1      -0.195   0.146   1.860  0.00  0.00     0.033 A 
ATOM      4  C4  UNL d   1      -1.455   0.192   1.273  0.00  0.00    -0.042 A 
ATOM      5  C5  UNL d   1      -1.752  -0.668   0.222  0.00  0.00     0.033 A 
ATOM      6  C6  UNL d   1      -0.788  -1.572  -0.235  0.00  0.00    -0.057 A 
ENDROOT
BRANCH   1   7
ATOM      7  N   UNL d   1       1.430  -2.502  -0.220  0.00  0.00    -0.732 N 
ATOM      8  C   UNL d   1       1.920  -3.654   0.506  0.00  0.00     0.284 C 
ATOM      9  H3  UNL d   1       1.248  -2.677  -1.205  0.00  0.00     0.395 HD
ENDBRANCH   1   7
TORSDOF 1
ENDMDL
