MODEL 1
REMARK minimizedAffinity -3.23364902
REMARK minimizedRMSD -1
REMARK  1 active torsions:
REMARK  status: ('A' for Active; 'I' for Inactive)
REMARK    1  A    between atoms: N_2  and  C1_3 
ROOT
ATOM      1  C1  UNL d   1       0.685  -2.031   1.207  0.00  0.00     0.143 A 
ATOM      2  C2  UNL d   1       1.248  -1.405   0.090  0.00  0.00    -0.057 A 
ATOM      3  C3  UNL d   1       2.177  -2.068  -0.722  0.00  0.00     0.033 A 
ATOM      4  C4  UNL d   1       2.582  -3.362  -0.412  0.00  0.00    -0.042 A 
ATOM      5  C5  UNL d   1       2.054  -3.994   0.708  0.00  0.00     0.033 A 
ATOM      6  C6  UNL d   1       1.122  -3.330   1.511  0.00  0.00    -0.057 A 
ENDROOT
BRANCH   1   7
ATOM      7  N   UNL d   1      -0.169  -1.390   2.109  0.00  0.00    -0.732 N 
ATOM      8  C   UNL d   1      -0.799  -0.134   1.762  0.00  0.00     0.284 C 
ATOM      9  H3  UNL d   1      -0.781  -2.042   2.594  0.00  0.00     0.395 HD
ENDBRANCH   1   7
TORSDOF 1
ENDMDL
