MODEL 1
REMARK minimizedAffinity 0.971853077
REMARK minimizedRMSD -1
REMARK  1 active torsions:
REMARK  status: ('A' for Active; 'I' for Inactive)
REMARK    1  A    between atoms: N_2  and  C1_3 
ROOT
ATOM      1  C1  UNL d   1       0.704  -1.896   1.478  0.00  0.00     0.143 A 
ATOM      2  C2  UNL d   1       1.314  -3.120   1.773  0.00  0.00    -0.057 A 
ATOM      3  C3  UNL d   1       2.290  -3.667   0.931  0.00  0.00     0.033 A 
ATOM      4  C4  UNL d   1       2.654  -3.010  -0.239  0.00  0.00    -0.042 A 
ATOM      5  C5  UNL d   1       2.043  -1.804  -0.565  0.00  0.00     0.033 A 
ATOM      6  C6  UNL d   1       1.074  -1.260   0.283  0.00  0.00    -0.057 A 
ENDROOT
BRANCH   1   7
ATOM      7  N   UNL d   1      -0.343  -1.349   2.224  0.00  0.00    -0.732 N 
ATOM      8  C   UNL d   1      -1.219  -0.353   1.644  0.00  0.00     0.284 C 
ATOM      9  H3  UNL d   1      -0.822  -2.045   2.790  0.00  0.00     0.395 HD
ENDBRANCH   1   7
TORSDOF 1
ENDMDL
