MODEL 1
REMARK minimizedAffinity 6.77587795
REMARK minimizedRMSD -1
REMARK  1 active torsions:
REMARK  status: ('A' for Active; 'I' for Inactive)
REMARK    1  A    between atoms: N_2  and  C1_3 
ROOT
ATOM      1  C1  UNL d   1       1.521  -2.240   0.660  0.00  0.00     0.143 A 
ATOM      2  C2  UNL d   1       1.916  -1.012   1.202  0.00  0.00    -0.057 A 
ATOM      3  C3  UNL d   1       1.015  -0.207   1.909  0.00  0.00     0.033 A 
ATOM      4  C4  UNL d   1      -0.310  -0.603   2.061  0.00  0.00    -0.042 A 
ATOM      5  C5  UNL d   1      -0.731  -1.808   1.510  0.00  0.00     0.033 A 
ATOM      6  C6  UNL d   1       0.175  -2.611   0.811  0.00  0.00    -0.057 A 
ENDROOT
BRANCH   1   7
ATOM      7  N   UNL d   1       2.343  -3.039  -0.137  0.00  0.00    -0.732 N 
ATOM      8  C   UNL d   1       2.985  -4.214   0.412  0.00  0.00     0.284 C 
ATOM      9  H3  UNL d   1       1.968  -3.170  -1.074  0.00  0.00     0.395 HD
ENDBRANCH   1   7
TORSDOF 1
ENDMDL
