MODEL 1
REMARK minimizedAffinity 0.920361638
REMARK minimizedRMSD -1
REMARK  1 active torsions:
REMARK  status: ('A' for Active; 'I' for Inactive)
REMARK    1  A    between atoms: N_2  and  C1_3 
ROOT
ATOM      1  C1  UNL d   1       1.599  -3.022   1.397  0.00  0.00     0.143 A 
ATOM      2  C2  UNL d   1       0.617  -2.739   2.353  0.00  0.00    -0.057 A 
ATOM      3  C3  UNL d   1      -0.310  -1.708   2.159  0.00  0.00     0.033 A 
ATOM      4  C4  UNL d   1      -0.252  -0.920   1.014  0.00  0.00    -0.042 A 
ATOM      5  C5  UNL d   1       0.731  -1.167   0.062  0.00  0.00     0.033 A 
ATOM      6  C6  UNL d   1       1.649  -2.202   0.259  0.00  0.00    -0.057 A 
ENDROOT
BRANCH   1   7
ATOM      7  N   UNL d   1       2.609  -3.970   1.578  0.00  0.00    -0.732 N 
ATOM      8  C   UNL d   1       3.675  -4.105   0.607  0.00  0.00     0.284 C 
ATOM      9  H3  UNL d   1       2.918  -4.029   2.545  0.00  0.00     0.395 HD
ENDBRANCH   1   7
TORSDOF 1
ENDMDL
