MODEL 1
REMARK minimizedAffinity 1.04486859
REMARK minimizedRMSD -1
REMARK  1 active torsions:
REMARK  status: ('A' for Active; 'I' for Inactive)
REMARK    1  A    between atoms: N_2  and  C1_3 
ROOT
ATOM      1  C1  UNL d   1       1.186  -3.522   0.927  0.00  0.00     0.143 A 
ATOM      2  C2  UNL d   1       0.204  -4.327   1.513  0.00  0.00    -0.057 A 
ATOM      3  C3  UNL d   1      -0.829  -3.771   2.278  0.00  0.00     0.033 A 
ATOM      4  C4  UNL d   1      -0.880  -2.399   2.496  0.00  0.00    -0.042 A 
ATOM      5  C5  UNL d   1       0.101  -1.582   1.945  0.00  0.00     0.033 A 
ATOM      6  C6  UNL d   1       1.125  -2.142   1.176  0.00  0.00    -0.057 A 
ENDROOT
BRANCH   1   7
ATOM      7  N   UNL d   1       2.293  -4.023   0.238  0.00  0.00    -0.732 N 
ATOM      8  C   UNL d   1       3.224  -4.919   0.890  0.00  0.00     0.284 C 
ATOM      9  H3  UNL d   1       2.070  -4.282  -0.721  0.00  0.00     0.395 HD
ENDBRANCH   1   7
TORSDOF 1
ENDMDL
