MODEL 1
REMARK minimizedAffinity 3.58045077
REMARK minimizedRMSD -1
REMARK  1 active torsions:
REMARK  status: ('A' for Active; 'I' for Inactive)
REMARK    1  A    between atoms: N_2  and  C1_3 
ROOT
ATOM      1  C1  UNL d   1      -4.778   2.238   3.940  0.00  0.00     0.143 A 
ATOM      2  C2  UNL d   1      -3.788   3.208   4.126  0.00  0.00    -0.057 A 
ATOM      3  C3  UNL d   1      -3.882   4.154   5.155  0.00  0.00     0.033 A 
ATOM      4  C4  UNL d   1      -4.987   4.163   6.000  0.00  0.00    -0.042 A 
ATOM      5  C5  UNL d   1      -5.995   3.223   5.818  0.00  0.00     0.033 A 
ATOM      6  C6  UNL d   1      -5.892   2.278   4.793  0.00  0.00    -0.057 A 
ENDROOT
BRANCH   1   7
ATOM      7  N   UNL d   1      -4.790   1.334   2.875  0.00  0.00    -0.732 N 
ATOM      8  C   UNL d   1      -5.999   1.109   2.112  0.00  0.00     0.284 C 
ATOM      9  H3  UNL d   1      -3.946   1.388   2.309  0.00  0.00     0.395 HD
ENDBRANCH   1   7
TORSDOF 1
ENDMDL
