MODEL 1
REMARK minimizedAffinity -2.04172873
REMARK minimizedRMSD -1
REMARK  1 active torsions:
REMARK  status: ('A' for Active; 'I' for Inactive)
REMARK    1  A    between atoms: C1_2  and  C2_3 
ROOT
ATOM      1  C2  UNL d   1      -0.449   1.187   1.900  0.00  0.00    -0.077 A 
ATOM      2  C3  UNL d   1      -1.101  -0.031   2.135  0.00  0.00     0.002 A 
ATOM      3  C4  UNL d   1      -2.402  -0.051   2.641  0.00  0.00     0.002 A 
ATOM      4  C5  UNL d   1      -3.064   1.145   2.912  0.00  0.00    -0.004 A 
ATOM      5  C6  UNL d   1      -2.424   2.362   2.684  0.00  0.00     0.002 A 
ATOM      6  C7  UNL d   1      -1.123   2.384   2.179  0.00  0.00     0.002 A 
ENDROOT
BRANCH   1   7
ATOM      7  C1  UNL d   1       0.936   1.211   1.309  0.00  0.00     0.055 C 
ATOM      8  C   UNL d   1       1.192   2.506   0.552  0.00  0.00     0.019 C 
ENDBRANCH   1   7
TORSDOF 1
ENDMDL
