MODEL 1
REMARK minimizedAffinity -1.48934734
REMARK minimizedRMSD -1
REMARK  1 active torsions:
REMARK  status: ('A' for Active; 'I' for Inactive)
REMARK    1  A    between atoms: C1_2  and  C2_3 
ROOT
ATOM      1  C2  UNL d   1      -1.334   1.529   2.088  0.00  0.00    -0.077 A 
ATOM      2  C3  UNL d   1      -1.501   0.200   1.675  0.00  0.00     0.002 A 
ATOM      3  C4  UNL d   1      -0.497  -0.448   0.953  0.00  0.00     0.002 A 
ATOM      4  C5  UNL d   1       0.683   0.225   0.640  0.00  0.00    -0.004 A 
ATOM      5  C6  UNL d   1       0.858   1.548   1.044  0.00  0.00     0.002 A 
ATOM      6  C7  UNL d   1      -0.145   2.197   1.765  0.00  0.00     0.002 A 
ENDROOT
BRANCH   1   7
ATOM      7  C1  UNL d   1      -2.395   2.213   2.909  0.00  0.00     0.055 C 
ATOM      8  C   UNL d   1      -3.520   1.253   3.270  0.00  0.00     0.019 C 
ENDBRANCH   1   7
TORSDOF 1
ENDMDL
