MODEL 1
REMARK minimizedAffinity -2.77408576
REMARK minimizedRMSD -1
REMARK  1 active torsions:
REMARK  status: ('A' for Active; 'I' for Inactive)
REMARK    1  A    between atoms: C1_2  and  C2_3 
ROOT
ATOM      1  C2  UNL d   1       0.813   0.351   1.719  0.00  0.00    -0.077 A 
ATOM      2  C3  UNL d   1       0.586   1.733   1.651  0.00  0.00     0.002 A 
ATOM      3  C4  UNL d   1      -0.714   2.238   1.697  0.00  0.00     0.002 A 
ATOM      4  C5  UNL d   1      -1.797   1.369   1.814  0.00  0.00    -0.004 A 
ATOM      5  C6  UNL d   1      -1.582  -0.007   1.881  0.00  0.00     0.002 A 
ATOM      6  C7  UNL d   1      -0.283  -0.514   1.834  0.00  0.00     0.002 A 
ENDROOT
BRANCH   1   7
ATOM      7  C1  UNL d   1       2.218  -0.193   1.720  0.00  0.00     0.055 C 
ATOM      8  C   UNL d   1       2.656  -0.593   3.122  0.00  0.00     0.019 C 
ENDBRANCH   1   7
TORSDOF 1
ENDMDL
