MODEL 1
REMARK minimizedAffinity 6.68285227
REMARK minimizedRMSD -1
REMARK  1 active torsions:
REMARK  status: ('A' for Active; 'I' for Inactive)
REMARK    1  A    between atoms: C1_2  and  C2_3 
ROOT
ATOM      1  C2  UNL d   1      -4.463   1.876   3.761  0.00  0.00    -0.077 A 
ATOM      2  C3  UNL d   1      -4.094   0.523   3.745  0.00  0.00     0.002 A 
ATOM      3  C4  UNL d   1      -2.973   0.105   3.026  0.00  0.00     0.002 A 
ATOM      4  C5  UNL d   1      -2.210   1.032   2.321  0.00  0.00    -0.004 A 
ATOM      5  C6  UNL d   1      -2.569   2.380   2.328  0.00  0.00     0.002 A 
ATOM      6  C7  UNL d   1      -3.690   2.799   3.046  0.00  0.00     0.002 A 
ENDROOT
BRANCH   1   7
ATOM      7  C1  UNL d   1      -5.643   2.336   4.576  0.00  0.00     0.055 C 
ATOM      8  C   UNL d   1      -5.231   2.682   6.000  0.00  0.00     0.019 C 
ENDBRANCH   1   7
TORSDOF 1
ENDMDL
