MODEL 1
REMARK minimizedAffinity 2.64987564
REMARK minimizedRMSD -1
REMARK  1 active torsions:
REMARK  status: ('A' for Active; 'I' for Inactive)
REMARK    1  A    between atoms: C1_2  and  C2_3 
ROOT
ATOM      1  C2  UNL d   1      -2.500   0.783   2.829  0.00  0.00    -0.077 A 
ATOM      2  C3  UNL d   1      -1.385  -0.052   2.668  0.00  0.00     0.002 A 
ATOM      3  C4  UNL d   1      -0.246   0.410   2.006  0.00  0.00     0.002 A 
ATOM      4  C5  UNL d   1      -0.210   1.709   1.503  0.00  0.00    -0.004 A 
ATOM      5  C6  UNL d   1      -1.314   2.546   1.655  0.00  0.00     0.002 A 
ATOM      6  C7  UNL d   1      -2.454   2.086   2.316  0.00  0.00     0.002 A 
ENDROOT
BRANCH   1   7
ATOM      7  C1  UNL d   1      -3.711   0.304   3.586  0.00  0.00     0.055 C 
ATOM      8  C   UNL d   1      -4.485   1.468   4.186  0.00  0.00     0.019 C 
ENDBRANCH   1   7
TORSDOF 1
ENDMDL
