MODEL 1
REMARK minimizedAffinity -3.2460072
REMARK minimizedRMSD -1
REMARK  1 active torsions:
REMARK  status: ('A' for Active; 'I' for Inactive)
REMARK    1  A    between atoms: C1_2  and  C2_3 
ROOT
ATOM      1  C2  UNL d   1      -2.613   1.040   2.969  0.00  0.00    -0.077 A 
ATOM      2  C3  UNL d   1      -1.888   2.204   2.677  0.00  0.00     0.002 A 
ATOM      3  C4  UNL d   1      -0.674   2.127   1.992  0.00  0.00     0.002 A 
ATOM      4  C5  UNL d   1      -0.177   0.889   1.590  0.00  0.00    -0.004 A 
ATOM      5  C6  UNL d   1      -0.889  -0.274   1.877  0.00  0.00     0.002 A 
ATOM      6  C7  UNL d   1      -2.102  -0.199   2.563  0.00  0.00     0.002 A 
ENDROOT
BRANCH   1   7
ATOM      7  C1  UNL d   1      -3.947   1.125   3.664  0.00  0.00     0.055 C 
ATOM      8  C   UNL d   1      -3.906   2.115   4.820  0.00  0.00     0.019 C 
ENDBRANCH   1   7
TORSDOF 1
ENDMDL
