MODEL 1
REMARK minimizedAffinity -4.79835367
REMARK minimizedRMSD -1
REMARK  1 active torsions:
REMARK  status: ('A' for Active; 'I' for Inactive)
REMARK    1  A    between atoms: C1_2  and  C2_3 
ROOT
ATOM      1  C2  UNL d   1      -1.282   1.981   1.852  0.00  0.00    -0.077 A 
ATOM      2  C3  UNL d   1      -0.875   0.642   1.939  0.00  0.00     0.002 A 
ATOM      3  C4  UNL d   1      -1.692  -0.305   2.559  0.00  0.00     0.002 A 
ATOM      4  C5  UNL d   1      -2.921   0.076   3.094  0.00  0.00    -0.004 A 
ATOM      5  C6  UNL d   1      -3.333   1.405   3.014  0.00  0.00     0.002 A 
ATOM      6  C7  UNL d   1      -2.518   2.354   2.395  0.00  0.00     0.002 A 
ENDROOT
BRANCH   1   7
ATOM      7  C1  UNL d   1      -0.425   2.995   1.139  0.00  0.00     0.055 C 
ATOM      8  C   UNL d   1       0.874   2.373   0.646  0.00  0.00     0.019 C 
ENDBRANCH   1   7
TORSDOF 1
ENDMDL
