MODEL 1
REMARK minimizedAffinity 3.18048191
REMARK minimizedRMSD -1
REMARK  1 active torsions:
REMARK  status: ('A' for Active; 'I' for Inactive)
REMARK    1  A    between atoms: C1_2  and  C2_3 
ROOT
ATOM      1  C2  UNL d   1      -3.453  -1.950  -3.487  0.00  0.00    -0.077 A 
ATOM      2  C3  UNL d   1      -3.785  -0.609  -3.251  0.00  0.00     0.002 A 
ATOM      3  C4  UNL d   1      -4.352  -0.226  -2.034  0.00  0.00     0.002 A 
ATOM      4  C5  UNL d   1      -4.589  -1.176  -1.043  0.00  0.00    -0.004 A 
ATOM      5  C6  UNL d   1      -4.264  -2.513  -1.270  0.00  0.00     0.002 A 
ATOM      6  C7  UNL d   1      -3.698  -2.898  -2.486  0.00  0.00     0.002 A 
ENDROOT
BRANCH   1   7
ATOM      7  C1  UNL d   1      -2.795  -2.358  -4.780  0.00  0.00     0.055 C 
ATOM      8  C   UNL d   1      -3.822  -2.833  -5.797  0.00  0.00     0.019 C 
ENDBRANCH   1   7
TORSDOF 1
ENDMDL
