MODEL 1
REMARK minimizedAffinity 3.81681824
REMARK minimizedRMSD -1
REMARK  1 active torsions:
REMARK  status: ('A' for Active; 'I' for Inactive)
REMARK    1  A    between atoms: C1_2  and  C2_3 
ROOT
ATOM      1  C2  UNL d   1      -0.860   1.678   1.499  0.00  0.00    -0.077 A 
ATOM      2  C3  UNL d   1      -1.073   0.346   1.880  0.00  0.00     0.002 A 
ATOM      3  C4  UNL d   1      -0.024  -0.575   1.848  0.00  0.00     0.002 A 
ATOM      4  C5  UNL d   1       1.246  -0.172   1.440  0.00  0.00    -0.004 A 
ATOM      5  C6  UNL d   1       1.468   1.150   1.056  0.00  0.00     0.002 A 
ATOM      6  C7  UNL d   1       0.420   2.071   1.087  0.00  0.00     0.002 A 
ENDROOT
BRANCH   1   7
ATOM      7  C1  UNL d   1      -1.978   2.684   1.580  0.00  0.00     0.055 C 
ATOM      8  C   UNL d   1      -2.910   2.383   2.745  0.00  0.00     0.019 C 
ENDBRANCH   1   7
TORSDOF 1
ENDMDL
