MODEL 1
REMARK minimizedAffinity -2.84743905
REMARK minimizedRMSD -1
REMARK  1 active torsions:
REMARK  status: ('A' for Active; 'I' for Inactive)
REMARK    1  A    between atoms: C1_2  and  C2_3 
ROOT
ATOM      1  C2  UNL d   1      -0.655   0.692   1.410  0.00  0.00    -0.077 A 
ATOM      2  C3  UNL d   1      -1.767   1.531   1.252  0.00  0.00     0.002 A 
ATOM      3  C4  UNL d   1      -2.992   1.197   1.834  0.00  0.00     0.002 A 
ATOM      4  C5  UNL d   1      -3.115   0.027   2.581  0.00  0.00    -0.004 A 
ATOM      5  C6  UNL d   1      -2.015  -0.815   2.742  0.00  0.00     0.002 A 
ATOM      6  C7  UNL d   1      -0.790  -0.484   2.160  0.00  0.00     0.002 A 
ENDROOT
BRANCH   1   7
ATOM      7  C1  UNL d   1       0.679   1.075   0.825  0.00  0.00     0.055 C 
ATOM      8  C   UNL d   1       1.288   2.259   1.561  0.00  0.00     0.019 C 
ENDBRANCH   1   7
TORSDOF 1
ENDMDL
