MODEL 1
REMARK minimizedAffinity -0.659324527
REMARK minimizedRMSD -1
REMARK  1 active torsions:
REMARK  status: ('A' for Active; 'I' for Inactive)
REMARK    1  A    between atoms: C1_2  and  C2_3 
ROOT
ATOM      1  C2  UNL d   1      -2.371   1.876   3.149  0.00  0.00    -0.077 A 
ATOM      2  C3  UNL d   1      -2.630   2.802   2.129  0.00  0.00     0.002 A 
ATOM      3  C4  UNL d   1      -1.582   3.340   1.380  0.00  0.00     0.002 A 
ATOM      4  C5  UNL d   1      -0.268   2.956   1.641  0.00  0.00    -0.004 A 
ATOM      5  C6  UNL d   1       0.000   2.037   2.654  0.00  0.00     0.002 A 
ATOM      6  C7  UNL d   1      -1.046   1.499   3.404  0.00  0.00     0.002 A 
ENDROOT
BRANCH   1   7
ATOM      7  C1  UNL d   1      -3.504   1.256   3.924  0.00  0.00     0.055 C 
ATOM      8  C   UNL d   1      -4.082   2.235   4.936  0.00  0.00     0.019 C 
ENDBRANCH   1   7
TORSDOF 1
ENDMDL
