MODEL 1
REMARK minimizedAffinity -5.53456211
REMARK minimizedRMSD -1
REMARK  1 active torsions:
REMARK  status: ('A' for Active; 'I' for Inactive)
REMARK    1  A    between atoms: C3_4  and  O_7 
ROOT
ATOM      1  C   UNL d   1      -1.941   1.925   1.516  0.00  0.00    -0.033 A 
ATOM      2  C1  UNL d   1      -1.671   3.245   1.149  0.00  0.00     0.039 A 
ATOM      3  C2  UNL d   1      -0.754   3.514   0.131  0.00  0.00    -0.080 A 
ATOM      4  C3  UNL d   1      -0.116   2.456  -0.511  0.00  0.00     0.150 A 
ATOM      5  C4  UNL d   1      -0.384   1.139  -0.153  0.00  0.00    -0.007 A 
ATOM      6  C5  UNL d   1      -1.299   0.872   0.865  0.00  0.00     0.039 A 
ENDROOT
BRANCH   4   7
ATOM      7  O   UNL d   1       0.790   2.669  -1.507  0.00  0.00    -0.526 OA
ATOM      8  H5  UNL d   1       0.896   3.628  -1.627  0.00  0.00     0.418 HD
ENDBRANCH   4   7
TORSDOF 1
ENDMDL
