MODEL 1
REMARK minimizedAffinity -5.30788183
REMARK minimizedRMSD -1
REMARK  1 active torsions:
REMARK  status: ('A' for Active; 'I' for Inactive)
REMARK    1  A    between atoms: C3_4  and  O_7 
ROOT
ATOM      1  C   UNL d   1      -1.749   2.641   1.480  0.00  0.00    -0.033 A 
ATOM      2  C1  UNL d   1      -0.896   2.936   0.415  0.00  0.00     0.039 A 
ATOM      3  C2  UNL d   1      -0.135   1.924  -0.174  0.00  0.00    -0.080 A 
ATOM      4  C3  UNL d   1      -0.238   0.623   0.310  0.00  0.00     0.150 A 
ATOM      5  C4  UNL d   1      -1.089   0.321   1.368  0.00  0.00    -0.007 A 
ATOM      6  C5  UNL d   1      -1.847   1.333   1.956  0.00  0.00     0.039 A 
ENDROOT
BRANCH   4   7
ATOM      7  O   UNL d   1       0.488  -0.397  -0.230  0.00  0.00    -0.526 OA
ATOM      8  H5  UNL d   1       1.052  -0.035  -0.933  0.00  0.00     0.418 HD
ENDBRANCH   4   7
TORSDOF 1
ENDMDL
