MODEL 1
REMARK minimizedAffinity -4.98130178
REMARK minimizedRMSD -1
REMARK  1 active torsions:
REMARK  status: ('A' for Active; 'I' for Inactive)
REMARK    1  A    between atoms: C3_4  and  O_7 
ROOT
ATOM      1  C   UNL d   1      -1.210   3.012   1.286  0.00  0.00    -0.033 A 
ATOM      2  C1  UNL d   1      -0.922   3.026  -0.080  0.00  0.00     0.039 A 
ATOM      3  C2  UNL d   1      -0.473   1.865  -0.713  0.00  0.00    -0.080 A 
ATOM      4  C3  UNL d   1      -0.317   0.698   0.030  0.00  0.00     0.150 A 
ATOM      5  C4  UNL d   1      -0.606   0.676   1.390  0.00  0.00    -0.007 A 
ATOM      6  C5  UNL d   1      -1.053   1.836   2.021  0.00  0.00     0.039 A 
ENDROOT
BRANCH   4   7
ATOM      7  O   UNL d   1       0.123  -0.458  -0.543  0.00  0.00    -0.526 OA
ATOM      8  H5  UNL d   1       0.310  -0.285  -1.481  0.00  0.00     0.418 HD
ENDBRANCH   4   7
TORSDOF 1
ENDMDL
