MODEL 1
REMARK minimizedAffinity -3.33764863
REMARK minimizedRMSD -1
REMARK  1 active torsions:
REMARK  status: ('A' for Active; 'I' for Inactive)
REMARK    1  A    between atoms: C3_4  and  O_7 
ROOT
ATOM      1  C   UNL d   1       0.002  -0.247   0.775  0.00  0.00    -0.033 A 
ATOM      2  C1  UNL d   1       1.010  -0.637  -0.108  0.00  0.00     0.039 A 
ATOM      3  C2  UNL d   1       1.544   0.285  -1.011  0.00  0.00    -0.080 A 
ATOM      4  C3  UNL d   1       1.062   1.590  -1.020  0.00  0.00     0.150 A 
ATOM      5  C4  UNL d   1       0.060   1.986  -0.140  0.00  0.00    -0.007 A 
ATOM      6  C5  UNL d   1      -0.473   1.065   0.760  0.00  0.00     0.039 A 
ENDROOT
BRANCH   4   7
ATOM      7  O   UNL d   1       1.549   2.524  -1.886  0.00  0.00    -0.526 OA
ATOM      8  H5  UNL d   1       2.215   2.100  -2.452  0.00  0.00     0.418 HD
ENDBRANCH   4   7
TORSDOF 1
ENDMDL
