MODEL 1
REMARK minimizedAffinity -4.08473921
REMARK minimizedRMSD -1
REMARK  1 active torsions:
REMARK  status: ('A' for Active; 'I' for Inactive)
REMARK    1  A    between atoms: C3_4  and  O_7 
ROOT
ATOM      1  C   UNL d   1      -0.745  -0.567   1.562  0.00  0.00    -0.033 A 
ATOM      2  C1  UNL d   1      -1.022   0.799   1.645  0.00  0.00     0.039 A 
ATOM      3  C2  UNL d   1      -0.426   1.690   0.750  0.00  0.00    -0.080 A 
ATOM      4  C3  UNL d   1       0.444   1.202  -0.221  0.00  0.00     0.150 A 
ATOM      5  C4  UNL d   1       0.722  -0.158  -0.312  0.00  0.00    -0.007 A 
ATOM      6  C5  UNL d   1       0.126  -1.045   0.583  0.00  0.00     0.039 A 
ENDROOT
BRANCH   4   7
ATOM      7  O   UNL d   1       1.055   2.034  -1.113  0.00  0.00    -0.526 OA
ATOM      8  H5  UNL d   1       0.791   2.947  -0.912  0.00  0.00     0.418 HD
ENDBRANCH   4   7
TORSDOF 1
ENDMDL
