MODEL 1
REMARK minimizedAffinity -4.3169713
REMARK minimizedRMSD -1
REMARK  1 active torsions:
REMARK  status: ('A' for Active; 'I' for Inactive)
REMARK    1  A    between atoms: C3_4  and  O_7 
ROOT
ATOM      1  C   UNL d   1      -1.570   2.665   1.180  0.00  0.00    -0.033 A 
ATOM      2  C1  UNL d   1      -0.995   2.973  -0.054  0.00  0.00     0.039 A 
ATOM      3  C2  UNL d   1      -0.129   2.067  -0.669  0.00  0.00    -0.080 A 
ATOM      4  C3  UNL d   1       0.152   0.857  -0.040  0.00  0.00     0.150 A 
ATOM      5  C4  UNL d   1      -0.421   0.542   1.188  0.00  0.00    -0.007 A 
ATOM      6  C5  UNL d   1      -1.284   1.449   1.800  0.00  0.00     0.039 A 
ENDROOT
BRANCH   4   7
ATOM      7  O   UNL d   1       0.995  -0.058  -0.599  0.00  0.00    -0.526 OA
ATOM      8  H5  UNL d   1       1.337   0.308  -1.431  0.00  0.00     0.418 HD
ENDBRANCH   4   7
TORSDOF 1
ENDMDL
