MODEL 1
REMARK minimizedAffinity -5.61969137
REMARK minimizedRMSD -1
REMARK  1 active torsions:
REMARK  status: ('A' for Active; 'I' for Inactive)
REMARK    1  A    between atoms: C3_4  and  O_7 
ROOT
ATOM      1  C   UNL d   1      -1.768   2.053   0.538  0.00  0.00    -0.033 A 
ATOM      2  C1  UNL d   1      -1.326   3.121  -0.245  0.00  0.00     0.039 A 
ATOM      3  C2  UNL d   1      -0.179   2.987  -1.030  0.00  0.00    -0.080 A 
ATOM      4  C3  UNL d   1       0.515   1.780  -1.023  0.00  0.00     0.150 A 
ATOM      5  C4  UNL d   1       0.079   0.710  -0.249  0.00  0.00    -0.007 A 
ATOM      6  C5  UNL d   1      -1.066   0.847   0.535  0.00  0.00     0.039 A 
ENDROOT
BRANCH   4   7
ATOM      7  O   UNL d   1       1.643   1.603  -1.769  0.00  0.00    -0.526 OA
ATOM      8  H5  UNL d   1       1.841   2.435  -2.230  0.00  0.00     0.418 HD
ENDBRANCH   4   7
TORSDOF 1
ENDMDL
