MODEL 1
REMARK minimizedAffinity -4.52963066
REMARK minimizedRMSD -1
REMARK  1 active torsions:
REMARK  status: ('A' for Active; 'I' for Inactive)
REMARK    1  A    between atoms: C3_4  and  O_7 
ROOT
ATOM      1  C   UNL d   1      -1.601   2.497   1.278  0.00  0.00    -0.033 A 
ATOM      2  C1  UNL d   1      -1.507   2.238  -0.091  0.00  0.00     0.039 A 
ATOM      3  C2  UNL d   1      -0.862   1.085  -0.542  0.00  0.00    -0.080 A 
ATOM      4  C3  UNL d   1      -0.317   0.200   0.384  0.00  0.00     0.150 A 
ATOM      5  C4  UNL d   1      -0.410   0.450   1.749  0.00  0.00    -0.007 A 
ATOM      6  C5  UNL d   1      -1.053   1.602   2.198  0.00  0.00     0.039 A 
ENDROOT
BRANCH   4   7
ATOM      7  O   UNL d   1       0.326  -0.936  -0.009  0.00  0.00    -0.526 OA
ATOM      8  H5  UNL d   1       0.338  -0.963  -0.981  0.00  0.00     0.418 HD
ENDBRANCH   4   7
TORSDOF 1
ENDMDL
