MODEL 1
REMARK minimizedAffinity -2.52516246
REMARK minimizedRMSD -1
REMARK  1 active torsions:
REMARK  status: ('A' for Active; 'I' for Inactive)
REMARK    1  A    between atoms: C3_4  and  O_7 
ROOT
ATOM      1  C   UNL d   1      -0.421  -0.263  -0.497  0.00  0.00    -0.033 A 
ATOM      2  C1  UNL d   1      -1.082   0.908  -0.874  0.00  0.00     0.039 A 
ATOM      3  C2  UNL d   1      -1.320   1.912   0.066  0.00  0.00    -0.080 A 
ATOM      4  C3  UNL d   1      -0.891   1.734   1.379  0.00  0.00     0.150 A 
ATOM      5  C4  UNL d   1      -0.228   0.572   1.761  0.00  0.00    -0.007 A 
ATOM      6  C5  UNL d   1       0.008  -0.430   0.821  0.00  0.00     0.039 A 
ENDROOT
BRANCH   4   7
ATOM      7  O   UNL d   1      -1.104   2.684   2.333  0.00  0.00    -0.526 OA
ATOM      8  H5  UNL d   1      -1.598   3.418   1.931  0.00  0.00     0.418 HD
ENDBRANCH   4   7
TORSDOF 1
ENDMDL
