MODEL 1
REMARK minimizedAffinity -4.55578709
REMARK minimizedRMSD -1
REMARK  1 active torsions:
REMARK  status: ('A' for Active; 'I' for Inactive)
REMARK    1  A    between atoms: C3_4  and  O_7 
ROOT
ATOM      1  C   UNL d   1      -1.687   1.115   1.406  0.00  0.00    -0.033 A 
ATOM      2  C1  UNL d   1      -0.797   0.553   0.489  0.00  0.00     0.039 A 
ATOM      3  C2  UNL d   1      -0.088   1.374  -0.390  0.00  0.00    -0.080 A 
ATOM      4  C3  UNL d   1      -0.276   2.752  -0.340  0.00  0.00     0.150 A 
ATOM      5  C4  UNL d   1      -1.158   3.319   0.574  0.00  0.00    -0.007 A 
ATOM      6  C5  UNL d   1      -1.866   2.498   1.450  0.00  0.00     0.039 A 
ENDROOT
BRANCH   4   7
ATOM      7  O   UNL d   1       0.391   3.593  -1.181  0.00  0.00    -0.526 OA
ATOM      8  H5  UNL d   1       0.943   3.059  -1.776  0.00  0.00     0.418 HD
ENDBRANCH   4   7
TORSDOF 1
ENDMDL
