MODEL 1
REMARK minimizedAffinity -5.11771917
REMARK minimizedRMSD -1
REMARK  1 active torsions:
REMARK  status: ('A' for Active; 'I' for Inactive)
REMARK    1  A    between atoms: C3_4  and  O_7 
ROOT
ATOM      1  C   UNL d   1      -2.078   1.852   1.569  0.00  0.00    -0.033 A 
ATOM      2  C1  UNL d   1      -1.934   0.481   1.790  0.00  0.00     0.039 A 
ATOM      3  C2  UNL d   1      -0.985  -0.248   1.071  0.00  0.00    -0.080 A 
ATOM      4  C3  UNL d   1      -0.187   0.406   0.136  0.00  0.00     0.150 A 
ATOM      5  C4  UNL d   1      -0.323   1.772  -0.087  0.00  0.00    -0.007 A 
ATOM      6  C5  UNL d   1      -1.272   2.498   0.632  0.00  0.00     0.039 A 
ENDROOT
BRANCH   4   7
ATOM      7  O   UNL d   1       0.750  -0.264  -0.594  0.00  0.00    -0.526 OA
ATOM      8  H5  UNL d   1       0.711  -1.205  -0.355  0.00  0.00     0.418 HD
ENDBRANCH   4   7
TORSDOF 1
ENDMDL
