MODEL 1
REMARK minimizedAffinity -3.17442942
REMARK minimizedRMSD -1
REMARK  1 active torsions:
REMARK  status: ('A' for Active; 'I' for Inactive)
REMARK    1  A    between atoms: C3_4  and  O_7 
ROOT
ATOM      1  C   UNL d   1       0.819  -0.185  -0.684  0.00  0.00    -0.033 A 
ATOM      2  C1  UNL d   1       0.633  -0.791   0.559  0.00  0.00     0.039 A 
ATOM      3  C2  UNL d   1      -0.236  -0.223   1.493  0.00  0.00    -0.080 A 
ATOM      4  C3  UNL d   1      -0.914   0.949   1.170  0.00  0.00     0.150 A 
ATOM      5  C4  UNL d   1      -0.737   1.557  -0.069  0.00  0.00    -0.007 A 
ATOM      6  C5  UNL d   1       0.132   0.989  -0.999  0.00  0.00     0.039 A 
ENDROOT
BRANCH   4   7
ATOM      7  O   UNL d   1      -1.770   1.543   2.050  0.00  0.00    -0.526 OA
ATOM      8  H5  UNL d   1      -1.770   1.028   2.874  0.00  0.00     0.418 HD
ENDBRANCH   4   7
TORSDOF 1
ENDMDL
