MODEL 1
REMARK minimizedAffinity -5.21798754
REMARK minimizedRMSD -1
REMARK  1 active torsions:
REMARK  status: ('A' for Active; 'I' for Inactive)
REMARK    1  A    between atoms: C3_4  and  O_7 
ROOT
ATOM      1  C   UNL d   1      -1.612   2.003   1.919  0.00  0.00    -0.033 A 
ATOM      2  C1  UNL d   1      -1.037   0.853   2.466  0.00  0.00     0.039 A 
ATOM      3  C2  UNL d   1      -0.269   0.006   1.664  0.00  0.00    -0.080 A 
ATOM      4  C3  UNL d   1      -0.082   0.320   0.321  0.00  0.00     0.150 A 
ATOM      5  C4  UNL d   1      -0.648   1.465  -0.229  0.00  0.00    -0.007 A 
ATOM      6  C5  UNL d   1      -1.416   2.309   0.572  0.00  0.00     0.039 A 
ENDROOT
BRANCH   4   7
ATOM      7  O   UNL d   1       0.656  -0.478  -0.501  0.00  0.00    -0.526 OA
ATOM      8  H5  UNL d   1       0.960  -1.247   0.009  0.00  0.00     0.418 HD
ENDBRANCH   4   7
TORSDOF 1
ENDMDL
