MODEL 1
REMARK minimizedAffinity -5.36704922
REMARK minimizedRMSD -1
REMARK  1 active torsions:
REMARK  status: ('A' for Active; 'I' for Inactive)
REMARK    1  A    between atoms: C3_4  and  O_7 
ROOT
ATOM      1  C   UNL d   1      -0.712  -0.063   1.632  0.00  0.00    -0.033 A 
ATOM      2  C1  UNL d   1      -1.370   1.164   1.740  0.00  0.00     0.039 A 
ATOM      3  C2  UNL d   1      -1.133   2.170   0.802  0.00  0.00    -0.080 A 
ATOM      4  C3  UNL d   1      -0.238   1.937  -0.239  0.00  0.00     0.150 A 
ATOM      5  C4  UNL d   1       0.418   0.716  -0.355  0.00  0.00    -0.007 A 
ATOM      6  C5  UNL d   1       0.181  -0.287   0.584  0.00  0.00     0.039 A 
ENDROOT
BRANCH   4   7
ATOM      7  O   UNL d   1       0.030   2.891  -1.176  0.00  0.00    -0.526 OA
ATOM      8  H5  UNL d   1      -0.474   3.691  -0.952  0.00  0.00     0.418 HD
ENDBRANCH   4   7
TORSDOF 1
ENDMDL
