MODEL 1
REMARK minimizedAffinity -3.98128271
REMARK minimizedRMSD -1
REMARK  1 active torsions:
REMARK  status: ('A' for Active; 'I' for Inactive)
REMARK    1  A    between atoms: C3_4  and  O_7 
ROOT
ATOM      1  C   UNL d   1      -1.960   1.765   1.454  0.00  0.00    -0.033 A 
ATOM      2  C1  UNL d   1      -1.503   0.583   2.041  0.00  0.00     0.039 A 
ATOM      3  C2  UNL d   1      -0.512  -0.173   1.412  0.00  0.00    -0.080 A 
ATOM      4  C3  UNL d   1       0.014   0.264   0.199  0.00  0.00     0.150 A 
ATOM      5  C4  UNL d   1      -0.433   1.443  -0.389  0.00  0.00    -0.007 A 
ATOM      6  C5  UNL d   1      -1.424   2.195   0.240  0.00  0.00     0.039 A 
ENDROOT
BRANCH   4   7
ATOM      7  O   UNL d   1       0.980  -0.442  -0.454  0.00  0.00    -0.526 OA
ATOM      8  H5  UNL d   1       1.170  -1.248   0.055  0.00  0.00     0.418 HD
ENDBRANCH   4   7
TORSDOF 1
ENDMDL
