MODEL 1
REMARK minimizedAffinity -3.25234103
REMARK minimizedRMSD -1
REMARK  1 active torsions:
REMARK  status: ('A' for Active; 'I' for Inactive)
REMARK    1  A    between atoms: C3_4  and  O_7 
ROOT
ATOM      1  C   UNL d   1      -0.329  -0.531   1.443  0.00  0.00    -0.033 A 
ATOM      2  C1  UNL d   1      -0.765   0.786   1.601  0.00  0.00     0.039 A 
ATOM      3  C2  UNL d   1      -0.404   1.760   0.668  0.00  0.00    -0.080 A 
ATOM      4  C3  UNL d   1       0.391   1.404  -0.418  0.00  0.00     0.150 A 
ATOM      5  C4  UNL d   1       0.825   0.094  -0.584  0.00  0.00    -0.007 A 
ATOM      6  C5  UNL d   1       0.465  -0.877   0.349  0.00  0.00     0.039 A 
ENDROOT
BRANCH   4   7
ATOM      7  O   UNL d   1       0.772   2.321  -1.352  0.00  0.00    -0.526 OA
ATOM      8  H5  UNL d   1       0.422   3.190  -1.092  0.00  0.00     0.418 HD
ENDBRANCH   4   7
TORSDOF 1
ENDMDL
