MODEL 1
REMARK minimizedAffinity -4.910357
REMARK minimizedRMSD -1
REMARK  1 active torsions:
REMARK  status: ('A' for Active; 'I' for Inactive)
REMARK    1  A    between atoms: C3_4  and  O_7 
ROOT
ATOM      1  C   UNL d   1      -0.468  -0.079   0.816  0.00  0.00    -0.033 A 
ATOM      2  C1  UNL d   1      -1.027   1.190   0.656  0.00  0.00     0.039 A 
ATOM      3  C2  UNL d   1      -0.432   2.113  -0.206  0.00  0.00    -0.080 A 
ATOM      4  C3  UNL d   1       0.719   1.754  -0.902  0.00  0.00     0.150 A 
ATOM      5  C4  UNL d   1       1.279   0.490  -0.751  0.00  0.00    -0.007 A 
ATOM      6  C5  UNL d   1       0.684  -0.430   0.112  0.00  0.00     0.039 A 
ENDROOT
BRANCH   4   7
ATOM      7  O   UNL d   1       1.338   2.623  -1.751  0.00  0.00    -0.526 OA
ATOM      8  H5  UNL d   1       0.856   3.467  -1.733  0.00  0.00     0.418 HD
ENDBRANCH   4   7
TORSDOF 1
ENDMDL
