MODEL 1
REMARK minimizedAffinity -1.09493697
REMARK minimizedRMSD -1
REMARK  0 active torsions:
REMARK  status: ('A' for Active; 'I' for Inactive)
ROOT
ATOM      1  C   UNL d   1       1.795  -0.171  -1.159  0.00  0.00     0.023 A 
ATOM      2  C1  UNL d   1       1.061  -1.289  -0.760  0.00  0.00     0.003 A 
ATOM      3  C2  UNL d   1      -0.074  -1.132   0.037  0.00  0.00     0.048 A 
ATOM      4  C3  UNL d   1      -0.471   0.145   0.431  0.00  0.00     0.023 A 
ATOM      5  C4  UNL d   1       0.259   1.266   0.034  0.00  0.00     0.048 A 
ATOM      6  C5  UNL d   1       1.394   1.104  -0.762  0.00  0.00     0.003 A 
ATOM      7  I   UNL d   1      -2.162   0.381   1.617  0.00  0.00    -0.146 I 
ENDROOT
TORSDOF 0
ENDMDL
