MODEL 1
REMARK minimizedAffinity -2.79618621
REMARK minimizedRMSD -1
REMARK  0 active torsions:
REMARK  status: ('A' for Active; 'I' for Inactive)
ROOT
ATOM      1  C   UNL d   1       2.301   0.300  -1.693  0.00  0.00     0.023 A 
ATOM      2  C1  UNL d   1       1.864  -0.902  -1.135  0.00  0.00     0.003 A 
ATOM      3  C2  UNL d   1       0.808  -0.905  -0.221  0.00  0.00     0.048 A 
ATOM      4  C3  UNL d   1       0.193   0.296   0.130  0.00  0.00     0.023 A 
ATOM      5  C4  UNL d   1       0.626   1.501  -0.427  0.00  0.00     0.048 A 
ATOM      6  C5  UNL d   1       1.683   1.499  -1.340  0.00  0.00     0.003 A 
ATOM      7  I   UNL d   1      -1.379   0.294   1.489  0.00  0.00    -0.146 I 
ENDROOT
TORSDOF 0
ENDMDL
