MODEL 1
REMARK minimizedAffinity -5.06813622
REMARK minimizedRMSD -1
REMARK  0 active torsions:
REMARK  status: ('A' for Active; 'I' for Inactive)
ROOT
ATOM      1  C   UNL d   1       1.925  -1.160  -2.526  0.00  0.00     0.023 A 
ATOM      2  C1  UNL d   1       1.392  -2.272  -1.874  0.00  0.00     0.003 A 
ATOM      3  C2  UNL d   1       0.509  -2.101  -0.806  0.00  0.00     0.048 A 
ATOM      4  C3  UNL d   1       0.162  -0.814  -0.396  0.00  0.00     0.023 A 
ATOM      5  C4  UNL d   1       0.692   0.302  -1.046  0.00  0.00     0.048 A 
ATOM      6  C5  UNL d   1       1.575   0.125  -2.112  0.00  0.00     0.003 A 
ATOM      7  I   UNL d   1      -1.153  -0.555   1.193  0.00  0.00    -0.146 I 
ENDROOT
TORSDOF 0
ENDMDL
