MODEL 1
REMARK minimizedAffinity 5.59071684
REMARK minimizedRMSD -1
REMARK  0 active torsions:
REMARK  status: ('A' for Active; 'I' for Inactive)
ROOT
ATOM      1  C   UNL d   1      -5.944   4.278  -5.427  0.00  0.00     0.023 A 
ATOM      2  C1  UNL d   1      -4.941   3.317  -5.297  0.00  0.00     0.003 A 
ATOM      3  C2  UNL d   1      -3.601   3.680  -5.450  0.00  0.00     0.048 A 
ATOM      4  C3  UNL d   1      -3.271   5.005  -5.733  0.00  0.00     0.023 A 
ATOM      5  C4  UNL d   1      -4.271   5.970  -5.863  0.00  0.00     0.048 A 
ATOM      6  C5  UNL d   1      -5.609   5.603  -5.710  0.00  0.00     0.003 A 
ATOM      7  I   UNL d   1      -1.277   5.547  -5.961  0.00  0.00    -0.146 I 
ENDROOT
TORSDOF 0
ENDMDL
