MODEL 1
REMARK minimizedAffinity -3.27605724
REMARK minimizedRMSD -1
REMARK  0 active torsions:
REMARK  status: ('A' for Active; 'I' for Inactive)
ROOT
ATOM      1  C   UNL d   1       1.708   0.771  -1.453  0.00  0.00     0.023 A 
ATOM      2  C1  UNL d   1       1.066  -0.467  -1.401  0.00  0.00     0.003 A 
ATOM      3  C2  UNL d   1       0.099  -0.712  -0.424  0.00  0.00     0.048 A 
ATOM      4  C3  UNL d   1      -0.223   0.285   0.496  0.00  0.00     0.023 A 
ATOM      5  C4  UNL d   1       0.416   1.525   0.447  0.00  0.00     0.048 A 
ATOM      6  C5  UNL d   1       1.383   1.765  -0.530  0.00  0.00     0.003 A 
ATOM      7  I   UNL d   1      -1.663  -0.078   1.951  0.00  0.00    -0.146 I 
ENDROOT
TORSDOF 0
ENDMDL
