MODEL 1
REMARK minimizedAffinity -2.29013777
REMARK minimizedRMSD -1
REMARK  0 active torsions:
REMARK  status: ('A' for Active; 'I' for Inactive)
ROOT
ATOM      1  C   UNL d   1      -4.242   0.709   2.426  0.00  0.00     0.023 A 
ATOM      2  C1  UNL d   1      -4.038  -0.072   1.289  0.00  0.00     0.003 A 
ATOM      3  C2  UNL d   1      -2.772  -0.137   0.703  0.00  0.00     0.048 A 
ATOM      4  C3  UNL d   1      -1.715   0.581   1.260  0.00  0.00     0.023 A 
ATOM      5  C4  UNL d   1      -1.914   1.363   2.399  0.00  0.00     0.048 A 
ATOM      6  C5  UNL d   1      -3.182   1.426   2.981  0.00  0.00     0.003 A 
ATOM      7  I   UNL d   1       0.170   0.486   0.390  0.00  0.00    -0.146 I 
ENDROOT
TORSDOF 0
ENDMDL
