MODEL 1
REMARK minimizedAffinity -3.4835422
REMARK minimizedRMSD -1
REMARK  0 active torsions:
REMARK  status: ('A' for Active; 'I' for Inactive)
ROOT
ATOM      1  C   UNL d   1       2.427  -0.834  -1.902  0.00  0.00     0.023 A 
ATOM      2  C1  UNL d   1       1.790  -1.886  -1.244  0.00  0.00     0.003 A 
ATOM      3  C2  UNL d   1       0.744  -1.624  -0.356  0.00  0.00     0.048 A 
ATOM      4  C3  UNL d   1       0.340  -0.309  -0.132  0.00  0.00     0.023 A 
ATOM      5  C4  UNL d   1       0.974   0.747  -0.789  0.00  0.00     0.048 A 
ATOM      6  C5  UNL d   1       2.020   0.481  -1.675  0.00  0.00     0.003 A 
ATOM      7  I   UNL d   1      -1.216   0.083   1.189  0.00  0.00    -0.146 I 
ENDROOT
TORSDOF 0
ENDMDL
