MODEL 1
REMARK minimizedAffinity -1.41631508
REMARK minimizedRMSD -1
REMARK  0 active torsions:
REMARK  status: ('A' for Active; 'I' for Inactive)
ROOT
ATOM      1  C   UNL d   1       1.730  -0.214  -1.582  0.00  0.00     0.023 A 
ATOM      2  C1  UNL d   1       1.435   1.082  -1.158  0.00  0.00     0.003 A 
ATOM      3  C2  UNL d   1       0.407   1.301  -0.238  0.00  0.00     0.048 A 
ATOM      4  C3  UNL d   1      -0.322   0.218   0.254  0.00  0.00     0.023 A 
ATOM      5  C4  UNL d   1      -0.030  -1.080  -0.167  0.00  0.00     0.048 A 
ATOM      6  C5  UNL d   1       0.998  -1.294  -1.087  0.00  0.00     0.003 A 
ATOM      7  I   UNL d   1      -1.852   0.541   1.623  0.00  0.00    -0.146 I 
ENDROOT
TORSDOF 0
ENDMDL
