MODEL 1
REMARK minimizedAffinity -2.67009568
REMARK minimizedRMSD -1
REMARK  0 active torsions:
REMARK  status: ('A' for Active; 'I' for Inactive)
ROOT
ATOM      1  C   UNL d   1       2.197  -1.227  -1.677  0.00  0.00     0.023 A 
ATOM      2  C1  UNL d   1       1.508  -2.155  -0.896  0.00  0.00     0.003 A 
ATOM      3  C2  UNL d   1       0.491  -1.730  -0.039  0.00  0.00     0.048 A 
ATOM      4  C3  UNL d   1       0.167  -0.376   0.032  0.00  0.00     0.023 A 
ATOM      5  C4  UNL d   1       0.853   0.556  -0.748  0.00  0.00     0.048 A 
ATOM      6  C5  UNL d   1       1.870   0.127  -1.603  0.00  0.00     0.003 A 
ATOM      7  I   UNL d   1      -1.347   0.259   1.307  0.00  0.00    -0.146 I 
ENDROOT
TORSDOF 0
ENDMDL
