MODEL 1
REMARK minimizedAffinity -3.33309555
REMARK minimizedRMSD -1
REMARK  0 active torsions:
REMARK  status: ('A' for Active; 'I' for Inactive)
ROOT
ATOM      1  C   UNL d   1       2.427  -0.318  -2.249  0.00  0.00     0.023 A 
ATOM      2  C1  UNL d   1       1.860   0.868  -1.782  0.00  0.00     0.003 A 
ATOM      3  C2  UNL d   1       0.851   0.828  -0.817  0.00  0.00     0.048 A 
ATOM      4  C3  UNL d   1       0.415  -0.401  -0.323  0.00  0.00     0.023 A 
ATOM      5  C4  UNL d   1       0.981  -1.590  -0.787  0.00  0.00     0.048 A 
ATOM      6  C5  UNL d   1       1.988  -1.545  -1.752  0.00  0.00     0.003 A 
ATOM      7  I   UNL d   1      -1.086  -0.462   1.114  0.00  0.00    -0.146 I 
ENDROOT
TORSDOF 0
ENDMDL
