MODEL 1
REMARK minimizedAffinity 0.891963542
REMARK minimizedRMSD -1
REMARK  0 active torsions:
REMARK  status: ('A' for Active; 'I' for Inactive)
ROOT
ATOM      1  C   UNL d   1      -0.571  -0.720   1.566  0.00  0.00     0.023 A 
ATOM      2  C1  UNL d   1      -0.432  -1.788   0.679  0.00  0.00     0.003 A 
ATOM      3  C2  UNL d   1       0.300  -1.628  -0.499  0.00  0.00     0.048 A 
ATOM      4  C3  UNL d   1       0.891  -0.397  -0.784  0.00  0.00     0.023 A 
ATOM      5  C4  UNL d   1       0.755   0.674   0.100  0.00  0.00     0.048 A 
ATOM      6  C5  UNL d   1       0.021   0.509   1.277  0.00  0.00     0.003 A 
ATOM      7  I   UNL d   1       1.982  -0.157  -2.537  0.00  0.00    -0.146 I 
ENDROOT
TORSDOF 0
ENDMDL
