MODEL 1
REMARK minimizedAffinity -1.45216441
REMARK minimizedRMSD -1
REMARK  0 active torsions:
REMARK  status: ('A' for Active; 'I' for Inactive)
ROOT
ATOM      1  C   UNL d   1      -4.220   0.877   2.537  0.00  0.00     0.023 A 
ATOM      2  C1  UNL d   1      -3.049   1.397   3.091  0.00  0.00     0.003 A 
ATOM      3  C2  UNL d   1      -1.821   1.176   2.463  0.00  0.00     0.048 A 
ATOM      4  C3  UNL d   1      -1.771   0.437   1.282  0.00  0.00     0.023 A 
ATOM      5  C4  UNL d   1      -2.940  -0.084   0.724  0.00  0.00     0.048 A 
ATOM      6  C5  UNL d   1      -4.165   0.138   1.356  0.00  0.00     0.003 A 
ATOM      7  I   UNL d   1       0.055   0.108   0.346  0.00  0.00    -0.146 I 
ENDROOT
TORSDOF 0
ENDMDL
