MODEL 1
REMARK minimizedAffinity 6.80898523
REMARK minimizedRMSD -1
REMARK  0 active torsions:
REMARK  status: ('A' for Active; 'I' for Inactive)
ROOT
ATOM      1  C   UNL d   1      -4.905  -0.003   2.784  0.00  0.00     0.023 A 
ATOM      2  C1  UNL d   1      -4.067   1.041   2.392  0.00  0.00     0.003 A 
ATOM      3  C2  UNL d   1      -3.191   1.618   3.314  0.00  0.00     0.048 A 
ATOM      4  C3  UNL d   1      -3.157   1.145   4.626  0.00  0.00     0.023 A 
ATOM      5  C4  UNL d   1      -3.994   0.100   5.021  0.00  0.00     0.048 A 
ATOM      6  C5  UNL d   1      -4.869  -0.473   4.096  0.00  0.00     0.003 A 
ATOM      7  I   UNL d   1      -1.854   2.001   5.999  0.00  0.00    -0.146 I 
ENDROOT
TORSDOF 0
ENDMDL
