MODEL 1
REMARK minimizedAffinity -0.44560957
REMARK minimizedRMSD -1
REMARK  0 active torsions:
REMARK  status: ('A' for Active; 'I' for Inactive)
ROOT
ATOM      1  C   UNL d   1       2.294   1.243  -2.260  0.00  0.00     0.023 A 
ATOM      2  C1  UNL d   1       2.167   0.028  -2.934  0.00  0.00     0.003 A 
ATOM      3  C2  UNL d   1       1.728  -1.108  -2.250  0.00  0.00     0.048 A 
ATOM      4  C3  UNL d   1       1.417  -1.021  -0.893  0.00  0.00     0.023 A 
ATOM      5  C4  UNL d   1       1.542   0.193  -0.216  0.00  0.00     0.048 A 
ATOM      6  C5  UNL d   1       1.982   1.326  -0.903  0.00  0.00     0.003 A 
ATOM      7  I   UNL d   1       0.764  -2.710   0.126  0.00  0.00    -0.146 I 
ENDROOT
TORSDOF 0
ENDMDL
