MODEL 1
REMARK minimizedAffinity -1.8377465
REMARK minimizedRMSD -1
REMARK  0 active torsions:
REMARK  status: ('A' for Active; 'I' for Inactive)
ROOT
ATOM      1  C   UNL d   1      -0.554  -1.190   1.362  0.00  0.00     0.023 A 
ATOM      2  C1  UNL d   1       0.046  -2.201   0.611  0.00  0.00     0.003 A 
ATOM      3  C2  UNL d   1       0.884  -1.876  -0.457  0.00  0.00     0.048 A 
ATOM      4  C3  UNL d   1       1.118  -0.537  -0.769  0.00  0.00     0.023 A 
ATOM      5  C4  UNL d   1       0.521   0.478  -0.021  0.00  0.00     0.048 A 
ATOM      6  C5  UNL d   1      -0.317   0.148   1.046  0.00  0.00     0.003 A 
ATOM      7  I   UNL d   1       2.365  -0.050  -2.359  0.00  0.00    -0.146 I 
ENDROOT
TORSDOF 0
ENDMDL
