MODEL 1
REMARK minimizedAffinity -3.66030431
REMARK minimizedRMSD -1
REMARK  1 active torsions:
REMARK  status: ('A' for Active; 'I' for Inactive)
REMARK    1  A    between atoms: C1_2  and  C2_3 
ROOT
ATOM      1  C2  UNL d   1       0.055   0.080   0.448  0.00  0.00    -0.076 A 
ATOM      2  C3  UNL d   1      -1.093  -0.680   0.731  0.00  0.00     0.004 A 
ATOM      3  C4  UNL d   1      -1.446  -0.984   2.045  0.00  0.00    -0.003 A 
ATOM      4  C5  UNL d   1      -0.656  -0.532   3.097  0.00  0.00     0.000 A 
ATOM      5  C6  UNL d   1       0.476   0.238   2.835  0.00  0.00     0.000 A 
ATOM      6  C7  UNL d   1       0.837   0.567   1.517  0.00  0.00    -0.073 A 
ATOM      7  C8  UNL d   1       2.072   1.395   1.292  0.00  0.00     0.078 C 
ENDROOT
BRANCH   1   8
ATOM      8  C1  UNL d   1       0.402   0.355  -0.998  0.00  0.00     0.053 C 
ATOM      9  C   UNL d   1       0.256  -0.878  -1.877  0.00  0.00     0.018 C 
ENDBRANCH   1   8
TORSDOF 1
ENDMDL
