MODEL 1
REMARK minimizedAffinity -0.0736057833
REMARK minimizedRMSD -1
REMARK  1 active torsions:
REMARK  status: ('A' for Active; 'I' for Inactive)
REMARK    1  A    between atoms: C1_2  and  C2_3 
ROOT
ATOM      1  C2  UNL d   1      -2.688   2.660   3.827  0.00  0.00    -0.076 A 
ATOM      2  C3  UNL d   1      -3.620   3.198   4.731  0.00  0.00     0.004 A 
ATOM      3  C4  UNL d   1      -4.985   3.180   4.449  0.00  0.00    -0.003 A 
ATOM      4  C5  UNL d   1      -5.440   2.624   3.259  0.00  0.00     0.000 A 
ATOM      5  C6  UNL d   1      -4.531   2.069   2.359  0.00  0.00     0.000 A 
ATOM      6  C7  UNL d   1      -3.153   2.065   2.635  0.00  0.00    -0.073 A 
ATOM      7  C8  UNL d   1      -2.216   1.459   1.625  0.00  0.00     0.078 C 
ENDROOT
BRANCH   1   8
ATOM      8  C1  UNL d   1      -1.218   2.732   4.174  0.00  0.00     0.053 C 
ATOM      9  C   UNL d   1      -0.827   4.070   4.781  0.00  0.00     0.018 C 
ENDBRANCH   1   8
TORSDOF 1
ENDMDL
