MODEL 1
REMARK minimizedAffinity 1.34511304
REMARK minimizedRMSD -1
REMARK  1 active torsions:
REMARK  status: ('A' for Active; 'I' for Inactive)
REMARK    1  A    between atoms: C1_2  and  C2_3 
ROOT
ATOM      1  C2  UNL d   1      -4.312  -5.281   3.373  0.00  0.00    -0.076 A 
ATOM      2  C3  UNL d   1      -5.399  -5.970   2.806  0.00  0.00     0.004 A 
ATOM      3  C4  UNL d   1      -5.588  -6.000   1.426  0.00  0.00    -0.003 A 
ATOM      4  C5  UNL d   1      -4.693  -5.342   0.589  0.00  0.00     0.000 A 
ATOM      5  C6  UNL d   1      -3.600  -4.668   1.132  0.00  0.00     0.000 A 
ATOM      6  C7  UNL d   1      -3.386  -4.641   2.521  0.00  0.00    -0.073 A 
ATOM      7  C8  UNL d   1      -2.194  -3.894   3.054  0.00  0.00     0.078 C 
ENDROOT
BRANCH   1   8
ATOM      8  C1  UNL d   1      -4.173  -5.260   4.878  0.00  0.00     0.053 C 
ATOM      9  C   UNL d   1      -2.723  -5.318   5.330  0.00  0.00     0.018 C 
ENDBRANCH   1   8
TORSDOF 1
ENDMDL
