MODEL 1
REMARK minimizedAffinity 6.40725565
REMARK minimizedRMSD -1
REMARK  1 active torsions:
REMARK  status: ('A' for Active; 'I' for Inactive)
REMARK    1  A    between atoms: C1_2  and  C2_3 
ROOT
ATOM      1  C2  UNL d   1      -3.434  -3.908   0.422  0.00  0.00    -0.076 A 
ATOM      2  C3  UNL d   1      -4.444  -3.307   1.193  0.00  0.00     0.004 A 
ATOM      3  C4  UNL d   1      -5.553  -4.036   1.618  0.00  0.00    -0.003 A 
ATOM      4  C5  UNL d   1      -5.669  -5.380   1.280  0.00  0.00     0.000 A 
ATOM      5  C6  UNL d   1      -4.668  -5.998   0.531  0.00  0.00     0.000 A 
ATOM      6  C7  UNL d   1      -3.536  -5.280   0.108  0.00  0.00    -0.073 A 
ATOM      7  C8  UNL d   1      -2.489  -5.995  -0.702  0.00  0.00     0.078 C 
ENDROOT
BRANCH   1   8
ATOM      8  C1  UNL d   1      -2.268  -3.060  -0.033  0.00  0.00     0.053 C 
ATOM      9  C   UNL d   1      -2.201  -1.724   0.691  0.00  0.00     0.018 C 
ENDBRANCH   1   8
TORSDOF 1
ENDMDL
