MODEL 1
REMARK minimizedAffinity -5.33857775
REMARK minimizedRMSD -1
REMARK  1 active torsions:
REMARK  status: ('A' for Active; 'I' for Inactive)
REMARK    1  A    between atoms: C1_2  and  C2_3 
ROOT
ATOM      1  C2  UNL d   1       0.265   0.353   0.233  0.00  0.00    -0.076 A 
ATOM      2  C3  UNL d   1       1.362   0.063   1.062  0.00  0.00     0.004 A 
ATOM      3  C4  UNL d   1       1.196  -0.129   2.432  0.00  0.00    -0.003 A 
ATOM      4  C5  UNL d   1      -0.072  -0.035   2.996  0.00  0.00     0.000 A 
ATOM      5  C6  UNL d   1      -1.174   0.235   2.186  0.00  0.00     0.000 A 
ATOM      6  C7  UNL d   1      -1.026   0.415   0.800  0.00  0.00    -0.073 A 
ATOM      7  C8  UNL d   1      -2.249   0.709  -0.024  0.00  0.00     0.078 C 
ENDROOT
BRANCH   1   8
ATOM      8  C1  UNL d   1       0.510   0.578  -1.242  0.00  0.00     0.053 C 
ATOM      9  C   UNL d   1       1.385  -0.503  -1.859  0.00  0.00     0.018 C 
ENDBRANCH   1   8
TORSDOF 1
ENDMDL
