MODEL 1
REMARK minimizedAffinity -5.197896
REMARK minimizedRMSD -1
REMARK  1 active torsions:
REMARK  status: ('A' for Active; 'I' for Inactive)
REMARK    1  A    between atoms: C1_2  and  C2_3 
ROOT
ATOM      1  C2  UNL d   1       0.592  -0.003  -0.046  0.00  0.00    -0.076 A 
ATOM      2  C3  UNL d   1       1.865  -0.189   0.519  0.00  0.00     0.004 A 
ATOM      3  C4  UNL d   1       2.047  -0.167   1.901  0.00  0.00    -0.003 A 
ATOM      4  C5  UNL d   1       0.957   0.040   2.740  0.00  0.00     0.000 A 
ATOM      5  C6  UNL d   1      -0.316   0.209   2.197  0.00  0.00     0.000 A 
ATOM      6  C7  UNL d   1      -0.519   0.173   0.807  0.00  0.00    -0.073 A 
ATOM      7  C8  UNL d   1      -1.913   0.367   0.275  0.00  0.00     0.078 C 
ENDROOT
BRANCH   1   8
ATOM      8  C1  UNL d   1       0.460  -0.010  -1.553  0.00  0.00     0.053 C 
ATOM      9  C   UNL d   1       1.315  -1.085  -2.207  0.00  0.00     0.018 C 
ENDBRANCH   1   8
TORSDOF 1
ENDMDL
