MODEL 1
REMARK minimizedAffinity -4.20594311
REMARK minimizedRMSD -1
REMARK  1 active torsions:
REMARK  status: ('A' for Active; 'I' for Inactive)
REMARK    1  A    between atoms: C1_2  and  C2_3 
ROOT
ATOM      1  C2  UNL d   1      -0.190   0.098   0.181  0.00  0.00    -0.076 A 
ATOM      2  C3  UNL d   1      -1.126  -0.736   0.818  0.00  0.00     0.004 A 
ATOM      3  C4  UNL d   1      -1.038  -1.001   2.184  0.00  0.00    -0.003 A 
ATOM      4  C5  UNL d   1      -0.014  -0.436   2.935  0.00  0.00     0.000 A 
ATOM      5  C6  UNL d   1       0.913   0.408   2.323  0.00  0.00     0.000 A 
ATOM      6  C7  UNL d   1       0.829   0.698   0.951  0.00  0.00    -0.073 A 
ATOM      7  C8  UNL d   1       1.859   1.610   0.342  0.00  0.00     0.078 C 
ENDROOT
BRANCH   1   8
ATOM      8  C1  UNL d   1      -0.320   0.327  -1.307  0.00  0.00     0.053 C 
ATOM      9  C   UNL d   1      -0.079  -0.939  -2.115  0.00  0.00     0.018 C 
ENDBRANCH   1   8
TORSDOF 1
ENDMDL
