MODEL 1
REMARK minimizedAffinity 17.4759369
REMARK minimizedRMSD -1
REMARK  1 active torsions:
REMARK  status: ('A' for Active; 'I' for Inactive)
REMARK    1  A    between atoms: C1_2  and  C2_3 
ROOT
ATOM      1  C2  UNL d   1       1.738  -0.369  -1.300  0.00  0.00    -0.076 A 
ATOM      2  C3  UNL d   1       0.663   0.334  -1.871  0.00  0.00     0.004 A 
ATOM      3  C4  UNL d   1      -0.338   0.885  -1.073  0.00  0.00    -0.003 A 
ATOM      4  C5  UNL d   1      -0.280   0.743   0.309  0.00  0.00     0.000 A 
ATOM      5  C6  UNL d   1       0.789   0.064   0.894  0.00  0.00     0.000 A 
ATOM      6  C7  UNL d   1       1.815  -0.484   0.105  0.00  0.00    -0.073 A 
ATOM      7  C8  UNL d   1       2.940  -1.211   0.788  0.00  0.00     0.078 C 
ENDROOT
BRANCH   1   8
ATOM      8  C1  UNL d   1       2.780  -0.969  -2.217  0.00  0.00     0.053 C 
ATOM      9  C   UNL d   1       2.314  -1.037  -3.663  0.00  0.00     0.018 C 
ENDBRANCH   1   8
TORSDOF 1
ENDMDL
