MODEL 1
REMARK minimizedAffinity 11.1781158
REMARK minimizedRMSD -1
REMARK  1 active torsions:
REMARK  status: ('A' for Active; 'I' for Inactive)
REMARK    1  A    between atoms: C1_2  and  C2_3 
ROOT
ATOM      1  C2  UNL d   1       2.512  -1.505  -3.028  0.00  0.00    -0.076 A 
ATOM      2  C3  UNL d   1       2.252  -2.607  -3.861  0.00  0.00     0.004 A 
ATOM      3  C4  UNL d   1       0.948  -3.048  -4.080  0.00  0.00    -0.003 A 
ATOM      4  C5  UNL d   1      -0.117  -2.394  -3.470  0.00  0.00     0.000 A 
ATOM      5  C6  UNL d   1       0.122  -1.288  -2.655  0.00  0.00     0.000 A 
ATOM      6  C7  UNL d   1       1.429  -0.820  -2.437  0.00  0.00    -0.073 A 
ATOM      7  C8  UNL d   1       1.629   0.374  -1.544  0.00  0.00     0.078 C 
ENDROOT
BRANCH   1   8
ATOM      8  C1  UNL d   1       3.949  -1.088  -2.806  0.00  0.00     0.053 C 
ATOM      9  C   UNL d   1       4.404  -0.020  -3.789  0.00  0.00     0.018 C 
ENDBRANCH   1   8
TORSDOF 1
ENDMDL
