MODEL 1
REMARK minimizedAffinity 2.272861
REMARK minimizedRMSD -1
REMARK  1 active torsions:
REMARK  status: ('A' for Active; 'I' for Inactive)
REMARK    1  A    between atoms: C1_2  and  C2_3 
ROOT
ATOM      1  C2  UNL d   1       2.707  -2.248   3.325  0.00  0.00    -0.076 A 
ATOM      2  C3  UNL d   1       2.363  -2.019   1.981  0.00  0.00     0.004 A 
ATOM      3  C4  UNL d   1       3.042  -1.069   1.219  0.00  0.00    -0.003 A 
ATOM      4  C5  UNL d   1       4.075  -0.333   1.789  0.00  0.00     0.000 A 
ATOM      5  C6  UNL d   1       4.441  -0.560   3.115  0.00  0.00     0.000 A 
ATOM      6  C7  UNL d   1       3.778  -1.526   3.892  0.00  0.00    -0.073 A 
ATOM      7  C8  UNL d   1       4.210  -1.725   5.319  0.00  0.00     0.078 C 
ENDROOT
BRANCH   1   8
ATOM      8  C1  UNL d   1       1.918  -3.272   4.109  0.00  0.00     0.053 C 
ATOM      9  C   UNL d   1       1.040  -4.139   3.219  0.00  0.00     0.018 C 
ENDBRANCH   1   8
TORSDOF 1
ENDMDL
