MODEL 1
REMARK minimizedAffinity 17.3765221
REMARK minimizedRMSD -1
REMARK  1 active torsions:
REMARK  status: ('A' for Active; 'I' for Inactive)
REMARK    1  A    between atoms: C1_2  and  C2_3 
ROOT
ATOM      1  C2  UNL d   1       2.663   1.053  -2.081  0.00  0.00    -0.076 A 
ATOM      2  C3  UNL d   1       3.852   1.319  -2.782  0.00  0.00     0.004 A 
ATOM      3  C4  UNL d   1       4.579   0.290  -3.378  0.00  0.00    -0.003 A 
ATOM      4  C5  UNL d   1       4.128  -1.022  -3.283  0.00  0.00     0.000 A 
ATOM      5  C6  UNL d   1       2.942  -1.302  -2.606  0.00  0.00     0.000 A 
ATOM      6  C7  UNL d   1       2.188  -0.275  -2.014  0.00  0.00    -0.073 A 
ATOM      7  C8  UNL d   1       0.919  -0.634  -1.291  0.00  0.00     0.078 C 
ENDROOT
BRANCH   1   8
ATOM      8  C1  UNL d   1       1.931   2.206  -1.432  0.00  0.00     0.053 C 
ATOM      9  C   UNL d   1       2.842   3.057  -0.560  0.00  0.00     0.018 C 
ENDBRANCH   1   8
TORSDOF 1
ENDMDL
