MODEL 1
REMARK minimizedAffinity 4.08655167
REMARK minimizedRMSD -1
REMARK  0 active torsions:
REMARK  status: ('A' for Active; 'I' for Inactive)
ROOT
ATOM      1  C   UNL d   1      -2.789   1.554   2.253  0.00  0.00     0.023 A 
ATOM      2  C1  UNL d   1      -2.635   0.957   1.002  0.00  0.00     0.003 A 
ATOM      3  C2  UNL d   1      -1.369   0.555   0.570  0.00  0.00     0.048 A 
ATOM      4  C3  UNL d   1      -0.262   0.753   1.394  0.00  0.00     0.023 A 
ATOM      5  C4  UNL d   1      -0.412   1.349   2.647  0.00  0.00     0.048 A 
ATOM      6  C5  UNL d   1      -1.679   1.750   3.075  0.00  0.00     0.003 A 
ATOM      7  I   UNL d   1       1.622   0.155   0.753  0.00  0.00    -0.146 I 
ENDROOT
TORSDOF 0
ENDMDL
