MODEL 1
REMARK minimizedAffinity 4.22366524
REMARK minimizedRMSD -1
REMARK  0 active torsions:
REMARK  status: ('A' for Active; 'I' for Inactive)
ROOT
ATOM      1  C   UNL d   1      -1.881   2.110   2.688  0.00  0.00     0.023 A 
ATOM      2  C1  UNL d   1      -0.663   2.348   3.326  0.00  0.00     0.003 A 
ATOM      3  C2  UNL d   1       0.485   1.666   2.919  0.00  0.00     0.048 A 
ATOM      4  C3  UNL d   1       0.409   0.747   1.872  0.00  0.00     0.023 A 
ATOM      5  C4  UNL d   1      -0.807   0.506   1.231  0.00  0.00     0.048 A 
ATOM      6  C5  UNL d   1      -1.953   1.190   1.642  0.00  0.00     0.003 A 
ATOM      7  I   UNL d   1       2.117  -0.269   1.264  0.00  0.00    -0.146 I 
ENDROOT
TORSDOF 0
ENDMDL
