MODEL 1
REMARK minimizedAffinity 1.79807448
REMARK minimizedRMSD -1
REMARK  0 active torsions:
REMARK  status: ('A' for Active; 'I' for Inactive)
ROOT
ATOM      1  C   UNL d   1      -0.642   1.252   3.044  0.00  0.00     0.023 A 
ATOM      2  C1  UNL d   1      -0.991   2.563   3.365  0.00  0.00     0.003 A 
ATOM      3  C2  UNL d   1      -2.077   2.811   4.208  0.00  0.00     0.048 A 
ATOM      4  C3  UNL d   1      -2.808   1.743   4.726  0.00  0.00     0.023 A 
ATOM      5  C4  UNL d   1      -2.461   0.429   4.408  0.00  0.00     0.048 A 
ATOM      6  C5  UNL d   1      -1.376   0.186   3.565  0.00  0.00     0.003 A 
ATOM      7  I   UNL d   1      -4.425   2.109   5.980  0.00  0.00    -0.146 I 
ENDROOT
TORSDOF 0
ENDMDL
