MODEL 1
REMARK minimizedAffinity 5.48103333
REMARK minimizedRMSD -1
REMARK  0 active torsions:
REMARK  status: ('A' for Active; 'I' for Inactive)
ROOT
ATOM      1  C   UNL d   1      -0.782   0.963   0.996  0.00  0.00     0.023 A 
ATOM      2  C1  UNL d   1      -2.137   0.941   0.665  0.00  0.00     0.003 A 
ATOM      3  C2  UNL d   1      -3.100   1.208   1.640  0.00  0.00     0.048 A 
ATOM      4  C3  UNL d   1      -2.701   1.498   2.945  0.00  0.00     0.023 A 
ATOM      5  C4  UNL d   1      -1.347   1.522   3.280  0.00  0.00     0.048 A 
ATOM      6  C5  UNL d   1      -0.388   1.254   2.302  0.00  0.00     0.003 A 
ATOM      7  I   UNL d   1      -4.133   1.896   4.398  0.00  0.00    -0.146 I 
ENDROOT
TORSDOF 0
ENDMDL
