MODEL 1
REMARK minimizedAffinity 6.76182652
REMARK minimizedRMSD -1
REMARK  0 active torsions:
REMARK  status: ('A' for Active; 'I' for Inactive)
ROOT
ATOM      1  C   UNL d   1      -3.974   4.986   5.998  0.00  0.00     0.023 A 
ATOM      2  C1  UNL d   1      -3.583   3.651   5.904  0.00  0.00     0.003 A 
ATOM      3  C2  UNL d   1      -2.341   3.323   5.355  0.00  0.00     0.048 A 
ATOM      4  C3  UNL d   1      -1.496   4.336   4.904  0.00  0.00     0.023 A 
ATOM      5  C4  UNL d   1      -1.883   5.673   4.997  0.00  0.00     0.048 A 
ATOM      6  C5  UNL d   1      -3.125   5.996   5.546  0.00  0.00     0.003 A 
ATOM      7  I   UNL d   1       0.353   3.850   4.087  0.00  0.00    -0.146 I 
ENDROOT
TORSDOF 0
ENDMDL
