MODEL 1
REMARK minimizedAffinity 8.56841183
REMARK minimizedRMSD -1
REMARK  0 active torsions:
REMARK  status: ('A' for Active; 'I' for Inactive)
ROOT
ATOM      1  C   UNL d   1      -1.394   4.144   5.739  0.00  0.00     0.023 A 
ATOM      2  C1  UNL d   1      -1.622   2.774   5.869  0.00  0.00     0.003 A 
ATOM      3  C2  UNL d   1      -2.928   2.286   5.936  0.00  0.00     0.048 A 
ATOM      4  C3  UNL d   1      -4.002   3.173   5.871  0.00  0.00     0.023 A 
ATOM      5  C4  UNL d   1      -3.779   4.544   5.740  0.00  0.00     0.048 A 
ATOM      6  C5  UNL d   1      -2.471   5.028   5.675  0.00  0.00     0.003 A 
ATOM      7  I   UNL d   1      -5.947   2.448   5.970  0.00  0.00    -0.146 I 
ENDROOT
TORSDOF 0
ENDMDL
