MODEL 1
REMARK minimizedAffinity 5.85023832
REMARK minimizedRMSD -1
REMARK  0 active torsions:
REMARK  status: ('A' for Active; 'I' for Inactive)
ROOT
ATOM      1  C   UNL d   1       3.334  -1.341   3.029  0.00  0.00     0.023 A 
ATOM      2  C1  UNL d   1       2.092  -1.218   2.405  0.00  0.00     0.003 A 
ATOM      3  C2  UNL d   1       1.927  -0.325   1.345  0.00  0.00     0.048 A 
ATOM      4  C3  UNL d   1       3.009   0.442   0.912  0.00  0.00     0.023 A 
ATOM      5  C4  UNL d   1       4.253   0.322   1.532  0.00  0.00     0.048 A 
ATOM      6  C5  UNL d   1       4.413  -0.572   2.593  0.00  0.00     0.003 A 
ATOM      7  I   UNL d   1       2.766   1.771  -0.667  0.00  0.00    -0.146 I 
ENDROOT
TORSDOF 0
ENDMDL
