MODEL 1
REMARK minimizedAffinity 3.21841908
REMARK minimizedRMSD -1
REMARK  0 active torsions:
REMARK  status: ('A' for Active; 'I' for Inactive)
ROOT
ATOM      1  C   UNL d   1      -5.417   2.343   5.999  0.00  0.00     0.023 A 
ATOM      2  C1  UNL d   1      -4.050   2.069   5.997  0.00  0.00     0.003 A 
ATOM      3  C2  UNL d   1      -3.127   3.117   5.996  0.00  0.00     0.048 A 
ATOM      4  C3  UNL d   1      -3.578   4.436   5.997  0.00  0.00     0.023 A 
ATOM      5  C4  UNL d   1      -4.946   4.715   5.999  0.00  0.00     0.048 A 
ATOM      6  C5  UNL d   1      -5.865   3.664   6.000  0.00  0.00     0.003 A 
ATOM      7  I   UNL d   1      -2.206   5.997   5.995  0.00  0.00    -0.146 I 
ENDROOT
TORSDOF 0
ENDMDL
