MODEL 1
REMARK minimizedAffinity 14.6218204
REMARK minimizedRMSD -1
REMARK  0 active torsions:
REMARK  status: ('A' for Active; 'I' for Inactive)
ROOT
ATOM      1  C   UNL d   1       5.116  -0.121   2.738  0.00  0.00     0.023 A 
ATOM      2  C1  UNL d   1       5.521   0.755   1.730  0.00  0.00     0.003 A 
ATOM      3  C2  UNL d   1       4.569   1.385   0.927  0.00  0.00     0.048 A 
ATOM      4  C3  UNL d   1       3.213   1.136   1.137  0.00  0.00     0.023 A 
ATOM      5  C4  UNL d   1       2.803   0.261   2.144  0.00  0.00     0.048 A 
ATOM      6  C5  UNL d   1       3.759  -0.368   2.944  0.00  0.00     0.003 A 
ATOM      7  I   UNL d   1       1.793   2.073  -0.058  0.00  0.00    -0.146 I 
ENDROOT
TORSDOF 0
ENDMDL
