MODEL 1
REMARK minimizedAffinity 5.10707426
REMARK minimizedRMSD -1
REMARK  0 active torsions:
REMARK  status: ('A' for Active; 'I' for Inactive)
ROOT
ATOM      1  C   UNL d   1      -2.885   5.770   5.751  0.00  0.00     0.023 A 
ATOM      2  C1  UNL d   1      -4.263   5.987   5.741  0.00  0.00     0.003 A 
ATOM      3  C2  UNL d   1      -5.142   4.904   5.801  0.00  0.00     0.048 A 
ATOM      4  C3  UNL d   1      -4.637   3.606   5.871  0.00  0.00     0.023 A 
ATOM      5  C4  UNL d   1      -3.259   3.384   5.882  0.00  0.00     0.048 A 
ATOM      6  C5  UNL d   1      -2.384   4.470   5.821  0.00  0.00     0.003 A 
ATOM      7  I   UNL d   1      -5.943   1.992   5.960  0.00  0.00    -0.146 I 
ENDROOT
TORSDOF 0
ENDMDL
