MODEL 1
REMARK minimizedAffinity 11.8333893
REMARK minimizedRMSD -1
REMARK  0 active torsions:
REMARK  status: ('A' for Active; 'I' for Inactive)
ROOT
ATOM      1  C   UNL d   1       1.284   0.175   1.288  0.00  0.00     0.023 A 
ATOM      2  C1  UNL d   1       2.198   1.023   0.663  0.00  0.00     0.003 A 
ATOM      3  C2  UNL d   1       3.548   0.977   1.015  0.00  0.00     0.048 A 
ATOM      4  C3  UNL d   1       3.978   0.080   1.992  0.00  0.00     0.023 A 
ATOM      5  C4  UNL d   1       3.067  -0.771   2.620  0.00  0.00     0.048 A 
ATOM      6  C5  UNL d   1       1.717  -0.721   2.265  0.00  0.00     0.003 A 
ATOM      7  I   UNL d   1       5.987   0.010   2.518  0.00  0.00    -0.146 I 
ENDROOT
TORSDOF 0
ENDMDL
