MODEL 1
REMARK minimizedAffinity 0.82224071
REMARK minimizedRMSD -1
REMARK  0 active torsions:
REMARK  status: ('A' for Active; 'I' for Inactive)
ROOT
ATOM      1  C   UNL d   1      -3.092  -2.132   5.019  0.00  0.00     0.023 A 
ATOM      2  C1  UNL d   1      -3.490  -3.357   5.553  0.00  0.00     0.003 A 
ATOM      3  C2  UNL d   1      -4.001  -4.352   4.716  0.00  0.00     0.048 A 
ATOM      4  C3  UNL d   1      -4.108  -4.115   3.346  0.00  0.00     0.023 A 
ATOM      5  C4  UNL d   1      -3.710  -2.891   2.807  0.00  0.00     0.048 A 
ATOM      6  C5  UNL d   1      -3.201  -1.899   3.648  0.00  0.00     0.003 A 
ATOM      7  I   UNL d   1      -4.867  -5.595   2.099  0.00  0.00    -0.146 I 
ENDROOT
TORSDOF 0
ENDMDL
