MODEL 1
REMARK minimizedAffinity 5.60729742
REMARK minimizedRMSD -1
REMARK  0 active torsions:
REMARK  status: ('A' for Active; 'I' for Inactive)
ROOT
ATOM      1  C   UNL d   1      -5.912   5.086   5.992  0.00  0.00     0.023 A 
ATOM      2  C1  UNL d   1      -5.648   3.716   5.995  0.00  0.00     0.003 A 
ATOM      3  C2  UNL d   1      -4.329   3.258   5.990  0.00  0.00     0.048 A 
ATOM      4  C3  UNL d   1      -3.278   4.175   5.985  0.00  0.00     0.023 A 
ATOM      5  C4  UNL d   1      -3.538   5.547   5.983  0.00  0.00     0.048 A 
ATOM      6  C5  UNL d   1      -4.859   6.000   5.987  0.00  0.00     0.003 A 
ATOM      7  I   UNL d   1      -1.314   3.496   5.979  0.00  0.00    -0.146 I 
ENDROOT
TORSDOF 0
ENDMDL
