MODEL 1
REMARK minimizedAffinity 0.616078913
REMARK minimizedRMSD -1
REMARK  0 active torsions:
REMARK  status: ('A' for Active; 'I' for Inactive)
ROOT
ATOM      1  C   UNL d   1       4.318   0.895   1.319  0.00  0.00     0.023 A 
ATOM      2  C1  UNL d   1       4.933  -0.091   2.090  0.00  0.00     0.003 A 
ATOM      3  C2  UNL d   1       4.200  -1.197   2.526  0.00  0.00     0.048 A 
ATOM      4  C3  UNL d   1       2.853  -1.311   2.186  0.00  0.00     0.023 A 
ATOM      5  C4  UNL d   1       2.233  -0.327   1.414  0.00  0.00     0.048 A 
ATOM      6  C5  UNL d   1       2.969   0.777   0.982  0.00  0.00     0.003 A 
ATOM      7  I   UNL d   1       1.760  -2.956   2.833  0.00  0.00    -0.146 I 
ENDROOT
TORSDOF 0
ENDMDL
