MODEL 1
REMARK minimizedAffinity 6.21054602
REMARK minimizedRMSD -1
REMARK  0 active torsions:
REMARK  status: ('A' for Active; 'I' for Inactive)
ROOT
ATOM      1  C   UNL d   1       2.283  -1.587  -3.814  0.00  0.00     0.023 A 
ATOM      2  C1  UNL d   1       3.339  -0.811  -3.336  0.00  0.00     0.003 A 
ATOM      3  C2  UNL d   1       3.660   0.395  -3.962  0.00  0.00     0.048 A 
ATOM      4  C3  UNL d   1       2.921   0.820  -5.066  0.00  0.00     0.023 A 
ATOM      5  C4  UNL d   1       1.863   0.047  -5.547  0.00  0.00     0.048 A 
ATOM      6  C5  UNL d   1       1.546  -1.159  -4.919  0.00  0.00     0.003 A 
ATOM      7  I   UNL d   1       3.398   2.614  -6.000  0.00  0.00    -0.146 I 
ENDROOT
TORSDOF 0
ENDMDL
