MODEL 1
REMARK minimizedAffinity 4.67235947
REMARK minimizedRMSD -1
REMARK  0 active torsions:
REMARK  status: ('A' for Active; 'I' for Inactive)
ROOT
ATOM      1  C   UNL d   1      -3.551   5.940   5.985  0.00  0.00     0.023 A 
ATOM      2  C1  UNL d   1      -4.942   5.836   5.996  0.00  0.00     0.003 A 
ATOM      3  C2  UNL d   1      -5.551   4.579   6.000  0.00  0.00     0.048 A 
ATOM      4  C3  UNL d   1      -4.762   3.430   5.994  0.00  0.00     0.023 A 
ATOM      5  C4  UNL d   1      -3.369   3.528   5.984  0.00  0.00     0.048 A 
ATOM      6  C5  UNL d   1      -2.766   4.787   5.979  0.00  0.00     0.003 A 
ATOM      7  I   UNL d   1      -5.664   1.557   6.000  0.00  0.00    -0.146 I 
ENDROOT
TORSDOF 0
ENDMDL
