MODEL 1
REMARK minimizedAffinity 3.72487998
REMARK minimizedRMSD -1
REMARK  0 active torsions:
REMARK  status: ('A' for Active; 'I' for Inactive)
ROOT
ATOM      1  C   UNL d   1       1.930   0.731   0.453  0.00  0.00     0.023 A 
ATOM      2  C1  UNL d   1       1.911  -0.052   1.608  0.00  0.00     0.003 A 
ATOM      3  C2  UNL d   1       3.079  -0.225   2.354  0.00  0.00     0.048 A 
ATOM      4  C3  UNL d   1       4.261   0.390   1.942  0.00  0.00     0.023 A 
ATOM      5  C4  UNL d   1       4.283   1.174   0.788  0.00  0.00     0.048 A 
ATOM      6  C5  UNL d   1       3.114   1.343   0.044  0.00  0.00     0.003 A 
ATOM      7  I   UNL d   1       5.999   0.135   3.052  0.00  0.00    -0.146 I 
ENDROOT
TORSDOF 0
ENDMDL
