MODEL 1
REMARK minimizedAffinity 7.61985922
REMARK minimizedRMSD -1
REMARK  0 active torsions:
REMARK  status: ('A' for Active; 'I' for Inactive)
ROOT
ATOM      1  C   UNL d   1       1.579  -1.082   1.556  0.00  0.00     0.023 A 
ATOM      2  C1  UNL d   1       2.151  -1.962   2.475  0.00  0.00     0.003 A 
ATOM      3  C2  UNL d   1       3.418  -1.698   3.000  0.00  0.00     0.048 A 
ATOM      4  C3  UNL d   1       4.106  -0.552   2.602  0.00  0.00     0.023 A 
ATOM      5  C4  UNL d   1       3.537   0.331   1.683  0.00  0.00     0.048 A 
ATOM      6  C5  UNL d   1       2.271   0.063   1.161  0.00  0.00     0.003 A 
ATOM      7  I   UNL d   1       5.992  -0.157   3.382  0.00  0.00    -0.146 I 
ENDROOT
TORSDOF 0
ENDMDL
