MODEL 1
REMARK minimizedAffinity 10.4799147
REMARK minimizedRMSD -1
REMARK  0 active torsions:
REMARK  status: ('A' for Active; 'I' for Inactive)
ROOT
ATOM      1  C   UNL d   1      -3.791  -2.818   5.998  0.00  0.00     0.023 A 
ATOM      2  C1  UNL d   1      -4.283  -3.636   4.981  0.00  0.00     0.003 A 
ATOM      3  C2  UNL d   1      -4.181  -3.233   3.648  0.00  0.00     0.048 A 
ATOM      4  C3  UNL d   1      -3.585  -2.010   3.339  0.00  0.00     0.023 A 
ATOM      5  C4  UNL d   1      -3.092  -1.188   4.354  0.00  0.00     0.048 A 
ATOM      6  C5  UNL d   1      -3.197  -1.596   5.685  0.00  0.00     0.003 A 
ATOM      7  I   UNL d   1      -3.432  -1.407   1.356  0.00  0.00    -0.146 I 
ENDROOT
TORSDOF 0
ENDMDL
