MODEL 1
REMARK minimizedAffinity -4.17528439
REMARK minimizedRMSD -1
REMARK  1 active torsions:
REMARK  status: ('A' for Active; 'I' for Inactive)
REMARK    1  A    between atoms: N_2  and  C1_3 
ROOT
ATOM      1  C1  UNL d   1       0.308   0.129   0.405  0.00  0.00     0.143 A 
ATOM      2  C2  UNL d   1      -0.439  -0.757   1.189  0.00  0.00    -0.057 A 
ATOM      3  C3  UNL d   1       0.021  -1.183   2.441  0.00  0.00     0.033 A 
ATOM      4  C4  UNL d   1       1.254  -0.752   2.920  0.00  0.00    -0.042 A 
ATOM      5  C5  UNL d   1       2.025   0.108   2.147  0.00  0.00     0.033 A 
ATOM      6  C6  UNL d   1       1.557   0.536   0.900  0.00  0.00    -0.057 A 
ENDROOT
BRANCH   1   7
ATOM      7  N   UNL d   1      -0.049   0.512  -0.890  0.00  0.00    -0.732 N 
ATOM      8  C   UNL d   1      -0.044   1.908  -1.273  0.00  0.00     0.284 C 
ATOM      9  H3  UNL d   1       0.327  -0.114  -1.598  0.00  0.00     0.395 HD
ENDBRANCH   1   7
TORSDOF 1
ENDMDL
