MODEL 1
REMARK minimizedAffinity -4.36411572
REMARK minimizedRMSD -1
REMARK  1 active torsions:
REMARK  status: ('A' for Active; 'I' for Inactive)
REMARK    1  A    between atoms: N_2  and  C1_3 
ROOT
ATOM      1  C1  UNL d   1      -0.014  -0.321   0.322  0.00  0.00     0.143 A 
ATOM      2  C2  UNL d   1      -0.431  -0.234   1.655  0.00  0.00    -0.057 A 
ATOM      3  C3  UNL d   1       0.237  -0.928   2.671  0.00  0.00     0.033 A 
ATOM      4  C4  UNL d   1       1.320  -1.747   2.367  0.00  0.00    -0.042 A 
ATOM      5  C5  UNL d   1       1.736  -1.868   1.046  0.00  0.00     0.033 A 
ATOM      6  C6  UNL d   1       1.069  -1.167   0.037  0.00  0.00    -0.057 A 
ENDROOT
BRANCH   1   7
ATOM      7  N   UNL d   1      -0.696   0.266  -0.746  0.00  0.00    -0.732 N 
ATOM      8  C   UNL d   1      -0.136   1.404  -1.442  0.00  0.00     0.284 C 
ATOM      9  H3  UNL d   1      -1.128  -0.424  -1.357  0.00  0.00     0.395 HD
ENDBRANCH   1   7
TORSDOF 1
ENDMDL
