MODEL 1
REMARK minimizedAffinity -3.55091858
REMARK minimizedRMSD -1
REMARK  1 active torsions:
REMARK  status: ('A' for Active; 'I' for Inactive)
REMARK    1  A    between atoms: N_2  and  C1_3 
ROOT
ATOM      1  C1  UNL d   1      -0.298  -0.483   0.581  0.00  0.00     0.143 A 
ATOM      2  C2  UNL d   1       0.349  -0.567   1.818  0.00  0.00    -0.057 A 
ATOM      3  C3  UNL d   1       1.726  -0.810   1.903  0.00  0.00     0.033 A 
ATOM      4  C4  UNL d   1       2.476  -1.004   0.749  0.00  0.00    -0.042 A 
ATOM      5  C5  UNL d   1       1.850  -0.951  -0.491  0.00  0.00     0.033 A 
ATOM      6  C6  UNL d   1       0.476  -0.700  -0.570  0.00  0.00    -0.057 A 
ENDROOT
BRANCH   1   7
ATOM      7  N   UNL d   1      -1.680  -0.342   0.433  0.00  0.00    -0.732 N 
ATOM      8  C   UNL d   1      -2.426  -1.240  -0.422  0.00  0.00     0.284 C 
ATOM      9  H3  UNL d   1      -2.143  -0.123   1.312  0.00  0.00     0.395 HD
ENDBRANCH   1   7
TORSDOF 1
ENDMDL
