MODEL 1
REMARK minimizedAffinity -2.75903678
REMARK minimizedRMSD -1
REMARK  1 active torsions:
REMARK  status: ('A' for Active; 'I' for Inactive)
REMARK    1  A    between atoms: N_2  and  C1_3 
ROOT
ATOM      1  C1  UNL d   1      -1.720  -0.722  -0.110  0.00  0.00     0.143 A 
ATOM      2  C2  UNL d   1      -1.714  -0.543   1.278  0.00  0.00    -0.057 A 
ATOM      3  C3  UNL d   1      -0.544  -0.183   1.958  0.00  0.00     0.033 A 
ATOM      4  C4  UNL d   1       0.650  -0.022   1.264  0.00  0.00    -0.042 A 
ATOM      5  C5  UNL d   1       0.673  -0.219  -0.112  0.00  0.00     0.033 A 
ATOM      6  C6  UNL d   1      -0.499  -0.572  -0.787  0.00  0.00    -0.057 A 
ENDROOT
BRANCH   1   7
ATOM      7  N   UNL d   1      -2.827  -1.176  -0.831  0.00  0.00    -0.732 N 
ATOM      8  C   UNL d   1      -3.937  -1.811  -0.154  0.00  0.00     0.284 C 
ATOM      9  H3  UNL d   1      -3.103  -0.529  -1.566  0.00  0.00     0.395 HD
ENDBRANCH   1   7
TORSDOF 1
ENDMDL
