MODEL 1
REMARK minimizedAffinity -0.87132746
REMARK minimizedRMSD -1
REMARK  1 active torsions:
REMARK  status: ('A' for Active; 'I' for Inactive)
REMARK    1  A    between atoms: N_2  and  C1_3 
ROOT
ATOM      1  C1  UNL d   1       0.346  -0.799   0.596  0.00  0.00     0.143 A 
ATOM      2  C2  UNL d   1       0.796  -1.929   1.287  0.00  0.00    -0.057 A 
ATOM      3  C3  UNL d   1       0.883  -1.939   2.684  0.00  0.00     0.033 A 
ATOM      4  C4  UNL d   1       0.546  -0.806   3.416  0.00  0.00    -0.042 A 
ATOM      5  C5  UNL d   1       0.119   0.337   2.750  0.00  0.00     0.033 A 
ATOM      6  C6  UNL d   1       0.029   0.339   1.354  0.00  0.00    -0.057 A 
ENDROOT
BRANCH   1   7
ATOM      7  N   UNL d   1       0.331  -0.693  -0.797  0.00  0.00    -0.732 N 
ATOM      8  C   UNL d   1       1.415  -1.234  -1.588  0.00  0.00     0.284 C 
ATOM      9  H3  UNL d   1      -0.593  -0.859  -1.189  0.00  0.00     0.395 HD
ENDBRANCH   1   7
TORSDOF 1
ENDMDL
