MODEL 1
REMARK minimizedAffinity -1.71111572
REMARK minimizedRMSD -1
REMARK  1 active torsions:
REMARK  status: ('A' for Active; 'I' for Inactive)
REMARK    1  A    between atoms: N_2  and  C1_3 
ROOT
ATOM      1  C1  UNL d   1       0.551  -0.607   1.824  0.00  0.00     0.143 A 
ATOM      2  C2  UNL d   1       1.419  -0.693   0.731  0.00  0.00    -0.057 A 
ATOM      3  C3  UNL d   1       0.996  -0.356  -0.561  0.00  0.00     0.033 A 
ATOM      4  C4  UNL d   1      -0.317   0.046  -0.786  0.00  0.00    -0.042 A 
ATOM      5  C5  UNL d   1      -1.204   0.115   0.282  0.00  0.00     0.033 A 
ATOM      6  C6  UNL d   1      -0.773  -0.216   1.570  0.00  0.00    -0.057 A 
ENDROOT
BRANCH   1   7
ATOM      7  N   UNL d   1       0.884  -1.022   3.116  0.00  0.00    -0.732 N 
ATOM      8  C   UNL d   1       2.236  -0.875   3.612  0.00  0.00     0.284 C 
ATOM      9  H3  UNL d   1       0.164  -0.788   3.797  0.00  0.00     0.395 HD
ENDBRANCH   1   7
TORSDOF 1
ENDMDL
