MODEL 1
REMARK minimizedAffinity -3.35491562
REMARK minimizedRMSD -1
REMARK  1 active torsions:
REMARK  status: ('A' for Active; 'I' for Inactive)
REMARK    1  A    between atoms: N_2  and  C1_3 
ROOT
ATOM      1  C1  UNL d   1      -0.795  -0.673   1.167  0.00  0.00     0.143 A 
ATOM      2  C2  UNL d   1       0.245  -0.430   0.263  0.00  0.00    -0.057 A 
ATOM      3  C3  UNL d   1       1.578  -0.378   0.688  0.00  0.00     0.033 A 
ATOM      4  C4  UNL d   1       1.893  -0.540   2.033  0.00  0.00    -0.042 A 
ATOM      5  C5  UNL d   1       0.873  -0.757   2.953  0.00  0.00     0.033 A 
ATOM      6  C6  UNL d   1      -0.456  -0.815   2.521  0.00  0.00    -0.057 A 
ENDROOT
BRANCH   1   7
ATOM      7  N   UNL d   1      -2.149  -0.638   0.822  0.00  0.00    -0.732 N 
ATOM      8  C   UNL d   1      -2.637  -1.378  -0.322  0.00  0.00     0.284 C 
ATOM      9  H3  UNL d   1      -2.758  -0.681   1.636  0.00  0.00     0.395 HD
ENDBRANCH   1   7
TORSDOF 1
ENDMDL
