MODEL 1
REMARK minimizedAffinity -4.24100733
REMARK minimizedRMSD -1
REMARK  1 active torsions:
REMARK  status: ('A' for Active; 'I' for Inactive)
REMARK    1  A    between atoms: N_2  and  C1_3 
ROOT
ATOM      1  C1  UNL d   1      -1.014  -0.839  -0.244  0.00  0.00     0.143 A 
ATOM      2  C2  UNL d   1      -1.262  -0.906   1.131  0.00  0.00    -0.057 A 
ATOM      3  C3  UNL d   1      -0.221  -0.813   2.063  0.00  0.00     0.033 A 
ATOM      4  C4  UNL d   1       1.095  -0.681   1.632  0.00  0.00    -0.042 A 
ATOM      5  C5  UNL d   1       1.368  -0.637   0.270  0.00  0.00     0.033 A 
ATOM      6  C6  UNL d   1       0.323  -0.724  -0.655  0.00  0.00    -0.057 A 
ENDROOT
BRANCH   1   7
ATOM      7  N   UNL d   1      -1.995  -1.024  -1.221  0.00  0.00    -0.732 N 
ATOM      8  C   UNL d   1      -3.197  -1.774  -0.927  0.00  0.00     0.284 C 
ATOM      9  H3  UNL d   1      -2.153  -0.186  -1.776  0.00  0.00     0.395 HD
ENDBRANCH   1   7
TORSDOF 1
ENDMDL
