MODEL 1
REMARK minimizedAffinity 12.9453735
REMARK minimizedRMSD -1
REMARK  0 active torsions:
REMARK  status: ('A' for Active; 'I' for Inactive)
ROOT
ATOM      1  C   UNL d   1       2.293   0.261  -1.298  0.00  0.00     0.124 A 
ATOM      2  C1  UNL d   1       2.905   0.860  -0.206  0.00  0.00     0.062 A 
ATOM      3  C2  UNL d   1       2.136   1.353   0.844  0.00  0.00     0.162 A 
ATOM      4  C3  UNL d   1       0.746   1.248   0.809  0.00  0.00    -0.034 A 
ATOM      5  C4  UNL d   1       0.137   0.645  -0.293  0.00  0.00     0.162 A 
ATOM      6  C5  UNL d   1       0.910   0.154  -1.341  0.00  0.00     0.062 A 
ATOM      7  F   UNL d   1       0.316  -0.424  -2.395  0.00  0.00    -0.097 F 
ATOM      8  F1  UNL d   1      -1.197   0.528  -0.360  0.00  0.00    -0.096 F 
ATOM      9  I   UNL d   1      -0.407   1.984   2.377  0.00  0.00    -0.060 I 
ATOM     10  F2  UNL d   1       2.755   1.927   1.887  0.00  0.00    -0.096 F 
ATOM     11  F3  UNL d   1       4.241   0.965  -0.163  0.00  0.00    -0.097 F 
ATOM     12  F4  UNL d   1       3.034  -0.211  -2.308  0.00  0.00    -0.092 F 
ENDROOT
TORSDOF 0
ENDMDL
