MODEL 1
REMARK minimizedAffinity 26.6738491
REMARK minimizedRMSD -1
REMARK  0 active torsions:
REMARK  status: ('A' for Active; 'I' for Inactive)
ROOT
ATOM      1  C   UNL d   1      -2.707   0.998   2.151  0.00  0.00     0.124 A 
ATOM      2  C1  UNL d   1      -1.323   1.108   2.135  0.00  0.00     0.062 A 
ATOM      3  C2  UNL d   1      -0.651   1.642   3.231  0.00  0.00     0.162 A 
ATOM      4  C3  UNL d   1      -1.362   2.069   4.353  0.00  0.00    -0.034 A 
ATOM      5  C4  UNL d   1      -2.753   1.956   4.361  0.00  0.00     0.162 A 
ATOM      6  C5  UNL d   1      -3.420   1.422   3.263  0.00  0.00     0.062 A 
ATOM      7  F   UNL d   1      -4.757   1.316   3.280  0.00  0.00    -0.097 F 
ATOM      8  F1  UNL d   1      -3.467   2.357   5.423  0.00  0.00    -0.096 F 
ATOM      9  I   UNL d   1      -0.360   2.868   5.993  0.00  0.00    -0.060 I 
ATOM     10  F2  UNL d   1       0.686   1.737   3.188  0.00  0.00    -0.096 F 
ATOM     11  F3  UNL d   1      -0.632   0.701   1.061  0.00  0.00    -0.097 F 
ATOM     12  F4  UNL d   1      -3.351   0.485   1.095  0.00  0.00    -0.092 F 
ENDROOT
TORSDOF 0
ENDMDL
