MODEL 1
REMARK minimizedAffinity 20.588665
REMARK minimizedRMSD -1
REMARK  0 active torsions:
REMARK  status: ('A' for Active; 'I' for Inactive)
ROOT
ATOM      1  C   UNL d   1       3.198  -2.491   0.077  0.00  0.00     0.124 A 
ATOM      2  C1  UNL d   1       2.315  -2.079  -0.911  0.00  0.00     0.062 A 
ATOM      3  C2  UNL d   1       2.271  -0.743  -1.298  0.00  0.00     0.162 A 
ATOM      4  C3  UNL d   1       3.114   0.192  -0.697  0.00  0.00    -0.034 A 
ATOM      5  C4  UNL d   1       4.000  -0.230   0.297  0.00  0.00     0.162 A 
ATOM      6  C5  UNL d   1       4.040  -1.566   0.680  0.00  0.00     0.062 A 
ATOM      7  F   UNL d   1       4.894  -1.962   1.634  0.00  0.00    -0.097 F 
ATOM      8  F1  UNL d   1       4.824   0.643   0.895  0.00  0.00    -0.096 F 
ATOM      9  I   UNL d   1       3.052   2.191  -1.273  0.00  0.00    -0.060 I 
ATOM     10  F2  UNL d   1       1.407  -0.373  -2.255  0.00  0.00    -0.096 F 
ATOM     11  F3  UNL d   1       1.501  -2.970  -1.494  0.00  0.00    -0.097 F 
ATOM     12  F4  UNL d   1       3.238  -3.777   0.448  0.00  0.00    -0.092 F 
ENDROOT
TORSDOF 0
ENDMDL
