MODEL 1
REMARK minimizedAffinity 25.798975
REMARK minimizedRMSD -1
REMARK  0 active torsions:
REMARK  status: ('A' for Active; 'I' for Inactive)
ROOT
ATOM      1  C   UNL d   1       3.391  -2.955   0.589  0.00  0.00     0.124 A 
ATOM      2  C1  UNL d   1       4.469  -2.167   0.969  0.00  0.00     0.062 A 
ATOM      3  C2  UNL d   1       4.344  -0.782   1.008  0.00  0.00     0.162 A 
ATOM      4  C3  UNL d   1       3.135  -0.174   0.667  0.00  0.00    -0.034 A 
ATOM      5  C4  UNL d   1       2.056  -0.973   0.285  0.00  0.00     0.162 A 
ATOM      6  C5  UNL d   1       2.186  -2.358   0.247  0.00  0.00     0.062 A 
ATOM      7  F   UNL d   1       1.144  -3.117  -0.120  0.00  0.00    -0.097 F 
ATOM      8  F1  UNL d   1       0.880  -0.422  -0.050  0.00  0.00    -0.096 F 
ATOM      9  I   UNL d   1       2.944   1.897   0.724  0.00  0.00    -0.060 I 
ATOM     10  F2  UNL d   1       5.402  -0.045   1.378  0.00  0.00    -0.096 F 
ATOM     11  F3  UNL d   1       5.634  -2.742   1.298  0.00  0.00    -0.097 F 
ATOM     12  F4  UNL d   1       3.514  -4.288   0.551  0.00  0.00    -0.092 F 
ENDROOT
TORSDOF 0
ENDMDL
