MODEL 1
REMARK minimizedAffinity 19.7912865
REMARK minimizedRMSD -1
REMARK  0 active torsions:
REMARK  status: ('A' for Active; 'I' for Inactive)
ROOT
ATOM      1  C   UNL d   1      -1.982   1.395   2.834  0.00  0.00     0.124 A 
ATOM      2  C1  UNL d   1      -2.103   0.820   1.577  0.00  0.00     0.062 A 
ATOM      3  C2  UNL d   1      -0.968   0.564   0.813  0.00  0.00     0.162 A 
ATOM      4  C3  UNL d   1       0.298   0.883   1.304  0.00  0.00    -0.034 A 
ATOM      5  C4  UNL d   1       0.411   1.462   2.569  0.00  0.00     0.162 A 
ATOM      6  C5  UNL d   1      -0.726   1.716   3.329  0.00  0.00     0.062 A 
ATOM      7  F   UNL d   1      -0.608   2.272   4.544  0.00  0.00    -0.097 F 
ATOM      8  F1  UNL d   1       1.613   1.780   3.072  0.00  0.00    -0.096 F 
ATOM      9  I   UNL d   1       1.997   0.502   0.164  0.00  0.00    -0.060 I 
ATOM     10  F2  UNL d   1      -1.114   0.008  -0.399  0.00  0.00    -0.096 F 
ATOM     11  F3  UNL d   1      -3.315   0.511   1.096  0.00  0.00    -0.097 F 
ATOM     12  F4  UNL d   1      -3.076   1.641   3.567  0.00  0.00    -0.092 F 
ENDROOT
TORSDOF 0
ENDMDL
