MODEL 1
REMARK minimizedAffinity 22.1166344
REMARK minimizedRMSD -1
REMARK  0 active torsions:
REMARK  status: ('A' for Active; 'I' for Inactive)
ROOT
ATOM      1  C   UNL d   1      -1.117   2.173   2.462  0.00  0.00     0.124 A 
ATOM      2  C1  UNL d   1      -2.485   2.214   2.694  0.00  0.00     0.062 A 
ATOM      3  C2  UNL d   1      -3.173   1.050   3.027  0.00  0.00     0.162 A 
ATOM      4  C3  UNL d   1      -2.494  -0.164   3.130  0.00  0.00    -0.034 A 
ATOM      5  C4  UNL d   1      -1.119  -0.197   2.895  0.00  0.00     0.162 A 
ATOM      6  C5  UNL d   1      -0.435   0.968   2.563  0.00  0.00     0.062 A 
ATOM      7  F   UNL d   1       0.886   0.927   2.339  0.00  0.00    -0.097 F 
ATOM      8  F1  UNL d   1      -0.435  -1.347   2.986  0.00  0.00    -0.096 F 
ATOM      9  I   UNL d   1      -3.520  -1.905   3.628  0.00  0.00    -0.060 I 
ATOM     10  F2  UNL d   1      -4.495   1.119   3.245  0.00  0.00    -0.096 F 
ATOM     11  F3  UNL d   1      -3.146   3.376   2.596  0.00  0.00    -0.097 F 
ATOM     12  F4  UNL d   1      -0.457   3.294   2.141  0.00  0.00    -0.092 F 
ENDROOT
TORSDOF 0
ENDMDL
