MODEL 1
REMARK minimizedAffinity 15.7296429
REMARK minimizedRMSD -1
REMARK  0 active torsions:
REMARK  status: ('A' for Active; 'I' for Inactive)
ROOT
ATOM      1  C   UNL d   1      -0.936   0.947   2.210  0.00  0.00     0.124 A 
ATOM      2  C1  UNL d   1      -2.323   0.907   2.172  0.00  0.00     0.062 A 
ATOM      3  C2  UNL d   1      -3.067   1.371   3.253  0.00  0.00     0.162 A 
ATOM      4  C3  UNL d   1      -2.425   1.881   4.382  0.00  0.00    -0.034 A 
ATOM      5  C4  UNL d   1      -1.030   1.918   4.413  0.00  0.00     0.162 A 
ATOM      6  C5  UNL d   1      -0.291   1.452   3.330  0.00  0.00     0.062 A 
ATOM      7  F   UNL d   1       1.049   1.491   3.369  0.00  0.00    -0.097 F 
ATOM      8  F1  UNL d   1      -0.381   2.401   5.483  0.00  0.00    -0.096 F 
ATOM      9  I   UNL d   1      -3.534   2.577   6.000  0.00  0.00    -0.060 I 
ATOM     10  F2  UNL d   1      -4.406   1.321   3.189  0.00  0.00    -0.096 F 
ATOM     11  F3  UNL d   1      -2.949   0.418   1.092  0.00  0.00    -0.097 F 
ATOM     12  F4  UNL d   1      -0.223   0.498   1.170  0.00  0.00    -0.092 F 
ENDROOT
TORSDOF 0
ENDMDL
