MODEL 1
REMARK minimizedAffinity 23.6887989
REMARK minimizedRMSD -1
REMARK  0 active torsions:
REMARK  status: ('A' for Active; 'I' for Inactive)
ROOT
ATOM      1  C   UNL d   1      -1.252  -4.292  -2.974  0.00  0.00     0.124 A 
ATOM      2  C1  UNL d   1      -2.564  -4.676  -2.734  0.00  0.00     0.062 A 
ATOM      3  C2  UNL d   1      -3.580  -4.272  -3.594  0.00  0.00     0.162 A 
ATOM      4  C3  UNL d   1      -3.289  -3.479  -4.704  0.00  0.00    -0.034 A 
ATOM      5  C4  UNL d   1      -1.968  -3.096  -4.939  0.00  0.00     0.162 A 
ATOM      6  C5  UNL d   1      -0.955  -3.502  -4.076  0.00  0.00     0.062 A 
ATOM      7  F   UNL d   1       0.312  -3.130  -4.310  0.00  0.00    -0.097 F 
ATOM      8  F1  UNL d   1      -1.653  -2.334  -5.997  0.00  0.00    -0.096 F 
ATOM      9  I   UNL d   1      -4.807  -2.873  -5.993  0.00  0.00    -0.060 I 
ATOM     10  F2  UNL d   1      -4.839  -4.659  -3.337  0.00  0.00    -0.096 F 
ATOM     11  F3  UNL d   1      -2.853  -5.438  -1.669  0.00  0.00    -0.097 F 
ATOM     12  F4  UNL d   1      -0.276  -4.681  -2.144  0.00  0.00    -0.092 F 
ENDROOT
TORSDOF 0
ENDMDL
