MODEL 1
REMARK minimizedAffinity 16.6325378
REMARK minimizedRMSD -1
REMARK  0 active torsions:
REMARK  status: ('A' for Active; 'I' for Inactive)
ROOT
ATOM      1  C   UNL d   1       3.001  -2.871   0.094  0.00  0.00     0.124 A 
ATOM      2  C1  UNL d   1       4.041  -1.997   0.379  0.00  0.00     0.062 A 
ATOM      3  C2  UNL d   1       4.022  -0.699  -0.122  0.00  0.00     0.162 A 
ATOM      4  C3  UNL d   1       2.957  -0.265  -0.913  0.00  0.00    -0.034 A 
ATOM      5  C4  UNL d   1       1.915  -1.150  -1.196  0.00  0.00     0.162 A 
ATOM      6  C5  UNL d   1       1.939  -2.447  -0.693  0.00  0.00     0.062 A 
ATOM      7  F   UNL d   1       0.934  -3.290  -0.969  0.00  0.00    -0.097 F 
ATOM      8  F1  UNL d   1       0.877  -0.766  -1.953  0.00  0.00    -0.096 F 
ATOM      9  I   UNL d   1       2.925   1.675  -1.664  0.00  0.00    -0.060 I 
ATOM     10  F2  UNL d   1       5.040   0.124   0.169  0.00  0.00    -0.096 F 
ATOM     11  F3  UNL d   1       5.068  -2.404   1.138  0.00  0.00    -0.097 F 
ATOM     12  F4  UNL d   1       3.022  -4.120   0.577  0.00  0.00    -0.092 F 
ENDROOT
TORSDOF 0
ENDMDL
