MODEL 1
REMARK minimizedAffinity 21.2955589
REMARK minimizedRMSD -1
REMARK  0 active torsions:
REMARK  status: ('A' for Active; 'I' for Inactive)
ROOT
ATOM      1  C   UNL d   1      -0.395   1.511   4.201  0.00  0.00     0.124 A 
ATOM      2  C1  UNL d   1      -0.617   1.372   2.838  0.00  0.00     0.062 A 
ATOM      3  C2  UNL d   1       0.457   1.312   1.955  0.00  0.00     0.162 A 
ATOM      4  C3  UNL d   1       1.766   1.390   2.433  0.00  0.00    -0.034 A 
ATOM      5  C4  UNL d   1       1.982   1.530   3.805  0.00  0.00     0.162 A 
ATOM      6  C5  UNL d   1       0.904   1.590   4.683  0.00  0.00     0.062 A 
ATOM      7  F   UNL d   1       1.121   1.725   5.999  0.00  0.00    -0.097 F 
ATOM      8  F1  UNL d   1       3.226   1.608   4.298  0.00  0.00    -0.096 F 
ATOM      9  I   UNL d   1       3.375   1.300   1.117  0.00  0.00    -0.060 I 
ATOM     10  F2  UNL d   1       0.213   1.177   0.643  0.00  0.00    -0.096 F 
ATOM     11  F3  UNL d   1      -1.871   1.296   2.369  0.00  0.00    -0.097 F 
ATOM     12  F4  UNL d   1      -1.431   1.569   5.047  0.00  0.00    -0.092 F 
ENDROOT
TORSDOF 0
ENDMDL
