MODEL 1
REMARK minimizedAffinity 21.593914
REMARK minimizedRMSD -1
REMARK  0 active torsions:
REMARK  status: ('A' for Active; 'I' for Inactive)
ROOT
ATOM      1  C   UNL d   1       3.986   0.403  -0.410  0.00  0.00     0.124 A 
ATOM      2  C1  UNL d   1       3.205   0.824  -1.478  0.00  0.00     0.062 A 
ATOM      3  C2  UNL d   1       2.331  -0.064  -2.099  0.00  0.00     0.162 A 
ATOM      4  C3  UNL d   1       2.232  -1.382  -1.654  0.00  0.00    -0.034 A 
ATOM      5  C4  UNL d   1       3.021  -1.798  -0.580  0.00  0.00     0.162 A 
ATOM      6  C5  UNL d   1       3.893  -0.907   0.038  0.00  0.00     0.062 A 
ATOM      7  F   UNL d   1       4.646  -1.316   1.069  0.00  0.00    -0.097 F 
ATOM      8  F1  UNL d   1       2.951  -3.058  -0.126  0.00  0.00    -0.096 F 
ATOM      9  I   UNL d   1       0.927  -2.712  -2.580  0.00  0.00    -0.060 I 
ATOM     10  F2  UNL d   1       1.589   0.371  -3.129  0.00  0.00    -0.096 F 
ATOM     11  F3  UNL d   1       3.294   2.089  -1.913  0.00  0.00    -0.097 F 
ATOM     12  F4  UNL d   1       4.826   1.259   0.185  0.00  0.00    -0.092 F 
ENDROOT
TORSDOF 0
ENDMDL
