MODEL 1
REMARK minimizedAffinity 27.8879452
REMARK minimizedRMSD -1
REMARK  0 active torsions:
REMARK  status: ('A' for Active; 'I' for Inactive)
ROOT
ATOM      1  C   UNL d   1       2.643  -1.541  -0.134  0.00  0.00     0.124 A 
ATOM      2  C1  UNL d   1       1.785  -0.722  -0.855  0.00  0.00     0.062 A 
ATOM      3  C2  UNL d   1       0.892  -1.276  -1.768  0.00  0.00     0.162 A 
ATOM      4  C3  UNL d   1       0.850  -2.656  -1.963  0.00  0.00    -0.034 A 
ATOM      5  C4  UNL d   1       1.717  -3.473  -1.234  0.00  0.00     0.162 A 
ATOM      6  C5  UNL d   1       2.608  -2.915  -0.324  0.00  0.00     0.062 A 
ATOM      7  F   UNL d   1       3.436  -3.707   0.373  0.00  0.00    -0.097 F 
ATOM      8  F1  UNL d   1       1.704  -4.804  -1.398  0.00  0.00    -0.096 F 
ATOM      9  I   UNL d   1      -0.484  -3.488  -3.327  0.00  0.00    -0.060 I 
ATOM     10  F2  UNL d   1       0.074  -0.461  -2.452  0.00  0.00    -0.096 F 
ATOM     11  F3  UNL d   1       1.817   0.606  -0.674  0.00  0.00    -0.097 F 
ATOM     12  F4  UNL d   1       3.502  -1.005   0.743  0.00  0.00    -0.092 F 
ENDROOT
TORSDOF 0
ENDMDL
