MODEL 1
REMARK minimizedAffinity 21.9049778
REMARK minimizedRMSD -1
REMARK  0 active torsions:
REMARK  status: ('A' for Active; 'I' for Inactive)
ROOT
ATOM      1  C   UNL d   1       3.143  -0.697  -0.090  0.00  0.00     0.124 A 
ATOM      2  C1  UNL d   1       4.316  -1.086   0.542  0.00  0.00     0.062 A 
ATOM      3  C2  UNL d   1       4.571  -2.434   0.777  0.00  0.00     0.162 A 
ATOM      4  C3  UNL d   1       3.651  -3.404   0.379  0.00  0.00    -0.034 A 
ATOM      5  C4  UNL d   1       2.472  -3.005  -0.255  0.00  0.00     0.162 A 
ATOM      6  C5  UNL d   1       2.222  -1.656  -0.487  0.00  0.00     0.062 A 
ATOM      7  F   UNL d   1       1.088  -1.283  -1.098  0.00  0.00    -0.097 F 
ATOM      8  F1  UNL d   1       1.566  -3.911  -0.650  0.00  0.00    -0.096 F 
ATOM      9  I   UNL d   1       4.028  -5.420   0.728  0.00  0.00    -0.060 I 
ATOM     10  F2  UNL d   1       5.713  -2.781   1.389  0.00  0.00    -0.096 F 
ATOM     11  F3  UNL d   1       5.206  -0.161   0.928  0.00  0.00    -0.097 F 
ATOM     12  F4  UNL d   1       2.899   0.601  -0.314  0.00  0.00    -0.092 F 
ENDROOT
TORSDOF 0
ENDMDL
