MODEL 1
REMARK minimizedAffinity 18.8847561
REMARK minimizedRMSD -1
REMARK  0 active torsions:
REMARK  status: ('A' for Active; 'I' for Inactive)
ROOT
ATOM      1  C   UNL d   1      -0.770  -3.611  -2.440  0.00  0.00     0.124 A 
ATOM      2  C1  UNL d   1      -0.886  -2.394  -3.097  0.00  0.00     0.062 A 
ATOM      3  C2  UNL d   1      -1.954  -2.162  -3.958  0.00  0.00     0.162 A 
ATOM      4  C3  UNL d   1      -2.917  -3.150  -4.167  0.00  0.00    -0.034 A 
ATOM      5  C4  UNL d   1      -2.793  -4.372  -3.503  0.00  0.00     0.162 A 
ATOM      6  C5  UNL d   1      -1.723  -4.599  -2.644  0.00  0.00     0.062 A 
ATOM      7  F   UNL d   1      -1.613  -5.775  -2.010  0.00  0.00    -0.097 F 
ATOM      8  F1  UNL d   1      -3.701  -5.343  -3.681  0.00  0.00    -0.096 F 
ATOM      9  I   UNL d   1      -4.516  -2.807  -5.454  0.00  0.00    -0.060 I 
ATOM     10  F2  UNL d   1      -2.041  -0.976  -4.579  0.00  0.00    -0.096 F 
ATOM     11  F3  UNL d   1       0.035  -1.438  -2.903  0.00  0.00    -0.097 F 
ATOM     12  F4  UNL d   1       0.260  -3.832  -1.613  0.00  0.00    -0.092 F 
ENDROOT
TORSDOF 0
ENDMDL
