MODEL 1
REMARK minimizedAffinity 17.0923672
REMARK minimizedRMSD -1
REMARK  0 active torsions:
REMARK  status: ('A' for Active; 'I' for Inactive)
ROOT
ATOM      1  C   UNL d   1       3.646  -0.027   0.311  0.00  0.00     0.124 A 
ATOM      2  C1  UNL d   1       3.598  -1.393   0.550  0.00  0.00     0.062 A 
ATOM      3  C2  UNL d   1       2.732  -2.202  -0.181  0.00  0.00     0.162 A 
ATOM      4  C3  UNL d   1       1.907  -1.646  -1.159  0.00  0.00    -0.034 A 
ATOM      5  C4  UNL d   1       1.960  -0.270  -1.393  0.00  0.00     0.162 A 
ATOM      6  C5  UNL d   1       2.827   0.533  -0.659  0.00  0.00     0.062 A 
ATOM      7  F   UNL d   1       2.872   1.854  -0.891  0.00  0.00    -0.097 F 
ATOM      8  F1  UNL d   1       1.181   0.297  -2.325  0.00  0.00    -0.096 F 
ATOM      9  I   UNL d   1       0.611  -2.851  -2.254  0.00  0.00    -0.060 I 
ATOM     10  F2  UNL d   1       2.707  -3.519   0.070  0.00  0.00    -0.096 F 
ATOM     11  F3  UNL d   1       4.388  -1.937   1.487  0.00  0.00    -0.097 F 
ATOM     12  F4  UNL d   1       4.479   0.749   1.017  0.00  0.00    -0.092 F 
ENDROOT
TORSDOF 0
ENDMDL
