MODEL 1
REMARK minimizedAffinity -5.03139305
REMARK minimizedRMSD -1
REMARK  0 active torsions:
REMARK  status: ('A' for Active; 'I' for Inactive)
ROOT
ATOM      1  C1  BNZ d   1       3.248  -0.969   0.712  0.00  0.00     0.000 A 
ATOM      2  C2  BNZ d   1       2.246  -1.671   0.097  0.00  0.00     0.000 A 
ATOM      3  C3  BNZ d   1       1.061  -1.068  -0.220  0.00  0.00     0.000 A 
ATOM      4  C4  BNZ d   1       0.865   0.224   0.114  0.00  0.00     0.000 A 
ATOM      5  C5  BNZ d   1       1.862   0.942   0.743  0.00  0.00     0.000 A 
ATOM      6  C6  BNZ d   1       3.068   0.343   1.025  0.00  0.00     0.000 A 
ENDROOT
TORSDOF 0
ENDMDL
