MODEL 1
REMARK minimizedAffinity -2.89877868
REMARK minimizedRMSD -1
REMARK  0 active torsions:
REMARK  status: ('A' for Active; 'I' for Inactive)
ROOT
ATOM      1  C1  BNZ d   1       1.332  -0.135   1.641  0.00  0.00     0.000 A 
ATOM      2  C2  BNZ d   1       1.861   1.079   1.294  0.00  0.00     0.000 A 
ATOM      3  C3  BNZ d   1       1.193   1.917   0.445  0.00  0.00     0.000 A 
ATOM      4  C4  BNZ d   1       0.018   1.524  -0.086  0.00  0.00     0.000 A 
ATOM      5  C5  BNZ d   1      -0.525   0.299   0.247  0.00  0.00     0.000 A 
ATOM      6  C6  BNZ d   1       0.131  -0.526   1.132  0.00  0.00     0.000 A 
ENDROOT
TORSDOF 0
ENDMDL
