MODEL 1
REMARK minimizedAffinity -2.88612676
REMARK minimizedRMSD -1
REMARK  0 active torsions:
REMARK  status: ('A' for Active; 'I' for Inactive)
ROOT
ATOM      1  C1  BNZ d   1       0.365  -1.108  -0.648  0.00  0.00     0.000 A 
ATOM      2  C2  BNZ d   1      -0.342   0.064  -0.589  0.00  0.00     0.000 A 
ATOM      3  C3  BNZ d   1       0.302   1.266  -0.496  0.00  0.00     0.000 A 
ATOM      4  C4  BNZ d   1       1.648   1.293  -0.421  0.00  0.00     0.000 A 
ATOM      5  C5  BNZ d   1       2.374   0.120  -0.469  0.00  0.00     0.000 A 
ATOM      6  C6  BNZ d   1       1.724  -1.086  -0.602  0.00  0.00     0.000 A 
ENDROOT
TORSDOF 0
ENDMDL
