MODEL 1
REMARK minimizedAffinity -3.4199326
REMARK minimizedRMSD -1
REMARK  0 active torsions:
REMARK  status: ('A' for Active; 'I' for Inactive)
ROOT
ATOM      1  C1  BNZ d   1       2.951  -0.855  -0.501  0.00  0.00     0.000 A 
ATOM      2  C2  BNZ d   1       1.722  -1.451  -0.587  0.00  0.00     0.000 A 
ATOM      3  C3  BNZ d   1       0.580  -0.700  -0.624  0.00  0.00     0.000 A 
ATOM      4  C4  BNZ d   1       0.668   0.643  -0.535  0.00  0.00     0.000 A 
ATOM      5  C5  BNZ d   1       1.900   1.259  -0.439  0.00  0.00     0.000 A 
ATOM      6  C6  BNZ d   1       3.048   0.501  -0.441  0.00  0.00     0.000 A 
ENDROOT
TORSDOF 0
ENDMDL
