MODEL 1
REMARK minimizedAffinity -5.39798355
REMARK minimizedRMSD -1
REMARK  0 active torsions:
REMARK  status: ('A' for Active; 'I' for Inactive)
ROOT
ATOM      1  C1  BNZ d   1       1.181   0.720   0.242  0.00  0.00     0.000 A 
ATOM      2  C2  BNZ d   1       1.540  -0.598   0.351  0.00  0.00     0.000 A 
ATOM      3  C3  BNZ d   1       2.856  -0.960   0.432  0.00  0.00     0.000 A 
ATOM      4  C4  BNZ d   1       3.811  -0.011   0.364  0.00  0.00     0.000 A 
ATOM      5  C5  BNZ d   1       3.465   1.321   0.246  0.00  0.00     0.000 A 
ATOM      6  C6  BNZ d   1       2.139   1.686   0.204  0.00  0.00     0.000 A 
ENDROOT
TORSDOF 0
ENDMDL
