MODEL 1
REMARK minimizedAffinity -4.24981737
REMARK minimizedRMSD -1
REMARK  0 active torsions:
REMARK  status: ('A' for Active; 'I' for Inactive)
ROOT
ATOM      1  C1  BNZ d   1       3.033  -1.063   0.443  0.00  0.00     0.000 A 
ATOM      2  C2  BNZ d   1       3.917  -0.017   0.417  0.00  0.00     0.000 A 
ATOM      3  C3  BNZ d   1       3.474   1.275   0.451  0.00  0.00     0.000 A 
ATOM      4  C4  BNZ d   1       2.148   1.521   0.472  0.00  0.00     0.000 A 
ATOM      5  C5  BNZ d   1       1.244   0.478   0.489  0.00  0.00     0.000 A 
ATOM      6  C6  BNZ d   1       1.695  -0.822   0.493  0.00  0.00     0.000 A 
ENDROOT
TORSDOF 0
ENDMDL
