MODEL 1
REMARK minimizedAffinity -4.84535074
REMARK minimizedRMSD -1
REMARK  0 active torsions:
REMARK  status: ('A' for Active; 'I' for Inactive)
ROOT
ATOM      1  C1  BNZ d   1       2.112   1.568  -0.537  0.00  0.00     0.000 A 
ATOM      2  C2  BNZ d   1       0.810   1.146  -0.481  0.00  0.00     0.000 A 
ATOM      3  C3  BNZ d   1       0.500  -0.181  -0.591  0.00  0.00     0.000 A 
ATOM      4  C4  BNZ d   1       1.485  -1.078  -0.796  0.00  0.00     0.000 A 
ATOM      5  C5  BNZ d   1       2.802  -0.667  -0.864  0.00  0.00     0.000 A 
ATOM      6  C6  BNZ d   1       3.114   0.665  -0.715  0.00  0.00     0.000 A 
ENDROOT
TORSDOF 0
ENDMDL
