MODEL 1
REMARK minimizedAffinity -4.47284555
REMARK minimizedRMSD -1
REMARK  0 active torsions:
REMARK  status: ('A' for Active; 'I' for Inactive)
ROOT
ATOM      1  C1  BNZ d   1       1.248  -1.279  -0.002  0.00  0.00     0.000 A 
ATOM      2  C2  BNZ d   1       2.514  -1.797   0.052  0.00  0.00     0.000 A 
ATOM      3  C3  BNZ d   1       3.606  -0.975   0.077  0.00  0.00     0.000 A 
ATOM      4  C4  BNZ d   1       3.432   0.360   0.007  0.00  0.00     0.000 A 
ATOM      5  C5  BNZ d   1       2.162   0.898  -0.057  0.00  0.00     0.000 A 
ATOM      6  C6  BNZ d   1       1.064   0.068  -0.043  0.00  0.00     0.000 A 
ENDROOT
TORSDOF 0
ENDMDL
