MODEL 1
REMARK minimizedAffinity 1.92959774
REMARK minimizedRMSD -1
REMARK  0 active torsions:
REMARK  status: ('A' for Active; 'I' for Inactive)
ROOT
ATOM      1  O1  BZF d   1      -0.553   3.844  -0.949  0.00  0.00    -0.204 OA
ATOM      2  C2  BZF d   1      -0.626   2.510  -0.597  0.00  0.00     0.174 A 
ATOM      3  C3  BZF d   1      -0.127   1.729  -1.576  0.00  0.00    -0.012 A 
ATOM      4  C3A BZF d   1       0.368   2.635  -2.566  0.00  0.00    -0.107 A 
ATOM      5  C4  BZF d   1       0.992   2.463  -3.768  0.00  0.00     0.055 A 
ATOM      6  C5  BZF d   1       1.279   3.555  -4.525  0.00  0.00    -0.016 A 
ATOM      7  C6  BZF d   1       0.952   4.830  -4.114  0.00  0.00     0.022 A 
ATOM      8  C7  BZF d   1       0.336   5.051  -2.927  0.00  0.00     0.029 A 
ATOM      9  C7A BZF d   1       0.075   3.953  -2.145  0.00  0.00     0.058 A 
ENDROOT
TORSDOF 0
ENDMDL
