MODEL 1
REMARK minimizedAffinity 1.4138031
REMARK minimizedRMSD -1
REMARK  0 active torsions:
REMARK  status: ('A' for Active; 'I' for Inactive)
ROOT
ATOM      1  O1  BZF d   1       1.866   3.296  -0.743  0.00  0.00    -0.204 OA
ATOM      2  C2  BZF d   1       2.717   2.339  -0.226  0.00  0.00     0.174 A 
ATOM      3  C3  BZF d   1       2.901   1.335  -1.108  0.00  0.00    -0.012 A 
ATOM      4  C3A BZF d   1       2.189   1.732  -2.284  0.00  0.00    -0.107 A 
ATOM      5  C4  BZF d   1       2.008   1.160  -3.510  0.00  0.00     0.055 A 
ATOM      6  C5  BZF d   1       1.196   1.771  -4.411  0.00  0.00    -0.016 A 
ATOM      7  C6  BZF d   1       0.545   2.952  -4.118  0.00  0.00     0.022 A 
ATOM      8  C7  BZF d   1       0.697   3.560  -2.917  0.00  0.00     0.029 A 
ATOM      9  C7A BZF d   1       1.543   2.962  -2.016  0.00  0.00     0.058 A 
ENDROOT
TORSDOF 0
ENDMDL
