MODEL 1
REMARK minimizedAffinity 9.03595638
REMARK minimizedRMSD -1
REMARK  0 active torsions:
REMARK  status: ('A' for Active; 'I' for Inactive)
ROOT
ATOM      1  O1  BZF d   1       0.879  -0.753  -1.644  0.00  0.00    -0.204 OA
ATOM      2  C2  BZF d   1       1.381  -1.254  -0.458  0.00  0.00     0.174 A 
ATOM      3  C3  BZF d   1       2.262  -0.392   0.091  0.00  0.00    -0.012 A 
ATOM      4  C3A BZF d   1       2.244   0.757  -0.761  0.00  0.00    -0.107 A 
ATOM      5  C4  BZF d   1       2.896   1.957  -0.733  0.00  0.00     0.055 A 
ATOM      6  C5  BZF d   1       2.711   2.833  -1.755  0.00  0.00    -0.016 A 
ATOM      7  C6  BZF d   1       1.887   2.541  -2.822  0.00  0.00     0.022 A 
ATOM      8  C7  BZF d   1       1.215   1.366  -2.892  0.00  0.00     0.029 A 
ATOM      9  C7A BZF d   1       1.374   0.492  -1.844  0.00  0.00     0.058 A 
ENDROOT
TORSDOF 0
ENDMDL
