MODEL 1
REMARK minimizedAffinity 8.35539722
REMARK minimizedRMSD -1
REMARK  0 active torsions:
REMARK  status: ('A' for Active; 'I' for Inactive)
ROOT
ATOM      1  O1  BZF d   1      -0.078   2.815  -1.874  0.00  0.00    -0.204 OA
ATOM      2  C2  BZF d   1      -0.045   2.681  -3.249  0.00  0.00     0.174 A 
ATOM      3  C3  BZF d   1       1.208   2.416  -3.673  0.00  0.00    -0.012 A 
ATOM      4  C3A BZF d   1       1.990   2.292  -2.482  0.00  0.00    -0.107 A 
ATOM      5  C4  BZF d   1       3.308   2.017  -2.249  0.00  0.00     0.055 A 
ATOM      6  C5  BZF d   1       3.771   2.041  -0.971  0.00  0.00    -0.016 A 
ATOM      7  C6  BZF d   1       2.947   2.339   0.094  0.00  0.00     0.022 A 
ATOM      8  C7  BZF d   1       1.632   2.613  -0.087  0.00  0.00     0.029 A 
ATOM      9  C7A BZF d   1       1.154   2.558  -1.373  0.00  0.00     0.058 A 
ENDROOT
TORSDOF 0
ENDMDL
