MODEL 1
REMARK minimizedAffinity 8.74891663
REMARK minimizedRMSD -1
REMARK  0 active torsions:
REMARK  status: ('A' for Active; 'I' for Inactive)
ROOT
ATOM      1  O1  BZF d   1       0.570  -1.279  -0.413  0.00  0.00    -0.204 OA
ATOM      2  C2  BZF d   1       1.704  -1.182  -1.197  0.00  0.00     0.174 A 
ATOM      3  C3  BZF d   1       2.801  -1.006  -0.432  0.00  0.00    -0.012 A 
ATOM      4  C3A BZF d   1       2.335  -1.085   0.918  0.00  0.00    -0.107 A 
ATOM      5  C4  BZF d   1       2.955  -1.003   2.132  0.00  0.00     0.055 A 
ATOM      6  C5  BZF d   1       2.203  -1.047   3.263  0.00  0.00    -0.016 A 
ATOM      7  C6  BZF d   1       0.829  -1.168   3.217  0.00  0.00     0.022 A 
ATOM      8  C7  BZF d   1       0.170  -1.258   2.037  0.00  0.00     0.029 A 
ATOM      9  C7A BZF d   1       0.930  -1.247   0.893  0.00  0.00     0.058 A 
ENDROOT
TORSDOF 0
ENDMDL
