MODEL 1
REMARK minimizedAffinity 9.1419735
REMARK minimizedRMSD -1
REMARK  0 active torsions:
REMARK  status: ('A' for Active; 'I' for Inactive)
ROOT
ATOM      1  O1  BZF d   1       1.059  -1.545  -0.492  0.00  0.00    -0.204 OA
ATOM      2  C2  BZF d   1       2.213  -1.017  -1.038  0.00  0.00     0.174 A 
ATOM      3  C3  BZF d   1       3.005  -0.503  -0.076  0.00  0.00    -0.012 A 
ATOM      4  C3A BZF d   1       2.345  -0.805   1.157  0.00  0.00    -0.107 A 
ATOM      5  C4  BZF d   1       2.648  -0.567   2.467  0.00  0.00     0.055 A 
ATOM      6  C5  BZF d   1       1.756  -0.928   3.427  0.00  0.00    -0.016 A 
ATOM      7  C6  BZF d   1       0.552  -1.523   3.113  0.00  0.00     0.022 A 
ATOM      8  C7  BZF d   1       0.209  -1.783   1.828  0.00  0.00     0.029 A 
ATOM      9  C7A BZF d   1       1.123  -1.450   0.858  0.00  0.00     0.058 A 
ENDROOT
TORSDOF 0
ENDMDL
