MODEL 1
REMARK minimizedAffinity 8.11500645
REMARK minimizedRMSD -1
REMARK  0 active torsions:
REMARK  status: ('A' for Active; 'I' for Inactive)
ROOT
ATOM      1  O1  BZF d   1       1.640  -1.071  -2.336  0.00  0.00    -0.204 OA
ATOM      2  C2  BZF d   1       2.018  -1.758  -1.199  0.00  0.00     0.174 A 
ATOM      3  C3  BZF d   1       2.435  -0.906  -0.241  0.00  0.00    -0.012 A 
ATOM      4  C3A BZF d   1       2.223   0.402  -0.783  0.00  0.00    -0.107 A 
ATOM      5  C4  BZF d   1       2.428   1.663  -0.300  0.00  0.00     0.055 A 
ATOM      6  C5  BZF d   1       2.185   2.727  -1.109  0.00  0.00    -0.016 A 
ATOM      7  C6  BZF d   1       1.743   2.567  -2.406  0.00  0.00     0.022 A 
ATOM      8  C7  BZF d   1       1.521   1.336  -2.928  0.00  0.00     0.029 A 
ATOM      9  C7A BZF d   1       1.733   0.260  -2.102  0.00  0.00     0.058 A 
ENDROOT
TORSDOF 0
ENDMDL
