MODEL 1
REMARK minimizedAffinity 6.19019175
REMARK minimizedRMSD -1
REMARK  0 active torsions:
REMARK  status: ('A' for Active; 'I' for Inactive)
ROOT
ATOM      1  O1  BZF d   1       0.741  -0.376   3.468  0.00  0.00    -0.204 OA
ATOM      2  C2  BZF d   1       1.104  -1.255   2.466  0.00  0.00     0.174 A 
ATOM      3  C3  BZF d   1       0.067  -1.489   1.636  0.00  0.00    -0.012 A 
ATOM      4  C3A BZF d   1      -0.984  -0.634   2.097  0.00  0.00    -0.107 A 
ATOM      5  C4  BZF d   1      -2.261  -0.402   1.671  0.00  0.00     0.055 A 
ATOM      6  C5  BZF d   1      -3.053   0.439   2.386  0.00  0.00    -0.016 A 
ATOM      7  C6  BZF d   1      -2.604   1.061   3.532  0.00  0.00     0.022 A 
ATOM      8  C7  BZF d   1      -1.344   0.865   3.992  0.00  0.00     0.029 A 
ATOM      9  C7A BZF d   1      -0.530   0.041   3.253  0.00  0.00     0.058 A 
ENDROOT
TORSDOF 0
ENDMDL
