MODEL 1
REMARK minimizedAffinity -1.7264241
REMARK minimizedRMSD -1
REMARK  0 active torsions:
REMARK  status: ('A' for Active; 'I' for Inactive)
ROOT
ATOM      1  C   UNL d   1      -4.891  -2.544   5.998  0.00  0.00     0.172 C 
ATOM      2  N   UNL d   1      -5.065  -3.862   5.434  0.00  0.00    -0.070 N 
ATOM      3  C1  UNL d   1      -4.516  -4.307   4.261  0.00  0.00    -0.004 A 
ATOM      4  C2  UNL d   1      -4.918  -5.612   4.075  0.00  0.00    -0.047 A 
ATOM      5  C3  UNL d   1      -5.737  -5.964   5.174  0.00  0.00    -0.047 A 
ATOM      6  C4  UNL d   1      -5.812  -4.862   5.999  0.00  0.00    -0.004 A 
ENDROOT
TORSDOF 0
ENDMDL
