MODEL 1
REMARK minimizedAffinity 5.21286631
REMARK minimizedRMSD -1
REMARK  0 active torsions:
REMARK  status: ('A' for Active; 'I' for Inactive)
ROOT
ATOM      1  C   UNL d   1       5.509   4.524  -4.229  0.00  0.00     0.172 C 
ATOM      2  N   UNL d   1       4.241   4.011  -3.765  0.00  0.00    -0.070 N 
ATOM      3  C1  UNL d   1       3.505   4.521  -2.729  0.00  0.00    -0.004 A 
ATOM      4  C2  UNL d   1       2.366   3.754  -2.603  0.00  0.00    -0.047 A 
ATOM      5  C3  UNL d   1       2.421   2.749  -3.597  0.00  0.00    -0.047 A 
ATOM      6  C4  UNL d   1       3.592   2.931  -4.302  0.00  0.00    -0.004 A 
ENDROOT
TORSDOF 0
ENDMDL
