MODEL 1
REMARK minimizedAffinity 5.48544312
REMARK minimizedRMSD -1
REMARK  0 active torsions:
REMARK  status: ('A' for Active; 'I' for Inactive)
ROOT
ATOM      1  C   UNL d   1       5.040   3.265   1.851  0.00  0.00     0.172 C 
ATOM      2  N   UNL d   1       4.119   2.184   1.587  0.00  0.00    -0.070 N 
ATOM      3  C1  UNL d   1       4.064   0.998   2.268  0.00  0.00    -0.004 A 
ATOM      4  C2  UNL d   1       3.054   0.240   1.715  0.00  0.00    -0.047 A 
ATOM      5  C3  UNL d   1       2.484   0.997   0.664  0.00  0.00    -0.047 A 
ATOM      6  C4  UNL d   1       3.162   2.196   0.606  0.00  0.00    -0.004 A 
ENDROOT
TORSDOF 0
ENDMDL
