MODEL 1
REMARK minimizedAffinity 7.99094152
REMARK minimizedRMSD -1
REMARK  0 active torsions:
REMARK  status: ('A' for Active; 'I' for Inactive)
ROOT
ATOM      1  C   UNL d   1      -1.142   0.721   4.465  0.00  0.00     0.172 C 
ATOM      2  N   UNL d   1      -0.415  -0.300   3.749  0.00  0.00    -0.070 N 
ATOM      3  C1  UNL d   1       0.816  -0.793   4.092  0.00  0.00    -0.004 A 
ATOM      4  C2  UNL d   1       1.162  -1.749   3.162  0.00  0.00    -0.047 A 
ATOM      5  C3  UNL d   1       0.104  -1.832   2.226  0.00  0.00    -0.047 A 
ATOM      6  C4  UNL d   1      -0.859  -0.925   2.613  0.00  0.00    -0.004 A 
ENDROOT
TORSDOF 0
ENDMDL
