MODEL 1
REMARK minimizedAffinity -1.94678807
REMARK minimizedRMSD -1
REMARK  0 active torsions:
REMARK  status: ('A' for Active; 'I' for Inactive)
ROOT
ATOM      1  C   UNL d   1       2.477  -4.030  -0.338  0.00  0.00     0.172 C 
ATOM      2  N   UNL d   1       3.865  -4.255  -0.666  0.00  0.00    -0.070 N 
ATOM      3  C1  UNL d   1       4.767  -3.290  -1.027  0.00  0.00    -0.004 A 
ATOM      4  C2  UNL d   1       5.977  -3.908  -1.256  0.00  0.00    -0.047 A 
ATOM      5  C3  UNL d   1       5.797  -5.292  -1.025  0.00  0.00    -0.047 A 
ATOM      6  C4  UNL d   1       4.480  -5.479  -0.661  0.00  0.00    -0.004 A 
ENDROOT
TORSDOF 0
ENDMDL
