MODEL 1
REMARK minimizedAffinity 9.75425148
REMARK minimizedRMSD -1
REMARK  0 active torsions:
REMARK  status: ('A' for Active; 'I' for Inactive)
ROOT
ATOM      1  C   UNL d   1      -1.959   1.162   3.612  0.00  0.00     0.172 C 
ATOM      2  N   UNL d   1      -1.684   0.060   2.720  0.00  0.00    -0.070 N 
ATOM      3  C1  UNL d   1      -0.472  -0.559   2.566  0.00  0.00    -0.004 A 
ATOM      4  C2  UNL d   1      -0.624  -1.556   1.627  0.00  0.00    -0.047 A 
ATOM      5  C3  UNL d   1      -1.973  -1.535   1.201  0.00  0.00    -0.047 A 
ATOM      6  C4  UNL d   1      -2.606  -0.525   1.893  0.00  0.00    -0.004 A 
ENDROOT
TORSDOF 0
ENDMDL
