MODEL 1
REMARK minimizedAffinity 3.78880119
REMARK minimizedRMSD -1
REMARK  0 active torsions:
REMARK  status: ('A' for Active; 'I' for Inactive)
ROOT
ATOM      1  C   UNL d   1      -5.472   1.830   5.159  0.00  0.00     0.172 C 
ATOM      2  N   UNL d   1      -4.169   1.336   4.782  0.00  0.00    -0.070 N 
ATOM      3  C1  UNL d   1      -3.092   1.205   5.618  0.00  0.00    -0.004 A 
ATOM      4  C2  UNL d   1      -2.043   0.701   4.880  0.00  0.00    -0.047 A 
ATOM      5  C3  UNL d   1      -2.505   0.524   3.554  0.00  0.00    -0.047 A 
ATOM      6  C4  UNL d   1      -3.824   0.925   3.522  0.00  0.00    -0.004 A 
ENDROOT
TORSDOF 0
ENDMDL
