MODEL 1
REMARK minimizedAffinity 8.30994987
REMARK minimizedRMSD -1
REMARK  0 active torsions:
REMARK  status: ('A' for Active; 'I' for Inactive)
ROOT
ATOM      1  C   UNL d   1       3.750   5.481  -1.880  0.00  0.00     0.172 C 
ATOM      2  N   UNL d   1       2.540   4.724  -2.098  0.00  0.00    -0.070 N 
ATOM      3  C1  UNL d   1       2.479   3.412  -2.488  0.00  0.00    -0.004 A 
ATOM      4  C2  UNL d   1       1.149   3.062  -2.583  0.00  0.00    -0.047 A 
ATOM      5  C3  UNL d   1       0.385   4.203  -2.240  0.00  0.00    -0.047 A 
ATOM      6  C4  UNL d   1       1.272   5.217  -1.944  0.00  0.00    -0.004 A 
ENDROOT
TORSDOF 0
ENDMDL
