MODEL 1
REMARK minimizedAffinity 8.6775322
REMARK minimizedRMSD -1
REMARK  0 active torsions:
REMARK  status: ('A' for Active; 'I' for Inactive)
ROOT
ATOM      1  C   UNL d   1      -1.784   4.958  -5.702  0.00  0.00     0.172 C 
ATOM      2  N   UNL d   1      -1.401   4.768  -4.322  0.00  0.00    -0.070 N 
ATOM      3  C1  UNL d   1      -2.070   5.258  -3.233  0.00  0.00    -0.004 A 
ATOM      4  C2  UNL d   1      -1.388   4.860  -2.104  0.00  0.00    -0.047 A 
ATOM      5  C3  UNL d   1      -0.269   4.105  -2.530  0.00  0.00    -0.047 A 
ATOM      6  C4  UNL d   1      -0.301   4.065  -3.908  0.00  0.00    -0.004 A 
ENDROOT
TORSDOF 0
ENDMDL
