MODEL 1
REMARK minimizedAffinity 5.16418695
REMARK minimizedRMSD -1
REMARK  0 active torsions:
REMARK  status: ('A' for Active; 'I' for Inactive)
ROOT
ATOM      1  C   UNL d   1      -1.382   4.828  -4.135  0.00  0.00     0.172 C 
ATOM      2  N   UNL d   1      -0.241   4.359  -3.383  0.00  0.00    -0.070 N 
ATOM      3  C1  UNL d   1       0.514   5.112  -2.524  0.00  0.00    -0.004 A 
ATOM      4  C2  UNL d   1       1.503   4.302  -2.010  0.00  0.00    -0.047 A 
ATOM      5  C3  UNL d   1       1.337   3.017  -2.580  0.00  0.00    -0.047 A 
ATOM      6  C4  UNL d   1       0.251   3.081  -3.427  0.00  0.00    -0.004 A 
ENDROOT
TORSDOF 0
ENDMDL
