MODEL 1
REMARK minimizedAffinity 7.32330561
REMARK minimizedRMSD -1
REMARK  0 active torsions:
REMARK  status: ('A' for Active; 'I' for Inactive)
ROOT
ATOM      1  C   UNL d   1      -0.331   4.267  -2.358  0.00  0.00     0.172 C 
ATOM      2  N   UNL d   1      -0.920   4.785  -3.570  0.00  0.00    -0.070 N 
ATOM      3  C1  UNL d   1      -2.186   4.517  -4.020  0.00  0.00    -0.004 A 
ATOM      4  C2  UNL d   1      -2.365   5.198  -5.205  0.00  0.00    -0.047 A 
ATOM      5  C3  UNL d   1      -1.166   5.899  -5.477  0.00  0.00    -0.047 A 
ATOM      6  C4  UNL d   1      -0.288   5.625  -4.449  0.00  0.00    -0.004 A 
ENDROOT
TORSDOF 0
ENDMDL
