MODEL 1
REMARK minimizedAffinity 9.08655548
REMARK minimizedRMSD -1
REMARK  0 active torsions:
REMARK  status: ('A' for Active; 'I' for Inactive)
ROOT
ATOM      1  C   UNL d   1      -0.287  -6.000  -5.559  0.00  0.00     0.172 C 
ATOM      2  N   UNL d   1      -0.941  -5.309  -4.472  0.00  0.00    -0.070 N 
ATOM      3  C1  UNL d   1      -0.442  -4.225  -3.799  0.00  0.00    -0.004 A 
ATOM      4  C2  UNL d   1      -1.363  -3.864  -2.840  0.00  0.00    -0.047 A 
ATOM      5  C3  UNL d   1      -2.453  -4.762  -2.939  0.00  0.00    -0.047 A 
ATOM      6  C4  UNL d   1      -2.165  -5.646  -3.957  0.00  0.00    -0.004 A 
ENDROOT
TORSDOF 0
ENDMDL
