MODEL 1
REMARK minimizedAffinity 8.5642128
REMARK minimizedRMSD -1
REMARK  0 active torsions:
REMARK  status: ('A' for Active; 'I' for Inactive)
ROOT
ATOM      1  C   UNL d   1       4.141   3.143  -5.239  0.00  0.00     0.172 C 
ATOM      2  N   UNL d   1       4.706   4.059  -4.276  0.00  0.00    -0.070 N 
ATOM      3  C1  UNL d   1       5.772   4.890  -4.496  0.00  0.00    -0.004 A 
ATOM      4  C2  UNL d   1       6.000   5.599  -3.336  0.00  0.00    -0.047 A 
ATOM      5  C3  UNL d   1       5.039   5.179  -2.387  0.00  0.00    -0.047 A 
ATOM      6  C4  UNL d   1       4.251   4.225  -2.995  0.00  0.00    -0.004 A 
ENDROOT
TORSDOF 0
ENDMDL
