MODEL 1
REMARK minimizedAffinity 5.67869902
REMARK minimizedRMSD -1
REMARK  0 active torsions:
REMARK  status: ('A' for Active; 'I' for Inactive)
ROOT
ATOM      1  C   UNL d   1      -1.869  -0.947   1.290  0.00  0.00     0.172 C 
ATOM      2  N   UNL d   1      -2.094  -0.239   2.528  0.00  0.00    -0.070 N 
ATOM      3  C1  UNL d   1      -2.990   0.780   2.714  0.00  0.00    -0.004 A 
ATOM      4  C2  UNL d   1      -2.902   1.184   4.029  0.00  0.00    -0.047 A 
ATOM      5  C3  UNL d   1      -1.918   0.382   4.654  0.00  0.00    -0.047 A 
ATOM      6  C4  UNL d   1      -1.435  -0.491   3.702  0.00  0.00    -0.004 A 
ENDROOT
TORSDOF 0
ENDMDL
