MODEL 1
REMARK minimizedAffinity 6.38192892
REMARK minimizedRMSD -1
REMARK  0 active torsions:
REMARK  status: ('A' for Active; 'I' for Inactive)
ROOT
ATOM      1  C   UNL d   1      -1.147   4.501  -3.316  0.00  0.00     0.172 C 
ATOM      2  N   UNL d   1       0.222   4.183  -2.986  0.00  0.00    -0.070 N 
ATOM      3  C1  UNL d   1       0.783   2.934  -3.027  0.00  0.00    -0.004 A 
ATOM      4  C2  UNL d   1       2.102   3.052  -2.644  0.00  0.00    -0.047 A 
ATOM      5  C3  UNL d   1       2.341   4.418  -2.363  0.00  0.00    -0.047 A 
ATOM      6  C4  UNL d   1       1.161   5.095  -2.583  0.00  0.00    -0.004 A 
ENDROOT
TORSDOF 0
ENDMDL
