MODEL 1
REMARK minimizedAffinity 1.85853207
REMARK minimizedRMSD -1
REMARK  0 active torsions:
REMARK  status: ('A' for Active; 'I' for Inactive)
ROOT
ATOM      1  C   UNL d   1      -1.312  -1.045   2.926  0.00  0.00     0.172 C 
ATOM      2  N   UNL d   1      -1.826  -0.202   3.979  0.00  0.00    -0.070 N 
ATOM      3  C1  UNL d   1      -2.704   0.836   3.814  0.00  0.00    -0.004 A 
ATOM      4  C2  UNL d   1      -2.947   1.385   5.055  0.00  0.00    -0.047 A 
ATOM      5  C3  UNL d   1      -2.188   0.652   5.998  0.00  0.00    -0.047 A 
ATOM      6  C4  UNL d   1      -1.504  -0.324   5.305  0.00  0.00    -0.004 A 
ENDROOT
TORSDOF 0
ENDMDL
