MODEL 1
REMARK minimizedAffinity 6.38107824
REMARK minimizedRMSD -1
REMARK  0 active torsions:
REMARK  status: ('A' for Active; 'I' for Inactive)
ROOT
ATOM      1  C   UNL d   1       3.934   4.713  -2.000  0.00  0.00     0.172 C 
ATOM      2  N   UNL d   1       2.758   3.915  -2.257  0.00  0.00    -0.070 N 
ATOM      3  C1  UNL d   1       2.753   2.593  -2.615  0.00  0.00    -0.004 A 
ATOM      4  C2  UNL d   1       1.440   2.201  -2.765  0.00  0.00    -0.047 A 
ATOM      5  C3  UNL d   1       0.628   3.327  -2.490  0.00  0.00    -0.047 A 
ATOM      6  C4  UNL d   1       1.470   4.374  -2.178  0.00  0.00    -0.004 A 
ENDROOT
TORSDOF 0
ENDMDL
