MODEL 1
REMARK minimizedAffinity 3.94744563
REMARK minimizedRMSD -1
REMARK  0 active torsions:
REMARK  status: ('A' for Active; 'I' for Inactive)
ROOT
ATOM      1  C   UNL d   1      -6.000  -1.121  -2.976  0.00  0.00     0.172 C 
ATOM      2  N   UNL d   1      -5.779  -0.302  -1.807  0.00  0.00    -0.070 N 
ATOM      3  C1  UNL d   1      -5.372  -0.755  -0.581  0.00  0.00    -0.004 A 
ATOM      4  C2  UNL d   1      -5.279   0.333   0.261  0.00  0.00    -0.047 A 
ATOM      5  C3  UNL d   1      -5.644   1.478  -0.485  0.00  0.00    -0.047 A 
ATOM      6  C4  UNL d   1      -5.949   1.057  -1.762  0.00  0.00    -0.004 A 
ENDROOT
TORSDOF 0
ENDMDL
