MODEL 1
REMARK minimizedAffinity -0.0891733617
REMARK minimizedRMSD -1
REMARK  0 active torsions:
REMARK  status: ('A' for Active; 'I' for Inactive)
ROOT
ATOM      1  C   UNL d   1       2.123  -1.549   3.448  0.00  0.00     0.077 C 
ATOM      2  C1  UNL d   1       1.600  -0.736   2.301  0.00  0.00    -0.074 A 
ATOM      3  C2  UNL d   1       0.420  -1.097   1.643  0.00  0.00    -0.005 A 
ATOM      4  C3  UNL d   1      -0.059  -0.326   0.584  0.00  0.00     0.006 A 
ATOM      5  C4  UNL d   1       0.637   0.812   0.173  0.00  0.00    -0.005 A 
ATOM      6  C5  UNL d   1       1.819   1.188   0.819  0.00  0.00    -0.074 A 
ATOM      7  C6  UNL d   1       2.573   2.414   0.396  0.00  0.00     0.077 C 
ATOM      8  C7  UNL d   1       2.289   0.412   1.887  0.00  0.00    -0.001 A 
ENDROOT
TORSDOF 0
ENDMDL
