MODEL 1
REMARK minimizedAffinity 9.24582958
REMARK minimizedRMSD -1
REMARK  0 active torsions:
REMARK  status: ('A' for Active; 'I' for Inactive)
ROOT
ATOM      1  C   UNL d   1       3.263   0.680   3.179  0.00  0.00     0.077 C 
ATOM      2  C1  UNL d   1       2.328  -0.384   2.686  0.00  0.00    -0.074 A 
ATOM      3  C2  UNL d   1       1.558  -0.187   1.535  0.00  0.00    -0.005 A 
ATOM      4  C3  UNL d   1       0.700  -1.189   1.082  0.00  0.00     0.006 A 
ATOM      5  C4  UNL d   1       0.603  -2.397   1.775  0.00  0.00    -0.005 A 
ATOM      6  C5  UNL d   1       1.366  -2.612   2.927  0.00  0.00    -0.074 A 
ATOM      7  C6  UNL d   1       1.281  -3.908   3.678  0.00  0.00     0.077 C 
ATOM      8  C7  UNL d   1       2.231  -1.603   3.372  0.00  0.00    -0.001 A 
ENDROOT
TORSDOF 0
ENDMDL
