MODEL 1
REMARK minimizedAffinity 2.14898443
REMARK minimizedRMSD -1
REMARK  0 active torsions:
REMARK  status: ('A' for Active; 'I' for Inactive)
ROOT
ATOM      1  C   UNL d   1       1.882   2.480  -0.086  0.00  0.00     0.077 C 
ATOM      2  C1  UNL d   1       1.799   1.280   0.810  0.00  0.00    -0.074 A 
ATOM      3  C2  UNL d   1       2.702   1.105   1.863  0.00  0.00    -0.005 A 
ATOM      4  C3  UNL d   1       2.607  -0.011   2.694  0.00  0.00     0.006 A 
ATOM      5  C4  UNL d   1       1.608  -0.963   2.480  0.00  0.00    -0.005 A 
ATOM      6  C5  UNL d   1       0.695  -0.804   1.433  0.00  0.00    -0.074 A 
ATOM      7  C6  UNL d   1      -0.390  -1.812   1.195  0.00  0.00     0.077 C 
ATOM      8  C7  UNL d   1       0.794   0.323   0.606  0.00  0.00    -0.001 A 
ENDROOT
TORSDOF 0
ENDMDL
