MODEL 1
REMARK minimizedAffinity 3.55555367
REMARK minimizedRMSD -1
REMARK  0 active torsions:
REMARK  status: ('A' for Active; 'I' for Inactive)
ROOT
ATOM      1  C   UNL d   1      -5.987   1.499  -1.509  0.00  0.00     0.077 C 
ATOM      2  C1  UNL d   1      -5.285   1.808  -0.220  0.00  0.00    -0.074 A 
ATOM      3  C2  UNL d   1      -5.840   2.699   0.704  0.00  0.00    -0.005 A 
ATOM      4  C3  UNL d   1      -5.180   2.970   1.903  0.00  0.00     0.006 A 
ATOM      5  C4  UNL d   1      -3.962   2.353   2.189  0.00  0.00    -0.005 A 
ATOM      6  C5  UNL d   1      -3.392   1.459   1.278  0.00  0.00    -0.074 A 
ATOM      7  C6  UNL d   1      -2.088   0.780   1.574  0.00  0.00     0.077 C 
ATOM      8  C7  UNL d   1      -4.064   1.187   0.078  0.00  0.00    -0.001 A 
ENDROOT
TORSDOF 0
ENDMDL
