MODEL 1
REMARK minimizedAffinity 2.25628066
REMARK minimizedRMSD -1
REMARK  0 active torsions:
REMARK  status: ('A' for Active; 'I' for Inactive)
ROOT
ATOM      1  C   UNL d   1       2.522   1.138   1.354  0.00  0.00     0.077 C 
ATOM      2  C1  UNL d   1       1.793  -0.133   1.678  0.00  0.00    -0.074 A 
ATOM      3  C2  UNL d   1       2.334  -1.063   2.570  0.00  0.00    -0.005 A 
ATOM      4  C3  UNL d   1       1.640  -2.236   2.869  0.00  0.00     0.006 A 
ATOM      5  C4  UNL d   1       0.402  -2.490   2.279  0.00  0.00    -0.005 A 
ATOM      6  C5  UNL d   1      -0.155  -1.570   1.384  0.00  0.00    -0.074 A 
ATOM      7  C6  UNL d   1      -1.490  -1.822   0.749  0.00  0.00     0.077 C 
ATOM      8  C7  UNL d   1       0.545  -0.391   1.095  0.00  0.00    -0.001 A 
ENDROOT
TORSDOF 0
ENDMDL
