MODEL 1
REMARK minimizedAffinity 1.25732434
REMARK minimizedRMSD -1
REMARK  0 active torsions:
REMARK  status: ('A' for Active; 'I' for Inactive)
ROOT
ATOM      1  C   UNL d   1       2.264   1.133   3.116  0.00  0.00     0.077 C 
ATOM      2  C1  UNL d   1       1.545  -0.053   2.545  0.00  0.00    -0.074 A 
ATOM      3  C2  UNL d   1       0.781   0.062   1.379  0.00  0.00    -0.005 A 
ATOM      4  C3  UNL d   1       0.126  -1.053   0.855  0.00  0.00     0.006 A 
ATOM      5  C4  UNL d   1       0.227  -2.291   1.491  0.00  0.00    -0.005 A 
ATOM      6  C5  UNL d   1       0.987  -2.425   2.657  0.00  0.00    -0.074 A 
ATOM      7  C6  UNL d   1       1.115  -3.751   3.347  0.00  0.00     0.077 C 
ATOM      8  C7  UNL d   1       1.649  -1.302   3.173  0.00  0.00    -0.001 A 
ENDROOT
TORSDOF 0
ENDMDL
