MODEL 1
REMARK minimizedAffinity 15.937211
REMARK minimizedRMSD -1
REMARK  1 active torsions:
REMARK  status: ('A' for Active; 'I' for Inactive)
REMARK    1  A    between atoms: C1_2  and  C2_3 
ROOT
ATOM      1  C2  UNL d   1      -5.646   4.797   3.858  0.00  0.00    -0.081 A 
ATOM      2  C3  UNL d   1      -5.996   5.963   3.167  0.00  0.00     0.006 A 
ATOM      3  C4  UNL d   1      -5.969   5.995   1.771  0.00  0.00     0.002 A 
ATOM      4  C5  UNL d   1      -5.600   4.859   1.043  0.00  0.00    -0.080 A 
ATOM      5  C6  UNL d   1      -5.596   4.869  -0.457  0.00  0.00     0.076 C 
ATOM      6  C7  UNL d   1      -5.233   3.698   1.733  0.00  0.00     0.002 A 
ATOM      7  C8  UNL d   1      -5.259   3.667   3.130  0.00  0.00     0.006 A 
ENDROOT
BRANCH   1   8
ATOM      8  C1  UNL d   1      -5.736   4.741   5.362  0.00  0.00     0.054 C 
ATOM      9  C   UNL d   1      -5.150   5.993   5.999  0.00  0.00     0.018 C 
ENDBRANCH   1   8
TORSDOF 1
ENDMDL
