MODEL 1
REMARK minimizedAffinity 13.2039967
REMARK minimizedRMSD -1
REMARK  1 active torsions:
REMARK  status: ('A' for Active; 'I' for Inactive)
REMARK    1  A    between atoms: C1_2  and  C2_3 
ROOT
ATOM      1  C2  UNL d   1       5.114   3.322  -0.329  0.00  0.00    -0.081 A 
ATOM      2  C3  UNL d   1       4.735   2.754  -1.552  0.00  0.00     0.006 A 
ATOM      3  C4  UNL d   1       3.893   1.640  -1.584  0.00  0.00     0.002 A 
ATOM      4  C5  UNL d   1       3.409   1.081  -0.396  0.00  0.00    -0.080 A 
ATOM      5  C6  UNL d   1       2.480  -0.096  -0.418  0.00  0.00     0.076 C 
ATOM      6  C7  UNL d   1       3.802   1.638   0.826  0.00  0.00     0.002 A 
ATOM      7  C8  UNL d   1       4.645   2.751   0.859  0.00  0.00     0.006 A 
ENDROOT
BRANCH   1   8
ATOM      8  C1  UNL d   1       5.970   4.562  -0.293  0.00  0.00     0.054 C 
ATOM      9  C   UNL d   1       5.999   5.254  -1.649  0.00  0.00     0.018 C 
ENDBRANCH   1   8
TORSDOF 1
ENDMDL
