MODEL 1
REMARK minimizedAffinity 4.72621202
REMARK minimizedRMSD -1
REMARK  1 active torsions:
REMARK  status: ('A' for Active; 'I' for Inactive)
REMARK    1  A    between atoms: C1_2  and  C2_3 
ROOT
ATOM      1  C2  UNL d   1       3.219   1.727  -0.822  0.00  0.00    -0.081 A 
ATOM      2  C3  UNL d   1       3.718   1.585   0.478  0.00  0.00     0.006 A 
ATOM      3  C4  UNL d   1       3.468   0.423   1.211  0.00  0.00     0.002 A 
ATOM      4  C5  UNL d   1       2.721  -0.621   0.653  0.00  0.00    -0.080 A 
ATOM      5  C6  UNL d   1       2.471  -1.887   1.417  0.00  0.00     0.076 C 
ATOM      6  C7  UNL d   1       2.207  -0.473  -0.640  0.00  0.00     0.002 A 
ATOM      7  C8  UNL d   1       2.457   0.690  -1.373  0.00  0.00     0.006 A 
ENDROOT
BRANCH   1   8
ATOM      8  C1  UNL d   1       3.541   2.952  -1.638  0.00  0.00     0.054 C 
ATOM      9  C   UNL d   1       4.953   2.885  -2.203  0.00  0.00     0.018 C 
ENDBRANCH   1   8
TORSDOF 1
ENDMDL
