MODEL 1
REMARK minimizedAffinity 17.5331345
REMARK minimizedRMSD -1
REMARK  1 active torsions:
REMARK  status: ('A' for Active; 'I' for Inactive)
REMARK    1  A    between atoms: C1_2  and  C2_3 
ROOT
ATOM      1  C2  UNL d   1      -3.747   1.050  -0.196  0.00  0.00    -0.081 A 
ATOM      2  C3  UNL d   1      -2.523   1.404  -0.778  0.00  0.00     0.006 A 
ATOM      3  C4  UNL d   1      -2.089   0.779  -1.949  0.00  0.00     0.002 A 
ATOM      4  C5  UNL d   1      -2.875  -0.202  -2.563  0.00  0.00    -0.080 A 
ATOM      5  C6  UNL d   1      -2.435  -0.859  -3.838  0.00  0.00     0.076 C 
ATOM      6  C7  UNL d   1      -4.089  -0.568  -1.973  0.00  0.00     0.002 A 
ATOM      7  C8  UNL d   1      -4.523   0.056  -0.801  0.00  0.00     0.006 A 
ENDROOT
BRANCH   1   8
ATOM      8  C1  UNL d   1      -4.247   1.768   1.031  0.00  0.00     0.054 C 
ATOM      9  C   UNL d   1      -3.699   3.185   1.106  0.00  0.00     0.018 C 
ENDBRANCH   1   8
TORSDOF 1
ENDMDL
