MODEL 1
REMARK minimizedAffinity 2.92942381
REMARK minimizedRMSD -1
REMARK  1 active torsions:
REMARK  status: ('A' for Active; 'I' for Inactive)
REMARK    1  A    between atoms: C1_2  and  C2_3 
ROOT
ATOM      1  C2  UNL d   1       2.709  -0.671  -0.027  0.00  0.00    -0.081 A 
ATOM      2  C3  UNL d   1       2.287  -1.044  -1.309  0.00  0.00     0.006 A 
ATOM      3  C4  UNL d   1       1.630  -2.259  -1.514  0.00  0.00     0.002 A 
ATOM      4  C5  UNL d   1       1.376  -3.118  -0.439  0.00  0.00    -0.080 A 
ATOM      5  C6  UNL d   1       0.644  -4.412  -0.640  0.00  0.00     0.076 C 
ATOM      6  C7  UNL d   1       1.813  -2.755   0.839  0.00  0.00     0.002 A 
ATOM      7  C8  UNL d   1       2.471  -1.540   1.044  0.00  0.00     0.006 A 
ENDROOT
BRANCH   1   8
ATOM      8  C1  UNL d   1       3.361   0.667   0.207  0.00  0.00     0.054 C 
ATOM      9  C   UNL d   1       3.453   1.471  -1.082  0.00  0.00     0.018 C 
ENDBRANCH   1   8
TORSDOF 1
ENDMDL
