MODEL 1
REMARK minimizedAffinity 5.43226051
REMARK minimizedRMSD -1
REMARK  1 active torsions:
REMARK  status: ('A' for Active; 'I' for Inactive)
REMARK    1  A    between atoms: C1_2  and  C2_3 
ROOT
ATOM      1  C2  UNL d   1      -4.204   3.934   2.115  0.00  0.00    -0.081 A 
ATOM      2  C3  UNL d   1      -3.355   4.597   3.009  0.00  0.00     0.006 A 
ATOM      3  C4  UNL d   1      -3.823   5.006   4.260  0.00  0.00     0.002 A 
ATOM      4  C5  UNL d   1      -5.146   4.752   4.640  0.00  0.00    -0.080 A 
ATOM      5  C6  UNL d   1      -5.653   5.159   5.992  0.00  0.00     0.076 C 
ATOM      6  C7  UNL d   1      -5.999   4.105   3.740  0.00  0.00     0.002 A 
ATOM      7  C8  UNL d   1      -5.531   3.697   2.489  0.00  0.00     0.006 A 
ENDROOT
BRANCH   1   8
ATOM      8  C1  UNL d   1      -3.684   3.434   0.791  0.00  0.00     0.054 C 
ATOM      9  C   UNL d   1      -3.622   1.914   0.760  0.00  0.00     0.018 C 
ENDBRANCH   1   8
TORSDOF 1
ENDMDL
