MODEL 1
REMARK minimizedAffinity 16.4397812
REMARK minimizedRMSD -1
REMARK  1 active torsions:
REMARK  status: ('A' for Active; 'I' for Inactive)
REMARK    1  A    between atoms: C1_2  and  C2_3 
ROOT
ATOM      1  C2  UNL d   1       1.616  -1.566  -1.268  0.00  0.00    -0.081 A 
ATOM      2  C3  UNL d   1       1.358  -2.666  -0.442  0.00  0.00     0.006 A 
ATOM      3  C4  UNL d   1       1.250  -2.504   0.941  0.00  0.00     0.002 A 
ATOM      4  C5  UNL d   1       1.391  -1.238   1.520  0.00  0.00    -0.080 A 
ATOM      5  C6  UNL d   1       1.247  -1.045   3.001  0.00  0.00     0.076 C 
ATOM      6  C7  UNL d   1       1.666  -0.141   0.697  0.00  0.00     0.002 A 
ATOM      7  C8  UNL d   1       1.775  -0.303  -0.686  0.00  0.00     0.006 A 
ENDROOT
BRANCH   1   8
ATOM      8  C1  UNL d   1       1.669  -1.727  -2.766  0.00  0.00     0.054 C 
ATOM      9  C   UNL d   1       3.005  -2.303  -3.214  0.00  0.00     0.018 C 
ENDBRANCH   1   8
TORSDOF 1
ENDMDL
