MODEL 1
REMARK minimizedAffinity 21.6284924
REMARK minimizedRMSD -1
REMARK  1 active torsions:
REMARK  status: ('A' for Active; 'I' for Inactive)
REMARK    1  A    between atoms: C1_2  and  C2_3 
ROOT
ATOM      1  C2  UNL d   1      -4.519   3.968  -0.695  0.00  0.00    -0.081 A 
ATOM      2  C3  UNL d   1      -3.630   3.172   0.037  0.00  0.00     0.006 A 
ATOM      3  C4  UNL d   1      -3.618   1.785  -0.132  0.00  0.00     0.002 A 
ATOM      4  C5  UNL d   1      -4.489   1.173  -1.039  0.00  0.00    -0.080 A 
ATOM      5  C6  UNL d   1      -4.465  -0.312  -1.252  0.00  0.00     0.076 C 
ATOM      6  C7  UNL d   1      -5.389   1.967  -1.758  0.00  0.00     0.002 A 
ATOM      7  C8  UNL d   1      -5.402   3.353  -1.590  0.00  0.00     0.006 A 
ENDROOT
BRANCH   1   8
ATOM      8  C1  UNL d   1      -4.490   5.470  -0.564  0.00  0.00     0.054 C 
ATOM      9  C   UNL d   1      -5.790   5.999   0.025  0.00  0.00     0.018 C 
ENDBRANCH   1   8
TORSDOF 1
ENDMDL
