MODEL 1
REMARK minimizedAffinity -4.16247702
REMARK minimizedRMSD -1
REMARK  0 active torsions:
REMARK  status: ('A' for Active; 'I' for Inactive)
ROOT
ATOM      1  C4' PXY d   1      -1.054   1.084  -0.249  0.00  0.00     0.077 C 
ATOM      2  C1' PXY d   1       3.791  -1.140   1.985  0.00  0.00     0.077 C 
ATOM      3  C1  PXY d   1       2.517  -0.568   1.396  0.00  0.00    -0.082 A 
ATOM      4  C2  PXY d   1       2.503   0.677   0.950  0.00  0.00     0.003 A 
ATOM      5  C3  PXY d   1       1.350   1.220   0.444  0.00  0.00     0.003 A 
ATOM      6  C4  PXY d   1       0.213   0.463   0.344  0.00  0.00    -0.082 A 
ATOM      7  C5  PXY d   1       0.222  -0.812   0.788  0.00  0.00     0.003 A 
ATOM      8  C6  PXY d   1       1.391  -1.331   1.336  0.00  0.00     0.003 A 
ENDROOT
TORSDOF 0
ENDMDL
