MODEL 1
REMARK minimizedAffinity 8.32492828
REMARK minimizedRMSD -1
REMARK  0 active torsions:
REMARK  status: ('A' for Active; 'I' for Inactive)
ROOT
ATOM      1  C4' PXY d   1       0.797  -0.441   0.113  0.00  0.00     0.077 C 
ATOM      2  C1' PXY d   1       3.429   2.624   4.249  0.00  0.00     0.077 C 
ATOM      3  C1  PXY d   1       2.746   1.810   3.167  0.00  0.00    -0.082 A 
ATOM      4  C2  PXY d   1       2.184   2.427   2.140  0.00  0.00     0.003 A 
ATOM      5  C3  PXY d   1       1.535   1.708   1.170  0.00  0.00     0.003 A 
ATOM      6  C4  PXY d   1       1.506   0.340   1.223  0.00  0.00    -0.082 A 
ATOM      7  C5  PXY d   1       2.086  -0.297   2.262  0.00  0.00     0.003 A 
ATOM      8  C6  PXY d   1       2.704   0.453   3.258  0.00  0.00     0.003 A 
ENDROOT
TORSDOF 0
ENDMDL
