MODEL 1
REMARK minimizedAffinity 0.432352543
REMARK minimizedRMSD -1
REMARK  0 active torsions:
REMARK  status: ('A' for Active; 'I' for Inactive)
ROOT
ATOM      1  C4' PXY d   1       1.087   1.805  -0.044  0.00  0.00     0.077 C 
ATOM      2  C1' PXY d   1       2.463  -2.139   3.952  0.00  0.00     0.077 C 
ATOM      3  C1  PXY d   1       2.108  -1.095   2.911  0.00  0.00    -0.082 A 
ATOM      4  C2  PXY d   1       1.103  -1.317   2.079  0.00  0.00     0.003 A 
ATOM      5  C3  PXY d   1       0.789  -0.398   1.111  0.00  0.00     0.003 A 
ATOM      6  C4  PXY d   1       1.476   0.784   1.028  0.00  0.00    -0.082 A 
ATOM      7  C5  PXY d   1       2.494   1.022   1.881  0.00  0.00     0.003 A 
ATOM      8  C6  PXY d   1       2.824   0.059   2.830  0.00  0.00     0.003 A 
ENDROOT
TORSDOF 0
ENDMDL
