MODEL 1
REMARK minimizedAffinity 5.92894697
REMARK minimizedRMSD -1
REMARK  0 active torsions:
REMARK  status: ('A' for Active; 'I' for Inactive)
ROOT
ATOM      1  C4' PXY d   1       0.982   2.690  -0.443  0.00  0.00     0.077 C 
ATOM      2  C1' PXY d   1       3.324   0.380   4.310  0.00  0.00     0.077 C 
ATOM      3  C1  PXY d   1       2.716   0.976   3.056  0.00  0.00    -0.082 A 
ATOM      4  C2  PXY d   1       2.390   2.259   3.033  0.00  0.00     0.003 A 
ATOM      5  C3  PXY d   1       1.809   2.807   1.919  0.00  0.00     0.003 A 
ATOM      6  C4  PXY d   1       1.608   2.047   0.798  0.00  0.00    -0.082 A 
ATOM      7  C5  PXY d   1       1.948   0.741   0.809  0.00  0.00     0.003 A 
ATOM      8  C6  PXY d   1       2.498   0.194   1.965  0.00  0.00     0.003 A 
ENDROOT
TORSDOF 0
ENDMDL
