MODEL 1
REMARK minimizedAffinity 5.29918528
REMARK minimizedRMSD -1
REMARK  0 active torsions:
REMARK  status: ('A' for Active; 'I' for Inactive)
ROOT
ATOM      1  C4' PXY d   1       2.773  -0.310   3.824  0.00  0.00     0.077 C 
ATOM      2  C1' PXY d   1       0.440   1.740  -1.051  0.00  0.00     0.077 C 
ATOM      3  C1  PXY d   1       1.063   1.208   0.225  0.00  0.00    -0.082 A 
ATOM      4  C2  PXY d   1       0.595   0.096   0.767  0.00  0.00     0.003 A 
ATOM      5  C3  PXY d   1       1.126  -0.382   1.938  0.00  0.00     0.003 A 
ATOM      6  C4  PXY d   1       2.181   0.258   2.532  0.00  0.00    -0.082 A 
ATOM      7  C5  PXY d   1       2.671   1.387   1.979  0.00  0.00     0.003 A 
ATOM      8  C6  PXY d   1       2.092   1.878   0.812  0.00  0.00     0.003 A 
ENDROOT
TORSDOF 0
ENDMDL
