MODEL 1
REMARK minimizedAffinity 6.92975855
REMARK minimizedRMSD -1
REMARK  0 active torsions:
REMARK  status: ('A' for Active; 'I' for Inactive)
ROOT
ATOM      1  C4' PXY d   1      -0.160  -2.250   1.163  0.00  0.00     0.077 C 
ATOM      2  C1' PXY d   1       3.043   2.309   2.704  0.00  0.00     0.077 C 
ATOM      3  C1  PXY d   1       2.210   1.105   2.308  0.00  0.00    -0.082 A 
ATOM      4  C2  PXY d   1       1.544   1.119   1.164  0.00  0.00     0.003 A 
ATOM      5  C3  PXY d   1       0.761   0.052   0.805  0.00  0.00     0.003 A 
ATOM      6  C4  PXY d   1       0.701  -1.062   1.599  0.00  0.00    -0.082 A 
ATOM      7  C5  PXY d   1       1.386  -1.087   2.762  0.00  0.00     0.003 A 
ATOM      8  C6  PXY d   1       2.142   0.022   3.128  0.00  0.00     0.003 A 
ENDROOT
TORSDOF 0
ENDMDL
