MODEL 1
REMARK minimizedAffinity 9.16255665
REMARK minimizedRMSD -1
REMARK  0 active torsions:
REMARK  status: ('A' for Active; 'I' for Inactive)
ROOT
ATOM      1  C4' PXY d   1       2.231   4.504  -1.144  0.00  0.00     0.077 C 
ATOM      2  C1' PXY d   1       1.969  -0.219   2.178  0.00  0.00     0.077 C 
ATOM      3  C1  PXY d   1       2.025   1.022   1.310  0.00  0.00    -0.082 A 
ATOM      4  C2  PXY d   1       2.862   1.068   0.286  0.00  0.00     0.003 A 
ATOM      5  C3  PXY d   1       2.949   2.195  -0.489  0.00  0.00     0.003 A 
ATOM      6  C4  PXY d   1       2.133   3.267  -0.247  0.00  0.00    -0.082 A 
ATOM      7  C5  PXY d   1       1.269   3.225   0.790  0.00  0.00     0.003 A 
ATOM      8  C6  PXY d   1       1.226   2.087   1.590  0.00  0.00     0.003 A 
ENDROOT
TORSDOF 0
ENDMDL
