MODEL 1
REMARK minimizedAffinity -4.66501284
REMARK minimizedRMSD -1
REMARK  0 active torsions:
REMARK  status: ('A' for Active; 'I' for Inactive)
ROOT
ATOM      1  C4' PXY d   1       3.686  -1.970   4.453  0.00  0.00     0.077 C 
ATOM      2  C1' PXY d   1       1.149   0.864   0.101  0.00  0.00     0.077 C 
ATOM      3  C1  PXY d   1       1.803   0.116   1.245  0.00  0.00    -0.082 A 
ATOM      4  C2  PXY d   1       2.919   0.583   1.780  0.00  0.00     0.003 A 
ATOM      5  C3  PXY d   1       3.541  -0.098   2.794  0.00  0.00     0.003 A 
ATOM      6  C4  PXY d   1       2.986  -1.242   3.302  0.00  0.00    -0.082 A 
ATOM      7  C5  PXY d   1       1.842  -1.720   2.769  0.00  0.00     0.003 A 
ATOM      8  C6  PXY d   1       1.248  -1.036   1.713  0.00  0.00     0.003 A 
ENDROOT
TORSDOF 0
ENDMDL
