MODEL 1
REMARK minimizedAffinity 2.62913108
REMARK minimizedRMSD -1
REMARK  0 active torsions:
REMARK  status: ('A' for Active; 'I' for Inactive)
ROOT
ATOM      1  C4' PXY d   1       4.884   1.572  -5.852  0.00  0.00     0.077 C 
ATOM      2  C1' PXY d   1       4.643  -4.202  -5.987  0.00  0.00     0.077 C 
ATOM      3  C1  PXY d   1       4.719  -2.688  -5.947  0.00  0.00    -0.082 A 
ATOM      4  C2  PXY d   1       3.603  -1.980  -5.876  0.00  0.00     0.003 A 
ATOM      5  C3  PXY d   1       3.652  -0.610  -5.871  0.00  0.00     0.003 A 
ATOM      6  C4  PXY d   1       4.856   0.041  -5.885  0.00  0.00    -0.082 A 
ATOM      7  C5  PXY d   1       5.999  -0.675  -5.947  0.00  0.00     0.003 A 
ATOM      8  C6  PXY d   1       5.927  -2.064  -5.993  0.00  0.00     0.003 A 
ENDROOT
TORSDOF 0
ENDMDL
