MODEL 1
REMARK minimizedAffinity 5.52854538
REMARK minimizedRMSD -1
REMARK  0 active torsions:
REMARK  status: ('A' for Active; 'I' for Inactive)
ROOT
ATOM      1  C4' PXY d   1       0.744  -2.193   0.349  0.00  0.00     0.077 C 
ATOM      2  C1' PXY d   1       0.522   3.582   0.203  0.00  0.00     0.077 C 
ATOM      3  C1  PXY d   1       0.569   2.067   0.247  0.00  0.00    -0.082 A 
ATOM      4  C2  PXY d   1       1.735   1.446   0.177  0.00  0.00     0.003 A 
ATOM      5  C3  PXY d   1       1.793   0.076   0.184  0.00  0.00     0.003 A 
ATOM      6  C4  PXY d   1       0.650  -0.665   0.318  0.00  0.00    -0.082 A 
ATOM      7  C5  PXY d   1      -0.543  -0.039   0.400  0.00  0.00     0.003 A 
ATOM      8  C6  PXY d   1      -0.584   1.352   0.350  0.00  0.00     0.003 A 
ENDROOT
TORSDOF 0
ENDMDL
