MODEL 1
REMARK minimizedAffinity 1.34776902
REMARK minimizedRMSD -1
REMARK  0 active torsions:
REMARK  status: ('A' for Active; 'I' for Inactive)
ROOT
ATOM      1  C4' PXY d   1       2.681  -1.158   3.874  0.00  0.00     0.077 C 
ATOM      2  C1' PXY d   1       0.117   1.320  -0.675  0.00  0.00     0.077 C 
ATOM      3  C1  PXY d   1       0.778   0.664   0.521  0.00  0.00    -0.082 A 
ATOM      4  C2  PXY d   1       1.838   1.231   1.075  0.00  0.00     0.003 A 
ATOM      5  C3  PXY d   1       2.467   0.635   2.137  0.00  0.00     0.003 A 
ATOM      6  C4  PXY d   1       1.976  -0.526   2.671  0.00  0.00    -0.082 A 
ATOM      7  C5  PXY d   1       0.889  -1.105   2.118  0.00  0.00     0.003 A 
ATOM      8  C6  PXY d   1       0.289  -0.506   1.014  0.00  0.00     0.003 A 
ENDROOT
TORSDOF 0
ENDMDL
