MODEL 1
REMARK minimizedAffinity -0.66256392
REMARK minimizedRMSD -1
REMARK  0 active torsions:
REMARK  status: ('A' for Active; 'I' for Inactive)
ROOT
ATOM      1  C4' PXY d   1       4.288   1.408  -5.959  0.00  0.00     0.077 C 
ATOM      2  C1' PXY d   1       4.424  -4.371  -5.999  0.00  0.00     0.077 C 
ATOM      3  C1  PXY d   1       4.376  -2.856  -5.994  0.00  0.00    -0.082 A 
ATOM      4  C2  PXY d   1       5.505  -2.166  -5.996  0.00  0.00     0.003 A 
ATOM      5  C3  PXY d   1       5.481  -0.795  -5.959  0.00  0.00     0.003 A 
ATOM      6  C4  PXY d   1       4.288  -0.123  -5.974  0.00  0.00    -0.082 A 
ATOM      7  C5  PXY d   1       3.132  -0.820  -5.982  0.00  0.00     0.003 A 
ATOM      8  C6  PXY d   1       3.178  -2.211  -5.977  0.00  0.00     0.003 A 
ENDROOT
TORSDOF 0
ENDMDL
