MODEL 1
REMARK minimizedAffinity 13.203433
REMARK minimizedRMSD -1
REMARK  0 active torsions:
REMARK  status: ('A' for Active; 'I' for Inactive)
ROOT
ATOM      1  N1  IND d   1       2.346   0.479  -1.792  0.00  0.00    -0.196 N 
ATOM      2  C2  IND d   1       2.448   1.529  -2.662  0.00  0.00     0.054 A 
ATOM      3  C3  IND d   1       2.070   2.678  -2.058  0.00  0.00    -0.031 A 
ATOM      4  C4  IND d   1       1.347   3.085   0.378  0.00  0.00     0.051 A 
ATOM      5  C5  IND d   1       1.065   2.427   1.543  0.00  0.00    -0.031 A 
ATOM      6  C6  IND d   1       1.201   1.059   1.658  0.00  0.00     0.015 A 
ATOM      7  C7  IND d   1       1.637   0.296   0.612  0.00  0.00    -0.016 A 
ATOM      8  C8  IND d   1       1.917   0.959  -0.574  0.00  0.00    -0.047 A 
ATOM      9  C9  IND d   1       1.741   2.342  -0.710  0.00  0.00    -0.096 A 
ATOM     10  HN1 IND d   1       2.520  -0.343  -1.975  0.00  0.00     0.298 HD
ENDROOT
TORSDOF 0
ENDMDL
