MODEL 1
REMARK minimizedAffinity 3.89447498
REMARK minimizedRMSD -1
REMARK  0 active torsions:
REMARK  status: ('A' for Active; 'I' for Inactive)
ROOT
ATOM      1  N1  IND d   1       3.780   0.737  -2.770  0.00  0.00    -0.196 N 
ATOM      2  C2  IND d   1       3.000   1.649  -3.425  0.00  0.00     0.054 A 
ATOM      3  C3  IND d   1       2.154   2.252  -2.560  0.00  0.00    -0.031 A 
ATOM      4  C4  IND d   1       1.947   1.969  -0.009  0.00  0.00     0.051 A 
ATOM      5  C5  IND d   1       2.422   1.224   1.034  0.00  0.00    -0.031 A 
ATOM      6  C6  IND d   1       3.395   0.262   0.859  0.00  0.00     0.015 A 
ATOM      7  C7  IND d   1       3.940   0.015  -0.369  0.00  0.00    -0.016 A 
ATOM      8  C8  IND d   1       3.456   0.764  -1.432  0.00  0.00    -0.047 A 
ATOM      9  C9  IND d   1       2.438   1.712  -1.268  0.00  0.00    -0.096 A 
ATOM     10  HN1 IND d   1       4.373   0.231  -3.134  0.00  0.00     0.298 HD
ENDROOT
TORSDOF 0
ENDMDL
