MODEL 1
REMARK minimizedAffinity 21.5837631
REMARK minimizedRMSD -1
REMARK  0 active torsions:
REMARK  status: ('A' for Active; 'I' for Inactive)
ROOT
ATOM      1  N1  IND d   1      -2.084   2.460   3.328  0.00  0.00    -0.196 N 
ATOM      2  C2  IND d   1      -3.421   2.175   3.359  0.00  0.00     0.054 A 
ATOM      3  C3  IND d   1      -3.618   0.838   3.324  0.00  0.00    -0.031 A 
ATOM      4  C4  IND d   1      -1.890  -1.070   3.320  0.00  0.00     0.051 A 
ATOM      5  C5  IND d   1      -0.546  -1.306   3.251  0.00  0.00    -0.031 A 
ATOM      6  C6  IND d   1       0.373  -0.278   3.207  0.00  0.00     0.015 A 
ATOM      7  C7  IND d   1      -0.019   1.030   3.241  0.00  0.00    -0.016 A 
ATOM      8  C8  IND d   1      -1.384   1.274   3.303  0.00  0.00    -0.047 A 
ATOM      9  C9  IND d   1      -2.323   0.235   3.306  0.00  0.00    -0.096 A 
ATOM     10  HN1 IND d   1      -1.738   3.247   3.325  0.00  0.00     0.298 HD
ENDROOT
TORSDOF 0
ENDMDL
