MODEL 1
REMARK minimizedAffinity 19.129364
REMARK minimizedRMSD -1
REMARK  0 active torsions:
REMARK  status: ('A' for Active; 'I' for Inactive)
ROOT
ATOM      1  N1  IND d   1      -0.575  -2.626   3.073  0.00  0.00    -0.196 N 
ATOM      2  C2  IND d   1      -1.358  -1.506   3.093  0.00  0.00     0.054 A 
ATOM      3  C3  IND d   1      -2.532  -1.764   3.712  0.00  0.00    -0.031 A 
ATOM      4  C4  IND d   1      -3.338  -3.925   4.856  0.00  0.00     0.051 A 
ATOM      5  C5  IND d   1      -2.986  -5.229   5.065  0.00  0.00    -0.031 A 
ATOM      6  C6  IND d   1      -1.787  -5.741   4.613  0.00  0.00     0.015 A 
ATOM      7  C7  IND d   1      -0.886  -4.963   3.943  0.00  0.00    -0.016 A 
ATOM      8  C8  IND d   1      -1.243  -3.640   3.724  0.00  0.00    -0.047 A 
ATOM      9  C9  IND d   1      -2.477  -3.125   4.142  0.00  0.00    -0.096 A 
ATOM     10  HN1 IND d   1       0.204  -2.687   2.714  0.00  0.00     0.298 HD
ENDROOT
TORSDOF 0
ENDMDL
