MODEL 1
REMARK minimizedAffinity 29.3665218
REMARK minimizedRMSD -1
REMARK  0 active torsions:
REMARK  status: ('A' for Active; 'I' for Inactive)
ROOT
ATOM      1  N1  IND d   1      -0.753  -2.611   2.707  0.00  0.00    -0.196 N 
ATOM      2  C2  IND d   1      -1.613  -1.573   2.937  0.00  0.00     0.054 A 
ATOM      3  C3  IND d   1      -2.649  -1.981   3.704  0.00  0.00    -0.031 A 
ATOM      4  C4  IND d   1      -3.081  -4.280   4.779  0.00  0.00     0.051 A 
ATOM      5  C5  IND d   1      -2.593  -5.556   4.826  0.00  0.00    -0.031 A 
ATOM      6  C6  IND d   1      -1.443  -5.922   4.158  0.00  0.00     0.015 A 
ATOM      7  C7  IND d   1      -0.728  -5.019   3.424  0.00  0.00    -0.016 A 
ATOM      8  C8  IND d   1      -1.223  -3.724   3.368  0.00  0.00    -0.047 A 
ATOM      9  C9  IND d   1      -2.413  -3.357   4.009  0.00  0.00    -0.096 A 
ATOM     10  HN1 IND d   1      -0.038  -2.574   2.230  0.00  0.00     0.298 HD
ENDROOT
TORSDOF 0
ENDMDL
