MODEL 1
REMARK minimizedAffinity 8.26418495
REMARK minimizedRMSD -1
REMARK  0 active torsions:
REMARK  status: ('A' for Active; 'I' for Inactive)
ROOT
ATOM      1  N1  IND d   1      -5.426  -1.723  -5.988  0.00  0.00    -0.196 N 
ATOM      2  C2  IND d   1      -5.087  -0.399  -5.958  0.00  0.00     0.054 A 
ATOM      3  C3  IND d   1      -3.743  -0.259  -5.915  0.00  0.00    -0.031 A 
ATOM      4  C4  IND d   1      -1.907  -2.062  -5.989  0.00  0.00     0.051 A 
ATOM      5  C5  IND d   1      -1.727  -3.417  -5.982  0.00  0.00    -0.031 A 
ATOM      6  C6  IND d   1      -2.792  -4.294  -5.979  0.00  0.00     0.015 A 
ATOM      7  C7  IND d   1      -4.083  -3.847  -5.995  0.00  0.00    -0.016 A 
ATOM      8  C8  IND d   1      -4.270  -2.472  -5.995  0.00  0.00    -0.047 A 
ATOM      9  C9  IND d   1      -3.193  -1.577  -5.955  0.00  0.00    -0.096 A 
ATOM     10  HN1 IND d   1      -6.227  -2.036  -6.001  0.00  0.00     0.298 HD
ENDROOT
TORSDOF 0
ENDMDL
