MODEL 1
REMARK minimizedAffinity 17.290596
REMARK minimizedRMSD -1
REMARK  0 active torsions:
REMARK  status: ('A' for Active; 'I' for Inactive)
ROOT
ATOM      1  N1  IND d   1      -0.745  -2.061   2.935  0.00  0.00    -0.196 N 
ATOM      2  C2  IND d   1      -1.925  -2.355   3.561  0.00  0.00     0.054 A 
ATOM      3  C3  IND d   1      -2.205  -1.423   4.499  0.00  0.00    -0.031 A 
ATOM      4  C4  IND d   1      -0.920   0.723   5.107  0.00  0.00     0.051 A 
ATOM      5  C5  IND d   1       0.235   1.401   4.834  0.00  0.00    -0.031 A 
ATOM      6  C6  IND d   1       1.139   0.952   3.893  0.00  0.00     0.015 A 
ATOM      7  C7  IND d   1       0.915  -0.191   3.179  0.00  0.00    -0.016 A 
ATOM      8  C8  IND d   1      -0.253  -0.886   3.459  0.00  0.00    -0.047 A 
ATOM      9  C9  IND d   1      -1.154  -0.457   4.442  0.00  0.00    -0.096 A 
ATOM     10  HN1 IND d   1      -0.373  -2.531   2.319  0.00  0.00     0.298 HD
ENDROOT
TORSDOF 0
ENDMDL
