MODEL 1
REMARK minimizedAffinity 6.58404207
REMARK minimizedRMSD -1
REMARK  0 active torsions:
REMARK  status: ('A' for Active; 'I' for Inactive)
ROOT
ATOM      1  N1  IND d   1       0.048  -5.465   1.283  0.00  0.00    -0.196 N 
ATOM      2  C2  IND d   1       0.530  -5.197   0.032  0.00  0.00     0.054 A 
ATOM      3  C3  IND d   1       0.449  -3.873  -0.229  0.00  0.00    -0.031 A 
ATOM      4  C4  IND d   1      -0.346  -1.952   1.289  0.00  0.00     0.051 A 
ATOM      5  C5  IND d   1      -0.912  -1.707   2.509  0.00  0.00    -0.031 A 
ATOM      6  C6  IND d   1      -1.191  -2.722   3.401  0.00  0.00     0.015 A 
ATOM      7  C7  IND d   1      -0.901  -4.025   3.110  0.00  0.00    -0.016 A 
ATOM      8  C8  IND d   1      -0.333  -4.279   1.870  0.00  0.00    -0.047 A 
ATOM      9  C9  IND d   1      -0.087  -3.257   0.943  0.00  0.00    -0.096 A 
ATOM     10  HN1 IND d   1      -0.008  -6.244   1.643  0.00  0.00     0.298 HD
ENDROOT
TORSDOF 0
ENDMDL
