MODEL 1
REMARK minimizedAffinity 18.3293114
REMARK minimizedRMSD -1
REMARK  0 active torsions:
REMARK  status: ('A' for Active; 'I' for Inactive)
ROOT
ATOM      1  N1  IND d   1      -1.938  -1.840  -5.982  0.00  0.00    -0.196 N 
ATOM      2  C2  IND d   1      -3.305  -1.810  -5.975  0.00  0.00     0.054 A 
ATOM      3  C3  IND d   1      -3.803  -3.067  -5.985  0.00  0.00    -0.031 A 
ATOM      4  C4  IND d   1      -2.559  -5.320  -5.910  0.00  0.00     0.051 A 
ATOM      5  C5  IND d   1      -1.304  -5.859  -5.944  0.00  0.00    -0.031 A 
ATOM      6  C6  IND d   1      -0.173  -5.070  -5.990  0.00  0.00     0.015 A 
ATOM      7  C7  IND d   1      -0.255  -3.706  -5.992  0.00  0.00    -0.016 A 
ATOM      8  C8  IND d   1      -1.529  -3.156  -5.966  0.00  0.00    -0.047 A 
ATOM      9  C9  IND d   1      -2.681  -3.951  -5.962  0.00  0.00    -0.096 A 
ATOM     10  HN1 IND d   1      -1.422  -1.153  -5.994  0.00  0.00     0.298 HD
ENDROOT
TORSDOF 0
ENDMDL
