MODEL 1
REMARK minimizedAffinity 14.1729803
REMARK minimizedRMSD -1
REMARK  0 active torsions:
REMARK  status: ('A' for Active; 'I' for Inactive)
ROOT
ATOM      1  N1  IND d   1       3.692   0.160   3.972  0.00  0.00    -0.196 N 
ATOM      2  C2  IND d   1       4.470  -0.204   2.909  0.00  0.00     0.054 A 
ATOM      3  C3  IND d   1       3.883   0.163   1.748  0.00  0.00    -0.031 A 
ATOM      4  C4  IND d   1       1.693   1.460   1.361  0.00  0.00     0.051 A 
ATOM      5  C5  IND d   1       0.615   1.976   2.025  0.00  0.00    -0.031 A 
ATOM      6  C6  IND d   1       0.507   1.914   3.399  0.00  0.00     0.015 A 
ATOM      7  C7  IND d   1       1.482   1.342   4.165  0.00  0.00    -0.016 A 
ATOM      8  C8  IND d   1       2.575   0.810   3.495  0.00  0.00    -0.047 A 
ATOM      9  C9  IND d   1       2.670   0.832   2.097  0.00  0.00    -0.096 A 
ATOM     10  HN1 IND d   1       3.869   0.008   4.799  0.00  0.00     0.298 HD
ENDROOT
TORSDOF 0
ENDMDL
