MODEL 1
REMARK minimizedAffinity 15.9012928
REMARK minimizedRMSD -1
REMARK  0 active torsions:
REMARK  status: ('A' for Active; 'I' for Inactive)
ROOT
ATOM      1  N1  IND d   1      -2.182  -4.991  -5.864  0.00  0.00    -0.196 N 
ATOM      2  C2  IND d   1      -0.892  -4.541  -5.908  0.00  0.00     0.054 A 
ATOM      3  C3  IND d   1      -0.867  -3.192  -5.999  0.00  0.00    -0.031 A 
ATOM      4  C4  IND d   1      -2.820  -1.516  -5.988  0.00  0.00     0.051 A 
ATOM      5  C5  IND d   1      -4.185  -1.452  -6.000  0.00  0.00    -0.031 A 
ATOM      6  C6  IND d   1      -4.968  -2.588  -5.964  0.00  0.00     0.015 A 
ATOM      7  C7  IND d   1      -4.413  -3.835  -5.903  0.00  0.00    -0.016 A 
ATOM      8  C8  IND d   1      -3.027  -3.903  -5.898  0.00  0.00    -0.047 A 
ATOM      9  C9  IND d   1      -2.227  -2.756  -5.977  0.00  0.00    -0.096 A 
ATOM     10  HN1 IND d   1      -2.425  -5.814  -5.823  0.00  0.00     0.298 HD
ENDROOT
TORSDOF 0
ENDMDL
