MODEL 1
REMARK minimizedAffinity 16.4954662
REMARK minimizedRMSD -1
REMARK  0 active torsions:
REMARK  status: ('A' for Active; 'I' for Inactive)
ROOT
ATOM      1  N1  IND d   1       2.937  -1.417  -5.160  0.00  0.00    -0.196 N 
ATOM      2  C2  IND d   1       3.730  -2.186  -5.966  0.00  0.00     0.054 A 
ATOM      3  C3  IND d   1       4.988  -1.693  -5.995  0.00  0.00    -0.031 A 
ATOM      4  C4  IND d   1       5.993   0.304  -4.720  0.00  0.00     0.051 A 
ATOM      5  C5  IND d   1       5.650   1.335  -3.890  0.00  0.00    -0.031 A 
ATOM      6  C6  IND d   1       4.360   1.503  -3.431  0.00  0.00     0.015 A 
ATOM      7  C7  IND d   1       3.363   0.636  -3.775  0.00  0.00    -0.016 A 
ATOM      8  C8  IND d   1       3.705  -0.408  -4.623  0.00  0.00    -0.047 A 
ATOM      9  C9  IND d   1       5.004  -0.559  -5.127  0.00  0.00    -0.096 A 
ATOM     10  HN1 IND d   1       2.099  -1.543  -5.014  0.00  0.00     0.298 HD
ENDROOT
TORSDOF 0
ENDMDL
