MODEL 1
REMARK minimizedAffinity 0.593505204
REMARK minimizedRMSD -1
REMARK  0 active torsions:
REMARK  status: ('A' for Active; 'I' for Inactive)
ROOT
ATOM      1  N1  IND d   1       5.483  -0.186  -4.848  0.00  0.00    -0.196 N 
ATOM      2  C2  IND d   1       4.325  -0.911  -4.810  0.00  0.00     0.054 A 
ATOM      3  C3  IND d   1       3.270  -0.129  -5.131  0.00  0.00    -0.031 A 
ATOM      4  C4  IND d   1       3.224   2.342  -5.851  0.00  0.00     0.051 A 
ATOM      5  C5  IND d   1       4.030   3.435  -6.000  0.00  0.00    -0.031 A 
ATOM      6  C6  IND d   1       5.389   3.376  -5.770  0.00  0.00     0.015 A 
ATOM      7  C7  IND d   1       5.998   2.213  -5.393  0.00  0.00    -0.016 A 
ATOM      8  C8  IND d   1       5.181   1.102  -5.234  0.00  0.00    -0.047 A 
ATOM      9  C9  IND d   1       3.795   1.166  -5.424  0.00  0.00    -0.096 A 
ATOM     10  HN1 IND d   1       6.268  -0.484  -4.662  0.00  0.00     0.298 HD
ENDROOT
TORSDOF 0
ENDMDL
