MODEL 1
REMARK minimizedAffinity 11.2328053
REMARK minimizedRMSD -1
REMARK  0 active torsions:
REMARK  status: ('A' for Active; 'I' for Inactive)
ROOT
ATOM      1  N1  IND d   1       0.436   3.114   2.819  0.00  0.00    -0.196 N 
ATOM      2  C2  IND d   1       0.272   3.025   1.465  0.00  0.00     0.054 A 
ATOM      3  C3  IND d   1       1.047   2.039   0.961  0.00  0.00    -0.031 A 
ATOM      4  C4  IND d   1       2.585   0.378   2.189  0.00  0.00     0.051 A 
ATOM      5  C5  IND d   1       3.089   0.090   3.426  0.00  0.00    -0.031 A 
ATOM      6  C6  IND d   1       2.726   0.807   4.547  0.00  0.00     0.015 A 
ATOM      7  C7  IND d   1       1.831   1.837   4.474  0.00  0.00    -0.016 A 
ATOM      8  C8  IND d   1       1.323   2.138   3.219  0.00  0.00    -0.047 A 
ATOM      9  C9  IND d   1       1.720   1.441   2.070  0.00  0.00    -0.096 A 
ATOM     10  HN1 IND d   1       0.051   3.684   3.335  0.00  0.00     0.298 HD
ENDROOT
TORSDOF 0
ENDMDL
