MODEL 1
REMARK minimizedAffinity 3.32326293
REMARK minimizedRMSD -1
REMARK  0 active torsions:
REMARK  status: ('A' for Active; 'I' for Inactive)
ROOT
ATOM      1  N1  IND d   1      -1.478  -5.605   4.215  0.00  0.00    -0.196 N 
ATOM      2  C2  IND d   1      -2.634  -5.840   4.906  0.00  0.00     0.054 A 
ATOM      3  C3  IND d   1      -3.350  -4.699   5.027  0.00  0.00    -0.031 A 
ATOM      4  C4  IND d   1      -2.864  -2.355   4.083  0.00  0.00     0.051 A 
ATOM      5  C5  IND d   1      -1.910  -1.639   3.414  0.00  0.00    -0.031 A 
ATOM      6  C6  IND d   1      -0.742  -2.221   2.967  0.00  0.00     0.015 A 
ATOM      7  C7  IND d   1      -0.487  -3.549   3.163  0.00  0.00    -0.016 A 
ATOM      8  C8  IND d   1      -1.450  -4.277   3.847  0.00  0.00    -0.047 A 
ATOM      9  C9  IND d   1      -2.618  -3.683   4.341  0.00  0.00    -0.096 A 
ATOM     10  HN1 IND d   1      -0.871  -6.188   4.039  0.00  0.00     0.298 HD
ENDROOT
TORSDOF 0
ENDMDL
