MODEL 1
REMARK minimizedAffinity 13.3193092
REMARK minimizedRMSD -1
REMARK  0 active torsions:
REMARK  status: ('A' for Active; 'I' for Inactive)
ROOT
ATOM      1  N1  IND d   1       3.954  -0.581   1.053  0.00  0.00    -0.196 N 
ATOM      2  C2  IND d   1       3.325  -0.053  -0.040  0.00  0.00     0.054 A 
ATOM      3  C3  IND d   1       2.289   0.727   0.343  0.00  0.00    -0.031 A 
ATOM      4  C4  IND d   1       1.508   1.360   2.713  0.00  0.00     0.051 A 
ATOM      5  C5  IND d   1       1.747   1.095   4.033  0.00  0.00    -0.031 A 
ATOM      6  C6  IND d   1       2.755   0.243   4.435  0.00  0.00     0.015 A 
ATOM      7  C7  IND d   1       3.574  -0.370   3.528  0.00  0.00    -0.016 A 
ATOM      8  C8  IND d   1       3.330  -0.109   2.188  0.00  0.00    -0.047 A 
ATOM      9  C9  IND d   1       2.281   0.722   1.772  0.00  0.00    -0.096 A 
ATOM     10  HN1 IND d   1       4.625  -1.117   1.036  0.00  0.00     0.298 HD
ENDROOT
TORSDOF 0
ENDMDL
