MODEL 1
REMARK minimizedAffinity 14.0683126
REMARK minimizedRMSD -1
REMARK  0 active torsions:
REMARK  status: ('A' for Active; 'I' for Inactive)
ROOT
ATOM      1  N1  IND d   1      -1.495   2.717   2.736  0.00  0.00    -0.196 N 
ATOM      2  C2  IND d   1      -1.837   3.717   1.869  0.00  0.00     0.054 A 
ATOM      3  C3  IND d   1      -0.794   4.016   1.062  0.00  0.00    -0.031 A 
ATOM      4  C4  IND d   1       1.532   2.922   0.921  0.00  0.00     0.051 A 
ATOM      5  C5  IND d   1       2.324   1.992   1.534  0.00  0.00    -0.031 A 
ATOM      6  C6  IND d   1       1.873   1.239   2.598  0.00  0.00     0.015 A 
ATOM      7  C7  IND d   1       0.604   1.380   3.084  0.00  0.00    -0.016 A 
ATOM      8  C8  IND d   1      -0.200   2.329   2.469  0.00  0.00    -0.047 A 
ATOM      9  C9  IND d   1       0.265   3.126   1.416  0.00  0.00    -0.096 A 
ATOM     10  HN1 IND d   1      -2.004   2.385   3.345  0.00  0.00     0.298 HD
ENDROOT
TORSDOF 0
ENDMDL
