MODEL 1
REMARK minimizedAffinity 13.3068857
REMARK minimizedRMSD -1
REMARK  0 active torsions:
REMARK  status: ('A' for Active; 'I' for Inactive)
ROOT
ATOM      1  N1  IND d   1       4.639   1.999  -2.853  0.00  0.00    -0.196 N 
ATOM      2  C2  IND d   1       3.295   2.177  -2.678  0.00  0.00     0.054 A 
ATOM      3  C3  IND d   1       2.601   1.324  -3.464  0.00  0.00    -0.031 A 
ATOM      4  C4  IND d   1       3.465  -0.520  -5.039  0.00  0.00     0.051 A 
ATOM      5  C5  IND d   1       4.617  -1.040  -5.559  0.00  0.00    -0.031 A 
ATOM      6  C6  IND d   1       5.861  -0.565  -5.194  0.00  0.00     0.015 A 
ATOM      7  C7  IND d   1       5.999   0.444  -4.283  0.00  0.00    -0.016 A 
ATOM      8  C8  IND d   1       4.831   0.978  -3.758  0.00  0.00    -0.047 A 
ATOM      9  C9  IND d   1       3.565   0.530  -4.156  0.00  0.00    -0.096 A 
ATOM     10  HN1 IND d   1       5.259   2.449  -2.463  0.00  0.00     0.298 HD
ENDROOT
TORSDOF 0
ENDMDL
