MODEL 1
REMARK minimizedAffinity 0.97915417
REMARK minimizedRMSD -1
REMARK  0 active torsions:
REMARK  status: ('A' for Active; 'I' for Inactive)
ROOT
ATOM      1  C   UNL d   1       0.023  -0.778   0.804  0.00  0.00     0.023 A 
ATOM      2  C1  UNL d   1       0.939  -1.043  -0.214  0.00  0.00     0.003 A 
ATOM      3  C2  UNL d   1       1.690  -2.220  -0.191  0.00  0.00     0.048 A 
ATOM      4  C3  UNL d   1       1.519  -3.129   0.853  0.00  0.00     0.023 A 
ATOM      5  C4  UNL d   1       0.602  -2.869   1.873  0.00  0.00     0.048 A 
ATOM      6  C5  UNL d   1      -0.146  -1.690   1.846  0.00  0.00     0.003 A 
ATOM      7  I   UNL d   1       2.635  -4.882   0.890  0.00  0.00    -0.146 I 
ENDROOT
TORSDOF 0
ENDMDL
