MODEL 1
REMARK minimizedAffinity 16.1058426
REMARK minimizedRMSD -1
REMARK  0 active torsions:
REMARK  status: ('A' for Active; 'I' for Inactive)
ROOT
ATOM      1  C   UNL d   1       1.596  -1.411  -4.478  0.00  0.00     0.023 A 
ATOM      2  C1  UNL d   1       0.389  -0.722  -4.609  0.00  0.00     0.003 A 
ATOM      3  C2  UNL d   1       0.385   0.604  -5.044  0.00  0.00     0.048 A 
ATOM      4  C3  UNL d   1       1.590   1.237  -5.348  0.00  0.00     0.023 A 
ATOM      5  C4  UNL d   1       2.799   0.552  -5.221  0.00  0.00     0.048 A 
ATOM      6  C5  UNL d   1       2.799  -0.774  -4.784  0.00  0.00     0.003 A 
ATOM      7  I   UNL d   1       1.585   3.211  -5.997  0.00  0.00    -0.146 I 
ENDROOT
TORSDOF 0
ENDMDL
