MODEL 1
REMARK minimizedAffinity 7.25808954
REMARK minimizedRMSD -1
REMARK  0 active torsions:
REMARK  status: ('A' for Active; 'I' for Inactive)
ROOT
ATOM      1  C   UNL d   1       0.097  -1.319   0.500  0.00  0.00     0.023 A 
ATOM      2  C1  UNL d   1       1.115  -1.316  -0.454  0.00  0.00     0.003 A 
ATOM      3  C2  UNL d   1       2.022  -2.376  -0.512  0.00  0.00     0.048 A 
ATOM      4  C3  UNL d   1       1.904  -3.437   0.385  0.00  0.00     0.023 A 
ATOM      5  C4  UNL d   1       0.887  -3.445   1.340  0.00  0.00     0.048 A 
ATOM      6  C5  UNL d   1      -0.017  -2.382   1.396  0.00  0.00     0.003 A 
ATOM      7  I   UNL d   1       3.253  -5.016   0.299  0.00  0.00    -0.146 I 
ENDROOT
TORSDOF 0
ENDMDL
