MODEL 1
REMARK minimizedAffinity 8.80369949
REMARK minimizedRMSD -1
REMARK  0 active torsions:
REMARK  status: ('A' for Active; 'I' for Inactive)
ROOT
ATOM      1  C   UNL d   1      -0.441  -0.346   2.048  0.00  0.00     0.023 A 
ATOM      2  C1  UNL d   1       0.910  -0.008   1.979  0.00  0.00     0.003 A 
ATOM      3  C2  UNL d   1       1.829  -0.905   1.432  0.00  0.00     0.048 A 
ATOM      4  C3  UNL d   1       1.389  -2.139   0.954  0.00  0.00     0.023 A 
ATOM      5  C4  UNL d   1       0.038  -2.482   1.020  0.00  0.00     0.048 A 
ATOM      6  C5  UNL d   1      -0.877  -1.581   1.569  0.00  0.00     0.003 A 
ATOM      7  I   UNL d   1       2.755  -3.478   0.138  0.00  0.00    -0.146 I 
ENDROOT
TORSDOF 0
ENDMDL
