MODEL 1
REMARK minimizedAffinity 2.10870075
REMARK minimizedRMSD -1
REMARK  0 active torsions:
REMARK  status: ('A' for Active; 'I' for Inactive)
ROOT
ATOM      1  C   UNL d   1      -0.925  -1.884   2.267  0.00  0.00     0.023 A 
ATOM      2  C1  UNL d   1      -0.725  -3.228   2.584  0.00  0.00     0.003 A 
ATOM      3  C2  UNL d   1       0.459  -3.866   2.209  0.00  0.00     0.048 A 
ATOM      4  C3  UNL d   1       1.438  -3.155   1.517  0.00  0.00     0.023 A 
ATOM      5  C4  UNL d   1       1.243  -1.810   1.199  0.00  0.00     0.048 A 
ATOM      6  C5  UNL d   1       0.057  -1.176   1.576  0.00  0.00     0.003 A 
ATOM      7  I   UNL d   1       3.201  -4.103   0.957  0.00  0.00    -0.146 I 
ENDROOT
TORSDOF 0
ENDMDL
