MODEL 1
REMARK minimizedAffinity 5.52202654
REMARK minimizedRMSD -1
REMARK  0 active torsions:
REMARK  status: ('A' for Active; 'I' for Inactive)
ROOT
ATOM      1  C   UNL d   1       0.358  -0.375   1.156  0.00  0.00     0.023 A 
ATOM      2  C1  UNL d   1       1.608  -0.290   0.542  0.00  0.00     0.003 A 
ATOM      3  C2  UNL d   1       2.372  -1.442   0.348  0.00  0.00     0.048 A 
ATOM      4  C3  UNL d   1       1.881  -2.677   0.771  0.00  0.00     0.023 A 
ATOM      5  C4  UNL d   1       0.631  -2.767   1.386  0.00  0.00     0.048 A 
ATOM      6  C5  UNL d   1      -0.129  -1.612   1.578  0.00  0.00     0.003 A 
ATOM      7  I   UNL d   1       3.017  -4.393   0.484  0.00  0.00    -0.146 I 
ENDROOT
TORSDOF 0
ENDMDL
