MODEL 1
REMARK minimizedAffinity 0.0237250216
REMARK minimizedRMSD -1
REMARK  1 active torsions:
REMARK  status: ('A' for Active; 'I' for Inactive)
REMARK    1  A    between atoms: N_2  and  C1_3 
ROOT
ATOM      1  C1  UNL d   1       3.412  -2.126   4.090  0.00  0.00     0.143 A 
ATOM      2  C2  UNL d   1       4.556  -1.954   3.304  0.00  0.00    -0.057 A 
ATOM      3  C3  UNL d   1       5.838  -2.108   3.846  0.00  0.00     0.033 A 
ATOM      4  C4  UNL d   1       5.999  -2.409   5.195  0.00  0.00    -0.042 A 
ATOM      5  C5  UNL d   1       4.875  -2.559   6.000  0.00  0.00     0.033 A 
ATOM      6  C6  UNL d   1       3.598  -2.411   5.452  0.00  0.00    -0.057 A 
ENDROOT
BRANCH   1   7
ATOM      7  N   UNL d   1       2.112  -1.891   3.633  0.00  0.00    -0.732 N 
ATOM      8  C   UNL d   1       1.863  -0.923   2.586  0.00  0.00     0.284 C 
ATOM      9  H3  UNL d   1       1.570  -2.747   3.546  0.00  0.00     0.395 HD
ENDBRANCH   1   7
TORSDOF 1
ENDMDL
