MODEL 1
REMARK minimizedAffinity 5.67801571
REMARK minimizedRMSD -1
REMARK  1 active torsions:
REMARK  status: ('A' for Active; 'I' for Inactive)
REMARK    1  A    between atoms: N_2  and  C1_3 
ROOT
ATOM      1  C1  UNL d   1       1.584  -1.586   1.691  0.00  0.00     0.143 A 
ATOM      2  C2  UNL d   1       1.569  -0.690   2.765  0.00  0.00    -0.057 A 
ATOM      3  C3  UNL d   1       1.907  -1.103   4.059  0.00  0.00     0.033 A 
ATOM      4  C4  UNL d   1       2.239  -2.431   4.308  0.00  0.00    -0.042 A 
ATOM      5  C5  UNL d   1       2.235  -3.344   3.260  0.00  0.00     0.033 A 
ATOM      6  C6  UNL d   1       1.903  -2.925   1.968  0.00  0.00    -0.057 A 
ENDROOT
BRANCH   1   7
ATOM      7  N   UNL d   1       1.162  -1.259   0.399  0.00  0.00    -0.732 N 
ATOM      8  C   UNL d   1       1.547  -2.077  -0.731  0.00  0.00     0.284 C 
ATOM      9  H3  UNL d   1       0.195  -0.944   0.374  0.00  0.00     0.395 HD
ENDBRANCH   1   7
TORSDOF 1
ENDMDL
