MODEL 1
REMARK minimizedAffinity 9.6853056
REMARK minimizedRMSD -1
REMARK  1 active torsions:
REMARK  status: ('A' for Active; 'I' for Inactive)
REMARK    1  A    between atoms: N_2  and  C1_3 
ROOT
ATOM      1  C1  UNL d   1       4.079  -2.179   3.674  0.00  0.00     0.143 A 
ATOM      2  C2  UNL d   1       3.160  -2.458   4.692  0.00  0.00    -0.057 A 
ATOM      3  C3  UNL d   1       1.846  -1.978   4.635  0.00  0.00     0.033 A 
ATOM      4  C4  UNL d   1       1.434  -1.184   3.569  0.00  0.00    -0.042 A 
ATOM      5  C5  UNL d   1       2.338  -0.874   2.559  0.00  0.00     0.033 A 
ATOM      6  C6  UNL d   1       3.647  -1.362   2.618  0.00  0.00    -0.057 A 
ENDROOT
BRANCH   1   7
ATOM      7  N   UNL d   1       5.426  -2.545   3.721  0.00  0.00    -0.732 N 
ATOM      8  C   UNL d   1       5.998  -3.387   2.693  0.00  0.00     0.284 C 
ATOM      9  H3  UNL d   1       6.027  -1.776   4.011  0.00  0.00     0.395 HD
ENDBRANCH   1   7
TORSDOF 1
ENDMDL
