MODEL 1
REMARK minimizedAffinity 1.121351
REMARK minimizedRMSD -1
REMARK  1 active torsions:
REMARK  status: ('A' for Active; 'I' for Inactive)
REMARK    1  A    between atoms: N_2  and  C1_3 
ROOT
ATOM      1  C1  UNL d   1       3.492  -0.929   3.758  0.00  0.00     0.143 A 
ATOM      2  C2  UNL d   1       4.780  -1.475   3.785  0.00  0.00    -0.057 A 
ATOM      3  C3  UNL d   1       5.233  -2.213   4.885  0.00  0.00     0.033 A 
ATOM      4  C4  UNL d   1       4.413  -2.395   5.994  0.00  0.00    -0.042 A 
ATOM      5  C5  UNL d   1       3.138  -1.840   6.000  0.00  0.00     0.033 A 
ATOM      6  C6  UNL d   1       2.689  -1.109   4.896  0.00  0.00    -0.057 A 
ENDROOT
BRANCH   1   7
ATOM      7  N   UNL d   1       3.019  -0.102   2.737  0.00  0.00    -0.732 N 
ATOM      8  C   UNL d   1       3.020   1.337   2.893  0.00  0.00     0.284 C 
ATOM      9  H3  UNL d   1       3.307  -0.420   1.814  0.00  0.00     0.395 HD
ENDBRANCH   1   7
TORSDOF 1
ENDMDL
