MODEL 1
REMARK minimizedAffinity 15.0905943
REMARK minimizedRMSD -1
REMARK  1 active torsions:
REMARK  status: ('A' for Active; 'I' for Inactive)
REMARK    1  A    between atoms: N_2  and  C1_3 
ROOT
ATOM      1  C1  UNL d   1       4.786   5.702  -4.131  0.00  0.00     0.143 A 
ATOM      2  C2  UNL d   1       3.548   5.382  -3.564  0.00  0.00    -0.057 A 
ATOM      3  C3  UNL d   1       3.359   5.395  -2.177  0.00  0.00     0.033 A 
ATOM      4  C4  UNL d   1       4.418   5.701  -1.328  0.00  0.00    -0.042 A 
ATOM      5  C5  UNL d   1       5.664   5.998  -1.868  0.00  0.00     0.033 A 
ATOM      6  C6  UNL d   1       5.844   5.990  -3.255  0.00  0.00    -0.057 A 
ENDROOT
BRANCH   1   7
ATOM      7  N   UNL d   1       5.062   5.611  -5.497  0.00  0.00    -0.732 N 
ATOM      8  C   UNL d   1       5.995   4.623  -5.997  0.00  0.00     0.284 C 
ATOM      9  H3  UNL d   1       4.229   5.724  -6.071  0.00  0.00     0.395 HD
ENDBRANCH   1   7
TORSDOF 1
ENDMDL
