MODEL 1
REMARK minimizedAffinity 3.26077342
REMARK minimizedRMSD -1
REMARK  1 active torsions:
REMARK  status: ('A' for Active; 'I' for Inactive)
REMARK    1  A    between atoms: N_2  and  C1_3 
ROOT
ATOM      1  C1  UNL d   1       2.264  -0.137   2.957  0.00  0.00     0.143 A 
ATOM      2  C2  UNL d   1       3.301   0.738   3.297  0.00  0.00    -0.057 A 
ATOM      3  C3  UNL d   1       3.592   1.860   2.511  0.00  0.00     0.033 A 
ATOM      4  C4  UNL d   1       2.866   2.111   1.352  0.00  0.00    -0.042 A 
ATOM      5  C5  UNL d   1       1.846   1.242   0.981  0.00  0.00     0.033 A 
ATOM      6  C6  UNL d   1       1.556   0.127   1.774  0.00  0.00    -0.057 A 
ENDROOT
BRANCH   1   7
ATOM      7  N   UNL d   1       1.990  -1.323   3.643  0.00  0.00    -0.732 N 
ATOM      8  C   UNL d   1       2.942  -1.864   4.589  0.00  0.00     0.284 C 
ATOM      9  H3  UNL d   1       1.021  -1.379   3.950  0.00  0.00     0.395 HD
ENDBRANCH   1   7
TORSDOF 1
ENDMDL
