MODEL 1
REMARK minimizedAffinity 1.43084586
REMARK minimizedRMSD -1
REMARK  1 active torsions:
REMARK  status: ('A' for Active; 'I' for Inactive)
REMARK    1  A    between atoms: N_2  and  C1_3 
ROOT
ATOM      1  C1  UNL d   1       2.249  -2.065   2.969  0.00  0.00     0.143 A 
ATOM      2  C2  UNL d   1       1.514  -1.937   4.153  0.00  0.00    -0.057 A 
ATOM      3  C3  UNL d   1       1.222  -3.051   4.949  0.00  0.00     0.033 A 
ATOM      4  C4  UNL d   1       1.636  -4.320   4.560  0.00  0.00    -0.042 A 
ATOM      5  C5  UNL d   1       2.346  -4.474   3.374  0.00  0.00     0.033 A 
ATOM      6  C6  UNL d   1       2.641  -3.357   2.587  0.00  0.00    -0.057 A 
ENDROOT
BRANCH   1   7
ATOM      7  N   UNL d   1       2.487  -1.010   2.084  0.00  0.00    -0.732 N 
ATOM      8  C   UNL d   1       1.508   0.042   1.911  0.00  0.00     0.284 C 
ATOM      9  H3  UNL d   1       3.449  -0.682   2.121  0.00  0.00     0.395 HD
ENDBRANCH   1   7
TORSDOF 1
ENDMDL
