MODEL 1
REMARK minimizedAffinity 11.9042902
REMARK minimizedRMSD -1
REMARK  1 active torsions:
REMARK  status: ('A' for Active; 'I' for Inactive)
REMARK    1  A    between atoms: N_2  and  C1_3 
ROOT
ATOM      1  C1  UNL d   1       2.397   2.530   0.661  0.00  0.00     0.143 A 
ATOM      2  C2  UNL d   1       1.335   2.421   1.565  0.00  0.00    -0.057 A 
ATOM      3  C3  UNL d   1       1.140   1.257   2.319  0.00  0.00     0.033 A 
ATOM      4  C4  UNL d   1       1.990   0.168   2.161  0.00  0.00    -0.042 A 
ATOM      5  C5  UNL d   1       3.038   0.245   1.250  0.00  0.00     0.033 A 
ATOM      6  C6  UNL d   1       3.232   1.412   0.505  0.00  0.00    -0.057 A 
ENDROOT
BRANCH   1   7
ATOM      7  N   UNL d   1       2.586   3.623  -0.189  0.00  0.00    -0.732 N 
ATOM      8  C   UNL d   1       1.453   4.375  -0.684  0.00  0.00     0.284 C 
ATOM      9  H3  UNL d   1       3.378   4.198   0.087  0.00  0.00     0.395 HD
ENDBRANCH   1   7
TORSDOF 1
ENDMDL
