MODEL 1
REMARK minimizedAffinity 23.4343338
REMARK minimizedRMSD -1
REMARK  1 active torsions:
REMARK  status: ('A' for Active; 'I' for Inactive)
REMARK    1  A    between atoms: C1_2  and  C2_3 
ROOT
ATOM      1  C2  UNL d   1      -0.471  -2.746  -1.620  0.00  0.00    -0.081 A 
ATOM      2  C3  UNL d   1      -0.257  -1.639  -2.449  0.00  0.00     0.006 A 
ATOM      3  C4  UNL d   1       0.687  -0.668  -2.104  0.00  0.00     0.002 A 
ATOM      4  C5  UNL d   1       1.437  -0.793  -0.930  0.00  0.00    -0.080 A 
ATOM      5  C6  UNL d   1       2.475   0.226  -0.564  0.00  0.00     0.076 C 
ATOM      6  C7  UNL d   1       1.211  -1.891  -0.093  0.00  0.00     0.002 A 
ATOM      7  C8  UNL d   1       0.267  -2.861  -0.436  0.00  0.00     0.006 A 
ENDROOT
BRANCH   1   8
ATOM      8  C1  UNL d   1      -1.442  -3.828  -2.021  0.00  0.00     0.054 C 
ATOM      9  C   UNL d   1      -0.765  -4.890  -2.875  0.00  0.00     0.018 C 
ENDBRANCH   1   8
TORSDOF 1
ENDMDL
