MODEL 1
REMARK minimizedAffinity 15.9220266
REMARK minimizedRMSD -1
REMARK  1 active torsions:
REMARK  status: ('A' for Active; 'I' for Inactive)
REMARK    1  A    between atoms: C1_2  and  C2_3 
ROOT
ATOM      1  C2  UNL d   1       2.171  -4.059  -0.544  0.00  0.00    -0.081 A 
ATOM      2  C3  UNL d   1       3.333  -3.278  -0.535  0.00  0.00     0.006 A 
ATOM      3  C4  UNL d   1       4.575  -3.853  -0.814  0.00  0.00     0.002 A 
ATOM      4  C5  UNL d   1       4.675  -5.216  -1.115  0.00  0.00    -0.080 A 
ATOM      5  C6  UNL d   1       5.998  -5.839  -1.446  0.00  0.00     0.076 C 
ATOM      6  C7  UNL d   1       3.516  -5.999  -1.107  0.00  0.00     0.002 A 
ATOM      7  C8  UNL d   1       2.274  -5.425  -0.828  0.00  0.00     0.006 A 
ENDROOT
BRANCH   1   8
ATOM      8  C1  UNL d   1       0.822  -3.429  -0.308  0.00  0.00     0.054 C 
ATOM      9  C   UNL d   1       0.805  -1.974  -0.753  0.00  0.00     0.018 C 
ENDBRANCH   1   8
TORSDOF 1
ENDMDL
