MODEL 1
REMARK minimizedAffinity 12.9568624
REMARK minimizedRMSD -1
REMARK  1 active torsions:
REMARK  status: ('A' for Active; 'I' for Inactive)
REMARK    1  A    between atoms: C1_2  and  C2_3 
ROOT
ATOM      1  C2  UNL d   1      -3.943   1.169   4.281  0.00  0.00    -0.081 A 
ATOM      2  C3  UNL d   1      -4.298   0.155   3.383  0.00  0.00     0.006 A 
ATOM      3  C4  UNL d   1      -4.314  -1.180   3.792  0.00  0.00     0.002 A 
ATOM      4  C5  UNL d   1      -3.982  -1.523   5.107  0.00  0.00    -0.080 A 
ATOM      5  C6  UNL d   1      -4.024  -2.950   5.568  0.00  0.00     0.076 C 
ATOM      6  C7  UNL d   1      -3.611  -0.512   6.000  0.00  0.00     0.002 A 
ATOM      7  C8  UNL d   1      -3.594   0.823   5.591  0.00  0.00     0.006 A 
ENDROOT
BRANCH   1   8
ATOM      8  C1  UNL d   1      -3.987   2.616   3.860  0.00  0.00     0.054 C 
ATOM      9  C   UNL d   1      -5.015   3.395   4.668  0.00  0.00     0.018 C 
ENDBRANCH   1   8
TORSDOF 1
ENDMDL
