MODEL 1
REMARK minimizedAffinity 9.65759277
REMARK minimizedRMSD -1
REMARK  1 active torsions:
REMARK  status: ('A' for Active; 'I' for Inactive)
REMARK    1  A    between atoms: C1_2  and  C2_3 
ROOT
ATOM      1  C2  UNL d   1       3.094  -1.073  -0.860  0.00  0.00    -0.081 A 
ATOM      2  C3  UNL d   1       2.011  -0.498  -1.537  0.00  0.00     0.006 A 
ATOM      3  C4  UNL d   1       0.900  -1.272  -1.881  0.00  0.00     0.002 A 
ATOM      4  C5  UNL d   1       0.850  -2.630  -1.549  0.00  0.00    -0.080 A 
ATOM      5  C6  UNL d   1      -0.349  -3.464  -1.886  0.00  0.00     0.076 C 
ATOM      6  C7  UNL d   1       1.940  -3.208  -0.888  0.00  0.00     0.002 A 
ATOM      7  C8  UNL d   1       3.051  -2.435  -0.544  0.00  0.00     0.006 A 
ENDROOT
BRANCH   1   8
ATOM      8  C1  UNL d   1       4.265  -0.227  -0.430  0.00  0.00     0.054 C 
ATOM      9  C   UNL d   1       4.078   1.227  -0.840  0.00  0.00     0.018 C 
ENDBRANCH   1   8
TORSDOF 1
ENDMDL
