MODEL 1
REMARK minimizedAffinity 12.8195791
REMARK minimizedRMSD -1
REMARK  1 active torsions:
REMARK  status: ('A' for Active; 'I' for Inactive)
REMARK    1  A    between atoms: C1_2  and  C2_3 
ROOT
ATOM      1  C2  UNL d   1       1.846  -0.913  -0.728  0.00  0.00    -0.081 A 
ATOM      2  C3  UNL d   1       1.076  -0.748  -1.885  0.00  0.00     0.006 A 
ATOM      3  C4  UNL d   1       0.402  -1.833  -2.449  0.00  0.00     0.002 A 
ATOM      4  C5  UNL d   1       0.480  -3.100  -1.860  0.00  0.00    -0.080 A 
ATOM      5  C6  UNL d   1      -0.264  -4.268  -2.438  0.00  0.00     0.076 C 
ATOM      6  C7  UNL d   1       1.263  -3.270  -0.714  0.00  0.00     0.002 A 
ATOM      7  C8  UNL d   1       1.938  -2.185  -0.150  0.00  0.00     0.006 A 
ENDROOT
BRANCH   1   8
ATOM      8  C1  UNL d   1       2.522   0.269  -0.081  0.00  0.00     0.054 C 
ATOM      9  C   UNL d   1       2.673   1.424  -1.061  0.00  0.00     0.018 C 
ENDBRANCH   1   8
TORSDOF 1
ENDMDL
