MODEL 1
REMARK minimizedAffinity 13.429966
REMARK minimizedRMSD -1
REMARK  1 active torsions:
REMARK  status: ('A' for Active; 'I' for Inactive)
REMARK    1  A    between atoms: C1_2  and  C2_3 
ROOT
ATOM      1  C2  UNL d   1       1.267   0.962   1.475  0.00  0.00    -0.081 A 
ATOM      2  C3  UNL d   1       1.339   0.100   0.374  0.00  0.00     0.006 A 
ATOM      3  C4  UNL d   1       2.508   0.018  -0.386  0.00  0.00     0.002 A 
ATOM      4  C5  UNL d   1       3.626   0.791  -0.054  0.00  0.00    -0.080 A 
ATOM      5  C6  UNL d   1       4.897   0.691  -0.844  0.00  0.00     0.076 C 
ATOM      6  C7  UNL d   1       3.548   1.666   1.035  0.00  0.00     0.002 A 
ATOM      7  C8  UNL d   1       2.379   1.748   1.795  0.00  0.00     0.006 A 
ENDROOT
BRANCH   1   8
ATOM      8  C1  UNL d   1       0.030   1.005   2.336  0.00  0.00     0.054 C 
ATOM      9  C   UNL d   1       0.278   1.777   3.623  0.00  0.00     0.018 C 
ENDBRANCH   1   8
TORSDOF 1
ENDMDL
