MODEL 1
REMARK minimizedAffinity 12.3335314
REMARK minimizedRMSD -1
REMARK  1 active torsions:
REMARK  status: ('A' for Active; 'I' for Inactive)
REMARK    1  A    between atoms: C1_2  and  C2_3 
ROOT
ATOM      1  C2  UNL d   1       3.511  -0.253  -0.445  0.00  0.00    -0.081 A 
ATOM      2  C3  UNL d   1       2.562   0.241  -1.349  0.00  0.00     0.006 A 
ATOM      3  C4  UNL d   1       1.467  -0.541  -1.723  0.00  0.00     0.002 A 
ATOM      4  C5  UNL d   1       1.298  -1.825  -1.194  0.00  0.00    -0.080 A 
ATOM      5  C6  UNL d   1       0.110  -2.663  -1.564  0.00  0.00     0.076 C 
ATOM      6  C7  UNL d   1       2.255  -2.325  -0.305  0.00  0.00     0.002 A 
ATOM      7  C8  UNL d   1       3.351  -1.544   0.069  0.00  0.00     0.006 A 
ENDROOT
BRANCH   1   8
ATOM      8  C1  UNL d   1       4.659   0.612   0.009  0.00  0.00     0.054 C 
ATOM      9  C   UNL d   1       5.220   1.437  -1.140  0.00  0.00     0.018 C 
ENDBRANCH   1   8
TORSDOF 1
ENDMDL
