MODEL 1
REMARK minimizedAffinity 23.4968948
REMARK minimizedRMSD -1
REMARK  1 active torsions:
REMARK  status: ('A' for Active; 'I' for Inactive)
REMARK    1  A    between atoms: C1_2  and  C2_3 
ROOT
ATOM      1  C2  UNL d   1       0.986  -5.217  -1.127  0.00  0.00    -0.081 A 
ATOM      2  C3  UNL d   1       0.535  -6.000  -2.196  0.00  0.00     0.006 A 
ATOM      3  C4  UNL d   1      -0.620  -5.644  -2.898  0.00  0.00     0.002 A 
ATOM      4  C5  UNL d   1      -1.337  -4.495  -2.547  0.00  0.00    -0.080 A 
ATOM      5  C6  UNL d   1      -2.561  -4.085  -3.311  0.00  0.00     0.076 C 
ATOM      6  C7  UNL d   1      -0.896  -3.722  -1.467  0.00  0.00     0.002 A 
ATOM      7  C8  UNL d   1       0.258  -4.078  -0.765  0.00  0.00     0.006 A 
ENDROOT
BRANCH   1   8
ATOM      8  C1  UNL d   1       2.266  -5.562  -0.410  0.00  0.00     0.054 C 
ATOM      9  C   UNL d   1       3.369  -4.565  -0.735  0.00  0.00     0.018 C 
ENDBRANCH   1   8
TORSDOF 1
ENDMDL
