MODEL 1
REMARK minimizedAffinity 25.8549042
REMARK minimizedRMSD -1
REMARK  1 active torsions:
REMARK  status: ('A' for Active; 'I' for Inactive)
REMARK    1  A    between atoms: C1_2  and  C2_3 
ROOT
ATOM      1  C2  UNL d   1       1.901  -4.102  -0.337  0.00  0.00    -0.081 A 
ATOM      2  C3  UNL d   1       2.968  -3.199  -0.420  0.00  0.00     0.006 A 
ATOM      3  C4  UNL d   1       4.253  -3.648  -0.734  0.00  0.00     0.002 A 
ATOM      4  C5  UNL d   1       4.491  -5.005  -0.978  0.00  0.00    -0.080 A 
ATOM      5  C6  UNL d   1       5.860  -5.496  -1.346  0.00  0.00     0.076 C 
ATOM      6  C7  UNL d   1       3.428  -5.910  -0.878  0.00  0.00     0.002 A 
ATOM      7  C8  UNL d   1       2.144  -5.462  -0.564  0.00  0.00     0.006 A 
ENDROOT
BRANCH   1   8
ATOM      8  C1  UNL d   1       0.502  -3.613  -0.062  0.00  0.00     0.054 C 
ATOM      9  C   UNL d   1      -0.292  -3.455  -1.351  0.00  0.00     0.018 C 
ENDBRANCH   1   8
TORSDOF 1
ENDMDL
