MODEL 1
REMARK minimizedAffinity 12.0401115
REMARK minimizedRMSD -1
REMARK  1 active torsions:
REMARK  status: ('A' for Active; 'I' for Inactive)
REMARK    1  A    between atoms: C1_2  and  C2_3 
ROOT
ATOM      1  C2  UNL d   1       0.580  -2.632  -1.610  0.00  0.00    -0.081 A 
ATOM      2  C3  UNL d   1       1.582  -3.164  -0.790  0.00  0.00     0.006 A 
ATOM      3  C4  UNL d   1       2.742  -2.433  -0.522  0.00  0.00     0.002 A 
ATOM      4  C5  UNL d   1       2.915  -1.155  -1.063  0.00  0.00    -0.080 A 
ATOM      5  C6  UNL d   1       4.142  -0.346  -0.760  0.00  0.00     0.076 C 
ATOM      6  C7  UNL d   1       1.922  -0.629  -1.897  0.00  0.00     0.002 A 
ATOM      7  C8  UNL d   1       0.763  -1.361  -2.166  0.00  0.00     0.006 A 
ENDROOT
BRANCH   1   8
ATOM      8  C1  UNL d   1      -0.700  -3.391  -1.848  0.00  0.00     0.054 C 
ATOM      9  C   UNL d   1      -0.525  -4.444  -2.933  0.00  0.00     0.018 C 
ENDBRANCH   1   8
TORSDOF 1
ENDMDL
