MODEL 1
REMARK minimizedAffinity 13.8086309
REMARK minimizedRMSD -1
REMARK  1 active torsions:
REMARK  status: ('A' for Active; 'I' for Inactive)
REMARK    1  A    between atoms: C1_2  and  C2_3 
ROOT
ATOM      1  C2  UNL d   1       0.159   1.134   1.954  0.00  0.00    -0.081 A 
ATOM      2  C3  UNL d   1      -0.029   0.986   3.334  0.00  0.00     0.006 A 
ATOM      3  C4  UNL d   1      -1.301   1.127   3.894  0.00  0.00     0.002 A 
ATOM      4  C5  UNL d   1      -2.406   1.410   3.084  0.00  0.00    -0.080 A 
ATOM      5  C6  UNL d   1      -3.782   1.534   3.669  0.00  0.00     0.076 C 
ATOM      6  C7  UNL d   1      -2.215   1.575   1.708  0.00  0.00     0.002 A 
ATOM      7  C8  UNL d   1      -0.944   1.435   1.147  0.00  0.00     0.006 A 
ENDROOT
BRANCH   1   8
ATOM      8  C1  UNL d   1       1.518   0.918   1.339  0.00  0.00     0.054 C 
ATOM      9  C   UNL d   1       1.425   0.082   0.070  0.00  0.00     0.018 C 
ENDBRANCH   1   8
TORSDOF 1
ENDMDL
