MODEL 1
REMARK minimizedAffinity 17.3747272
REMARK minimizedRMSD -1
REMARK  1 active torsions:
REMARK  status: ('A' for Active; 'I' for Inactive)
REMARK    1  A    between atoms: C1_2  and  C2_3 
ROOT
ATOM      1  C2  UNL d   1       0.524  -2.517  -1.799  0.00  0.00    -0.081 A 
ATOM      2  C3  UNL d   1       0.441  -1.719  -0.652  0.00  0.00     0.006 A 
ATOM      3  C4  UNL d   1       1.003  -0.440  -0.637  0.00  0.00     0.002 A 
ATOM      4  C5  UNL d   1       1.648   0.065  -1.770  0.00  0.00    -0.080 A 
ATOM      5  C6  UNL d   1       2.229   1.448  -1.778  0.00  0.00     0.076 C 
ATOM      6  C7  UNL d   1       1.746  -0.739  -2.911  0.00  0.00     0.002 A 
ATOM      7  C8  UNL d   1       1.185  -2.018  -2.927  0.00  0.00     0.006 A 
ENDROOT
BRANCH   1   8
ATOM      8  C1  UNL d   1      -0.137  -3.872  -1.840  0.00  0.00     0.054 C 
ATOM      9  C   UNL d   1      -0.389  -4.321  -3.272  0.00  0.00     0.018 C 
ENDBRANCH   1   8
TORSDOF 1
ENDMDL
