MODEL 1
REMARK minimizedAffinity 6.57279587
REMARK minimizedRMSD -1
REMARK  0 active torsions:
REMARK  status: ('A' for Active; 'I' for Inactive)
ROOT
ATOM      1  C   UNL d   1       0.313   3.975  -0.350  0.00  0.00     0.124 A 
ATOM      2  C1  UNL d   1      -0.710   3.174   0.137  0.00  0.00     0.062 A 
ATOM      3  C2  UNL d   1      -0.413   2.017   0.851  0.00  0.00     0.162 A 
ATOM      4  C3  UNL d   1       0.914   1.654   1.083  0.00  0.00    -0.034 A 
ATOM      5  C4  UNL d   1       1.938   2.464   0.588  0.00  0.00     0.162 A 
ATOM      6  C5  UNL d   1       1.636   3.620  -0.124  0.00  0.00     0.062 A 
ATOM      7  F   UNL d   1       2.625   4.393  -0.594  0.00  0.00    -0.097 F 
ATOM      8  F1  UNL d   1       3.224   2.145   0.793  0.00  0.00    -0.096 F 
ATOM      9  I   UNL d   1       1.362  -0.076   2.149  0.00  0.00    -0.060 I 
ATOM     10  F2  UNL d   1      -1.421   1.261   1.310  0.00  0.00    -0.096 F 
ATOM     11  F3  UNL d   1      -1.988   3.515  -0.081  0.00  0.00    -0.097 F 
ATOM     12  F4  UNL d   1       0.025   5.088  -1.038  0.00  0.00    -0.092 F 
ENDROOT
TORSDOF 0
ENDMDL
