MODEL 1
REMARK minimizedAffinity 11.7407303
REMARK minimizedRMSD -1
REMARK  0 active torsions:
REMARK  status: ('A' for Active; 'I' for Inactive)
ROOT
ATOM      1  C   UNL d   1       2.988   2.053   2.475  0.00  0.00     0.124 A 
ATOM      2  C1  UNL d   1       2.716   1.763   3.804  0.00  0.00     0.062 A 
ATOM      3  C2  UNL d   1       2.378   0.467   4.183  0.00  0.00     0.162 A 
ATOM      4  C3  UNL d   1       2.312  -0.550   3.231  0.00  0.00    -0.034 A 
ATOM      5  C4  UNL d   1       2.586  -0.251   1.895  0.00  0.00     0.162 A 
ATOM      6  C5  UNL d   1       2.923   1.046   1.522  0.00  0.00     0.062 A 
ATOM      7  F   UNL d   1       3.186   1.325   0.236  0.00  0.00    -0.097 F 
ATOM      8  F1  UNL d   1       2.531  -1.204   0.954  0.00  0.00    -0.096 F 
ATOM      9  I   UNL d   1       1.808  -2.489   3.793  0.00  0.00    -0.060 I 
ATOM     10  F2  UNL d   1       2.120   0.215   5.475  0.00  0.00    -0.096 F 
ATOM     11  F3  UNL d   1       2.777   2.734   4.727  0.00  0.00    -0.097 F 
ATOM     12  F4  UNL d   1       3.312   3.301   2.113  0.00  0.00    -0.092 F 
ENDROOT
TORSDOF 0
ENDMDL
