MODEL 1
REMARK minimizedAffinity 10.8734417
REMARK minimizedRMSD -1
REMARK  0 active torsions:
REMARK  status: ('A' for Active; 'I' for Inactive)
ROOT
ATOM      1  C   UNL d   1       2.993   2.009   1.635  0.00  0.00     0.124 A 
ATOM      2  C1  UNL d   1       2.913   1.569   2.949  0.00  0.00     0.062 A 
ATOM      3  C2  UNL d   1       2.493   0.272   3.228  0.00  0.00     0.162 A 
ATOM      4  C3  UNL d   1       2.149  -0.595   2.191  0.00  0.00    -0.034 A 
ATOM      5  C4  UNL d   1       2.230  -0.145   0.872  0.00  0.00     0.162 A 
ATOM      6  C5  UNL d   1       2.651   1.152   0.598  0.00  0.00     0.062 A 
ATOM      7  F   UNL d   1       2.727   1.576  -0.672  0.00  0.00    -0.097 F 
ATOM      8  F1  UNL d   1       1.907  -0.953  -0.149  0.00  0.00    -0.096 F 
ATOM      9  I   UNL d   1       1.520  -2.536   2.605  0.00  0.00    -0.060 I 
ATOM     10  F2  UNL d   1       2.426  -0.127   4.507  0.00  0.00    -0.096 F 
ATOM     11  F3  UNL d   1       3.242   2.395   3.952  0.00  0.00    -0.097 F 
ATOM     12  F4  UNL d   1       3.397   3.258   1.369  0.00  0.00    -0.092 F 
ENDROOT
TORSDOF 0
ENDMDL
