MODEL 1
REMARK minimizedAffinity 8.60746574
REMARK minimizedRMSD -1
REMARK  0 active torsions:
REMARK  status: ('A' for Active; 'I' for Inactive)
ROOT
ATOM      1  C   UNL d   1      -0.768  -1.895  -1.220  0.00  0.00     0.124 A 
ATOM      2  C1  UNL d   1       0.027  -3.000  -0.948  0.00  0.00     0.062 A 
ATOM      3  C2  UNL d   1       0.788  -3.045   0.217  0.00  0.00     0.162 A 
ATOM      4  C3  UNL d   1       0.757  -1.981   1.119  0.00  0.00    -0.034 A 
ATOM      5  C4  UNL d   1      -0.044  -0.873   0.838  0.00  0.00     0.162 A 
ATOM      6  C5  UNL d   1      -0.803  -0.833  -0.328  0.00  0.00     0.062 A 
ATOM      7  F   UNL d   1      -1.570   0.236  -0.589  0.00  0.00    -0.097 F 
ATOM      8  F1  UNL d   1      -0.098   0.167   1.684  0.00  0.00    -0.096 F 
ATOM      9  I   UNL d   1       1.892  -2.045   2.862  0.00  0.00    -0.060 I 
ATOM     10  F2  UNL d   1       1.546  -4.125   0.455  0.00  0.00    -0.096 F 
ATOM     11  F3  UNL d   1       0.063  -4.026  -1.809  0.00  0.00    -0.097 F 
ATOM     12  F4  UNL d   1      -1.498  -1.854  -2.342  0.00  0.00    -0.092 F 
ENDROOT
TORSDOF 0
ENDMDL
