MODEL 1
REMARK minimizedAffinity 15.0937767
REMARK minimizedRMSD -1
REMARK  0 active torsions:
REMARK  status: ('A' for Active; 'I' for Inactive)
ROOT
ATOM      1  C   UNL d   1       1.495  -2.381   1.433  0.00  0.00     0.124 A 
ATOM      2  C1  UNL d   1       1.508  -1.338   2.349  0.00  0.00     0.062 A 
ATOM      3  C2  UNL d   1       1.942  -1.557   3.653  0.00  0.00     0.162 A 
ATOM      4  C3  UNL d   1       2.367  -2.825   4.050  0.00  0.00    -0.034 A 
ATOM      5  C4  UNL d   1       2.350  -3.869   3.124  0.00  0.00     0.162 A 
ATOM      6  C5  UNL d   1       1.916  -3.646   1.821  0.00  0.00     0.062 A 
ATOM      7  F   UNL d   1       1.904  -4.655   0.938  0.00  0.00    -0.097 F 
ATOM      8  F1  UNL d   1       2.752  -5.101   3.472  0.00  0.00    -0.096 F 
ATOM      9  I   UNL d   1       3.016  -3.157   5.999  0.00  0.00    -0.060 I 
ATOM     10  F2  UNL d   1       1.944  -0.531   4.517  0.00  0.00    -0.096 F 
ATOM     11  F3  UNL d   1       1.102  -0.116   1.976  0.00  0.00    -0.097 F 
ATOM     12  F4  UNL d   1       1.077  -2.168   0.179  0.00  0.00    -0.092 F 
ENDROOT
TORSDOF 0
ENDMDL
