MODEL 1
REMARK minimizedAffinity 13.4679518
REMARK minimizedRMSD -1
REMARK  0 active torsions:
REMARK  status: ('A' for Active; 'I' for Inactive)
ROOT
ATOM      1  C   UNL d   1       2.443   0.762   2.138  0.00  0.00     0.124 A 
ATOM      2  C1  UNL d   1       2.434  -0.494   1.549  0.00  0.00     0.062 A 
ATOM      3  C2  UNL d   1       2.209  -1.629   2.323  0.00  0.00     0.162 A 
ATOM      4  C3  UNL d   1       1.990  -1.511   3.696  0.00  0.00    -0.034 A 
ATOM      5  C4  UNL d   1       2.002  -0.244   4.281  0.00  0.00     0.162 A 
ATOM      6  C5  UNL d   1       2.227   0.886   3.503  0.00  0.00     0.062 A 
ATOM      7  F   UNL d   1       2.236   2.100   4.073  0.00  0.00    -0.097 F 
ATOM      8  F1  UNL d   1       1.796  -0.095   5.598  0.00  0.00    -0.096 F 
ATOM      9  I   UNL d   1       1.654  -3.205   4.858  0.00  0.00    -0.060 I 
ATOM     10  F2  UNL d   1       2.205  -2.830   1.728  0.00  0.00    -0.096 F 
ATOM     11  F3  UNL d   1       2.643  -0.617   0.230  0.00  0.00    -0.097 F 
ATOM     12  F4  UNL d   1       2.660   1.852   1.390  0.00  0.00    -0.092 F 
ENDROOT
TORSDOF 0
ENDMDL
