MODEL 1
REMARK minimizedAffinity 8.9742775
REMARK minimizedRMSD -1
REMARK  0 active torsions:
REMARK  status: ('A' for Active; 'I' for Inactive)
ROOT
ATOM      1  C   UNL d   1       2.356   0.541   1.051  0.00  0.00     0.124 A 
ATOM      2  C1  UNL d   1       1.332  -0.355   1.327  0.00  0.00     0.062 A 
ATOM      3  C2  UNL d   1       0.018   0.093   1.427  0.00  0.00     0.162 A 
ATOM      4  C3  UNL d   1      -0.280   1.445   1.250  0.00  0.00    -0.034 A 
ATOM      5  C4  UNL d   1       0.755   2.339   0.974  0.00  0.00     0.162 A 
ATOM      6  C5  UNL d   1       2.067   1.886   0.875  0.00  0.00     0.062 A 
ATOM      7  F   UNL d   1       3.055   2.753   0.609  0.00  0.00    -0.097 F 
ATOM      8  F1  UNL d   1       0.504   3.645   0.799  0.00  0.00    -0.096 F 
ATOM      9  I   UNL d   1      -2.243   2.119   1.400  0.00  0.00    -0.060 I 
ATOM     10  F2  UNL d   1      -0.951  -0.794   1.694  0.00  0.00    -0.096 F 
ATOM     11  F3  UNL d   1       1.609  -1.656   1.498  0.00  0.00    -0.097 F 
ATOM     12  F4  UNL d   1       3.619   0.107   0.956  0.00  0.00    -0.092 F 
ENDROOT
TORSDOF 0
ENDMDL
