MODEL 1
REMARK minimizedAffinity 18.9901581
REMARK minimizedRMSD -1
REMARK  0 active torsions:
REMARK  status: ('A' for Active; 'I' for Inactive)
ROOT
ATOM      1  C   UNL d   1      -3.108   1.759  -0.153  0.00  0.00     0.124 A 
ATOM      2  C1  UNL d   1      -4.162   2.620   0.119  0.00  0.00     0.062 A 
ATOM      3  C2  UNL d   1      -4.989   3.061  -0.910  0.00  0.00     0.162 A 
ATOM      4  C3  UNL d   1      -4.765   2.641  -2.221  0.00  0.00    -0.034 A 
ATOM      5  C4  UNL d   1      -3.702   1.776  -2.487  0.00  0.00     0.162 A 
ATOM      6  C5  UNL d   1      -2.879   1.338  -1.455  0.00  0.00     0.062 A 
ATOM      7  F   UNL d   1      -1.861   0.506  -1.720  0.00  0.00    -0.097 F 
ATOM      8  F1  UNL d   1      -3.459   1.353  -3.736  0.00  0.00    -0.096 F 
ATOM      9  I   UNL d   1      -5.999   3.299  -3.763  0.00  0.00    -0.060 I 
ATOM     10  F2  UNL d   1      -6.000   3.893  -0.618  0.00  0.00    -0.096 F 
ATOM     11  F3  UNL d   1      -4.384   3.029   1.377  0.00  0.00    -0.097 F 
ATOM     12  F4  UNL d   1      -2.313   1.337   0.839  0.00  0.00    -0.092 F 
ENDROOT
TORSDOF 0
ENDMDL
