MODEL 1
REMARK minimizedAffinity 20.5305557
REMARK minimizedRMSD -1
REMARK  0 active torsions:
REMARK  status: ('A' for Active; 'I' for Inactive)
ROOT
ATOM      1  C   UNL d   1      -4.651   1.861  -3.942  0.00  0.00     0.124 A 
ATOM      2  C1  UNL d   1      -3.769   0.927  -3.416  0.00  0.00     0.062 A 
ATOM      3  C2  UNL d   1      -3.376   1.007  -2.083  0.00  0.00     0.162 A 
ATOM      4  C3  UNL d   1      -3.867   2.024  -1.265  0.00  0.00    -0.034 A 
ATOM      5  C4  UNL d   1      -4.754   2.960  -1.800  0.00  0.00     0.162 A 
ATOM      6  C5  UNL d   1      -5.143   2.876  -3.133  0.00  0.00     0.062 A 
ATOM      7  F   UNL d   1      -5.995   3.779  -3.639  0.00  0.00    -0.097 F 
ATOM      8  F1  UNL d   1      -5.245   3.951  -1.042  0.00  0.00    -0.096 F 
ATOM      9  I   UNL d   1      -3.283   2.147   0.729  0.00  0.00    -0.060 I 
ATOM     10  F2  UNL d   1      -2.523   0.091  -1.603  0.00  0.00    -0.096 F 
ATOM     11  F3  UNL d   1      -3.291  -0.055  -4.195  0.00  0.00    -0.097 F 
ATOM     12  F4  UNL d   1      -5.026   1.782  -5.225  0.00  0.00    -0.092 F 
ENDROOT
TORSDOF 0
ENDMDL
