MODEL 1
REMARK minimizedAffinity -2.95502019
REMARK minimizedRMSD -1
REMARK  0 active torsions:
REMARK  status: ('A' for Active; 'I' for Inactive)
ROOT
ATOM      1  C4' PXY d   1      -0.250  -2.155   0.368  0.00  0.00     0.077 C 
ATOM      2  C1' PXY d   1       0.407   3.585   0.176  0.00  0.00     0.077 C 
ATOM      3  C1  PXY d   1       0.246   2.079   0.221  0.00  0.00    -0.082 A 
ATOM      4  C2  PXY d   1      -0.966   1.550   0.224  0.00  0.00     0.003 A 
ATOM      5  C3  PXY d   1      -1.130   0.190   0.297  0.00  0.00     0.003 A 
ATOM      6  C4  PXY d   1      -0.040  -0.639   0.313  0.00  0.00    -0.082 A 
ATOM      7  C5  PXY d   1       1.200  -0.107   0.299  0.00  0.00     0.003 A 
ATOM      8  C6  PXY d   1       1.345   1.277   0.267  0.00  0.00     0.003 A 
ENDROOT
TORSDOF 0
ENDMDL
