MODEL 1
REMARK minimizedAffinity -6.10142279
REMARK minimizedRMSD -1
REMARK  0 active torsions:
REMARK  status: ('A' for Active; 'I' for Inactive)
ROOT
ATOM      1  C4' PXY d   1       0.400  -1.946   0.016  0.00  0.00     0.077 C 
ATOM      2  C1' PXY d   1       0.595   3.826   0.261  0.00  0.00     0.077 C 
ATOM      3  C1  PXY d   1       0.556   2.313   0.192  0.00  0.00    -0.082 A 
ATOM      4  C2  PXY d   1      -0.611   1.689   0.154  0.00  0.00     0.003 A 
ATOM      5  C3  PXY d   1      -0.665   0.320   0.123  0.00  0.00     0.003 A 
ATOM      6  C4  PXY d   1       0.488  -0.418   0.077  0.00  0.00    -0.082 A 
ATOM      7  C5  PXY d   1       1.682   0.211   0.105  0.00  0.00     0.003 A 
ATOM      8  C6  PXY d   1       1.715   1.600   0.178  0.00  0.00     0.003 A 
ENDROOT
TORSDOF 0
ENDMDL
