MODEL 1
REMARK minimizedAffinity -5.23997116
REMARK minimizedRMSD -1
REMARK  0 active torsions:
REMARK  status: ('A' for Active; 'I' for Inactive)
ROOT
ATOM      1  C4' PXY d   1      -0.530  -1.959   0.025  0.00  0.00     0.077 C 
ATOM      2  C1' PXY d   1       0.666   3.696  -0.094  0.00  0.00     0.077 C 
ATOM      3  C1  PXY d   1       0.345   2.214  -0.052  0.00  0.00    -0.082 A 
ATOM      4  C2  PXY d   1       1.156   1.353  -0.644  0.00  0.00     0.003 A 
ATOM      5  C3  PXY d   1       0.864   0.013  -0.643  0.00  0.00     0.003 A 
ATOM      6  C4  PXY d   1      -0.241  -0.455   0.016  0.00  0.00    -0.082 A 
ATOM      7  C5  PXY d   1      -1.067   0.417   0.632  0.00  0.00     0.003 A 
ATOM      8  C6  PXY d   1      -0.775   1.777   0.584  0.00  0.00     0.003 A 
ENDROOT
TORSDOF 0
ENDMDL
