MODEL 1
REMARK minimizedAffinity -4.89434671
REMARK minimizedRMSD -1
REMARK  0 active torsions:
REMARK  status: ('A' for Active; 'I' for Inactive)
ROOT
ATOM      1  C4' PXY d   1       0.027  -2.216  -0.217  0.00  0.00     0.077 C 
ATOM      2  C1' PXY d   1       0.212   3.555   0.056  0.00  0.00     0.077 C 
ATOM      3  C1  PXY d   1       0.154   2.042  -0.007  0.00  0.00    -0.082 A 
ATOM      4  C2  PXY d   1       1.235   1.359  -0.346  0.00  0.00     0.003 A 
ATOM      5  C3  PXY d   1       1.191  -0.008  -0.439  0.00  0.00     0.003 A 
ATOM      6  C4  PXY d   1       0.042  -0.687  -0.131  0.00  0.00    -0.082 A 
ATOM      7  C5  PXY d   1      -1.062   0.002   0.226  0.00  0.00     0.003 A 
ATOM      8  C6  PXY d   1      -1.008   1.392   0.274  0.00  0.00     0.003 A 
ENDROOT
TORSDOF 0
ENDMDL
