MODEL 1
REMARK minimizedAffinity -4.1319828
REMARK minimizedRMSD -1
REMARK  0 active torsions:
REMARK  status: ('A' for Active; 'I' for Inactive)
ROOT
ATOM      1  C4' PXY d   1       0.029  -2.308  -0.447  0.00  0.00     0.077 C 
ATOM      2  C1' PXY d   1       0.216   3.343   0.756  0.00  0.00     0.077 C 
ATOM      3  C1  PXY d   1       0.177   1.863   0.433  0.00  0.00    -0.082 A 
ATOM      4  C2  PXY d   1      -0.964   1.200   0.535  0.00  0.00     0.003 A 
ATOM      5  C3  PXY d   1      -1.009  -0.146   0.277  0.00  0.00     0.003 A 
ATOM      6  C4  PXY d   1       0.113  -0.810  -0.140  0.00  0.00    -0.082 A 
ATOM      7  C5  PXY d   1       1.279  -0.139  -0.256  0.00  0.00     0.003 A 
ATOM      8  C6  PXY d   1       1.313   1.218   0.050  0.00  0.00     0.003 A 
ENDROOT
TORSDOF 0
ENDMDL
