MODEL 1
REMARK minimizedAffinity -5.1793704
REMARK minimizedRMSD -1
REMARK  0 active torsions:
REMARK  status: ('A' for Active; 'I' for Inactive)
ROOT
ATOM      1  C4' PXY d   1       0.169  -1.858  -0.231  0.00  0.00     0.077 C 
ATOM      2  C1' PXY d   1       1.383   3.660   0.993  0.00  0.00     0.077 C 
ATOM      3  C1  PXY d   1       1.077   2.211   0.668  0.00  0.00    -0.082 A 
ATOM      4  C2  PXY d   1      -0.157   1.859   0.346  0.00  0.00     0.003 A 
ATOM      5  C3  PXY d   1      -0.458   0.548   0.082  0.00  0.00     0.003 A 
ATOM      6  C4  PXY d   1       0.526  -0.405   0.094  0.00  0.00    -0.082 A 
ATOM      7  C5  PXY d   1       1.790  -0.052   0.412  0.00  0.00     0.003 A 
ATOM      8  C6  PXY d   1       2.066   1.278   0.718  0.00  0.00     0.003 A 
ENDROOT
TORSDOF 0
ENDMDL
