MODEL 1
REMARK minimizedAffinity -4.26207924
REMARK minimizedRMSD -1
REMARK  0 active torsions:
REMARK  status: ('A' for Active; 'I' for Inactive)
ROOT
ATOM      1  C4' PXY d   1      -0.283  -2.248  -0.571  0.00  0.00     0.077 C 
ATOM      2  C1' PXY d   1       0.706   3.357   0.435  0.00  0.00     0.077 C 
ATOM      3  C1  PXY d   1       0.444   1.886   0.184  0.00  0.00    -0.082 A 
ATOM      4  C2  PXY d   1       1.000   1.291  -0.859  0.00  0.00     0.003 A 
ATOM      5  C3  PXY d   1       0.748  -0.032  -1.119  0.00  0.00     0.003 A 
ATOM      6  C4  PXY d   1      -0.039  -0.766  -0.273  0.00  0.00    -0.082 A 
ATOM      7  C5  PXY d   1      -0.601  -0.170   0.799  0.00  0.00     0.003 A 
ATOM      8  C6  PXY d   1      -0.366   1.184   1.023  0.00  0.00     0.003 A 
ENDROOT
TORSDOF 0
ENDMDL
