MODEL 1
REMARK minimizedAffinity -4.02266026
REMARK minimizedRMSD -1
REMARK  0 active torsions:
REMARK  status: ('A' for Active; 'I' for Inactive)
ROOT
ATOM      1  C4' PXY d   1      -0.403  -1.981  -0.039  0.00  0.00     0.077 C 
ATOM      2  C1' PXY d   1       0.485   3.728  -0.196  0.00  0.00     0.077 C 
ATOM      3  C1  PXY d   1       0.241   2.233  -0.148  0.00  0.00    -0.082 A 
ATOM      4  C2  PXY d   1       1.259   1.399  -0.289  0.00  0.00     0.003 A 
ATOM      5  C3  PXY d   1       1.052   0.044  -0.280  0.00  0.00     0.003 A 
ATOM      6  C4  PXY d   1      -0.203  -0.464  -0.071  0.00  0.00    -0.082 A 
ATOM      7  C5  PXY d   1      -1.245   0.380   0.084  0.00  0.00     0.003 A 
ATOM      8  C6  PXY d   1      -1.020   1.753   0.031  0.00  0.00     0.003 A 
ENDROOT
TORSDOF 0
ENDMDL
