MODEL 1
REMARK minimizedAffinity -4.91036654
REMARK minimizedRMSD -1
REMARK  0 active torsions:
REMARK  status: ('A' for Active; 'I' for Inactive)
ROOT
ATOM      1  C4' PXY d   1      -0.047  -2.143   0.930  0.00  0.00     0.077 C 
ATOM      2  C1' PXY d   1       0.427   3.465  -0.392  0.00  0.00     0.077 C 
ATOM      3  C1  PXY d   1       0.313   1.992  -0.053  0.00  0.00    -0.082 A 
ATOM      4  C2  PXY d   1      -0.855   1.495   0.319  0.00  0.00     0.003 A 
ATOM      5  C3  PXY d   1      -0.969   0.171   0.661  0.00  0.00     0.003 A 
ATOM      6  C4  PXY d   1       0.113  -0.663   0.569  0.00  0.00    -0.082 A 
ATOM      7  C5  PXY d   1       1.306  -0.166   0.180  0.00  0.00     0.003 A 
ATOM      8  C6  PXY d   1       1.410   1.189  -0.123  0.00  0.00     0.003 A 
ENDROOT
TORSDOF 0
ENDMDL
