MODEL 1
REMARK minimizedAffinity -3.76220226
REMARK minimizedRMSD -1
REMARK  0 active torsions:
REMARK  status: ('A' for Active; 'I' for Inactive)
ROOT
ATOM      1  C4' PXY d   1      -0.271  -2.094   0.049  0.00  0.00     0.077 C 
ATOM      2  C1' PXY d   1       0.427   3.635  -0.282  0.00  0.00     0.077 C 
ATOM      3  C1  PXY d   1       0.234   2.134  -0.187  0.00  0.00    -0.082 A 
ATOM      4  C2  PXY d   1       1.243   1.326  -0.467  0.00  0.00     0.003 A 
ATOM      5  C3  PXY d   1       1.077  -0.034  -0.417  0.00  0.00     0.003 A 
ATOM      6  C4  PXY d   1      -0.119  -0.572  -0.024  0.00  0.00    -0.082 A 
ATOM      7  C5  PXY d   1      -1.151   0.247   0.274  0.00  0.00     0.003 A 
ATOM      8  C6  PXY d   1      -0.973   1.624   0.177  0.00  0.00     0.003 A 
ENDROOT
TORSDOF 0
ENDMDL
