MODEL 1
REMARK minimizedAffinity -5.64187479
REMARK minimizedRMSD -1
REMARK  0 active torsions:
REMARK  status: ('A' for Active; 'I' for Inactive)
ROOT
ATOM      1  C4' PXY d   1      -0.023  -2.043   0.025  0.00  0.00     0.077 C 
ATOM      2  C1' PXY d   1       0.030   3.735   0.153  0.00  0.00     0.077 C 
ATOM      3  C1  PXY d   1       0.028   2.220   0.114  0.00  0.00    -0.082 A 
ATOM      4  C2  PXY d   1      -1.122   1.567   0.128  0.00  0.00     0.003 A 
ATOM      5  C3  PXY d   1      -1.142   0.196   0.125  0.00  0.00     0.003 A 
ATOM      6  C4  PXY d   1       0.027  -0.513   0.054  0.00  0.00    -0.082 A 
ATOM      7  C5  PXY d   1       1.205   0.146   0.028  0.00  0.00     0.003 A 
ATOM      8  C6  PXY d   1       1.204   1.537   0.073  0.00  0.00     0.003 A 
ENDROOT
TORSDOF 0
ENDMDL
