MODEL 1
REMARK minimizedAffinity -5.12825918
REMARK minimizedRMSD -1
REMARK  0 active torsions:
REMARK  status: ('A' for Active; 'I' for Inactive)
ROOT
ATOM      1  C4' PXY d   1      -0.458  -2.743  -0.321  0.00  0.00     0.077 C 
ATOM      2  C1' PXY d   1      -0.241   2.993   0.360  0.00  0.00     0.077 C 
ATOM      3  C1  PXY d   1      -0.289   1.490   0.172  0.00  0.00    -0.082 A 
ATOM      4  C2  PXY d   1      -1.381   0.823   0.508  0.00  0.00     0.003 A 
ATOM      5  C3  PXY d   1      -1.430  -0.541   0.374  0.00  0.00     0.003 A 
ATOM      6  C4  PXY d   1      -0.369  -1.223  -0.158  0.00  0.00    -0.082 A 
ATOM      7  C5  PXY d   1       0.746  -0.549  -0.513  0.00  0.00     0.003 A 
ATOM      8  C6  PXY d   1       0.790   0.831  -0.331  0.00  0.00     0.003 A 
ENDROOT
TORSDOF 0
ENDMDL
