MODEL 1
REMARK minimizedAffinity -4.93410778
REMARK minimizedRMSD -1
REMARK  0 active torsions:
REMARK  status: ('A' for Active; 'I' for Inactive)
ROOT
ATOM      1  C4' PXY d   1      -0.254  -2.106   0.089  0.00  0.00     0.077 C 
ATOM      2  C1' PXY d   1       0.429   3.632  -0.033  0.00  0.00     0.077 C 
ATOM      3  C1  PXY d   1       0.239   2.129   0.007  0.00  0.00    -0.082 A 
ATOM      4  C2  PXY d   1       1.273   1.333  -0.213  0.00  0.00     0.003 A 
ATOM      5  C3  PXY d   1       1.113  -0.029  -0.213  0.00  0.00     0.003 A 
ATOM      6  C4  PXY d   1      -0.107  -0.582   0.068  0.00  0.00    -0.082 A 
ATOM      7  C5  PXY d   1      -1.165   0.223   0.304  0.00  0.00     0.003 A 
ATOM      8  C6  PXY d   1      -0.990   1.603   0.258  0.00  0.00     0.003 A 
ENDROOT
TORSDOF 0
ENDMDL
