MODEL 1
REMARK minimizedAffinity -4.60736895
REMARK minimizedRMSD -1
REMARK  0 active torsions:
REMARK  status: ('A' for Active; 'I' for Inactive)
ROOT
ATOM      1  C4' PXY d   1       0.114   3.234   0.120  0.00  0.00     0.077 C 
ATOM      2  C1' PXY d   1      -0.309  -2.492  -0.554  0.00  0.00     0.077 C 
ATOM      3  C1  PXY d   1      -0.211  -0.989  -0.378  0.00  0.00    -0.082 A 
ATOM      4  C2  PXY d   1       0.913  -0.366  -0.693  0.00  0.00     0.003 A 
ATOM      5  C3  PXY d   1       1.030   0.988  -0.510  0.00  0.00     0.003 A 
ATOM      6  C4  PXY d   1      -0.033   1.719  -0.051  0.00  0.00    -0.082 A 
ATOM      7  C5  PXY d   1      -1.186   1.092   0.262  0.00  0.00     0.003 A 
ATOM      8  C6  PXY d   1      -1.271  -0.289   0.108  0.00  0.00     0.003 A 
ENDROOT
TORSDOF 0
ENDMDL
