MODEL 1
REMARK minimizedAffinity -4.3429451
REMARK minimizedRMSD -1
REMARK  0 active torsions:
REMARK  status: ('A' for Active; 'I' for Inactive)
ROOT
ATOM      1  C4' PXY d   1      -0.550  -2.320   0.027  0.00  0.00     0.077 C 
ATOM      2  C1' PXY d   1       0.327   3.387   0.296  0.00  0.00     0.077 C 
ATOM      3  C1  PXY d   1       0.087   1.892   0.233  0.00  0.00    -0.082 A 
ATOM      4  C2  PXY d   1       1.081   1.083  -0.095  0.00  0.00     0.003 A 
ATOM      5  C3  PXY d   1       0.873  -0.269  -0.187  0.00  0.00     0.003 A 
ATOM      6  C4  PXY d   1      -0.351  -0.804   0.112  0.00  0.00    -0.082 A 
ATOM      7  C5  PXY d   1      -1.368   0.014   0.458  0.00  0.00     0.003 A 
ATOM      8  C6  PXY d   1      -1.147   1.387   0.506  0.00  0.00     0.003 A 
ENDROOT
TORSDOF 0
ENDMDL
