MODEL 1
REMARK minimizedAffinity -4.17882967
REMARK minimizedRMSD -1
REMARK  0 active torsions:
REMARK  status: ('A' for Active; 'I' for Inactive)
ROOT
ATOM      1  C4' PXY d   1      -0.224  -2.258  -0.163  0.00  0.00     0.077 C 
ATOM      2  C1' PXY d   1      -0.131   3.508   0.232  0.00  0.00     0.077 C 
ATOM      3  C1  PXY d   1      -0.146   1.997   0.119  0.00  0.00    -0.082 A 
ATOM      4  C2  PXY d   1      -1.235   1.326   0.459  0.00  0.00     0.003 A 
ATOM      5  C3  PXY d   1      -1.255  -0.043   0.394  0.00  0.00     0.003 A 
ATOM      6  C4  PXY d   1      -0.167  -0.730  -0.074  0.00  0.00    -0.082 A 
ATOM      7  C5  PXY d   1       0.944  -0.053  -0.433  0.00  0.00     0.003 A 
ATOM      8  C6  PXY d   1       0.958   1.334  -0.321  0.00  0.00     0.003 A 
ENDROOT
TORSDOF 0
ENDMDL
