MODEL 1
REMARK minimizedAffinity -4.99470663
REMARK minimizedRMSD -1
REMARK  0 active torsions:
REMARK  status: ('A' for Active; 'I' for Inactive)
ROOT
ATOM      1  C4' PXY d   1       0.101  -2.164  -0.108  0.00  0.00     0.077 C 
ATOM      2  C1' PXY d   1       0.046   3.616  -0.041  0.00  0.00     0.077 C 
ATOM      3  C1  PXY d   1       0.071   2.100  -0.065  0.00  0.00    -0.082 A 
ATOM      4  C2  PXY d   1      -1.055   1.425   0.098  0.00  0.00     0.003 A 
ATOM      5  C3  PXY d   1      -1.045   0.053   0.111  0.00  0.00     0.003 A 
ATOM      6  C4  PXY d   1       0.121  -0.633  -0.099  0.00  0.00    -0.082 A 
ATOM      7  C5  PXY d   1       1.272   0.049  -0.278  0.00  0.00     0.003 A 
ATOM      8  C6  PXY d   1       1.247   1.441  -0.246  0.00  0.00     0.003 A 
ENDROOT
TORSDOF 0
ENDMDL
