MODEL 1
REMARK minimizedAffinity -4.08758307
REMARK minimizedRMSD -1
REMARK  0 active torsions:
REMARK  status: ('A' for Active; 'I' for Inactive)
ROOT
ATOM      1  C4' PXY d   1      -0.185  -2.078  -0.253  0.00  0.00     0.077 C 
ATOM      2  C1' PXY d   1       0.140   3.685   0.057  0.00  0.00     0.077 C 
ATOM      3  C1  PXY d   1       0.044   2.173  -0.016  0.00  0.00    -0.082 A 
ATOM      4  C2  PXY d   1       1.123   1.463  -0.302  0.00  0.00     0.003 A 
ATOM      5  C3  PXY d   1       1.048   0.098  -0.405  0.00  0.00     0.003 A 
ATOM      6  C4  PXY d   1      -0.133  -0.551  -0.159  0.00  0.00    -0.082 A 
ATOM      7  C5  PXY d   1      -1.236   0.166   0.144  0.00  0.00     0.003 A 
ATOM      8  C6  PXY d   1      -1.147   1.554   0.202  0.00  0.00     0.003 A 
ENDROOT
TORSDOF 0
ENDMDL
