MODEL 1
REMARK minimizedAffinity -3.3692801
REMARK minimizedRMSD -1
REMARK  0 active torsions:
REMARK  status: ('A' for Active; 'I' for Inactive)
ROOT
ATOM      1  C4' PXY d   1       0.029   3.353   1.702  0.00  0.00     0.077 C 
ATOM      2  C1' PXY d   1      -0.579  -1.283  -1.697  0.00  0.00     0.077 C 
ATOM      3  C1  PXY d   1      -0.410  -0.063  -0.813  0.00  0.00    -0.082 A 
ATOM      4  C2  PXY d   1      -0.800  -0.112   0.450  0.00  0.00     0.003 A 
ATOM      5  C3  PXY d   1      -0.684   0.993   1.255  0.00  0.00     0.003 A 
ATOM      6  C4  PXY d   1      -0.114   2.142   0.776  0.00  0.00    -0.082 A 
ATOM      7  C5  PXY d   1       0.296   2.196  -0.509  0.00  0.00     0.003 A 
ATOM      8  C6  PXY d   1       0.131   1.077  -1.321  0.00  0.00     0.003 A 
ENDROOT
TORSDOF 0
ENDMDL
