MODEL 1
REMARK minimizedAffinity -3.50132704
REMARK minimizedRMSD -1
REMARK  0 active torsions:
REMARK  status: ('A' for Active; 'I' for Inactive)
ROOT
ATOM      1  C4' PXY d   1      -0.349   5.596  -2.543  0.00  0.00     0.077 C 
ATOM      2  C1' PXY d   1       1.552   2.675   2.069  0.00  0.00     0.077 C 
ATOM      3  C1  PXY d   1       1.056   3.431   0.852  0.00  0.00    -0.082 A 
ATOM      4  C2  PXY d   1       1.074   4.754   0.851  0.00  0.00     0.003 A 
ATOM      5  C3  PXY d   1       0.599   5.453  -0.228  0.00  0.00     0.003 A 
ATOM      6  C4  PXY d   1       0.151   4.792  -1.340  0.00  0.00    -0.082 A 
ATOM      7  C5  PXY d   1       0.140   3.442  -1.351  0.00  0.00     0.003 A 
ATOM      8  C6  PXY d   1       0.588   2.750  -0.230  0.00  0.00     0.003 A 
ENDROOT
TORSDOF 0
ENDMDL
