MODEL 1
REMARK minimizedAffinity -2.23557305
REMARK minimizedRMSD -1
REMARK  0 active torsions:
REMARK  status: ('A' for Active; 'I' for Inactive)
ROOT
ATOM      1  C4' PXY d   1       0.716   5.782  -3.037  0.00  0.00     0.077 C 
ATOM      2  C1' PXY d   1       0.704   2.471   1.702  0.00  0.00     0.077 C 
ATOM      3  C1  PXY d   1       0.703   3.329   0.452  0.00  0.00    -0.082 A 
ATOM      4  C2  PXY d   1       1.454   4.418   0.405  0.00  0.00     0.003 A 
ATOM      5  C3  PXY d   1       1.441   5.222  -0.705  0.00  0.00     0.003 A 
ATOM      6  C4  PXY d   1       0.692   4.881  -1.799  0.00  0.00    -0.082 A 
ATOM      7  C5  PXY d   1      -0.068   3.766  -1.763  0.00  0.00     0.003 A 
ATOM      8  C6  PXY d   1      -0.072   2.985  -0.611  0.00  0.00     0.003 A 
ENDROOT
TORSDOF 0
ENDMDL
