MODEL 1
REMARK minimizedAffinity -1.38381374
REMARK minimizedRMSD -1
REMARK  0 active torsions:
REMARK  status: ('A' for Active; 'I' for Inactive)
ROOT
ATOM      1  C4' PXY d   1       1.221   5.171  -1.765  0.00  0.00     0.077 C 
ATOM      2  C1' PXY d   1      -0.438   0.667   1.456  0.00  0.00     0.077 C 
ATOM      3  C1  PXY d   1       0.001   1.855   0.622  0.00  0.00    -0.082 A 
ATOM      4  C2  PXY d   1      -0.575   2.082  -0.547  0.00  0.00     0.003 A 
ATOM      5  C3  PXY d   1      -0.167   3.132  -1.329  0.00  0.00     0.003 A 
ATOM      6  C4  PXY d   1       0.803   3.990  -0.885  0.00  0.00    -0.082 A 
ATOM      7  C5  PXY d   1       1.388   3.771   0.312  0.00  0.00     0.003 A 
ATOM      8  C6  PXY d   1       0.989   2.676   1.071  0.00  0.00     0.003 A 
ENDROOT
TORSDOF 0
ENDMDL
