MODEL 1
REMARK minimizedAffinity 3.19671106
REMARK minimizedRMSD -1
REMARK  0 active torsions:
REMARK  status: ('A' for Active; 'I' for Inactive)
ROOT
ATOM      1  C4' PXY d   1      -0.421   1.222   1.167  0.00  0.00     0.077 C 
ATOM      2  C1' PXY d   1       0.136   5.872  -2.222  0.00  0.00     0.077 C 
ATOM      3  C1  PXY d   1      -0.006   4.645  -1.344  0.00  0.00    -0.082 A 
ATOM      4  C2  PXY d   1      -0.836   4.671  -0.313  0.00  0.00     0.003 A 
ATOM      5  C3  PXY d   1      -0.953   3.581   0.511  0.00  0.00     0.003 A 
ATOM      6  C4  PXY d   1      -0.253   2.434   0.247  0.00  0.00    -0.082 A 
ATOM      7  C5  PXY d   1       0.588   2.396  -0.809  0.00  0.00     0.003 A 
ATOM      8  C6  PXY d   1       0.724   3.527  -1.609  0.00  0.00     0.003 A 
ENDROOT
TORSDOF 0
ENDMDL
