MODEL 1
REMARK minimizedAffinity 2.21402669
REMARK minimizedRMSD -1
REMARK  0 active torsions:
REMARK  status: ('A' for Active; 'I' for Inactive)
ROOT
ATOM      1  C4' PXY d   1       5.246  -5.732  -2.151  0.00  0.00     0.077 C 
ATOM      2  C1' PXY d   1       4.881  -0.630  -4.845  0.00  0.00     0.077 C 
ATOM      3  C1  PXY d   1       4.964  -1.970  -4.141  0.00  0.00    -0.082 A 
ATOM      4  C2  PXY d   1       5.890  -2.167  -3.217  0.00  0.00     0.003 A 
ATOM      5  C3  PXY d   1       6.000  -3.384  -2.593  0.00  0.00     0.003 A 
ATOM      6  C4  PXY d   1       5.119  -4.392  -2.881  0.00  0.00    -0.082 A 
ATOM      7  C5  PXY d   1       4.165  -4.195  -3.815  0.00  0.00     0.003 A 
ATOM      8  C6  PXY d   1       4.096  -2.967  -4.466  0.00  0.00     0.003 A 
ENDROOT
TORSDOF 0
ENDMDL
