MODEL 1
REMARK minimizedAffinity 3.37290597
REMARK minimizedRMSD -1
REMARK  0 active torsions:
REMARK  status: ('A' for Active; 'I' for Inactive)
ROOT
ATOM      1  C4' PXY d   1       0.800   1.447   1.988  0.00  0.00     0.077 C 
ATOM      2  C1' PXY d   1       1.134   4.905  -2.632  0.00  0.00     0.077 C 
ATOM      3  C1  PXY d   1       1.036   3.993  -1.425  0.00  0.00    -0.082 A 
ATOM      4  C2  PXY d   1       1.583   4.363  -0.279  0.00  0.00     0.003 A 
ATOM      5  C3  PXY d   1       1.531   3.536   0.813  0.00  0.00     0.003 A 
ATOM      6  C4  PXY d   1       0.866   2.341   0.746  0.00  0.00    -0.082 A 
ATOM      7  C5  PXY d   1       0.296   1.961  -0.417  0.00  0.00     0.003 A 
ATOM      8  C6  PXY d   1       0.395   2.796  -1.525  0.00  0.00     0.003 A 
ENDROOT
TORSDOF 0
ENDMDL
