MODEL 1
REMARK minimizedAffinity 6.28027248
REMARK minimizedRMSD -1
REMARK  0 active torsions:
REMARK  status: ('A' for Active; 'I' for Inactive)
ROOT
ATOM      1  C4' PXY d   1       5.341  -4.783  -5.934  0.00  0.00     0.077 C 
ATOM      2  C1' PXY d   1       4.886  -1.191  -1.427  0.00  0.00     0.077 C 
ATOM      3  C1  PXY d   1       4.993  -2.130  -2.613  0.00  0.00    -0.082 A 
ATOM      4  C2  PXY d   1       5.867  -3.123  -2.584  0.00  0.00     0.003 A 
ATOM      5  C3  PXY d   1       6.000  -3.962  -3.661  0.00  0.00     0.003 A 
ATOM      6  C4  PXY d   1       5.191  -3.816  -4.756  0.00  0.00    -0.082 A 
ATOM      7  C5  PXY d   1       4.289  -2.812  -4.788  0.00  0.00     0.003 A 
ATOM      8  C6  PXY d   1       4.199  -1.946  -3.702  0.00  0.00     0.003 A 
ENDROOT
TORSDOF 0
ENDMDL
