MODEL 1
REMARK minimizedAffinity -1.7387315
REMARK minimizedRMSD -1
REMARK  0 active torsions:
REMARK  status: ('A' for Active; 'I' for Inactive)
ROOT
ATOM      1  C4' PXY d   1       1.939   3.150   2.177  0.00  0.00     0.077 C 
ATOM      2  C1' PXY d   1      -1.617   1.142  -1.915  0.00  0.00     0.077 C 
ATOM      3  C1  PXY d   1      -0.678   1.675  -0.851  0.00  0.00    -0.082 A 
ATOM      4  C2  PXY d   1      -0.552   1.026   0.295  0.00  0.00     0.003 A 
ATOM      5  C3  PXY d   1       0.269   1.511   1.280  0.00  0.00     0.003 A 
ATOM      6  C4  PXY d   1       1.009   2.643   1.070  0.00  0.00    -0.082 A 
ATOM      7  C5  PXY d   1       0.894   3.306  -0.100  0.00  0.00     0.003 A 
ATOM      8  C6  PXY d   1       0.024   2.819  -1.072  0.00  0.00     0.003 A 
ENDROOT
TORSDOF 0
ENDMDL
