MODEL 1
REMARK minimizedAffinity 2.84982491
REMARK minimizedRMSD -1
REMARK  0 active torsions:
REMARK  status: ('A' for Active; 'I' for Inactive)
ROOT
ATOM      1  C   UNL d   1      -1.300  -0.909   2.134  0.00  0.00     0.023 A 
ATOM      2  C1  UNL d   1      -0.048  -0.294   2.111  0.00  0.00     0.003 A 
ATOM      3  C2  UNL d   1       0.976  -0.761   2.939  0.00  0.00     0.048 A 
ATOM      4  C3  UNL d   1       0.741  -1.844   3.785  0.00  0.00     0.023 A 
ATOM      5  C4  UNL d   1      -0.510  -2.463   3.811  0.00  0.00     0.048 A 
ATOM      6  C5  UNL d   1      -1.530  -1.992   2.983  0.00  0.00     0.003 A 
ATOM      7  I   UNL d   1       2.263  -2.540   5.017  0.00  0.00    -0.146 I 
ENDROOT
TORSDOF 0
ENDMDL
