MODEL 1
REMARK minimizedAffinity 0.743628621
REMARK minimizedRMSD -1
REMARK  0 active torsions:
REMARK  status: ('A' for Active; 'I' for Inactive)
ROOT
ATOM      1  C   UNL d   1      -0.421   0.305   1.148  0.00  0.00     0.023 A 
ATOM      2  C1  UNL d   1      -1.177  -0.066   2.260  0.00  0.00     0.003 A 
ATOM      3  C2  UNL d   1      -0.568  -0.720   3.333  0.00  0.00     0.048 A 
ATOM      4  C3  UNL d   1       0.797  -0.999   3.288  0.00  0.00     0.023 A 
ATOM      5  C4  UNL d   1       1.558  -0.629   2.178  0.00  0.00     0.048 A 
ATOM      6  C5  UNL d   1       0.945   0.024   1.107  0.00  0.00     0.003 A 
ATOM      7  I   UNL d   1       1.705  -1.972   4.884  0.00  0.00    -0.146 I 
ENDROOT
TORSDOF 0
ENDMDL
