MODEL 1
REMARK minimizedAffinity -3.36445022
REMARK minimizedRMSD -1
REMARK  0 active torsions:
REMARK  status: ('A' for Active; 'I' for Inactive)
ROOT
ATOM      1  C   UNL d   1      -1.480   0.176   1.784  0.00  0.00     0.023 A 
ATOM      2  C1  UNL d   1      -0.104   0.387   1.701  0.00  0.00     0.003 A 
ATOM      3  C2  UNL d   1       0.758  -0.262   2.588  0.00  0.00     0.048 A 
ATOM      4  C3  UNL d   1       0.237  -1.122   3.554  0.00  0.00     0.023 A 
ATOM      5  C4  UNL d   1      -1.140  -1.337   3.640  0.00  0.00     0.048 A 
ATOM      6  C5  UNL d   1      -1.997  -0.685   2.752  0.00  0.00     0.003 A 
ATOM      7  I   UNL d   1       1.518  -2.090   4.874  0.00  0.00    -0.146 I 
ENDROOT
TORSDOF 0
ENDMDL
