MODEL 1
REMARK minimizedAffinity 8.06287766
REMARK minimizedRMSD -1
REMARK  0 active torsions:
REMARK  status: ('A' for Active; 'I' for Inactive)
ROOT
ATOM      1  C   UNL d   1       2.187  -2.707   5.999  0.00  0.00     0.023 A 
ATOM      2  C1  UNL d   1       2.502  -1.375   5.730  0.00  0.00     0.003 A 
ATOM      3  C2  UNL d   1       1.939  -0.732   4.625  0.00  0.00     0.048 A 
ATOM      4  C3  UNL d   1       1.062  -1.428   3.794  0.00  0.00     0.023 A 
ATOM      5  C4  UNL d   1       0.743  -2.761   4.060  0.00  0.00     0.048 A 
ATOM      6  C5  UNL d   1       1.309  -3.399   5.165  0.00  0.00     0.003 A 
ATOM      7  I   UNL d   1       0.224  -0.474   2.148  0.00  0.00    -0.146 I 
ENDROOT
TORSDOF 0
ENDMDL
