MODEL 1
REMARK minimizedAffinity 6.04026651
REMARK minimizedRMSD -1
REMARK  0 active torsions:
REMARK  status: ('A' for Active; 'I' for Inactive)
ROOT
ATOM      1  C   UNL d   1       0.044   0.341   1.494  0.00  0.00     0.023 A 
ATOM      2  C1  UNL d   1      -0.771  -0.599   2.125  0.00  0.00     0.003 A 
ATOM      3  C2  UNL d   1      -0.246  -1.422   3.123  0.00  0.00     0.048 A 
ATOM      4  C3  UNL d   1       1.095  -1.300   3.486  0.00  0.00     0.023 A 
ATOM      5  C4  UNL d   1       1.914  -0.361   2.857  0.00  0.00     0.048 A 
ATOM      6  C5  UNL d   1       1.385   0.460   1.859  0.00  0.00     0.003 A 
ATOM      7  I   UNL d   1       1.879  -2.524   4.972  0.00  0.00    -0.146 I 
ENDROOT
TORSDOF 0
ENDMDL
