MODEL 1
REMARK minimizedAffinity 5.1084671
REMARK minimizedRMSD -1
REMARK  0 active torsions:
REMARK  status: ('A' for Active; 'I' for Inactive)
ROOT
ATOM      1  C   UNL d   1       0.775  -1.568   3.656  0.00  0.00     0.023 A 
ATOM      2  C1  UNL d   1       1.306  -0.660   2.740  0.00  0.00     0.003 A 
ATOM      3  C2  UNL d   1       0.536  -0.226   1.658  0.00  0.00     0.048 A 
ATOM      4  C3  UNL d   1      -0.764  -0.704   1.499  0.00  0.00     0.023 A 
ATOM      5  C4  UNL d   1      -1.300  -1.612   2.413  0.00  0.00     0.048 A 
ATOM      6  C5  UNL d   1      -0.526  -2.044   3.493  0.00  0.00     0.003 A 
ATOM      7  I   UNL d   1      -1.912  -0.060  -0.110  0.00  0.00    -0.146 I 
ENDROOT
TORSDOF 0
ENDMDL
