MODEL 1
REMARK minimizedAffinity 4.13118315
REMARK minimizedRMSD -1
REMARK  0 active torsions:
REMARK  status: ('A' for Active; 'I' for Inactive)
ROOT
ATOM      1  C   UNL d   1       2.171  -1.605   5.659  0.00  0.00     0.023 A 
ATOM      2  C1  UNL d   1       1.578  -0.344   5.724  0.00  0.00     0.003 A 
ATOM      3  C2  UNL d   1       0.832   0.135   4.645  0.00  0.00     0.048 A 
ATOM      4  C3  UNL d   1       0.682  -0.654   3.505  0.00  0.00     0.023 A 
ATOM      5  C4  UNL d   1       1.272  -1.916   3.436  0.00  0.00     0.048 A 
ATOM      6  C5  UNL d   1       2.018  -2.390   4.517  0.00  0.00     0.003 A 
ATOM      7  I   UNL d   1      -0.428   0.056   1.897  0.00  0.00    -0.146 I 
ENDROOT
TORSDOF 0
ENDMDL
