MODEL 1
REMARK minimizedAffinity 5.3065877
REMARK minimizedRMSD -1
REMARK  0 active torsions:
REMARK  status: ('A' for Active; 'I' for Inactive)
ROOT
ATOM      1  C   UNL d   1      -2.595   0.029   1.590  0.00  0.00     0.023 A 
ATOM      2  C1  UNL d   1      -2.386  -1.048   2.452  0.00  0.00     0.003 A 
ATOM      3  C2  UNL d   1      -1.089  -1.390   2.842  0.00  0.00     0.048 A 
ATOM      4  C3  UNL d   1      -0.007  -0.650   2.369  0.00  0.00     0.023 A 
ATOM      5  C4  UNL d   1      -0.211   0.429   1.508  0.00  0.00     0.048 A 
ATOM      6  C5  UNL d   1      -1.509   0.767   1.119  0.00  0.00     0.003 A 
ATOM      7  I   UNL d   1       1.924  -1.157   2.949  0.00  0.00    -0.146 I 
ENDROOT
TORSDOF 0
ENDMDL
