MODEL 1
REMARK minimizedAffinity 0.323401421
REMARK minimizedRMSD -1
REMARK  0 active torsions:
REMARK  status: ('A' for Active; 'I' for Inactive)
ROOT
ATOM      1  C   UNL d   1      -0.869  -0.402   2.132  0.00  0.00     0.023 A 
ATOM      2  C1  UNL d   1       0.333  -0.806   1.550  0.00  0.00     0.003 A 
ATOM      3  C2  UNL d   1       1.447  -1.059   2.352  0.00  0.00     0.048 A 
ATOM      4  C3  UNL d   1       1.353  -0.906   3.735  0.00  0.00     0.023 A 
ATOM      5  C4  UNL d   1       0.152  -0.503   4.321  0.00  0.00     0.048 A 
ATOM      6  C5  UNL d   1      -0.959  -0.251   3.515  0.00  0.00     0.003 A 
ATOM      7  I   UNL d   1       3.011  -1.282   4.931  0.00  0.00    -0.146 I 
ENDROOT
TORSDOF 0
ENDMDL
