MODEL 1
REMARK minimizedAffinity -4.22420597
REMARK minimizedRMSD -1
REMARK  2 active torsions:
REMARK  status: ('A' for Active; 'I' for Inactive)
REMARK    1  A    between atoms: C2'_3  and  C1'_4 
REMARK    2  A    between atoms: C1'_4  and  C1_5 
ROOT
ATOM      1  C1  I4B d   1       0.249   1.247  -0.155  0.00  0.00    -0.075 A 
ATOM      2  C2  I4B d   1       1.577   1.560  -0.301  0.00  0.00     0.003 A 
ATOM      3  C3  I4B d   1       2.573   0.686   0.197  0.00  0.00     0.002 A 
ATOM      4  C4  I4B d   1       2.198  -0.457   0.874  0.00  0.00    -0.004 A 
ATOM      5  C5  I4B d   1       0.851  -0.783   1.001  0.00  0.00     0.002 A 
ATOM      6  C6  I4B d   1      -0.130   0.068   0.472  0.00  0.00     0.003 A 
ENDROOT
BRANCH   1   7
ATOM      7  C1' I4B d   1      -0.778   2.209  -0.664  0.00  0.00     0.060 C 
BRANCH   7   8
ATOM      8  C2' I4B d   1      -0.783   3.415   0.253  0.00  0.00    -0.013 C 
ATOM      9  C4' I4B d   1      -1.061   3.015   1.678  0.00  0.00     0.013 C 
ATOM     10  C3' I4B d   1       0.548   4.095   0.131  0.00  0.00     0.013 C 
ENDBRANCH   7   8
ENDBRANCH   1   7
TORSDOF 2
ENDMDL
