MODEL 1
REMARK minimizedAffinity -2.8132031
REMARK minimizedRMSD -1
REMARK  2 active torsions:
REMARK  status: ('A' for Active; 'I' for Inactive)
REMARK    1  A    between atoms: C2'_3  and  C1'_4 
REMARK    2  A    between atoms: C1'_4  and  C1_5 
ROOT
ATOM      1  C1  I4B d   1      -0.049  -0.155   0.075  0.00  0.00    -0.075 A 
ATOM      2  C2  I4B d   1      -0.969   0.331   0.971  0.00  0.00     0.003 A 
ATOM      3  C3  I4B d   1      -1.124   1.727   1.147  0.00  0.00     0.002 A 
ATOM      4  C4  I4B d   1      -0.310   2.595   0.449  0.00  0.00    -0.004 A 
ATOM      5  C5  I4B d   1       0.606   2.102  -0.476  0.00  0.00     0.002 A 
ATOM      6  C6  I4B d   1       0.729   0.719  -0.674  0.00  0.00     0.003 A 
ENDROOT
BRANCH   1   7
ATOM      7  C1' I4B d   1       0.112  -1.635  -0.063  0.00  0.00     0.060 C 
BRANCH   7   8
ATOM      8  C2' I4B d   1      -1.031  -2.152  -0.913  0.00  0.00    -0.013 C 
ATOM      9  C4' I4B d   1      -0.552  -2.560  -2.281  0.00  0.00     0.013 C 
ATOM     10  C3' I4B d   1      -1.658  -3.308  -0.192  0.00  0.00     0.013 C 
ENDBRANCH   7   8
ENDBRANCH   1   7
TORSDOF 2
ENDMDL
