MODEL 1
REMARK minimizedAffinity -4.37304306
REMARK minimizedRMSD -1
REMARK  2 active torsions:
REMARK  status: ('A' for Active; 'I' for Inactive)
REMARK    1  A    between atoms: C2'_3  and  C1'_4 
REMARK    2  A    between atoms: C1'_4  and  C1_5 
ROOT
ATOM      1  C1  I4B d   1      -0.197  -0.372   0.140  0.00  0.00    -0.075 A 
ATOM      2  C2  I4B d   1       0.536   0.649  -0.411  0.00  0.00     0.003 A 
ATOM      3  C3  I4B d   1       0.050   1.978  -0.371  0.00  0.00     0.002 A 
ATOM      4  C4  I4B d   1      -1.190   2.232   0.179  0.00  0.00    -0.004 A 
ATOM      5  C5  I4B d   1      -1.922   1.199   0.757  0.00  0.00     0.002 A 
ATOM      6  C6  I4B d   1      -1.418  -0.110   0.749  0.00  0.00     0.003 A 
ENDROOT
BRANCH   1   7
ATOM      7  C1' I4B d   1       0.331  -1.769   0.051  0.00  0.00     0.060 C 
BRANCH   7   8
ATOM      8  C2' I4B d   1      -0.526  -2.531  -0.938  0.00  0.00    -0.013 C 
ATOM      9  C4' I4B d   1       0.277  -2.962  -2.137  0.00  0.00     0.013 C 
ATOM     10  C3' I4B d   1      -1.114  -3.713  -0.227  0.00  0.00     0.013 C 
ENDBRANCH   7   8
ENDBRANCH   1   7
TORSDOF 2
ENDMDL
