MODEL 1
REMARK minimizedAffinity -0.0595545359
REMARK minimizedRMSD -1
REMARK  2 active torsions:
REMARK  status: ('A' for Active; 'I' for Inactive)
REMARK    1  A    between atoms: C2'_3  and  C1'_4 
REMARK    2  A    between atoms: C1'_4  and  C1_5 
ROOT
ATOM      1  C1  I4B d   1       0.364  -0.630  -0.338  0.00  0.00    -0.075 A 
ATOM      2  C2  I4B d   1      -0.655   0.290  -0.351  0.00  0.00     0.003 A 
ATOM      3  C3  I4B d   1      -0.401   1.640  -0.007  0.00  0.00     0.002 A 
ATOM      4  C4  I4B d   1       0.867   2.013   0.390  0.00  0.00    -0.004 A 
ATOM      5  C5  I4B d   1       1.904   1.084   0.381  0.00  0.00     0.002 A 
ATOM      6  C6  I4B d   1       1.654  -0.243   0.003  0.00  0.00     0.003 A 
ENDROOT
BRANCH   1   7
ATOM      7  C1' I4B d   1       0.053  -2.054  -0.675  0.00  0.00     0.060 C 
BRANCH   7   8
ATOM      8  C2' I4B d   1      -0.292  -2.120  -2.149  0.00  0.00    -0.013 C 
ATOM      9  C4' I4B d   1       0.776  -2.842  -2.927  0.00  0.00     0.013 C 
ATOM     10  C3' I4B d   1      -1.618  -2.807  -2.283  0.00  0.00     0.013 C 
ENDBRANCH   7   8
ENDBRANCH   1   7
TORSDOF 2
ENDMDL
