MODEL 1
REMARK minimizedAffinity -5.07364082
REMARK minimizedRMSD -1
REMARK  2 active torsions:
REMARK  status: ('A' for Active; 'I' for Inactive)
REMARK    1  A    between atoms: C2'_3  and  C1'_4 
REMARK    2  A    between atoms: C1'_4  and  C1_5 
ROOT
ATOM      1  C1  I4B d   1      -0.245  -0.095  -0.099  0.00  0.00    -0.075 A 
ATOM      2  C2  I4B d   1      -1.380  -0.071   0.673  0.00  0.00     0.003 A 
ATOM      3  C3  I4B d   1      -1.987   1.162   1.010  0.00  0.00     0.002 A 
ATOM      4  C4  I4B d   1      -1.402   2.343   0.600  0.00  0.00    -0.004 A 
ATOM      5  C5  I4B d   1      -0.264   2.317  -0.202  0.00  0.00     0.002 A 
ATOM      6  C6  I4B d   1       0.312   1.090  -0.564  0.00  0.00     0.003 A 
ENDROOT
BRANCH   1   7
ATOM      7  C1' I4B d   1       0.389  -1.413  -0.409  0.00  0.00     0.060 C 
BRANCH   7   8
ATOM      8  C2' I4B d   1      -0.564  -2.194  -1.290  0.00  0.00    -0.013 C 
ATOM      9  C4' I4B d   1       0.091  -2.587  -2.588  0.00  0.00     0.013 C 
ATOM     10  C3' I4B d   1      -1.018  -3.401  -0.526  0.00  0.00     0.013 C 
ENDBRANCH   7   8
ENDBRANCH   1   7
TORSDOF 2
ENDMDL
