MODEL 1
REMARK minimizedAffinity -5.05713844
REMARK minimizedRMSD -1
REMARK  2 active torsions:
REMARK  status: ('A' for Active; 'I' for Inactive)
REMARK    1  A    between atoms: C2'_3  and  C1'_4 
REMARK    2  A    between atoms: C1'_4  and  C1_5 
ROOT
ATOM      1  C1  I4B d   1       0.183  -1.139   0.101  0.00  0.00    -0.075 A 
ATOM      2  C2  I4B d   1       1.382  -1.028   0.760  0.00  0.00     0.003 A 
ATOM      3  C3  I4B d   1       2.055   0.217   0.811  0.00  0.00     0.002 A 
ATOM      4  C4  I4B d   1       1.522   1.305   0.151  0.00  0.00    -0.004 A 
ATOM      5  C5  I4B d   1       0.295   1.196  -0.498  0.00  0.00     0.002 A 
ATOM      6  C6  I4B d   1      -0.385  -0.030  -0.513  0.00  0.00     0.003 A 
ENDROOT
BRANCH   1   7
ATOM      7  C1' I4B d   1      -0.485  -2.476   0.039  0.00  0.00     0.060 C 
BRANCH   7   8
ATOM      8  C2' I4B d   1      -0.738  -2.804  -1.418  0.00  0.00    -0.013 C 
ATOM      9  C4' I4B d   1       0.553  -3.044  -2.155  0.00  0.00     0.013 C 
ATOM     10  C3' I4B d   1      -1.625  -4.012  -1.474  0.00  0.00     0.013 C 
ENDBRANCH   7   8
ENDBRANCH   1   7
TORSDOF 2
ENDMDL
