MODEL 1
REMARK minimizedAffinity -4.2732048
REMARK minimizedRMSD -1
REMARK  2 active torsions:
REMARK  status: ('A' for Active; 'I' for Inactive)
REMARK    1  A    between atoms: C2'_3  and  C1'_4 
REMARK    2  A    between atoms: C1'_4  and  C1_5 
ROOT
ATOM      1  C1  I4B d   1       0.202  -0.537  -0.075  0.00  0.00    -0.075 A 
ATOM      2  C2  I4B d   1       1.126   0.428  -0.388  0.00  0.00     0.003 A 
ATOM      3  C3  I4B d   1       0.831   1.796  -0.169  0.00  0.00     0.002 A 
ATOM      4  C4  I4B d   1      -0.411   2.154   0.314  0.00  0.00    -0.004 A 
ATOM      5  C5  I4B d   1      -1.339   1.172   0.652  0.00  0.00     0.002 A 
ATOM      6  C6  I4B d   1      -1.026  -0.183   0.468  0.00  0.00     0.003 A 
ENDROOT
BRANCH   1   7
ATOM      7  C1' I4B d   1       0.535  -1.969  -0.350  0.00  0.00     0.060 C 
BRANCH   7   8
ATOM      8  C2' I4B d   1      -0.094  -2.349  -1.676  0.00  0.00    -0.013 C 
ATOM      9  C4' I4B d   1       0.947  -2.814  -2.659  0.00  0.00     0.013 C 
ATOM     10  C3' I4B d   1      -1.111  -3.420  -1.416  0.00  0.00     0.013 C 
ENDBRANCH   7   8
ENDBRANCH   1   7
TORSDOF 2
ENDMDL
