MODEL 1
REMARK minimizedAffinity -4.05558157
REMARK minimizedRMSD -1
REMARK  2 active torsions:
REMARK  status: ('A' for Active; 'I' for Inactive)
REMARK    1  A    between atoms: C2'_3  and  C1'_4 
REMARK    2  A    between atoms: C1'_4  and  C1_5 
ROOT
ATOM      1  C1  I4B d   1      -0.285  -0.338  -0.090  0.00  0.00    -0.075 A 
ATOM      2  C2  I4B d   1      -1.271   0.204   0.697  0.00  0.00     0.003 A 
ATOM      3  C3  I4B d   1      -1.444   1.608   0.758  0.00  0.00     0.002 A 
ATOM      4  C4  I4B d   1      -0.582   2.429   0.061  0.00  0.00    -0.004 A 
ATOM      5  C5  I4B d   1       0.403   1.878  -0.754  0.00  0.00     0.002 A 
ATOM      6  C6  I4B d   1       0.544   0.485  -0.840  0.00  0.00     0.003 A 
ENDROOT
BRANCH   1   7
ATOM      7  C1' I4B d   1      -0.110  -1.823  -0.105  0.00  0.00     0.060 C 
BRANCH   7   8
ATOM      8  C2' I4B d   1      -1.130  -2.404  -1.064  0.00  0.00    -0.013 C 
ATOM      9  C4' I4B d   1      -0.461  -3.017  -2.266  0.00  0.00     0.013 C 
ATOM     10  C3' I4B d   1      -1.941  -3.420  -0.318  0.00  0.00     0.013 C 
ENDBRANCH   7   8
ENDBRANCH   1   7
TORSDOF 2
ENDMDL
