MODEL 1
REMARK minimizedAffinity -4.43689108
REMARK minimizedRMSD -1
REMARK  2 active torsions:
REMARK  status: ('A' for Active; 'I' for Inactive)
REMARK    1  A    between atoms: C2'_3  and  C1'_4 
REMARK    2  A    between atoms: C1'_4  and  C1_5 
ROOT
ATOM      1  C1  I4B d   1       0.148  -0.778   0.091  0.00  0.00    -0.075 A 
ATOM      2  C2  I4B d   1       1.213   0.005  -0.277  0.00  0.00     0.003 A 
ATOM      3  C3  I4B d   1       1.082   1.415  -0.313  0.00  0.00     0.002 A 
ATOM      4  C4  I4B d   1      -0.138   1.992  -0.025  0.00  0.00    -0.004 A 
ATOM      5  C5  I4B d   1      -1.211   1.197   0.370  0.00  0.00     0.002 A 
ATOM      6  C6  I4B d   1      -1.064  -0.196   0.441  0.00  0.00     0.003 A 
ENDROOT
BRANCH   1   7
ATOM      7  C1' I4B d   1       0.311  -2.265   0.087  0.00  0.00     0.060 C 
BRANCH   7   8
ATOM      8  C2' I4B d   1      -0.610  -2.833  -0.974  0.00  0.00    -0.013 C 
ATOM      9  C4' I4B d   1       0.135  -3.103  -2.255  0.00  0.00     0.013 C 
ATOM     10  C3' I4B d   1      -1.224  -4.088  -0.430  0.00  0.00     0.013 C 
ENDBRANCH   7   8
ENDBRANCH   1   7
TORSDOF 2
ENDMDL
