MODEL 1
REMARK minimizedAffinity 2.321733
REMARK minimizedRMSD -1
REMARK  1 active torsions:
REMARK  status: ('A' for Active; 'I' for Inactive)
REMARK    1  A    between atoms: C1_2  and  C2_3 
ROOT
ATOM      1  C2  UNL d   1      -0.482   2.813  -0.932  0.00  0.00    -0.073 A 
ATOM      2  C3  UNL d   1      -1.733   2.304  -1.298  0.00  0.00    -0.002 A 
ATOM      3  C4  UNL d   1      -1.960   0.927  -1.305  0.00  0.00     0.004 A 
ATOM      4  C5  UNL d   1      -0.943   0.046  -0.940  0.00  0.00    -0.004 A 
ATOM      5  C6  UNL d   1       0.311   0.536  -0.559  0.00  0.00    -0.075 A 
ATOM      6  C7  UNL d   1       1.417  -0.399  -0.165  0.00  0.00     0.076 C 
ATOM      7  C8  UNL d   1       0.532   1.919  -0.557  0.00  0.00     0.001 A 
ENDROOT
BRANCH   1   8
ATOM      8  C1  UNL d   1      -0.234   4.299  -0.917  0.00  0.00     0.053 C 
ATOM      9  C   UNL d   1       1.194   4.643  -1.310  0.00  0.00     0.018 C 
ENDBRANCH   1   8
TORSDOF 1
ENDMDL
