MODEL 1
REMARK minimizedAffinity 12.4264803
REMARK minimizedRMSD -1
REMARK  1 active torsions:
REMARK  status: ('A' for Active; 'I' for Inactive)
REMARK    1  A    between atoms: C1_2  and  C2_3 
ROOT
ATOM      1  C2  UNL d   1       5.102  -3.970  -0.224  0.00  0.00    -0.073 A 
ATOM      2  C3  UNL d   1       5.999  -3.309  -1.071  0.00  0.00    -0.002 A 
ATOM      3  C4  UNL d   1       5.942  -1.921  -1.212  0.00  0.00     0.004 A 
ATOM      4  C5  UNL d   1       4.996  -1.181  -0.504  0.00  0.00    -0.004 A 
ATOM      5  C6  UNL d   1       4.099  -1.822   0.357  0.00  0.00    -0.075 A 
ATOM      6  C7  UNL d   1       3.073  -1.041   1.124  0.00  0.00     0.076 C 
ATOM      7  C8  UNL d   1       4.160  -3.216   0.491  0.00  0.00     0.001 A 
ENDROOT
BRANCH   1   8
ATOM      8  C1  UNL d   1       5.163  -5.467  -0.063  0.00  0.00     0.053 C 
ATOM      9  C   UNL d   1       6.000  -5.877   1.139  0.00  0.00     0.018 C 
ENDBRANCH   1   8
TORSDOF 1
ENDMDL
