MODEL 1
REMARK minimizedAffinity 8.04784393
REMARK minimizedRMSD -1
REMARK  1 active torsions:
REMARK  status: ('A' for Active; 'I' for Inactive)
REMARK    1  A    between atoms: C1_2  and  C2_3 
ROOT
ATOM      1  C2  UNL d   1      -0.226   3.726   1.683  0.00  0.00    -0.073 A 
ATOM      2  C3  UNL d   1      -0.846   4.867   2.204  0.00  0.00    -0.002 A 
ATOM      3  C4  UNL d   1      -1.022   5.999   1.408  0.00  0.00     0.004 A 
ATOM      4  C5  UNL d   1      -0.587   6.000   0.082  0.00  0.00    -0.004 A 
ATOM      5  C6  UNL d   1       0.024   4.865  -0.460  0.00  0.00    -0.075 A 
ATOM      6  C7  UNL d   1       0.500   4.850  -1.883  0.00  0.00     0.076 C 
ATOM      7  C8  UNL d   1       0.200   3.733   0.347  0.00  0.00     0.001 A 
ENDROOT
BRANCH   1   8
ATOM      8  C1  UNL d   1      -0.039   2.499   2.538  0.00  0.00     0.053 C 
ATOM      9  C   UNL d   1      -1.364   1.947   3.040  0.00  0.00     0.018 C 
ENDBRANCH   1   8
TORSDOF 1
ENDMDL
