MODEL 1
REMARK minimizedAffinity 10.9707747
REMARK minimizedRMSD -1
REMARK  1 active torsions:
REMARK  status: ('A' for Active; 'I' for Inactive)
REMARK    1  A    between atoms: C1_2  and  C2_3 
ROOT
ATOM      1  C2  UNL d   1      -1.300   2.194   2.800  0.00  0.00    -0.073 A 
ATOM      2  C3  UNL d   1      -0.172   1.873   3.563  0.00  0.00    -0.002 A 
ATOM      3  C4  UNL d   1       1.094   2.307   3.168  0.00  0.00     0.004 A 
ATOM      4  C5  UNL d   1       1.244   3.070   2.011  0.00  0.00    -0.004 A 
ATOM      5  C6  UNL d   1       0.128   3.411   1.240  0.00  0.00    -0.075 A 
ATOM      6  C7  UNL d   1       0.273   4.231  -0.009  0.00  0.00     0.076 C 
ATOM      7  C8  UNL d   1      -1.140   2.970   1.643  0.00  0.00     0.001 A 
ENDROOT
BRANCH   1   8
ATOM      8  C1  UNL d   1      -2.670   1.733   3.226  0.00  0.00     0.053 C 
ATOM      9  C   UNL d   1      -3.151   0.545   2.409  0.00  0.00     0.018 C 
ENDBRANCH   1   8
TORSDOF 1
ENDMDL
