MODEL 1
REMARK minimizedAffinity 13.492444
REMARK minimizedRMSD -1
REMARK  1 active torsions:
REMARK  status: ('A' for Active; 'I' for Inactive)
REMARK    1  A    between atoms: C1_2  and  C2_3 
ROOT
ATOM      1  C2  UNL d   1       5.514  -2.676  -1.935  0.00  0.00    -0.073 A 
ATOM      2  C3  UNL d   1       5.990  -3.756  -1.183  0.00  0.00    -0.002 A 
ATOM      3  C4  UNL d   1       5.635  -3.891   0.160  0.00  0.00     0.004 A 
ATOM      4  C5  UNL d   1       4.797  -2.953   0.762  0.00  0.00    -0.004 A 
ATOM      5  C6  UNL d   1       4.301  -1.873   0.024  0.00  0.00    -0.075 A 
ATOM      6  C7  UNL d   1       3.401  -0.854   0.658  0.00  0.00     0.076 C 
ATOM      7  C8  UNL d   1       4.664  -1.743  -1.323  0.00  0.00     0.001 A 
ENDROOT
BRANCH   1   8
ATOM      8  C1  UNL d   1       5.888  -2.530  -3.387  0.00  0.00     0.053 C 
ATOM      9  C   UNL d   1       5.790  -3.849  -4.137  0.00  0.00     0.018 C 
ENDBRANCH   1   8
TORSDOF 1
ENDMDL
