MODEL 1
REMARK minimizedAffinity 2.08580327
REMARK minimizedRMSD -1
REMARK  0 active torsions:
REMARK  status: ('A' for Active; 'I' for Inactive)
ROOT
ATOM      1  C   UNL d   1       5.979  -1.872  -4.112  0.00  0.00     0.172 C 
ATOM      2  N   UNL d   1       5.986  -3.295  -3.866  0.00  0.00    -0.070 N 
ATOM      3  C1  UNL d   1       5.982  -4.271  -4.826  0.00  0.00    -0.004 A 
ATOM      4  C2  UNL d   1       5.992  -5.492  -4.187  0.00  0.00    -0.047 A 
ATOM      5  C3  UNL d   1       6.000  -5.240  -2.794  0.00  0.00    -0.047 A 
ATOM      6  C4  UNL d   1       5.996  -3.872  -2.624  0.00  0.00    -0.004 A 
ENDROOT
TORSDOF 0
ENDMDL
