MODEL 1
REMARK minimizedAffinity 2.21299767
REMARK minimizedRMSD -1
REMARK  0 active torsions:
REMARK  status: ('A' for Active; 'I' for Inactive)
ROOT
ATOM      1  C   UNL d   1      -0.589   5.657  -1.907  0.00  0.00     0.172 C 
ATOM      2  N   UNL d   1      -0.251   4.295  -1.567  0.00  0.00    -0.070 N 
ATOM      3  C1  UNL d   1       0.982   3.717  -1.714  0.00  0.00    -0.004 A 
ATOM      4  C2  UNL d   1       0.893   2.413  -1.277  0.00  0.00    -0.047 A 
ATOM      5  C3  UNL d   1      -0.440   2.199  -0.853  0.00  0.00    -0.047 A 
ATOM      6  C4  UNL d   1      -1.126   3.380  -1.043  0.00  0.00    -0.004 A 
ENDROOT
TORSDOF 0
ENDMDL
