MODEL 1
REMARK minimizedAffinity -1.66000116
REMARK minimizedRMSD -1
REMARK  0 active torsions:
REMARK  status: ('A' for Active; 'I' for Inactive)
ROOT
ATOM      1  C   UNL d   1       0.504   5.499  -1.693  0.00  0.00     0.172 C 
ATOM      2  N   UNL d   1       0.631   4.517  -0.642  0.00  0.00    -0.070 N 
ATOM      3  C1  UNL d   1       1.652   4.450   0.269  0.00  0.00    -0.004 A 
ATOM      4  C2  UNL d   1       1.407   3.377   1.098  0.00  0.00    -0.047 A 
ATOM      5  C3  UNL d   1       0.199   2.777   0.670  0.00  0.00    -0.047 A 
ATOM      6  C4  UNL d   1      -0.260   3.503  -0.409  0.00  0.00    -0.004 A 
ENDROOT
TORSDOF 0
ENDMDL
