MODEL 1
REMARK minimizedAffinity 1.84945929
REMARK minimizedRMSD -1
REMARK  0 active torsions:
REMARK  status: ('A' for Active; 'I' for Inactive)
ROOT
ATOM      1  C   UNL d   1       4.902  -3.182  -0.725  0.00  0.00     0.172 C 
ATOM      2  N   UNL d   1       4.171  -4.237  -1.386  0.00  0.00    -0.070 N 
ATOM      3  C1  UNL d   1       3.258  -5.068  -0.792  0.00  0.00    -0.004 A 
ATOM      4  C2  UNL d   1       2.786  -5.933  -1.756  0.00  0.00    -0.047 A 
ATOM      5  C3  UNL d   1       3.439  -5.612  -2.969  0.00  0.00    -0.047 A 
ATOM      6  C4  UNL d   1       4.291  -4.559  -2.712  0.00  0.00    -0.004 A 
ENDROOT
TORSDOF 0
ENDMDL
