MODEL 1
REMARK minimizedAffinity 1.34316134
REMARK minimizedRMSD -1
REMARK  0 active torsions:
REMARK  status: ('A' for Active; 'I' for Inactive)
ROOT
ATOM      1  C   UNL d   1       0.351   4.682  -0.400  0.00  0.00     0.172 C 
ATOM      2  N   UNL d   1       0.806   3.990   0.783  0.00  0.00    -0.070 N 
ATOM      3  C1  UNL d   1       0.140   2.980   1.423  0.00  0.00    -0.004 A 
ATOM      4  C2  UNL d   1       0.902   2.589   2.503  0.00  0.00    -0.047 A 
ATOM      5  C3  UNL d   1       2.066   3.393   2.512  0.00  0.00    -0.047 A 
ATOM      6  C4  UNL d   1       1.981   4.252   1.437  0.00  0.00    -0.004 A 
ENDROOT
TORSDOF 0
ENDMDL
