MODEL 1
REMARK minimizedAffinity 8.3490448
REMARK minimizedRMSD -1
REMARK  1 active torsions:
REMARK  status: ('A' for Active; 'I' for Inactive)
REMARK    1  A    between atoms: C3_4  and  O_7 
ROOT
ATOM      1  C   UNL d   1      -1.873  -1.178  -5.411  0.00  0.00    -0.033 A 
ATOM      2  C1  UNL d   1      -1.999   0.159  -5.794  0.00  0.00     0.039 A 
ATOM      3  C2  UNL d   1      -0.859   0.939  -5.998  0.00  0.00    -0.080 A 
ATOM      4  C3  UNL d   1       0.399   0.370  -5.817  0.00  0.00     0.150 A 
ATOM      5  C4  UNL d   1       0.532  -0.962  -5.440  0.00  0.00    -0.007 A 
ATOM      6  C5  UNL d   1      -0.608  -1.739  -5.235  0.00  0.00     0.039 A 
ENDROOT
BRANCH   4   7
ATOM      7  O   UNL d   1       1.540   1.093  -6.000  0.00  0.00    -0.526 OA
ATOM      8  H5  UNL d   1       1.294   2.004  -6.231  0.00  0.00     0.418 HD
ENDBRANCH   4   7
TORSDOF 1
ENDMDL
