MODEL 1
REMARK minimizedAffinity -2.75707722
REMARK minimizedRMSD -1
REMARK  1 active torsions:
REMARK  status: ('A' for Active; 'I' for Inactive)
REMARK    1  A    between atoms: C3_4  and  O_7 
ROOT
ATOM      1  C   UNL d   1       0.572  -1.070   3.614  0.00  0.00    -0.033 A 
ATOM      2  C1  UNL d   1      -0.252  -0.330   2.763  0.00  0.00     0.039 A 
ATOM      3  C2  UNL d   1      -1.613  -0.625   2.675  0.00  0.00    -0.080 A 
ATOM      4  C3  UNL d   1      -2.138  -1.661   3.443  0.00  0.00     0.150 A 
ATOM      5  C4  UNL d   1      -1.324  -2.400   4.295  0.00  0.00    -0.007 A 
ATOM      6  C5  UNL d   1       0.035  -2.104   4.381  0.00  0.00     0.039 A 
ENDROOT
BRANCH   4   7
ATOM      7  O   UNL d   1      -3.460  -1.990   3.388  0.00  0.00    -0.526 OA
ATOM      8  H5  UNL d   1      -3.893  -1.414   2.736  0.00  0.00     0.418 HD
ENDBRANCH   4   7
TORSDOF 1
ENDMDL
