MODEL 1
REMARK minimizedAffinity -0.929620028
REMARK minimizedRMSD -1
REMARK  1 active torsions:
REMARK  status: ('A' for Active; 'I' for Inactive)
REMARK    1  A    between atoms: C3_4  and  O_7 
ROOT
ATOM      1  C   UNL d   1      -0.315   0.353   1.293  0.00  0.00    -0.033 A 
ATOM      2  C1  UNL d   1       1.028   0.215   0.937  0.00  0.00     0.039 A 
ATOM      3  C2  UNL d   1       1.864  -0.626   1.674  0.00  0.00    -0.080 A 
ATOM      4  C3  UNL d   1       1.345  -1.323   2.762  0.00  0.00     0.150 A 
ATOM      5  C4  UNL d   1       0.007  -1.193   3.119  0.00  0.00    -0.007 A 
ATOM      6  C5  UNL d   1      -0.826  -0.352   2.383  0.00  0.00     0.039 A 
ENDROOT
BRANCH   4   7
ATOM      7  O   UNL d   1       2.123  -2.153   3.514  0.00  0.00    -0.526 OA
ATOM      8  H5  UNL d   1       3.030  -2.121   3.167  0.00  0.00     0.418 HD
ENDBRANCH   4   7
TORSDOF 1
ENDMDL
