MODEL 1
REMARK minimizedAffinity 1.50505126
REMARK minimizedRMSD -1
REMARK  1 active torsions:
REMARK  status: ('A' for Active; 'I' for Inactive)
REMARK    1  A    between atoms: C3_4  and  O_7 
ROOT
ATOM      1  C   UNL d   1       1.117  -1.272   2.132  0.00  0.00    -0.033 A 
ATOM      2  C1  UNL d   1       0.928  -2.086   3.251  0.00  0.00     0.039 A 
ATOM      3  C2  UNL d   1       1.784  -1.977   4.348  0.00  0.00    -0.080 A 
ATOM      4  C3  UNL d   1       2.823  -1.051   4.315  0.00  0.00     0.150 A 
ATOM      5  C4  UNL d   1       3.015  -0.235   3.206  0.00  0.00    -0.007 A 
ATOM      6  C5  UNL d   1       2.160  -0.345   2.110  0.00  0.00     0.039 A 
ENDROOT
BRANCH   4   7
ATOM      7  O   UNL d   1       3.688  -0.912   5.360  0.00  0.00    -0.526 OA
ATOM      8  H5  UNL d   1       3.451  -1.561   6.044  0.00  0.00     0.418 HD
ENDBRANCH   4   7
TORSDOF 1
ENDMDL
