MODEL 1
REMARK minimizedAffinity 1.65762365
REMARK minimizedRMSD -1
REMARK  1 active torsions:
REMARK  status: ('A' for Active; 'I' for Inactive)
REMARK    1  A    between atoms: C3_4  and  O_7 
ROOT
ATOM      1  C   UNL d   1      -1.008  -1.037   2.365  0.00  0.00    -0.033 A 
ATOM      2  C1  UNL d   1      -1.025  -2.310   2.938  0.00  0.00     0.039 A 
ATOM      3  C2  UNL d   1       0.075  -2.764   3.669  0.00  0.00    -0.080 A 
ATOM      4  C3  UNL d   1       1.183  -1.935   3.820  0.00  0.00     0.150 A 
ATOM      5  C4  UNL d   1       1.206  -0.665   3.255  0.00  0.00    -0.007 A 
ATOM      6  C5  UNL d   1       0.107  -0.214   2.524  0.00  0.00     0.039 A 
ENDROOT
BRANCH   4   7
ATOM      7  O   UNL d   1       2.282  -2.336   4.520  0.00  0.00    -0.526 OA
ATOM      8  H5  UNL d   1       2.136  -3.246   4.828  0.00  0.00     0.418 HD
ENDBRANCH   4   7
TORSDOF 1
ENDMDL
