MODEL 1
REMARK minimizedAffinity 0.450279981
REMARK minimizedRMSD -1
REMARK  1 active torsions:
REMARK  status: ('A' for Active; 'I' for Inactive)
REMARK    1  A    between atoms: C3_4  and  O_7 
ROOT
ATOM      1  C   UNL d   1      -1.123  -2.151   3.016  0.00  0.00    -0.033 A 
ATOM      2  C1  UNL d   1      -2.338  -1.631   2.566  0.00  0.00     0.039 A 
ATOM      3  C2  UNL d   1      -2.444  -0.275   2.250  0.00  0.00    -0.080 A 
ATOM      4  C3  UNL d   1      -1.330   0.548   2.386  0.00  0.00     0.150 A 
ATOM      5  C4  UNL d   1      -0.115   0.035   2.829  0.00  0.00    -0.007 A 
ATOM      6  C5  UNL d   1      -0.011  -1.319   3.146  0.00  0.00     0.039 A 
ENDROOT
BRANCH   4   7
ATOM      7  O   UNL d   1      -1.386   1.878   2.094  0.00  0.00    -0.526 OA
ATOM      8  H5  UNL d   1      -2.295   2.097   1.827  0.00  0.00     0.418 HD
ENDBRANCH   4   7
TORSDOF 1
ENDMDL
