MODEL 1
REMARK minimizedAffinity 4.8263979
REMARK minimizedRMSD -1
REMARK  1 active torsions:
REMARK  status: ('A' for Active; 'I' for Inactive)
REMARK    1  A    between atoms: C3_4  and  O_7 
ROOT
ATOM      1  C   UNL d   1       0.982  -0.052   2.440  0.00  0.00    -0.033 A 
ATOM      2  C1  UNL d   1       2.270   0.023   1.906  0.00  0.00     0.039 A 
ATOM      3  C2  UNL d   1       2.693   1.186   1.261  0.00  0.00    -0.080 A 
ATOM      4  C3  UNL d   1       1.821   2.266   1.157  0.00  0.00     0.150 A 
ATOM      5  C4  UNL d   1       0.538   2.200   1.690  0.00  0.00    -0.007 A 
ATOM      6  C5  UNL d   1       0.117   1.038   2.334  0.00  0.00     0.039 A 
ENDROOT
BRANCH   4   7
ATOM      7  O   UNL d   1       2.188   3.421   0.532  0.00  0.00    -0.526 OA
ATOM      8  H5  UNL d   1       3.091   3.311   0.188  0.00  0.00     0.418 HD
ENDBRANCH   4   7
TORSDOF 1
ENDMDL
