MODEL 1
REMARK minimizedAffinity -4.97394657
REMARK minimizedRMSD -1
REMARK  1 active torsions:
REMARK  status: ('A' for Active; 'I' for Inactive)
REMARK    1  A    between atoms: C3_4  and  O_7 
ROOT
ATOM      1  C   UNL d   1       0.300  -5.905  -2.942  0.00  0.00    -0.033 A 
ATOM      2  C1  UNL d   1       0.400  -5.610  -4.303  0.00  0.00     0.039 A 
ATOM      3  C2  UNL d   1       0.247  -4.295  -4.748  0.00  0.00    -0.080 A 
ATOM      4  C3  UNL d   1      -0.003  -3.286  -3.822  0.00  0.00     0.150 A 
ATOM      5  C4  UNL d   1      -0.099  -3.572  -2.465  0.00  0.00    -0.007 A 
ATOM      6  C5  UNL d   1       0.053  -4.885  -2.023  0.00  0.00     0.039 A 
ENDROOT
BRANCH   4   7
ATOM      7  O   UNL d   1      -0.164  -1.989  -4.209  0.00  0.00    -0.526 OA
ATOM      8  H5  UNL d   1      -0.100  -1.946  -5.178  0.00  0.00     0.418 HD
ENDBRANCH   4   7
TORSDOF 1
ENDMDL
