MODEL 1
REMARK minimizedAffinity 0.22997041
REMARK minimizedRMSD -1
REMARK  1 active torsions:
REMARK  status: ('A' for Active; 'I' for Inactive)
REMARK    1  A    between atoms: C1_2  and  C2_3 
ROOT
ATOM      1  C2  UNL d   1       5.163   0.005   4.585  0.00  0.00    -0.081 A 
ATOM      2  C3  UNL d   1       5.704   0.415   3.360  0.00  0.00     0.006 A 
ATOM      3  C4  UNL d   1       5.964   1.766   3.118  0.00  0.00     0.002 A 
ATOM      4  C5  UNL d   1       5.696   2.727   4.097  0.00  0.00    -0.080 A 
ATOM      5  C6  UNL d   1       5.999   4.177   3.861  0.00  0.00     0.076 C 
ATOM      6  C7  UNL d   1       5.139   2.320   5.315  0.00  0.00     0.002 A 
ATOM      7  C8  UNL d   1       4.878   0.970   5.557  0.00  0.00     0.006 A 
ENDROOT
BRANCH   1   8
ATOM      8  C1  UNL d   1       4.942  -1.458   4.874  0.00  0.00     0.054 C 
ATOM      9  C   UNL d   1       5.844  -1.942   6.000  0.00  0.00     0.018 C 
ENDBRANCH   1   8
TORSDOF 1
ENDMDL
