MODEL 1
REMARK minimizedAffinity -2.82751632
REMARK minimizedRMSD -1
REMARK  1 active torsions:
REMARK  status: ('A' for Active; 'I' for Inactive)
REMARK    1  A    between atoms: C1_2  and  C2_3 
ROOT
ATOM      1  C2  UNL d   1       5.996   0.565   5.229  0.00  0.00    -0.081 A 
ATOM      2  C3  UNL d   1       5.999   1.783   5.920  0.00  0.00     0.006 A 
ATOM      3  C4  UNL d   1       5.995   2.993   5.222  0.00  0.00     0.002 A 
ATOM      4  C5  UNL d   1       5.979   3.006   3.823  0.00  0.00    -0.080 A 
ATOM      5  C6  UNL d   1       5.943   4.297   3.062  0.00  0.00     0.076 C 
ATOM      6  C7  UNL d   1       5.993   1.789   3.133  0.00  0.00     0.002 A 
ATOM      7  C8  UNL d   1       5.998   0.579   3.830  0.00  0.00     0.006 A 
ENDROOT
BRANCH   1   8
ATOM      8  C1  UNL d   1       5.935  -0.741   5.979  0.00  0.00     0.054 C 
ATOM      9  C   UNL d   1       5.786  -1.919   5.027  0.00  0.00     0.018 C 
ENDBRANCH   1   8
TORSDOF 1
ENDMDL
