MODEL 1
REMARK minimizedAffinity -1.20317483
REMARK minimizedRMSD -1
REMARK  1 active torsions:
REMARK  status: ('A' for Active; 'I' for Inactive)
REMARK    1  A    between atoms: C1_2  and  C2_3 
ROOT
ATOM      1  C2  UNL d   1       5.939   2.640   4.030  0.00  0.00    -0.081 A 
ATOM      2  C3  UNL d   1       5.907   2.313   5.391  0.00  0.00     0.006 A 
ATOM      3  C4  UNL d   1       5.912   0.977   5.799  0.00  0.00     0.002 A 
ATOM      4  C5  UNL d   1       5.957  -0.054   4.853  0.00  0.00    -0.080 A 
ATOM      5  C6  UNL d   1       5.993  -1.492   5.278  0.00  0.00     0.076 C 
ATOM      6  C7  UNL d   1       5.971   0.273   3.493  0.00  0.00     0.002 A 
ATOM      7  C8  UNL d   1       5.966   1.609   3.085  0.00  0.00     0.006 A 
ENDROOT
BRANCH   1   8
ATOM      8  C1  UNL d   1       6.000   4.080   3.589  0.00  0.00     0.054 C 
ATOM      9  C   UNL d   1       5.941   5.026   4.780  0.00  0.00     0.018 C 
ENDBRANCH   1   8
TORSDOF 1
ENDMDL
