MODEL 1
REMARK minimizedAffinity -0.847643554
REMARK minimizedRMSD -1
REMARK  1 active torsions:
REMARK  status: ('A' for Active; 'I' for Inactive)
REMARK    1  A    between atoms: C1_2  and  C2_3 
ROOT
ATOM      1  C2  UNL d   1       5.937   3.034   3.494  0.00  0.00    -0.081 A 
ATOM      2  C3  UNL d   1       5.908   2.756   4.866  0.00  0.00     0.006 A 
ATOM      3  C4  UNL d   1       5.916   1.436   5.321  0.00  0.00     0.002 A 
ATOM      4  C5  UNL d   1       5.960   0.372   4.413  0.00  0.00    -0.080 A 
ATOM      5  C6  UNL d   1       6.000  -1.050   4.889  0.00  0.00     0.076 C 
ATOM      6  C7  UNL d   1       5.971   0.649   3.042  0.00  0.00     0.002 A 
ATOM      7  C8  UNL d   1       5.962   1.970   2.586  0.00  0.00     0.006 A 
ENDROOT
BRANCH   1   8
ATOM      8  C1  UNL d   1       5.994   4.458   3.001  0.00  0.00     0.054 C 
ATOM      9  C   UNL d   1       5.998   5.445   4.160  0.00  0.00     0.018 C 
ENDBRANCH   1   8
TORSDOF 1
ENDMDL
