MODEL 1
REMARK minimizedAffinity -3.49641466
REMARK minimizedRMSD -1
REMARK  1 active torsions:
REMARK  status: ('A' for Active; 'I' for Inactive)
REMARK    1  A    between atoms: C1_2  and  C2_3 
ROOT
ATOM      1  C2  UNL d   1       5.648   0.222   4.775  0.00  0.00    -0.081 A 
ATOM      2  C3  UNL d   1       5.495   0.866   3.542  0.00  0.00     0.006 A 
ATOM      3  C4  UNL d   1       5.595   2.257   3.452  0.00  0.00     0.002 A 
ATOM      4  C5  UNL d   1       5.859   3.024   4.591  0.00  0.00    -0.080 A 
ATOM      5  C6  UNL d   1       6.000   4.515   4.503  0.00  0.00     0.076 C 
ATOM      6  C7  UNL d   1       5.995   2.382   5.827  0.00  0.00     0.002 A 
ATOM      7  C8  UNL d   1       5.894   0.992   5.917  0.00  0.00     0.006 A 
ENDROOT
BRANCH   1   8
ATOM      8  C1  UNL d   1       5.604  -1.282   4.865  0.00  0.00     0.054 C 
ATOM      9  C   UNL d   1       4.896  -1.888   3.662  0.00  0.00     0.018 C 
ENDBRANCH   1   8
TORSDOF 1
ENDMDL
