MODEL 1
REMARK minimizedAffinity 1.30421174
REMARK minimizedRMSD -1
REMARK  1 active torsions:
REMARK  status: ('A' for Active; 'I' for Inactive)
REMARK    1  A    between atoms: C1_2  and  C2_3 
ROOT
ATOM      1  C2  UNL d   1       5.713   2.380   4.042  0.00  0.00    -0.081 A 
ATOM      2  C3  UNL d   1       5.442   1.441   3.040  0.00  0.00     0.006 A 
ATOM      3  C4  UNL d   1       5.445   0.074   3.330  0.00  0.00     0.002 A 
ATOM      4  C5  UNL d   1       5.711  -0.375   4.628  0.00  0.00    -0.080 A 
ATOM      5  C6  UNL d   1       5.687  -1.838   4.959  0.00  0.00     0.076 C 
ATOM      6  C7  UNL d   1       5.999   0.562   5.626  0.00  0.00     0.002 A 
ATOM      7  C8  UNL d   1       5.997   1.928   5.336  0.00  0.00     0.006 A 
ENDROOT
BRANCH   1   8
ATOM      8  C1  UNL d   1       5.647   3.857   3.747  0.00  0.00     0.054 C 
ATOM      9  C   UNL d   1       5.130   4.117   2.340  0.00  0.00     0.018 C 
ENDBRANCH   1   8
TORSDOF 1
ENDMDL
