MODEL 1
REMARK minimizedAffinity 0.195065498
REMARK minimizedRMSD -1
REMARK  1 active torsions:
REMARK  status: ('A' for Active; 'I' for Inactive)
REMARK    1  A    between atoms: C1_2  and  C2_3 
ROOT
ATOM      1  C2  UNL d   1       5.939   0.558   4.075  0.00  0.00    -0.081 A 
ATOM      2  C3  UNL d   1       5.950   1.194   2.828  0.00  0.00     0.006 A 
ATOM      3  C4  UNL d   1       5.956   2.589   2.744  0.00  0.00     0.002 A 
ATOM      4  C5  UNL d   1       5.959   3.369   3.905  0.00  0.00    -0.080 A 
ATOM      5  C6  UNL d   1       5.996   4.867   3.829  0.00  0.00     0.076 C 
ATOM      6  C7  UNL d   1       5.930   2.734   5.151  0.00  0.00     0.002 A 
ATOM      7  C8  UNL d   1       5.924   1.340   5.235  0.00  0.00     0.006 A 
ENDROOT
BRANCH   1   8
ATOM      8  C1  UNL d   1       5.998  -0.945   4.170  0.00  0.00     0.054 C 
ATOM      9  C   UNL d   1       5.317  -1.447   5.434  0.00  0.00     0.018 C 
ENDBRANCH   1   8
TORSDOF 1
ENDMDL
