MODEL 1
REMARK minimizedAffinity -3.51048899
REMARK minimizedRMSD -1
REMARK  1 active torsions:
REMARK  status: ('A' for Active; 'I' for Inactive)
REMARK    1  A    between atoms: C1_2  and  C2_3 
ROOT
ATOM      1  C2  UNL d   1       5.200   0.302   4.833  0.00  0.00    -0.081 A 
ATOM      2  C3  UNL d   1       4.892   1.050   3.690  0.00  0.00     0.006 A 
ATOM      3  C4  UNL d   1       5.138   2.425   3.656  0.00  0.00     0.002 A 
ATOM      4  C5  UNL d   1       5.702   3.072   4.760  0.00  0.00    -0.080 A 
ATOM      5  C6  UNL d   1       5.999   4.542   4.725  0.00  0.00     0.076 C 
ATOM      6  C7  UNL d   1       5.994   2.328   5.908  0.00  0.00     0.002 A 
ATOM      7  C8  UNL d   1       5.748   0.954   5.943  0.00  0.00     0.006 A 
ENDROOT
BRANCH   1   8
ATOM      8  C1  UNL d   1       4.997  -1.192   4.849  0.00  0.00     0.054 C 
ATOM      9  C   UNL d   1       5.759  -1.842   5.995  0.00  0.00     0.018 C 
ENDBRANCH   1   8
TORSDOF 1
ENDMDL
