MODEL 1
REMARK minimizedAffinity -2.88413596
REMARK minimizedRMSD -1
REMARK  1 active torsions:
REMARK  status: ('A' for Active; 'I' for Inactive)
REMARK    1  A    between atoms: C1_2  and  C2_3 
ROOT
ATOM      1  C2  UNL d   1       5.940   0.307   4.135  0.00  0.00    -0.081 A 
ATOM      2  C3  UNL d   1       5.993   1.146   3.015  0.00  0.00     0.006 A 
ATOM      3  C4  UNL d   1       6.000   2.534   3.170  0.00  0.00     0.002 A 
ATOM      4  C5  UNL d   1       5.962   3.106   4.446  0.00  0.00    -0.080 A 
ATOM      5  C6  UNL d   1       5.999   4.595   4.627  0.00  0.00     0.076 C 
ATOM      6  C7  UNL d   1       5.891   2.269   5.564  0.00  0.00     0.002 A 
ATOM      7  C8  UNL d   1       5.883   0.881   5.410  0.00  0.00     0.006 A 
ENDROOT
BRANCH   1   8
ATOM      8  C1  UNL d   1       5.997  -1.191   3.975  0.00  0.00     0.054 C 
ATOM      9  C   UNL d   1       5.250  -1.897   5.097  0.00  0.00     0.018 C 
ENDBRANCH   1   8
TORSDOF 1
ENDMDL
