MODEL 1
REMARK minimizedAffinity -2.27694774
REMARK minimizedRMSD -1
REMARK  1 active torsions:
REMARK  status: ('A' for Active; 'I' for Inactive)
REMARK    1  A    between atoms: C1_2  and  C2_3 
ROOT
ATOM      1  C2  UNL d   1       5.936   0.612   4.366  0.00  0.00    -0.081 A 
ATOM      2  C3  UNL d   1       5.948   1.426   5.505  0.00  0.00     0.006 A 
ATOM      3  C4  UNL d   1       5.980   2.817   5.382  0.00  0.00     0.002 A 
ATOM      4  C5  UNL d   1       5.993   3.417   4.118  0.00  0.00    -0.080 A 
ATOM      5  C6  UNL d   1       5.997   4.910   3.971  0.00  0.00     0.076 C 
ATOM      6  C7  UNL d   1       5.999   2.604   2.980  0.00  0.00     0.002 A 
ATOM      7  C8  UNL d   1       5.968   1.213   3.103  0.00  0.00     0.006 A 
ENDROOT
BRANCH   1   8
ATOM      8  C1  UNL d   1       5.836  -0.886   4.496  0.00  0.00     0.054 C 
ATOM      9  C   UNL d   1       5.983  -1.328   5.945  0.00  0.00     0.018 C 
ENDBRANCH   1   8
TORSDOF 1
ENDMDL
