MODEL 1
REMARK minimizedAffinity -3.76668954
REMARK minimizedRMSD -1
REMARK  1 active torsions:
REMARK  status: ('A' for Active; 'I' for Inactive)
REMARK    1  A    between atoms: C1_2  and  C2_3 
ROOT
ATOM      1  C2  UNL d   1       5.532  -0.395   4.482  0.00  0.00    -0.081 A 
ATOM      2  C3  UNL d   1       5.406   0.328   5.675  0.00  0.00     0.006 A 
ATOM      3  C4  UNL d   1       5.567   1.715   5.683  0.00  0.00     0.002 A 
ATOM      4  C5  UNL d   1       5.848   2.404   4.499  0.00  0.00    -0.080 A 
ATOM      5  C6  UNL d   1       5.992   3.897   4.489  0.00  0.00     0.076 C 
ATOM      6  C7  UNL d   1       5.990   1.681   3.310  0.00  0.00     0.002 A 
ATOM      7  C8  UNL d   1       5.831   0.294   3.301  0.00  0.00     0.006 A 
ENDROOT
BRANCH   1   8
ATOM      8  C1  UNL d   1       5.295  -1.883   4.458  0.00  0.00     0.054 C 
ATOM      9  C   UNL d   1       5.996  -2.573   5.620  0.00  0.00     0.018 C 
ENDBRANCH   1   8
TORSDOF 1
ENDMDL
