MODEL 1
REMARK minimizedAffinity 2.24370146
REMARK minimizedRMSD -1
REMARK  1 active torsions:
REMARK  status: ('A' for Active; 'I' for Inactive)
REMARK    1  A    between atoms: C1_2  and  C2_3 
ROOT
ATOM      1  C2  UNL d   1       5.944   2.052   4.262  0.00  0.00    -0.081 A 
ATOM      2  C3  UNL d   1       5.965   1.154   3.188  0.00  0.00     0.006 A 
ATOM      3  C4  UNL d   1       5.989  -0.224   3.417  0.00  0.00     0.002 A 
ATOM      4  C5  UNL d   1       5.985  -0.727   4.722  0.00  0.00    -0.080 A 
ATOM      5  C6  UNL d   1       5.980  -2.204   4.981  0.00  0.00     0.076 C 
ATOM      6  C7  UNL d   1       5.982   0.170   5.796  0.00  0.00     0.002 A 
ATOM      7  C8  UNL d   1       5.958   1.548   5.567  0.00  0.00     0.006 A 
ENDROOT
BRANCH   1   8
ATOM      8  C1  UNL d   1       5.852   3.537   4.019  0.00  0.00     0.054 C 
ATOM      9  C   UNL d   1       5.987   3.864   2.538  0.00  0.00     0.018 C 
ENDBRANCH   1   8
TORSDOF 1
ENDMDL
