MODEL 1
REMARK minimizedAffinity -4.05415106
REMARK minimizedRMSD -1
REMARK  1 active torsions:
REMARK  status: ('A' for Active; 'I' for Inactive)
REMARK    1  A    between atoms: C1_2  and  C2_3 
ROOT
ATOM      1  C2  UNL d   1       5.409   1.698   3.952  0.00  0.00    -0.081 A 
ATOM      2  C3  UNL d   1       5.517   1.628   5.347  0.00  0.00     0.006 A 
ATOM      3  C4  UNL d   1       5.588   0.390   5.990  0.00  0.00     0.002 A 
ATOM      4  C5  UNL d   1       5.559  -0.797   5.250  0.00  0.00    -0.080 A 
ATOM      5  C6  UNL d   1       5.664  -2.131   5.926  0.00  0.00     0.076 C 
ATOM      6  C7  UNL d   1       5.433  -0.727   3.859  0.00  0.00     0.002 A 
ATOM      7  C8  UNL d   1       5.362   0.510   3.215  0.00  0.00     0.006 A 
ENDROOT
BRANCH   1   8
ATOM      8  C1  UNL d   1       5.398   3.032   3.250  0.00  0.00     0.054 C 
ATOM      9  C   UNL d   1       6.000   4.123   4.125  0.00  0.00     0.018 C 
ENDBRANCH   1   8
TORSDOF 1
ENDMDL
