MODEL 1
REMARK minimizedAffinity 1.66471112
REMARK minimizedRMSD -1
REMARK  1 active torsions:
REMARK  status: ('A' for Active; 'I' for Inactive)
REMARK    1  A    between atoms: C3_4  and  O_7 
ROOT
ATOM      1  C   UNL d   1       0.863   4.169   2.790  0.00  0.00    -0.033 A 
ATOM      2  C1  UNL d   1       0.043   3.516   3.712  0.00  0.00     0.039 A 
ATOM      3  C2  UNL d   1      -0.583   2.316   3.366  0.00  0.00    -0.080 A 
ATOM      4  C3  UNL d   1      -0.380   1.781   2.097  0.00  0.00     0.150 A 
ATOM      5  C4  UNL d   1       0.439   2.425   1.175  0.00  0.00    -0.007 A 
ATOM      6  C5  UNL d   1       1.062   3.623   1.522  0.00  0.00     0.039 A 
ENDROOT
BRANCH   4   7
ATOM      7  O   UNL d   1      -0.973   0.616   1.712  0.00  0.00    -0.526 OA
ATOM      8  H5  UNL d   1      -1.532   0.299   2.441  0.00  0.00     0.418 HD
ENDBRANCH   4   7
TORSDOF 1
ENDMDL
