MODEL 1
REMARK minimizedAffinity 0.903583884
REMARK minimizedRMSD -1
REMARK  1 active torsions:
REMARK  status: ('A' for Active; 'I' for Inactive)
REMARK    1  A    between atoms: C3_4  and  O_7 
ROOT
ATOM      1  C   UNL d   1       5.220  -5.934  -5.997  0.00  0.00    -0.033 A 
ATOM      2  C1  UNL d   1       6.000  -4.847  -5.599  0.00  0.00     0.039 A 
ATOM      3  C2  UNL d   1       5.435  -3.821  -4.839  0.00  0.00    -0.080 A 
ATOM      4  C3  UNL d   1       4.092  -3.894  -4.482  0.00  0.00     0.150 A 
ATOM      5  C4  UNL d   1       3.309  -4.977  -4.871  0.00  0.00    -0.007 A 
ATOM      6  C5  UNL d   1       3.875  -6.000  -5.631  0.00  0.00     0.039 A 
ENDROOT
BRANCH   4   7
ATOM      7  O   UNL d   1       3.495  -2.915  -3.745  0.00  0.00    -0.526 OA
ATOM      8  H5  UNL d   1       4.150  -2.217  -3.573  0.00  0.00     0.418 HD
ENDBRANCH   4   7
TORSDOF 1
ENDMDL
