MODEL 1
REMARK minimizedAffinity -0.785245657
REMARK minimizedRMSD -1
REMARK  1 active torsions:
REMARK  status: ('A' for Active; 'I' for Inactive)
REMARK    1  A    between atoms: C3_4  and  O_7 
ROOT
ATOM      1  C   UNL d   1       4.877  -5.620  -3.442  0.00  0.00    -0.033 A 
ATOM      2  C1  UNL d   1       3.630  -5.246  -2.936  0.00  0.00     0.039 A 
ATOM      3  C2  UNL d   1       2.509  -5.246  -3.768  0.00  0.00    -0.080 A 
ATOM      4  C3  UNL d   1       2.647  -5.622  -5.101  0.00  0.00     0.150 A 
ATOM      5  C4  UNL d   1       3.885  -6.000  -5.611  0.00  0.00    -0.007 A 
ATOM      6  C5  UNL d   1       5.004  -5.999  -4.779  0.00  0.00     0.039 A 
ENDROOT
BRANCH   4   7
ATOM      7  O   UNL d   1       1.582  -5.633  -5.953  0.00  0.00    -0.526 OA
ATOM      8  H5  UNL d   1       0.799  -5.321  -5.470  0.00  0.00     0.418 HD
ENDBRANCH   4   7
TORSDOF 1
ENDMDL
