MODEL 1
REMARK minimizedAffinity 9.59479237
REMARK minimizedRMSD -1
REMARK  1 active torsions:
REMARK  status: ('A' for Active; 'I' for Inactive)
REMARK    1  A    between atoms: C3_4  and  O_7 
ROOT
ATOM      1  C   UNL d   1      -0.020   2.635   2.397  0.00  0.00    -0.033 A 
ATOM      2  C1  UNL d   1       0.517   3.491   3.360  0.00  0.00     0.039 A 
ATOM      3  C2  UNL d   1      -0.186   3.748   4.538  0.00  0.00    -0.080 A 
ATOM      4  C3  UNL d   1      -1.423   3.142   4.741  0.00  0.00     0.150 A 
ATOM      5  C4  UNL d   1      -1.962   2.286   3.787  0.00  0.00    -0.007 A 
ATOM      6  C5  UNL d   1      -1.259   2.031   2.611  0.00  0.00     0.039 A 
ENDROOT
BRANCH   4   7
ATOM      7  O   UNL d   1      -2.149   3.366   5.873  0.00  0.00    -0.526 OA
ATOM      8  H5  UNL d   1      -1.666   4.001   6.428  0.00  0.00     0.418 HD
ENDBRANCH   4   7
TORSDOF 1
ENDMDL
