MODEL 1
REMARK minimizedAffinity 1.20630193
REMARK minimizedRMSD -1
REMARK  1 active torsions:
REMARK  status: ('A' for Active; 'I' for Inactive)
REMARK    1  A    between atoms: C3_4  and  O_7 
ROOT
ATOM      1  C   UNL d   1       0.599   3.490   2.453  0.00  0.00    -0.033 A 
ATOM      2  C1  UNL d   1      -0.444   3.265   3.354  0.00  0.00     0.039 A 
ATOM      3  C2  UNL d   1      -1.439   2.333   3.054  0.00  0.00    -0.080 A 
ATOM      4  C3  UNL d   1      -1.380   1.632   1.853  0.00  0.00     0.150 A 
ATOM      5  C4  UNL d   1      -0.342   1.848   0.952  0.00  0.00    -0.007 A 
ATOM      6  C5  UNL d   1       0.651   2.780   1.253  0.00  0.00     0.039 A 
ENDROOT
BRANCH   4   7
ATOM      7  O   UNL d   1      -2.331   0.716   1.514  0.00  0.00    -0.526 OA
ATOM      8  H5  UNL d   1      -3.001   0.693   2.218  0.00  0.00     0.418 HD
ENDBRANCH   4   7
TORSDOF 1
ENDMDL
