MODEL 1
REMARK minimizedAffinity 12.6487007
REMARK minimizedRMSD -1
REMARK  1 active torsions:
REMARK  status: ('A' for Active; 'I' for Inactive)
REMARK    1  A    between atoms: C3_4  and  O_7 
ROOT
ATOM      1  C   UNL d   1       0.709  -4.791  -4.451  0.00  0.00    -0.033 A 
ATOM      2  C1  UNL d   1       0.853  -5.637  -5.553  0.00  0.00     0.039 A 
ATOM      3  C2  UNL d   1       2.127  -5.993  -5.999  0.00  0.00    -0.080 A 
ATOM      4  C3  UNL d   1       3.247  -5.499  -5.336  0.00  0.00     0.150 A 
ATOM      5  C4  UNL d   1       3.110  -4.659  -4.235  0.00  0.00    -0.007 A 
ATOM      6  C5  UNL d   1       1.837  -4.303  -3.792  0.00  0.00     0.039 A 
ENDROOT
BRANCH   4   7
ATOM      7  O   UNL d   1       4.511  -5.815  -5.737  0.00  0.00    -0.526 OA
ATOM      8  H5  UNL d   1       4.451  -6.379  -6.526  0.00  0.00     0.418 HD
ENDBRANCH   4   7
TORSDOF 1
ENDMDL
