MODEL 1
REMARK minimizedAffinity -3.69874191
REMARK minimizedRMSD -1
REMARK  1 active torsions:
REMARK  status: ('A' for Active; 'I' for Inactive)
REMARK    1  A    between atoms: C3_4  and  O_7 
ROOT
ATOM      1  C   UNL d   1      -5.599   0.692   2.254  0.00  0.00    -0.033 A 
ATOM      2  C1  UNL d   1      -5.962  -0.107   3.339  0.00  0.00     0.039 A 
ATOM      3  C2  UNL d   1      -4.994  -0.858   4.010  0.00  0.00    -0.080 A 
ATOM      4  C3  UNL d   1      -3.669  -0.799   3.586  0.00  0.00     0.150 A 
ATOM      5  C4  UNL d   1      -3.300  -0.001   2.508  0.00  0.00    -0.007 A 
ATOM      6  C5  UNL d   1      -4.268   0.747   1.839  0.00  0.00     0.039 A 
ENDROOT
BRANCH   4   7
ATOM      7  O   UNL d   1      -2.690  -1.517   4.206  0.00  0.00    -0.526 OA
ATOM      8  H5  UNL d   1      -3.096  -2.043   4.915  0.00  0.00     0.418 HD
ENDBRANCH   4   7
TORSDOF 1
ENDMDL
