MODEL 1
REMARK minimizedAffinity 5.43456459
REMARK minimizedRMSD -1
REMARK  1 active torsions:
REMARK  status: ('A' for Active; 'I' for Inactive)
REMARK    1  A    between atoms: C3_4  and  O_7 
ROOT
ATOM      1  C   UNL d   1       1.823   2.253  -4.803  0.00  0.00    -0.033 A 
ATOM      2  C1  UNL d   1       2.535   2.361  -6.000  0.00  0.00     0.039 A 
ATOM      3  C2  UNL d   1       3.926   2.242  -6.000  0.00  0.00    -0.080 A 
ATOM      4  C3  UNL d   1       4.592   2.015  -4.799  0.00  0.00     0.150 A 
ATOM      5  C4  UNL d   1       3.890   1.902  -3.604  0.00  0.00    -0.007 A 
ATOM      6  C5  UNL d   1       2.500   2.022  -3.605  0.00  0.00     0.039 A 
ENDROOT
BRANCH   4   7
ATOM      7  O   UNL d   1       5.950   1.897  -4.748  0.00  0.00    -0.526 OA
ATOM      8  H5  UNL d   1       6.303   2.025  -5.644  0.00  0.00     0.418 HD
ENDBRANCH   4   7
TORSDOF 1
ENDMDL
