MODEL 1
REMARK minimizedAffinity -3.52439475
REMARK minimizedRMSD -1
REMARK  1 active torsions:
REMARK  status: ('A' for Active; 'I' for Inactive)
REMARK    1  A    between atoms: C3_4  and  O_7 
ROOT
ATOM      1  C   UNL d   1       2.353   2.719   1.241  0.00  0.00    -0.033 A 
ATOM      2  C1  UNL d   1       1.277   2.030   0.676  0.00  0.00     0.039 A 
ATOM      3  C2  UNL d   1      -0.027   2.309   1.090  0.00  0.00    -0.080 A 
ATOM      4  C3  UNL d   1      -0.242   3.278   2.066  0.00  0.00     0.150 A 
ATOM      5  C4  UNL d   1       0.825   3.971   2.630  0.00  0.00    -0.007 A 
ATOM      6  C5  UNL d   1       2.126   3.690   2.216  0.00  0.00     0.039 A 
ENDROOT
BRANCH   4   7
ATOM      7  O   UNL d   1      -1.496   3.581   2.506  0.00  0.00    -0.526 OA
ATOM      8  H5  UNL d   1      -2.130   3.003   2.048  0.00  0.00     0.418 HD
ENDBRANCH   4   7
TORSDOF 1
ENDMDL
