MODEL 1
REMARK minimizedAffinity 2.75223804
REMARK minimizedRMSD -1
REMARK  1 active torsions:
REMARK  status: ('A' for Active; 'I' for Inactive)
REMARK    1  A    between atoms: C3_4  and  O_7 
ROOT
ATOM      1  C   UNL d   1      -0.576   4.388   3.348  0.00  0.00    -0.033 A 
ATOM      2  C1  UNL d   1       0.233   4.549   2.222  0.00  0.00     0.039 A 
ATOM      3  C2  UNL d   1       0.536   3.451   1.415  0.00  0.00    -0.080 A 
ATOM      4  C3  UNL d   1       0.023   2.199   1.744  0.00  0.00     0.150 A 
ATOM      5  C4  UNL d   1      -0.787   2.032   2.863  0.00  0.00    -0.007 A 
ATOM      6  C5  UNL d   1      -1.087   3.130   3.668  0.00  0.00     0.039 A 
ENDROOT
BRANCH   4   7
ATOM      7  O   UNL d   1       0.295   1.097   0.990  0.00  0.00    -0.526 OA
ATOM      8  H5  UNL d   1       0.890   1.358   0.267  0.00  0.00     0.418 HD
ENDBRANCH   4   7
TORSDOF 1
ENDMDL
