MODEL 1
REMARK minimizedAffinity -3.01286912
REMARK minimizedRMSD -1
REMARK  1 active torsions:
REMARK  status: ('A' for Active; 'I' for Inactive)
REMARK    1  A    between atoms: C3_4  and  O_7 
ROOT
ATOM      1  C   UNL d   1       5.444   2.409  -4.139  0.00  0.00    -0.033 A 
ATOM      2  C1  UNL d   1       5.279   2.628  -5.508  0.00  0.00     0.039 A 
ATOM      3  C2  UNL d   1       4.058   3.095  -6.000  0.00  0.00    -0.080 A 
ATOM      4  C3  UNL d   1       3.013   3.340  -5.114  0.00  0.00     0.150 A 
ATOM      5  C4  UNL d   1       3.172   3.127  -3.748  0.00  0.00    -0.007 A 
ATOM      6  C5  UNL d   1       4.391   2.660  -3.259  0.00  0.00     0.039 A 
ENDROOT
BRANCH   4   7
ATOM      7  O   UNL d   1       1.802   3.791  -5.548  0.00  0.00    -0.526 OA
ATOM      8  H5  UNL d   1       1.830   3.864  -6.516  0.00  0.00     0.418 HD
ENDBRANCH   4   7
TORSDOF 1
ENDMDL
