MODEL 1
REMARK minimizedAffinity 0.69928658
REMARK minimizedRMSD -1
REMARK  1 active torsions:
REMARK  status: ('A' for Active; 'I' for Inactive)
REMARK    1  A    between atoms: C3_4  and  O_7 
ROOT
ATOM      1  C   UNL d   1      -3.026  -1.318   3.243  0.00  0.00    -0.033 A 
ATOM      2  C1  UNL d   1      -3.339  -0.120   2.598  0.00  0.00     0.039 A 
ATOM      3  C2  UNL d   1      -2.449   0.432   1.675  0.00  0.00    -0.080 A 
ATOM      4  C3  UNL d   1      -1.250  -0.223   1.406  0.00  0.00     0.150 A 
ATOM      5  C4  UNL d   1      -0.933  -1.418   2.043  0.00  0.00    -0.007 A 
ATOM      6  C5  UNL d   1      -1.823  -1.968   2.964  0.00  0.00     0.039 A 
ENDROOT
BRANCH   4   7
ATOM      7  O   UNL d   1      -0.347   0.280   0.517  0.00  0.00    -0.526 OA
ATOM      8  H5  UNL d   1      -0.688   1.124   0.177  0.00  0.00     0.418 HD
ENDBRANCH   4   7
TORSDOF 1
ENDMDL
