MODEL 1
REMARK minimizedAffinity -0.750666082
REMARK minimizedRMSD -1
REMARK  1 active torsions:
REMARK  status: ('A' for Active; 'I' for Inactive)
REMARK    1  A    between atoms: C3_4  and  O_7 
ROOT
ATOM      1  C   UNL d   1       2.872   2.220  -3.098  0.00  0.00    -0.033 A 
ATOM      2  C1  UNL d   1       4.202   2.120  -2.685  0.00  0.00     0.039 A 
ATOM      3  C2  UNL d   1       5.236   2.400  -3.580  0.00  0.00    -0.080 A 
ATOM      4  C3  UNL d   1       4.927   2.780  -4.883  0.00  0.00     0.150 A 
ATOM      5  C4  UNL d   1       3.605   2.885  -5.301  0.00  0.00    -0.007 A 
ATOM      6  C5  UNL d   1       2.573   2.604  -4.406  0.00  0.00     0.039 A 
ENDROOT
BRANCH   4   7
ATOM      7  O   UNL d   1       5.902   3.059  -5.794  0.00  0.00    -0.526 OA
ATOM      8  H5  UNL d   1       6.767   2.917  -5.373  0.00  0.00     0.418 HD
ENDBRANCH   4   7
TORSDOF 1
ENDMDL
