MODEL 1
REMARK minimizedAffinity 1.35846126
REMARK minimizedRMSD -1
REMARK  1 active torsions:
REMARK  status: ('A' for Active; 'I' for Inactive)
REMARK    1  A    between atoms: C3_4  and  O_7 
ROOT
ATOM      1  C   UNL d   1      -1.002   0.770  -0.154  0.00  0.00    -0.033 A 
ATOM      2  C1  UNL d   1      -1.721   1.588   0.720  0.00  0.00     0.039 A 
ATOM      3  C2  UNL d   1      -1.053   2.318   1.705  0.00  0.00    -0.080 A 
ATOM      4  C3  UNL d   1       0.332   2.221   1.806  0.00  0.00     0.150 A 
ATOM      5  C4  UNL d   1       1.055   1.411   0.936  0.00  0.00    -0.007 A 
ATOM      6  C5  UNL d   1       0.386   0.683  -0.046  0.00  0.00     0.039 A 
ENDROOT
BRANCH   4   7
ATOM      7  O   UNL d   1       1.027   2.910   2.755  0.00  0.00    -0.526 OA
ATOM      8  H5  UNL d   1       0.394   3.405   3.301  0.00  0.00     0.418 HD
ENDBRANCH   4   7
TORSDOF 1
ENDMDL
