MODEL 1
REMARK minimizedAffinity 3.6066041
REMARK minimizedRMSD -1
REMARK  1 active torsions:
REMARK  status: ('A' for Active; 'I' for Inactive)
REMARK    1  A    between atoms: C3_4  and  O_7 
ROOT
ATOM      1  C   UNL d   1       2.990   2.240  -3.175  0.00  0.00    -0.033 A 
ATOM      2  C1  UNL d   1       4.310   2.072  -2.751  0.00  0.00     0.039 A 
ATOM      3  C2  UNL d   1       5.337   1.955  -3.690  0.00  0.00    -0.080 A 
ATOM      4  C3  UNL d   1       5.032   2.008  -5.047  0.00  0.00     0.150 A 
ATOM      5  C4  UNL d   1       3.720   2.179  -5.477  0.00  0.00    -0.007 A 
ATOM      6  C5  UNL d   1       2.695   2.295  -4.538  0.00  0.00     0.039 A 
ENDROOT
BRANCH   4   7
ATOM      7  O   UNL d   1       6.000   1.893  -6.000  0.00  0.00    -0.526 OA
ATOM      8  H5  UNL d   1       6.853   1.751  -5.557  0.00  0.00     0.418 HD
ENDBRANCH   4   7
TORSDOF 1
ENDMDL
