MODEL 1
REMARK minimizedAffinity 2.18340564
REMARK minimizedRMSD -1
REMARK  1 active torsions:
REMARK  status: ('A' for Active; 'I' for Inactive)
REMARK    1  A    between atoms: C3_4  and  O_7 
ROOT
ATOM      1  C   UNL d   1      -1.624   3.872   3.060  0.00  0.00    -0.033 A 
ATOM      2  C1  UNL d   1      -0.961   4.055   4.275  0.00  0.00     0.039 A 
ATOM      3  C2  UNL d   1       0.435   4.062   4.316  0.00  0.00    -0.080 A 
ATOM      4  C3  UNL d   1       1.154   3.886   3.138  0.00  0.00     0.150 A 
ATOM      5  C4  UNL d   1       0.500   3.708   1.923  0.00  0.00    -0.007 A 
ATOM      6  C5  UNL d   1      -0.894   3.701   1.884  0.00  0.00     0.039 A 
ENDROOT
BRANCH   4   7
ATOM      7  O   UNL d   1       2.517   3.881   3.129  0.00  0.00    -0.526 OA
ATOM      8  H5  UNL d   1       2.831   3.986   4.042  0.00  0.00     0.418 HD
ENDBRANCH   4   7
TORSDOF 1
ENDMDL
