MODEL 1
REMARK minimizedAffinity -3.99417019
REMARK minimizedRMSD -1
REMARK  1 active torsions:
REMARK  status: ('A' for Active; 'I' for Inactive)
REMARK    1  A    between atoms: C3_4  and  O_7 
ROOT
ATOM      1  C   UNL d   1       5.544   2.553  -4.212  0.00  0.00    -0.033 A 
ATOM      2  C1  UNL d   1       4.292   2.647  -3.601  0.00  0.00     0.039 A 
ATOM      3  C2  UNL d   1       3.284   3.416  -4.184  0.00  0.00    -0.080 A 
ATOM      4  C3  UNL d   1       3.539   4.086  -5.378  0.00  0.00     0.150 A 
ATOM      5  C4  UNL d   1       4.783   3.994  -5.995  0.00  0.00    -0.007 A 
ATOM      6  C5  UNL d   1       5.789   3.226  -5.410  0.00  0.00     0.039 A 
ENDROOT
BRANCH   4   7
ATOM      7  O   UNL d   1       2.588   4.853  -5.983  0.00  0.00    -0.526 OA
ATOM      8  H5  UNL d   1       1.790   4.846  -5.429  0.00  0.00     0.418 HD
ENDBRANCH   4   7
TORSDOF 1
ENDMDL
