MODEL 1
REMARK minimizedAffinity -3.05454278
REMARK minimizedRMSD -1
REMARK  1 active torsions:
REMARK  status: ('A' for Active; 'I' for Inactive)
REMARK    1  A    between atoms: C3_4  and  O_7 
ROOT
ATOM      1  C   UNL d   1       5.802   2.902  -3.529  0.00  0.00    -0.033 A 
ATOM      2  C1  UNL d   1       5.630   2.906  -4.915  0.00  0.00     0.039 A 
ATOM      3  C2  UNL d   1       4.346   2.978  -5.461  0.00  0.00    -0.080 A 
ATOM      4  C3  UNL d   1       3.245   3.046  -4.611  0.00  0.00     0.150 A 
ATOM      5  C4  UNL d   1       3.410   3.046  -3.230  0.00  0.00    -0.007 A 
ATOM      6  C5  UNL d   1       4.692   2.974  -2.687  0.00  0.00     0.039 A 
ENDROOT
BRANCH   4   7
ATOM      7  O   UNL d   1       1.973   3.112  -5.097  0.00  0.00    -0.526 OA
ATOM      8  H5  UNL d   1       2.012   3.074  -6.067  0.00  0.00     0.418 HD
ENDBRANCH   4   7
TORSDOF 1
ENDMDL
