MODEL 1
REMARK minimizedAffinity 4.40212345
REMARK minimizedRMSD -1
REMARK  1 active torsions:
REMARK  status: ('A' for Active; 'I' for Inactive)
REMARK    1  A    between atoms: C3_4  and  O_7 
ROOT
ATOM      1  C   UNL d   1       0.847  -3.471  -2.164  0.00  0.00    -0.033 A 
ATOM      2  C1  UNL d   1       0.233  -4.246  -3.149  0.00  0.00     0.039 A 
ATOM      3  C2  UNL d   1      -1.138  -4.505  -3.083  0.00  0.00    -0.080 A 
ATOM      4  C3  UNL d   1      -1.881  -3.983  -2.028  0.00  0.00     0.150 A 
ATOM      5  C4  UNL d   1      -1.277  -3.207  -1.045  0.00  0.00    -0.007 A 
ATOM      6  C5  UNL d   1       0.092  -2.950  -1.112  0.00  0.00     0.039 A 
ENDROOT
BRANCH   4   7
ATOM      7  O   UNL d   1      -3.221  -4.213  -1.918  0.00  0.00    -0.526 OA
ATOM      8  H5  UNL d   1      -3.495  -4.788  -2.651  0.00  0.00     0.418 HD
ENDBRANCH   4   7
TORSDOF 1
ENDMDL
