MODEL 1
REMARK minimizedAffinity 2.64189887
REMARK minimizedRMSD -1
REMARK  0 active torsions:
REMARK  status: ('A' for Active; 'I' for Inactive)
ROOT
ATOM      1  C   UNL d   1       4.519  -1.711   1.022  0.00  0.00     0.077 C 
ATOM      2  C1  UNL d   1       3.196  -1.056   1.289  0.00  0.00    -0.074 A 
ATOM      3  C2  UNL d   1       3.124   0.284   1.681  0.00  0.00    -0.005 A 
ATOM      4  C3  UNL d   1       1.886   0.882   1.916  0.00  0.00     0.006 A 
ATOM      5  C4  UNL d   1       0.710   0.147   1.762  0.00  0.00    -0.005 A 
ATOM      6  C5  UNL d   1       0.762  -1.194   1.369  0.00  0.00    -0.074 A 
ATOM      7  C6  UNL d   1      -0.492  -1.996   1.188  0.00  0.00     0.077 C 
ATOM      8  C7  UNL d   1       2.010  -1.786   1.128  0.00  0.00    -0.001 A 
ENDROOT
TORSDOF 0
ENDMDL
