MODEL 1
REMARK minimizedAffinity 0.63903749
REMARK minimizedRMSD -1
REMARK  0 active torsions:
REMARK  status: ('A' for Active; 'I' for Inactive)
ROOT
ATOM      1  C   UNL d   1       1.592  -2.439  -2.299  0.00  0.00     0.077 C 
ATOM      2  C1  UNL d   1       0.468  -2.479  -1.307  0.00  0.00    -0.074 A 
ATOM      3  C2  UNL d   1       0.697  -2.228   0.050  0.00  0.00    -0.005 A 
ATOM      4  C3  UNL d   1      -0.360  -2.259   0.960  0.00  0.00     0.006 A 
ATOM      5  C4  UNL d   1      -1.654  -2.541   0.523  0.00  0.00    -0.005 A 
ATOM      6  C5  UNL d   1      -1.903  -2.794  -0.830  0.00  0.00    -0.074 A 
ATOM      7  C6  UNL d   1      -3.291  -3.088  -1.318  0.00  0.00     0.077 C 
ATOM      8  C7  UNL d   1      -0.837  -2.753  -1.739  0.00  0.00    -0.001 A 
ENDROOT
TORSDOF 0
ENDMDL
