MODEL 1
REMARK minimizedAffinity 1.06497288
REMARK minimizedRMSD -1
REMARK  0 active torsions:
REMARK  status: ('A' for Active; 'I' for Inactive)
ROOT
ATOM      1  C   UNL d   1       2.988   0.724   0.405  0.00  0.00     0.077 C 
ATOM      2  C1  UNL d   1       2.580  -0.539   1.104  0.00  0.00    -0.074 A 
ATOM      3  C2  UNL d   1       3.435  -1.161   2.020  0.00  0.00    -0.005 A 
ATOM      4  C3  UNL d   1       3.038  -2.330   2.669  0.00  0.00     0.006 A 
ATOM      5  C4  UNL d   1       1.786  -2.888   2.409  0.00  0.00    -0.005 A 
ATOM      6  C5  UNL d   1       0.918  -2.280   1.497  0.00  0.00    -0.074 A 
ATOM      7  C6  UNL d   1      -0.435  -2.861   1.213  0.00  0.00     0.077 C 
ATOM      8  C7  UNL d   1       1.321  -1.101   0.854  0.00  0.00    -0.001 A 
ENDROOT
TORSDOF 0
ENDMDL
