MODEL 1
REMARK minimizedAffinity 1.00903261
REMARK minimizedRMSD -1
REMARK  0 active torsions:
REMARK  status: ('A' for Active; 'I' for Inactive)
ROOT
ATOM      1  C   UNL d   1       2.641   1.143   0.698  0.00  0.00     0.077 C 
ATOM      2  C1  UNL d   1       2.044  -0.123   1.238  0.00  0.00    -0.074 A 
ATOM      3  C2  UNL d   1       2.808  -1.007   2.006  0.00  0.00    -0.005 A 
ATOM      4  C3  UNL d   1       2.237  -2.175   2.510  0.00  0.00     0.006 A 
ATOM      5  C4  UNL d   1       0.898  -2.471   2.251  0.00  0.00    -0.005 A 
ATOM      6  C5  UNL d   1       0.118  -1.598   1.486  0.00  0.00    -0.074 A 
ATOM      7  C6  UNL d   1      -1.325  -1.896   1.206  0.00  0.00     0.077 C 
ATOM      8  C7  UNL d   1       0.697  -0.423   0.989  0.00  0.00    -0.001 A 
ENDROOT
TORSDOF 0
ENDMDL
