MODEL 1
REMARK minimizedAffinity 11.5902634
REMARK minimizedRMSD -1
REMARK  0 active torsions:
REMARK  status: ('A' for Active; 'I' for Inactive)
ROOT
ATOM      1  C   UNL d   1       0.543  -2.294   1.852  0.00  0.00     0.077 C 
ATOM      2  C1  UNL d   1       1.562  -1.197   1.757  0.00  0.00    -0.074 A 
ATOM      3  C2  UNL d   1       1.589  -0.158   2.692  0.00  0.00    -0.005 A 
ATOM      4  C3  UNL d   1       2.549   0.850   2.597  0.00  0.00     0.006 A 
ATOM      5  C4  UNL d   1       3.490   0.828   1.567  0.00  0.00    -0.005 A 
ATOM      6  C5  UNL d   1       3.479  -0.204   0.623  0.00  0.00    -0.074 A 
ATOM      7  C6  UNL d   1       4.490  -0.247  -0.484  0.00  0.00     0.077 C 
ATOM      8  C7  UNL d   1       2.516  -1.216   0.730  0.00  0.00    -0.001 A 
ENDROOT
TORSDOF 0
ENDMDL
