MODEL 1
REMARK minimizedAffinity 1.627648
REMARK minimizedRMSD -1
REMARK  0 active torsions:
REMARK  status: ('A' for Active; 'I' for Inactive)
ROOT
ATOM      1  C   UNL d   1      -0.896  -2.007   1.297  0.00  0.00     0.077 C 
ATOM      2  C1  UNL d   1       0.348  -1.170   1.314  0.00  0.00    -0.074 A 
ATOM      3  C2  UNL d   1       0.293   0.194   1.618  0.00  0.00    -0.005 A 
ATOM      4  C3  UNL d   1       1.459   0.958   1.639  0.00  0.00     0.006 A 
ATOM      5  C4  UNL d   1       2.692   0.367   1.356  0.00  0.00    -0.005 A 
ATOM      6  C5  UNL d   1       2.767  -0.995   1.051  0.00  0.00    -0.074 A 
ATOM      7  C6  UNL d   1       4.084  -1.649   0.755  0.00  0.00     0.077 C 
ATOM      8  C7  UNL d   1       1.591  -1.758   1.039  0.00  0.00    -0.001 A 
ENDROOT
TORSDOF 0
ENDMDL
