MODEL 1
REMARK minimizedAffinity -1.23308969
REMARK minimizedRMSD -1
REMARK  0 active torsions:
REMARK  status: ('A' for Active; 'I' for Inactive)
ROOT
ATOM      1  C   UNL d   1       1.439   3.750  -0.291  0.00  0.00     0.077 C 
ATOM      2  C1  UNL d   1       1.221   2.420   0.367  0.00  0.00    -0.074 A 
ATOM      3  C2  UNL d   1      -0.066   1.983   0.695  0.00  0.00    -0.005 A 
ATOM      4  C3  UNL d   1      -0.255   0.739   1.298  0.00  0.00     0.006 A 
ATOM      5  C4  UNL d   1       0.841  -0.079   1.578  0.00  0.00    -0.005 A 
ATOM      6  C5  UNL d   1       2.135   0.341   1.256  0.00  0.00    -0.074 A 
ATOM      7  C6  UNL d   1       3.322  -0.530   1.541  0.00  0.00     0.077 C 
ATOM      8  C7  UNL d   1       2.316   1.589   0.644  0.00  0.00    -0.001 A 
ENDROOT
TORSDOF 0
ENDMDL
