MODEL 1
REMARK minimizedAffinity 13.6417704
REMARK minimizedRMSD -1
REMARK  1 active torsions:
REMARK  status: ('A' for Active; 'I' for Inactive)
REMARK    1  A    between atoms: C1_2  and  C2_3 
ROOT
ATOM      1  C2  UNL d   1      -0.050   1.930   0.108  0.00  0.00    -0.073 A 
ATOM      2  C3  UNL d   1       0.528   0.892  -0.633  0.00  0.00    -0.002 A 
ATOM      3  C4  UNL d   1      -0.274  -0.093  -1.211  0.00  0.00     0.004 A 
ATOM      4  C5  UNL d   1      -1.660  -0.047  -1.060  0.00  0.00    -0.004 A 
ATOM      5  C6  UNL d   1      -2.257   0.988  -0.333  0.00  0.00    -0.075 A 
ATOM      6  C7  UNL d   1      -3.746   1.051  -0.160  0.00  0.00     0.076 C 
ATOM      7  C8  UNL d   1      -1.445   1.972   0.246  0.00  0.00     0.001 A 
ENDROOT
BRANCH   1   8
ATOM      8  C1  UNL d   1       0.812   2.999   0.728  0.00  0.00     0.053 C 
ATOM      9  C   UNL d   1       0.605   4.353   0.067  0.00  0.00     0.018 C 
ENDBRANCH   1   8
TORSDOF 1
ENDMDL
