MODEL 1
REMARK minimizedAffinity 9.50962353
REMARK minimizedRMSD -1
REMARK  1 active torsions:
REMARK  status: ('A' for Active; 'I' for Inactive)
REMARK    1  A    between atoms: C1_2  and  C2_3 
ROOT
ATOM      1  C2  UNL d   1      -1.271   5.376   1.001  0.00  0.00    -0.073 A 
ATOM      2  C3  UNL d   1      -0.704   5.993  -0.120  0.00  0.00    -0.002 A 
ATOM      3  C4  UNL d   1       0.384   5.409  -0.771  0.00  0.00     0.004 A 
ATOM      4  C5  UNL d   1       0.911   4.202  -0.312  0.00  0.00    -0.004 A 
ATOM      5  C6  UNL d   1       0.352   3.565   0.800  0.00  0.00    -0.075 A 
ATOM      6  C7  UNL d   1       0.909   2.268   1.308  0.00  0.00     0.076 C 
ATOM      7  C8  UNL d   1      -0.739   4.159   1.450  0.00  0.00     0.001 A 
ENDROOT
BRANCH   1   8
ATOM      8  C1  UNL d   1      -2.450   5.999   1.703  0.00  0.00     0.053 C 
ATOM      9  C   UNL d   1      -2.294   5.968   3.216  0.00  0.00     0.018 C 
ENDBRANCH   1   8
TORSDOF 1
ENDMDL
