MODEL 1
REMARK minimizedAffinity 15.0185471
REMARK minimizedRMSD -1
REMARK  1 active torsions:
REMARK  status: ('A' for Active; 'I' for Inactive)
REMARK    1  A    between atoms: C1_2  and  C2_3 
ROOT
ATOM      1  C2  UNL d   1      -0.467   1.609  -0.520  0.00  0.00    -0.073 A 
ATOM      2  C3  UNL d   1      -1.843   1.634  -0.265  0.00  0.00    -0.002 A 
ATOM      3  C4  UNL d   1      -2.641   0.538  -0.593  0.00  0.00     0.004 A 
ATOM      4  C5  UNL d   1      -2.073  -0.597  -1.171  0.00  0.00    -0.004 A 
ATOM      5  C6  UNL d   1      -0.698  -0.646  -1.423  0.00  0.00    -0.075 A 
ATOM      6  C7  UNL d   1      -0.071  -1.859  -2.046  0.00  0.00     0.076 C 
ATOM      7  C8  UNL d   1       0.097   0.460  -1.093  0.00  0.00     0.001 A 
ENDROOT
BRANCH   1   8
ATOM      8  C1  UNL d   1       0.400   2.788  -0.162  0.00  0.00     0.053 C 
ATOM      9  C   UNL d   1      -0.022   3.428   1.151  0.00  0.00     0.018 C 
ENDBRANCH   1   8
TORSDOF 1
ENDMDL
