MODEL 1
REMARK minimizedAffinity -3.99521399
REMARK minimizedRMSD -1
REMARK  1 active torsions:
REMARK  status: ('A' for Active; 'I' for Inactive)
REMARK    1  A    between atoms: C1_2  and  C2_3 
ROOT
ATOM      1  C2  UNL d   1      -0.124   0.413  -1.466  0.00  0.00    -0.073 A 
ATOM      2  C3  UNL d   1       0.632  -0.427  -2.292  0.00  0.00    -0.002 A 
ATOM      3  C4  UNL d   1       1.675  -1.187  -1.759  0.00  0.00     0.004 A 
ATOM      4  C5  UNL d   1       1.966  -1.121  -0.397  0.00  0.00    -0.004 A 
ATOM      5  C6  UNL d   1       1.213  -0.297   0.447  0.00  0.00    -0.075 A 
ATOM      6  C7  UNL d   1       1.516  -0.213   1.914  0.00  0.00     0.076 C 
ATOM      7  C8  UNL d   1       0.170   0.465  -0.097  0.00  0.00     0.001 A 
ENDROOT
BRANCH   1   8
ATOM      8  C1  UNL d   1      -1.255   1.230  -2.036  0.00  0.00     0.053 C 
ATOM      9  C   UNL d   1      -0.760   2.279  -3.019  0.00  0.00     0.018 C 
ENDBRANCH   1   8
TORSDOF 1
ENDMDL
