MODEL 1
REMARK minimizedAffinity -0.419311196
REMARK minimizedRMSD -1
REMARK  1 active torsions:
REMARK  status: ('A' for Active; 'I' for Inactive)
REMARK    1  A    between atoms: C1_2  and  C2_3 
ROOT
ATOM      1  C2  UNL d   1      -0.301  -1.291   2.215  0.00  0.00    -0.073 A 
ATOM      2  C3  UNL d   1       0.964  -1.056   2.766  0.00  0.00    -0.002 A 
ATOM      3  C4  UNL d   1       1.880  -0.238   2.104  0.00  0.00     0.004 A 
ATOM      4  C5  UNL d   1       1.539   0.359   0.890  0.00  0.00    -0.004 A 
ATOM      5  C6  UNL d   1       0.276   0.146   0.329  0.00  0.00    -0.075 A 
ATOM      6  C7  UNL d   1      -0.106   0.778  -0.977  0.00  0.00     0.076 C 
ATOM      7  C8  UNL d   1      -0.638  -0.679   0.999  0.00  0.00     0.001 A 
ENDROOT
BRANCH   1   8
ATOM      8  C1  UNL d   1      -1.296  -2.169   2.929  0.00  0.00     0.053 C 
ATOM      9  C   UNL d   1      -0.962  -3.645   2.784  0.00  0.00     0.018 C 
ENDBRANCH   1   8
TORSDOF 1
ENDMDL
