MODEL 1
REMARK minimizedAffinity -1.48609519
REMARK minimizedRMSD -1
REMARK  1 active torsions:
REMARK  status: ('A' for Active; 'I' for Inactive)
REMARK    1  A    between atoms: C1_2  and  C2_3 
ROOT
ATOM      1  C2  UNL d   1      -0.312   0.438  -1.268  0.00  0.00    -0.073 A 
ATOM      2  C3  UNL d   1       0.558  -0.188  -2.168  0.00  0.00    -0.002 A 
ATOM      3  C4  UNL d   1       1.758  -0.742  -1.719  0.00  0.00     0.004 A 
ATOM      4  C5  UNL d   1       2.096  -0.683  -0.368  0.00  0.00    -0.004 A 
ATOM      5  C6  UNL d   1       1.234  -0.073   0.549  0.00  0.00    -0.075 A 
ATOM      6  C7  UNL d   1       1.585   0.001   2.006  0.00  0.00     0.076 C 
ATOM      7  C8  UNL d   1       0.033   0.484   0.091  0.00  0.00     0.001 A 
ENDROOT
BRANCH   1   8
ATOM      8  C1  UNL d   1      -1.611   1.032  -1.746  0.00  0.00     0.053 C 
ATOM      9  C   UNL d   1      -1.446   2.473  -2.202  0.00  0.00     0.018 C 
ENDBRANCH   1   8
TORSDOF 1
ENDMDL
