MODEL 1
REMARK minimizedAffinity -4.09065342
REMARK minimizedRMSD -1
REMARK  1 active torsions:
REMARK  status: ('A' for Active; 'I' for Inactive)
REMARK    1  A    between atoms: C1_2  and  C2_3 
ROOT
ATOM      1  C2  UNL d   1      -0.129   0.462  -0.679  0.00  0.00    -0.073 A 
ATOM      2  C3  UNL d   1      -1.503   0.512  -0.416  0.00  0.00    -0.002 A 
ATOM      3  C4  UNL d   1      -2.002   0.078   0.812  0.00  0.00     0.004 A 
ATOM      4  C5  UNL d   1      -1.134  -0.403   1.792  0.00  0.00    -0.004 A 
ATOM      5  C6  UNL d   1       0.244  -0.450   1.553  0.00  0.00    -0.075 A 
ATOM      6  C7  UNL d   1       1.191  -0.967   2.595  0.00  0.00     0.076 C 
ATOM      7  C8  UNL d   1       0.737  -0.015   0.315  0.00  0.00     0.001 A 
ENDROOT
BRANCH   1   8
ATOM      8  C1  UNL d   1       0.415   0.936  -2.002  0.00  0.00     0.053 C 
ATOM      9  C   UNL d   1       0.054   2.386  -2.281  0.00  0.00     0.018 C 
ENDBRANCH   1   8
TORSDOF 1
ENDMDL
