MODEL 1
REMARK minimizedAffinity -3.2802341
REMARK minimizedRMSD -1
REMARK  1 active torsions:
REMARK  status: ('A' for Active; 'I' for Inactive)
REMARK    1  A    between atoms: C1_2  and  C2_3 
ROOT
ATOM      1  C2  UNL d   1      -0.746   0.041   0.869  0.00  0.00    -0.073 A 
ATOM      2  C3  UNL d   1       0.585   0.357   1.166  0.00  0.00    -0.002 A 
ATOM      3  C4  UNL d   1       1.286  -0.375   2.124  0.00  0.00     0.004 A 
ATOM      4  C5  UNL d   1       0.668  -1.434   2.790  0.00  0.00    -0.004 A 
ATOM      5  C6  UNL d   1      -0.657  -1.773   2.498  0.00  0.00    -0.075 A 
ATOM      6  C7  UNL d   1      -1.337  -2.907   3.206  0.00  0.00     0.076 C 
ATOM      7  C8  UNL d   1      -1.356  -1.031   1.536  0.00  0.00     0.001 A 
ENDROOT
BRANCH   1   8
ATOM      8  C1  UNL d   1      -1.505   0.825  -0.170  0.00  0.00     0.053 C 
ATOM      9  C   UNL d   1      -0.664   1.095  -1.408  0.00  0.00     0.018 C 
ENDBRANCH   1   8
TORSDOF 1
ENDMDL
