MODEL 1
REMARK minimizedAffinity -5.71428108
REMARK minimizedRMSD -1
REMARK  1 active torsions:
REMARK  status: ('A' for Active; 'I' for Inactive)
REMARK    1  A    between atoms: C1_2  and  C2_3 
ROOT
ATOM      1  C2  UNL d   1       0.243   0.832  -1.058  0.00  0.00    -0.073 A 
ATOM      2  C3  UNL d   1       1.113   1.555  -1.881  0.00  0.00    -0.002 A 
ATOM      3  C4  UNL d   1       0.616   2.522  -2.756  0.00  0.00     0.004 A 
ATOM      4  C5  UNL d   1      -0.754   2.780  -2.811  0.00  0.00    -0.004 A 
ATOM      5  C6  UNL d   1      -1.638   2.076  -1.988  0.00  0.00    -0.075 A 
ATOM      6  C7  UNL d   1      -3.114   2.341  -2.037  0.00  0.00     0.076 C 
ATOM      7  C8  UNL d   1      -1.131   1.105  -1.114  0.00  0.00     0.001 A 
ENDROOT
BRANCH   1   8
ATOM      8  C1  UNL d   1       0.776  -0.209  -0.107  0.00  0.00     0.053 C 
ATOM      9  C   UNL d   1       0.022  -0.215   1.213  0.00  0.00     0.018 C 
ENDBRANCH   1   8
TORSDOF 1
ENDMDL
