MODEL 1
REMARK minimizedAffinity 10.5795269
REMARK minimizedRMSD -1
REMARK  0 active torsions:
REMARK  status: ('A' for Active; 'I' for Inactive)
ROOT
ATOM      1  C2' OXE d   1       4.117  -0.867   0.777  0.00  0.00     0.078 C 
ATOM      2  C1' OXE d   1       5.209  -2.437   2.832  0.00  0.00     0.078 C 
ATOM      3  C1  OXE d   1       3.716  -2.222   2.828  0.00  0.00    -0.078 A 
ATOM      4  C2  OXE d   1       3.196  -1.414   1.846  0.00  0.00    -0.078 A 
ATOM      5  C3  OXE d   1       1.819  -1.227   1.765  0.00  0.00     0.003 A 
ATOM      6  C4  OXE d   1       0.976  -1.729   2.764  0.00  0.00    -0.002 A 
ATOM      7  C5  OXE d   1       1.490  -2.521   3.796  0.00  0.00    -0.002 A 
ATOM      8  C6  OXE d   1       2.849  -2.812   3.818  0.00  0.00     0.003 A 
ENDROOT
TORSDOF 0
ENDMDL
