MODEL 1
REMARK minimizedAffinity 16.9431477
REMARK minimizedRMSD -1
REMARK  0 active torsions:
REMARK  status: ('A' for Active; 'I' for Inactive)
ROOT
ATOM      1  C2' OXE d   1      -5.982   3.866  -0.977  0.00  0.00     0.078 C 
ATOM      2  C1' OXE d   1      -3.427   2.907  -0.319  0.00  0.00     0.078 C 
ATOM      3  C1  OXE d   1      -4.091   2.349  -1.553  0.00  0.00    -0.078 A 
ATOM      4  C2  OXE d   1      -5.361   2.790  -1.841  0.00  0.00    -0.078 A 
ATOM      5  C3  OXE d   1      -5.997   2.349  -2.998  0.00  0.00     0.003 A 
ATOM      6  C4  OXE d   1      -5.420   1.346  -3.786  0.00  0.00    -0.002 A 
ATOM      7  C5  OXE d   1      -4.145   0.854  -3.488  0.00  0.00    -0.002 A 
ATOM      8  C6  OXE d   1      -3.451   1.375  -2.401  0.00  0.00     0.003 A 
ENDROOT
TORSDOF 0
ENDMDL
