MODEL 1
REMARK minimizedAffinity 7.99030113
REMARK minimizedRMSD -1
REMARK  0 active torsions:
REMARK  status: ('A' for Active; 'I' for Inactive)
ROOT
ATOM      1  C2' OXE d   1      -3.942  -5.993  -3.739  0.00  0.00     0.078 C 
ATOM      2  C1' OXE d   1      -5.627  -6.000  -5.984  0.00  0.00     0.078 C 
ATOM      3  C1  OXE d   1      -5.403  -4.687  -5.276  0.00  0.00    -0.078 A 
ATOM      4  C2  OXE d   1      -4.614  -4.702  -4.151  0.00  0.00    -0.078 A 
ATOM      5  C3  OXE d   1      -4.331  -3.508  -3.493  0.00  0.00     0.003 A 
ATOM      6  C4  OXE d   1      -4.965  -2.320  -3.874  0.00  0.00    -0.002 A 
ATOM      7  C5  OXE d   1      -5.804  -2.291  -4.993  0.00  0.00    -0.002 A 
ATOM      8  C6  OXE d   1      -5.999  -3.454  -5.729  0.00  0.00     0.003 A 
ENDROOT
TORSDOF 0
ENDMDL
