MODEL 1
REMARK minimizedAffinity 6.59962225
REMARK minimizedRMSD -1
REMARK  0 active torsions:
REMARK  status: ('A' for Active; 'I' for Inactive)
ROOT
ATOM      1  C2' OXE d   1       3.558   4.399  -5.612  0.00  0.00     0.078 C 
ATOM      2  C1' OXE d   1       6.000   5.780  -5.715  0.00  0.00     0.078 C 
ATOM      3  C1  OXE d   1       5.375   5.555  -4.360  0.00  0.00    -0.078 A 
ATOM      4  C2  OXE d   1       4.157   4.920  -4.323  0.00  0.00    -0.078 A 
ATOM      5  C3  OXE d   1       3.563   4.639  -3.096  0.00  0.00     0.003 A 
ATOM      6  C4  OXE d   1       4.119   5.133  -1.910  0.00  0.00    -0.002 A 
ATOM      7  C5  OXE d   1       5.339   5.817  -1.929  0.00  0.00    -0.002 A 
ATOM      8  C6  OXE d   1       6.000   5.999  -3.139  0.00  0.00     0.003 A 
ENDROOT
TORSDOF 0
ENDMDL
