MODEL 1
REMARK minimizedAffinity -0.161473408
REMARK minimizedRMSD -1
REMARK  0 active torsions:
REMARK  status: ('A' for Active; 'I' for Inactive)
ROOT
ATOM      1  C2' OXE d   1       4.872   5.992  -1.488  0.00  0.00     0.078 C 
ATOM      2  C1' OXE d   1       2.749   4.487  -2.540  0.00  0.00     0.078 C 
ATOM      3  C1  OXE d   1       3.864   4.880  -3.476  0.00  0.00    -0.078 A 
ATOM      4  C2  OXE d   1       4.876   5.656  -2.964  0.00  0.00    -0.078 A 
ATOM      5  C3  OXE d   1       5.957   6.000  -3.770  0.00  0.00     0.003 A 
ATOM      6  C4  OXE d   1       5.948   5.693  -5.136  0.00  0.00    -0.002 A 
ATOM      7  C5  OXE d   1       4.908   4.938  -5.688  0.00  0.00    -0.002 A 
ATOM      8  C6  OXE d   1       3.882   4.488  -4.864  0.00  0.00     0.003 A 
ENDROOT
TORSDOF 0
ENDMDL
