MODEL 1
REMARK minimizedAffinity 4.71642685
REMARK minimizedRMSD -1
REMARK  0 active torsions:
REMARK  status: ('A' for Active; 'I' for Inactive)
ROOT
ATOM      1  C2' OXE d   1       3.778   0.155   0.192  0.00  0.00     0.078 C 
ATOM      2  C1' OXE d   1       4.844  -2.035   1.588  0.00  0.00     0.078 C 
ATOM      3  C1  OXE d   1       3.383  -1.717   1.788  0.00  0.00    -0.078 A 
ATOM      4  C2  OXE d   1       2.881  -0.615   1.137  0.00  0.00    -0.078 A 
ATOM      5  C3  OXE d   1       1.528  -0.309   1.244  0.00  0.00     0.003 A 
ATOM      6  C4  OXE d   1       0.708  -1.021   2.128  0.00  0.00    -0.002 A 
ATOM      7  C5  OXE d   1       1.208  -2.122   2.831  0.00  0.00    -0.002 A 
ATOM      8  C6  OXE d   1       2.530  -2.508   2.640  0.00  0.00     0.003 A 
ENDROOT
TORSDOF 0
ENDMDL
