MODEL 1
REMARK minimizedAffinity 14.2835035
REMARK minimizedRMSD -1
REMARK  0 active torsions:
REMARK  status: ('A' for Active; 'I' for Inactive)
ROOT
ATOM      1  C2' OXE d   1      -3.657  -0.864  -3.566  0.00  0.00     0.078 C 
ATOM      2  C1' OXE d   1      -5.091   1.506  -3.108  0.00  0.00     0.078 C 
ATOM      3  C1  OXE d   1      -3.948   1.184  -2.178  0.00  0.00    -0.078 A 
ATOM      4  C2  OXE d   1      -3.282  -0.001  -2.381  0.00  0.00    -0.078 A 
ATOM      5  C3  OXE d   1      -2.185  -0.320  -1.585  0.00  0.00     0.003 A 
ATOM      6  C4  OXE d   1      -1.851   0.479  -0.485  0.00  0.00    -0.002 A 
ATOM      7  C5  OXE d   1      -2.542   1.669  -0.236  0.00  0.00    -0.002 A 
ATOM      8  C6  OXE d   1      -3.564   2.057  -1.097  0.00  0.00     0.003 A 
ENDROOT
TORSDOF 0
ENDMDL
