MODEL 1
REMARK minimizedAffinity 9.68711472
REMARK minimizedRMSD -1
REMARK  0 active torsions:
REMARK  status: ('A' for Active; 'I' for Inactive)
ROOT
ATOM      1  C2' OXE d   1       1.146  -1.913   5.199  0.00  0.00     0.078 C 
ATOM      2  C1' OXE d   1       1.763  -3.769   3.185  0.00  0.00     0.078 C 
ATOM      3  C1  OXE d   1       1.620  -2.321   2.788  0.00  0.00    -0.078 A 
ATOM      4  C2  OXE d   1       1.272  -1.427   3.771  0.00  0.00    -0.078 A 
ATOM      5  C3  OXE d   1       1.181  -0.071   3.469  0.00  0.00     0.003 A 
ATOM      6  C4  OXE d   1       1.290   0.369   2.144  0.00  0.00    -0.002 A 
ATOM      7  C5  OXE d   1       1.605  -0.531   1.121  0.00  0.00    -0.002 A 
ATOM      8  C6  OXE d   1       1.815  -1.870   1.432  0.00  0.00     0.003 A 
ENDROOT
TORSDOF 0
ENDMDL
