MODEL 1
REMARK minimizedAffinity 7.31579971
REMARK minimizedRMSD -1
REMARK  0 active torsions:
REMARK  status: ('A' for Active; 'I' for Inactive)
ROOT
ATOM      1  C2' OXE d   1      -5.430  -2.350  -5.957  0.00  0.00     0.078 C 
ATOM      2  C1' OXE d   1      -4.454  -2.203  -3.329  0.00  0.00     0.078 C 
ATOM      3  C1  OXE d   1      -4.416  -3.543  -4.019  0.00  0.00    -0.078 A 
ATOM      4  C2  OXE d   1      -4.939  -3.616  -5.288  0.00  0.00    -0.078 A 
ATOM      5  C3  OXE d   1      -4.879  -4.816  -5.991  0.00  0.00     0.003 A 
ATOM      6  C4  OXE d   1      -4.432  -5.984  -5.361  0.00  0.00    -0.002 A 
ATOM      7  C5  OXE d   1      -3.932  -5.941  -4.055  0.00  0.00    -0.002 A 
ATOM      8  C6  OXE d   1      -3.878  -4.723  -3.387  0.00  0.00     0.003 A 
ENDROOT
TORSDOF 0
ENDMDL
