MODEL 1
REMARK minimizedAffinity 1.66538215
REMARK minimizedRMSD -1
REMARK  0 active torsions:
REMARK  status: ('A' for Active; 'I' for Inactive)
ROOT
ATOM      1  C2' OXE d   1       1.394  -2.697   0.794  0.00  0.00     0.078 C 
ATOM      2  C1' OXE d   1       2.389  -1.295   3.014  0.00  0.00     0.078 C 
ATOM      3  C1  OXE d   1       3.385  -1.831   2.016  0.00  0.00    -0.078 A 
ATOM      4  C2  OXE d   1       2.892  -2.555   0.957  0.00  0.00    -0.078 A 
ATOM      5  C3  OXE d   1       3.763  -3.025  -0.021  0.00  0.00     0.003 A 
ATOM      6  C4  OXE d   1       5.148  -2.899   0.142  0.00  0.00    -0.002 A 
ATOM      7  C5  OXE d   1       5.673  -2.199   1.234  0.00  0.00    -0.002 A 
ATOM      8  C6  OXE d   1       4.805  -1.623   2.155  0.00  0.00     0.003 A 
ENDROOT
TORSDOF 0
ENDMDL
