MODEL 1
REMARK minimizedAffinity -5.17628527
REMARK minimizedRMSD -1
REMARK  0 active torsions:
REMARK  status: ('A' for Active; 'I' for Inactive)
ROOT
ATOM      1  C4' PXY d   1      -0.864   1.361  -1.116  0.00  0.00     0.077 C 
ATOM      2  C1' PXY d   1       1.844  -3.054   1.452  0.00  0.00     0.077 C 
ATOM      3  C1  PXY d   1       1.145  -1.890   0.776  0.00  0.00    -0.082 A 
ATOM      4  C2  PXY d   1      -0.114  -1.619   1.078  0.00  0.00     0.003 A 
ATOM      5  C3  PXY d   1      -0.771  -0.591   0.453  0.00  0.00     0.003 A 
ATOM      6  C4  PXY d   1      -0.116   0.202  -0.451  0.00  0.00    -0.082 A 
ATOM      7  C5  PXY d   1       1.173  -0.062  -0.756  0.00  0.00     0.003 A 
ATOM      8  C6  PXY d   1       1.809  -1.136  -0.141  0.00  0.00     0.003 A 
ENDROOT
TORSDOF 0
ENDMDL
