MODEL 1
REMARK minimizedAffinity -3.94097209
REMARK minimizedRMSD -1
REMARK  0 active torsions:
REMARK  status: ('A' for Active; 'I' for Inactive)
ROOT
ATOM      1  C4' PXY d   1      -1.261   0.984  -1.377  0.00  0.00     0.077 C 
ATOM      2  C1' PXY d   1       1.665  -2.726   1.952  0.00  0.00     0.077 C 
ATOM      3  C1  PXY d   1       0.888  -1.753   1.088  0.00  0.00    -0.082 A 
ATOM      4  C2  PXY d   1       1.129  -1.696  -0.212  0.00  0.00     0.003 A 
ATOM      5  C3  PXY d   1       0.458  -0.800  -1.003  0.00  0.00     0.003 A 
ATOM      6  C4  PXY d   1      -0.507   0.011  -0.467  0.00  0.00    -0.082 A 
ATOM      7  C5  PXY d   1      -0.766  -0.049   0.856  0.00  0.00     0.003 A 
ATOM      8  C6  PXY d   1      -0.045  -0.937   1.649  0.00  0.00     0.003 A 
ENDROOT
TORSDOF 0
ENDMDL
