MODEL 1
REMARK minimizedAffinity -3.7268889
REMARK minimizedRMSD -1
REMARK  0 active torsions:
REMARK  status: ('A' for Active; 'I' for Inactive)
ROOT
ATOM      1  C4' PXY d   1      -0.928  -1.519   3.212  0.00  0.00     0.077 C 
ATOM      2  C1' PXY d   1       1.850   0.239  -1.542  0.00  0.00     0.077 C 
ATOM      3  C1  PXY d   1       1.115  -0.211  -0.295  0.00  0.00    -0.082 A 
ATOM      4  C2  PXY d   1       1.648  -1.143   0.478  0.00  0.00     0.003 A 
ATOM      5  C3  PXY d   1       0.982  -1.584   1.592  0.00  0.00     0.003 A 
ATOM      6  C4  PXY d   1      -0.217  -1.028   1.948  0.00  0.00    -0.082 A 
ATOM      7  C5  PXY d   1      -0.762  -0.068   1.171  0.00  0.00     0.003 A 
ATOM      8  C6  PXY d   1      -0.090   0.337   0.021  0.00  0.00     0.003 A 
ENDROOT
TORSDOF 0
ENDMDL
