MODEL 1
REMARK minimizedAffinity -3.99114871
REMARK minimizedRMSD -1
REMARK  0 active torsions:
REMARK  status: ('A' for Active; 'I' for Inactive)
ROOT
ATOM      1  C4' PXY d   1      -0.799  -1.952   2.913  0.00  0.00     0.077 C 
ATOM      2  C1' PXY d   1       2.393  -0.267  -1.602  0.00  0.00     0.077 C 
ATOM      3  C1  PXY d   1       1.562  -0.721  -0.419  0.00  0.00    -0.082 A 
ATOM      4  C2  PXY d   1       0.401  -0.135  -0.172  0.00  0.00     0.003 A 
ATOM      5  C3  PXY d   1      -0.348  -0.511   0.913  0.00  0.00     0.003 A 
ATOM      6  C4  PXY d   1       0.069  -1.533   1.723  0.00  0.00    -0.082 A 
ATOM      7  C5  PXY d   1       1.247  -2.142   1.472  0.00  0.00     0.003 A 
ATOM      8  C6  PXY d   1       2.013  -1.718   0.390  0.00  0.00     0.003 A 
ENDROOT
TORSDOF 0
ENDMDL
