MODEL 1
REMARK minimizedAffinity -3.98923087
REMARK minimizedRMSD -1
REMARK  0 active torsions:
REMARK  status: ('A' for Active; 'I' for Inactive)
ROOT
ATOM      1  C4' PXY d   1       1.008  -0.452   0.757  0.00  0.00     0.077 C 
ATOM      2  C1' PXY d   1      -2.958   1.478  -2.978  0.00  0.00     0.077 C 
ATOM      3  C1  PXY d   1      -1.915   0.984  -1.996  0.00  0.00    -0.082 A 
ATOM      4  C2  PXY d   1      -1.433  -0.242  -2.115  0.00  0.00     0.003 A 
ATOM      5  C3  PXY d   1      -0.512  -0.716  -1.217  0.00  0.00     0.003 A 
ATOM      6  C4  PXY d   1      -0.040   0.092  -0.217  0.00  0.00    -0.082 A 
ATOM      7  C5  PXY d   1      -0.519   1.349  -0.096  0.00  0.00     0.003 A 
ATOM      8  C6  PXY d   1      -1.483   1.796  -0.993  0.00  0.00     0.003 A 
ENDROOT
TORSDOF 0
ENDMDL
