MODEL 1
REMARK minimizedAffinity -5.8726368
REMARK minimizedRMSD -1
REMARK  0 active torsions:
REMARK  status: ('A' for Active; 'I' for Inactive)
ROOT
ATOM      1  C4' PXY d   1      -0.231  -2.662   3.121  0.00  0.00     0.077 C 
ATOM      2  C1' PXY d   1       1.982  -0.259  -1.648  0.00  0.00     0.077 C 
ATOM      3  C1  PXY d   1       1.406  -0.901  -0.401  0.00  0.00    -0.082 A 
ATOM      4  C2  PXY d   1       0.383  -0.331   0.215  0.00  0.00     0.003 A 
ATOM      5  C3  PXY d   1      -0.129  -0.881   1.362  0.00  0.00     0.003 A 
ATOM      6  C4  PXY d   1       0.376  -2.055   1.854  0.00  0.00    -0.082 A 
ATOM      7  C5  PXY d   1       1.413  -2.648   1.225  0.00  0.00     0.003 A 
ATOM      8  C6  PXY d   1       1.946  -2.052   0.085  0.00  0.00     0.003 A 
ENDROOT
TORSDOF 0
ENDMDL
