MODEL 1
REMARK minimizedAffinity -4.25328445
REMARK minimizedRMSD -1
REMARK  0 active torsions:
REMARK  status: ('A' for Active; 'I' for Inactive)
ROOT
ATOM      1  C4' PXY d   1       0.340  -0.829   0.701  0.00  0.00     0.077 C 
ATOM      2  C1' PXY d   1      -2.356   2.301  -3.342  0.00  0.00     0.077 C 
ATOM      3  C1  PXY d   1      -1.642   1.491  -2.279  0.00  0.00    -0.082 A 
ATOM      4  C2  PXY d   1      -1.610   0.171  -2.374  0.00  0.00     0.003 A 
ATOM      5  C3  PXY d   1      -0.995  -0.579  -1.404  0.00  0.00     0.003 A 
ATOM      6  C4  PXY d   1      -0.361   0.030  -0.355  0.00  0.00    -0.082 A 
ATOM      7  C5  PXY d   1      -0.381   1.376  -0.256  0.00  0.00     0.003 A 
ATOM      8  C6  PXY d   1      -1.045   2.118  -1.229  0.00  0.00     0.003 A 
ENDROOT
TORSDOF 0
ENDMDL
