MODEL 1
REMARK minimizedAffinity -1.08082914
REMARK minimizedRMSD -1
REMARK  0 active torsions:
REMARK  status: ('A' for Active; 'I' for Inactive)
ROOT
ATOM      1  C4' PXY d   1       2.279  -2.080   1.156  0.00  0.00     0.077 C 
ATOM      2  C1' PXY d   1      -1.354   1.571  -1.468  0.00  0.00     0.077 C 
ATOM      3  C1  PXY d   1      -0.394   0.613  -0.791  0.00  0.00    -0.082 A 
ATOM      4  C2  PXY d   1      -0.806  -0.106   0.240  0.00  0.00     0.003 A 
ATOM      5  C3  PXY d   1       0.058  -0.954   0.885  0.00  0.00     0.003 A 
ATOM      6  C4  PXY d   1       1.342  -1.107   0.436  0.00  0.00    -0.082 A 
ATOM      7  C5  PXY d   1       1.767  -0.384  -0.622  0.00  0.00     0.003 A 
ATOM      8  C6  PXY d   1       0.887   0.501  -1.237  0.00  0.00     0.003 A 
ENDROOT
TORSDOF 0
ENDMDL
