MODEL 1
REMARK minimizedAffinity -4.6013298
REMARK minimizedRMSD -1
REMARK  0 active torsions:
REMARK  status: ('A' for Active; 'I' for Inactive)
ROOT
ATOM      1  C4' PXY d   1      -0.746  -2.502   2.923  0.00  0.00     0.077 C 
ATOM      2  C1' PXY d   1       2.071   0.556  -1.093  0.00  0.00     0.077 C 
ATOM      3  C1  PXY d   1       1.340  -0.256  -0.042  0.00  0.00    -0.082 A 
ATOM      4  C2  PXY d   1       0.105   0.076   0.299  0.00  0.00     0.003 A 
ATOM      5  C3  PXY d   1      -0.559  -0.628   1.271  0.00  0.00     0.003 A 
ATOM      6  C4  PXY d   1       0.027  -1.716   1.861  0.00  0.00    -0.082 A 
ATOM      7  C5  PXY d   1       1.282  -2.068   1.510  0.00  0.00     0.003 A 
ATOM      8  C6  PXY d   1       1.954  -1.315   0.551  0.00  0.00     0.003 A 
ENDROOT
TORSDOF 0
ENDMDL
