MODEL 1
REMARK minimizedAffinity 0.0113288546
REMARK minimizedRMSD -1
REMARK  0 active torsions:
REMARK  status: ('A' for Active; 'I' for Inactive)
ROOT
ATOM      1  C4' PXY d   1      -2.083   1.295  -3.437  0.00  0.00     0.077 C 
ATOM      2  C1' PXY d   1       1.225   6.000  -4.018  0.00  0.00     0.077 C 
ATOM      3  C1  PXY d   1       0.363   4.763  -3.854  0.00  0.00    -0.082 A 
ATOM      4  C2  PXY d   1      -0.222   4.229  -4.914  0.00  0.00     0.003 A 
ATOM      5  C3  PXY d   1      -1.030   3.129  -4.780  0.00  0.00     0.003 A 
ATOM      6  C4  PXY d   1      -1.198   2.538  -3.556  0.00  0.00    -0.082 A 
ATOM      7  C5  PXY d   1      -0.595   3.070  -2.472  0.00  0.00     0.003 A 
ATOM      8  C6  PXY d   1       0.188   4.211  -2.623  0.00  0.00     0.003 A 
ENDROOT
TORSDOF 0
ENDMDL
