MODEL 1
REMARK minimizedAffinity -3.56179881
REMARK minimizedRMSD -1
REMARK  0 active torsions:
REMARK  status: ('A' for Active; 'I' for Inactive)
ROOT
ATOM      1  C4' PXY d   1      -0.020   1.311  -0.025  0.00  0.00     0.077 C 
ATOM      2  C1' PXY d   1       1.570  -3.808   2.140  0.00  0.00     0.077 C 
ATOM      3  C1  PXY d   1       1.165  -2.462   1.571  0.00  0.00    -0.082 A 
ATOM      4  C2  PXY d   1      -0.024  -1.960   1.860  0.00  0.00     0.003 A 
ATOM      5  C3  PXY d   1      -0.418  -0.760   1.329  0.00  0.00     0.003 A 
ATOM      6  C4  PXY d   1       0.434  -0.040   0.535  0.00  0.00    -0.082 A 
ATOM      7  C5  PXY d   1       1.654  -0.541   0.243  0.00  0.00     0.003 A 
ATOM      8  C6  PXY d   1       2.019  -1.780   0.760  0.00  0.00     0.003 A 
ENDROOT
TORSDOF 0
ENDMDL
