MODEL 1
REMARK minimizedAffinity -4.54944611
REMARK minimizedRMSD -1
REMARK  0 active torsions:
REMARK  status: ('A' for Active; 'I' for Inactive)
ROOT
ATOM      1  C4' PXY d   1       1.479  -3.061   0.862  0.00  0.00     0.077 C 
ATOM      2  C1' PXY d   1      -1.269   2.024   0.887  0.00  0.00     0.077 C 
ATOM      3  C1  PXY d   1      -0.544   0.693   0.868  0.00  0.00    -0.082 A 
ATOM      4  C2  PXY d   1      -0.990  -0.306   1.613  0.00  0.00     0.003 A 
ATOM      5  C3  PXY d   1      -0.327  -1.506   1.633  0.00  0.00     0.003 A 
ATOM      6  C4  PXY d   1       0.773  -1.703   0.842  0.00  0.00    -0.082 A 
ATOM      7  C5  PXY d   1       1.228  -0.692   0.071  0.00  0.00     0.003 A 
ATOM      8  C6  PXY d   1       0.565   0.531   0.097  0.00  0.00     0.003 A 
ENDROOT
TORSDOF 0
ENDMDL
