MODEL 1
REMARK minimizedAffinity -4.84887075
REMARK minimizedRMSD -1
REMARK  0 active torsions:
REMARK  status: ('A' for Active; 'I' for Inactive)
ROOT
ATOM      1  C4' PXY d   1      -1.269   1.488  -1.116  0.00  0.00     0.077 C 
ATOM      2  C1' PXY d   1       1.856  -2.686   1.379  0.00  0.00     0.077 C 
ATOM      3  C1  PXY d   1       1.047  -1.584   0.723  0.00  0.00    -0.082 A 
ATOM      4  C2  PXY d   1      -0.258  -1.519   0.930  0.00  0.00     0.003 A 
ATOM      5  C3  PXY d   1      -1.010  -0.548   0.320  0.00  0.00     0.003 A 
ATOM      6  C4  PXY d   1      -0.411   0.398  -0.468  0.00  0.00    -0.082 A 
ATOM      7  C5  PXY d   1       0.921   0.346  -0.675  0.00  0.00     0.003 A 
ATOM      8  C6  PXY d   1       1.660  -0.673  -0.080  0.00  0.00     0.003 A 
ENDROOT
TORSDOF 0
ENDMDL
