MODEL 1
REMARK minimizedAffinity -5.53838396
REMARK minimizedRMSD -1
REMARK  0 active torsions:
REMARK  status: ('A' for Active; 'I' for Inactive)
ROOT
ATOM      1  C4' PXY d   1       1.805  -3.220   2.107  0.00  0.00     0.077 C 
ATOM      2  C1' PXY d   1      -0.999   1.003  -0.670  0.00  0.00     0.077 C 
ATOM      3  C1  PXY d   1      -0.270  -0.102   0.069  0.00  0.00    -0.082 A 
ATOM      4  C2  PXY d   1       0.923  -0.492  -0.349  0.00  0.00     0.003 A 
ATOM      5  C3  PXY d   1       1.582  -1.511   0.288  0.00  0.00     0.003 A 
ATOM      6  C4  PXY d   1       1.037  -2.102   1.397  0.00  0.00    -0.082 A 
ATOM      7  C5  PXY d   1      -0.175  -1.702   1.836  0.00  0.00     0.003 A 
ATOM      8  C6  PXY d   1      -0.846  -0.694   1.150  0.00  0.00     0.003 A 
ENDROOT
TORSDOF 0
ENDMDL
