MODEL 1
REMARK minimizedAffinity -5.47814989
REMARK minimizedRMSD -1
REMARK  0 active torsions:
REMARK  status: ('A' for Active; 'I' for Inactive)
ROOT
ATOM      1  C4' PXY d   1       2.016  -1.933   0.455  0.00  0.00     0.077 C 
ATOM      2  C1' PXY d   1      -2.120   1.333  -1.919  0.00  0.00     0.077 C 
ATOM      3  C1  PXY d   1      -1.037   0.468  -1.306  0.00  0.00    -0.082 A 
ATOM      4  C2  PXY d   1      -0.780   0.561  -0.012  0.00  0.00     0.003 A 
ATOM      5  C3  PXY d   1       0.218  -0.191   0.553  0.00  0.00     0.003 A 
ATOM      6  C4  PXY d   1       0.925  -1.086  -0.205  0.00  0.00    -0.082 A 
ATOM      7  C5  PXY d   1       0.662  -1.194  -1.524  0.00  0.00     0.003 A 
ATOM      8  C6  PXY d   1      -0.327  -0.392  -2.086  0.00  0.00     0.003 A 
ENDROOT
TORSDOF 0
ENDMDL
