MODEL 1
REMARK minimizedAffinity -4.84194279
REMARK minimizedRMSD -1
REMARK  0 active torsions:
REMARK  status: ('A' for Active; 'I' for Inactive)
ROOT
ATOM      1  C4' PXY d   1       2.032   0.771  -1.131  0.00  0.00     0.077 C 
ATOM      2  C1' PXY d   1       0.002  -3.384   2.338  0.00  0.00     0.077 C 
ATOM      3  C1  PXY d   1       0.523  -2.294   1.422  0.00  0.00    -0.082 A 
ATOM      4  C2  PXY d   1       1.822  -2.199   1.191  0.00  0.00     0.003 A 
ATOM      5  C3  PXY d   1       2.313  -1.200   0.391  0.00  0.00     0.003 A 
ATOM      6  C4  PXY d   1       1.460  -0.320  -0.221  0.00  0.00    -0.082 A 
ATOM      7  C5  PXY d   1       0.133  -0.417   0.002  0.00  0.00     0.003 A 
ATOM      8  C6  PXY d   1      -0.342  -1.413   0.850  0.00  0.00     0.003 A 
ENDROOT
TORSDOF 0
ENDMDL
