MODEL 1
REMARK minimizedAffinity -2.98657942
REMARK minimizedRMSD -1
REMARK  0 active torsions:
REMARK  status: ('A' for Active; 'I' for Inactive)
ROOT
ATOM      1  C4' PXY d   1       0.372  -0.893   0.646  0.00  0.00     0.077 C 
ATOM      2  C1' PXY d   1      -2.592   1.914  -3.446  0.00  0.00     0.077 C 
ATOM      3  C1  PXY d   1      -1.811   1.190  -2.368  0.00  0.00    -0.082 A 
ATOM      4  C2  PXY d   1      -1.421  -0.059  -2.570  0.00  0.00     0.003 A 
ATOM      5  C3  PXY d   1      -0.742  -0.740  -1.593  0.00  0.00     0.003 A 
ATOM      6  C4  PXY d   1      -0.411  -0.119  -0.418  0.00  0.00    -0.082 A 
ATOM      7  C5  PXY d   1      -0.795   1.158  -0.209  0.00  0.00     0.003 A 
ATOM      8  C6  PXY d   1      -1.520   1.818  -1.197  0.00  0.00     0.003 A 
ENDROOT
TORSDOF 0
ENDMDL
