MODEL 1
REMARK minimizedAffinity -1.34618568
REMARK minimizedRMSD -1
REMARK  0 active torsions:
REMARK  status: ('A' for Active; 'I' for Inactive)
ROOT
ATOM      1  C4' PXY d   1      -0.360  -1.783   1.167  0.00  0.00     0.077 C 
ATOM      2  C1' PXY d   1      -1.338   2.938  -2.022  0.00  0.00     0.077 C 
ATOM      3  C1  PXY d   1      -1.072   1.697  -1.194  0.00  0.00    -0.082 A 
ATOM      4  C2  PXY d   1      -2.030   1.206  -0.424  0.00  0.00     0.003 A 
ATOM      5  C3  PXY d   1      -1.797   0.102   0.355  0.00  0.00     0.003 A 
ATOM      6  C4  PXY d   1      -0.587  -0.537   0.307  0.00  0.00    -0.082 A 
ATOM      7  C5  PXY d   1       0.392  -0.049  -0.484  0.00  0.00     0.003 A 
ATOM      8  C6  PXY d   1       0.148   1.097  -1.236  0.00  0.00     0.003 A 
ENDROOT
TORSDOF 0
ENDMDL
