MODEL 1
REMARK minimizedAffinity -1.95918846
REMARK minimizedRMSD -1
REMARK  0 active torsions:
REMARK  status: ('A' for Active; 'I' for Inactive)
ROOT
ATOM      1  C4' PXY d   1      -3.158   1.985  -3.029  0.00  0.00     0.077 C 
ATOM      2  C1' PXY d   1       1.343  -0.172  -0.113  0.00  0.00     0.077 C 
ATOM      3  C1  PXY d   1       0.157   0.397  -0.866  0.00  0.00    -0.082 A 
ATOM      4  C2  PXY d   1      -0.113  -0.038  -2.086  0.00  0.00     0.003 A 
ATOM      5  C3  PXY d   1      -1.162   0.488  -2.794  0.00  0.00     0.003 A 
ATOM      6  C4  PXY d   1      -1.976   1.432  -2.227  0.00  0.00    -0.082 A 
ATOM      7  C5  PXY d   1      -1.714   1.874  -0.979  0.00  0.00     0.003 A 
ATOM      8  C6  PXY d   1      -0.619   1.357  -0.293  0.00  0.00     0.003 A 
ENDROOT
TORSDOF 0
ENDMDL
