MODEL 1
REMARK minimizedAffinity 14.9304571
REMARK minimizedRMSD -1
REMARK  2 active torsions:
REMARK  status: ('A' for Active; 'I' for Inactive)
REMARK    1  A    between atoms: C2'_3  and  C1'_4 
REMARK    2  A    between atoms: C1'_4  and  C1_5 
ROOT
ATOM      1  C1  I4B d   1      -2.676   0.251   1.944  0.00  0.00    -0.075 A 
ATOM      2  C2  I4B d   1      -2.036  -0.657   1.138  0.00  0.00     0.003 A 
ATOM      3  C3  I4B d   1      -0.962  -1.428   1.645  0.00  0.00     0.002 A 
ATOM      4  C4  I4B d   1      -0.531  -1.225   2.940  0.00  0.00    -0.004 A 
ATOM      5  C5  I4B d   1      -1.196  -0.320   3.763  0.00  0.00     0.002 A 
ATOM      6  C6  I4B d   1      -2.283   0.414   3.267  0.00  0.00     0.003 A 
ENDROOT
BRANCH   1   7
ATOM      7  C1' I4B d   1      -3.785   1.072   1.367  0.00  0.00     0.060 C 
BRANCH   7   8
ATOM      8  C2' I4B d   1      -4.525   0.215   0.360  0.00  0.00    -0.013 C 
ATOM      9  C4' I4B d   1      -5.925  -0.088   0.826  0.00  0.00     0.013 C 
ATOM     10  C3' I4B d   1      -4.537   0.946  -0.950  0.00  0.00     0.013 C 
ENDBRANCH   7   8
ENDBRANCH   1   7
TORSDOF 2
ENDMDL
