MODEL 1
REMARK minimizedAffinity 16.5150814
REMARK minimizedRMSD -1
REMARK  2 active torsions:
REMARK  status: ('A' for Active; 'I' for Inactive)
REMARK    1  A    between atoms: C2'_3  and  C1'_4 
REMARK    2  A    between atoms: C1'_4  and  C1_5 
ROOT
ATOM      1  C1  I4B d   1      -0.766  -0.710   3.192  0.00  0.00    -0.075 A 
ATOM      2  C2  I4B d   1      -1.694   0.049   2.524  0.00  0.00     0.003 A 
ATOM      3  C3  I4B d   1      -2.557   0.913   3.241  0.00  0.00     0.002 A 
ATOM      4  C4  I4B d   1      -2.492   0.948   4.619  0.00  0.00    -0.004 A 
ATOM      5  C5  I4B d   1      -1.534   0.195   5.293  0.00  0.00     0.002 A 
ATOM      6  C6  I4B d   1      -0.657  -0.630   4.574  0.00  0.00     0.003 A 
ENDROOT
BRANCH   1   7
ATOM      7  C1' I4B d   1       0.107  -1.636   2.406  0.00  0.00     0.060 C 
BRANCH   7   8
ATOM      8  C2' I4B d   1       1.062  -2.309   3.371  0.00  0.00    -0.013 C 
ATOM      9  C4' I4B d   1       1.289  -3.750   2.998  0.00  0.00     0.013 C 
ATOM     10  C3' I4B d   1       2.349  -1.539   3.362  0.00  0.00     0.013 C 
ENDBRANCH   7   8
ENDBRANCH   1   7
TORSDOF 2
ENDMDL
