MODEL 1
REMARK minimizedAffinity 18.1827354
REMARK minimizedRMSD -1
REMARK  2 active torsions:
REMARK  status: ('A' for Active; 'I' for Inactive)
REMARK    1  A    between atoms: C2'_3  and  C1'_4 
REMARK    2  A    between atoms: C1'_4  and  C1_5 
ROOT
ATOM      1  C1  I4B d   1      -3.085   1.375   4.424  0.00  0.00    -0.075 A 
ATOM      2  C2  I4B d   1      -1.939   0.621   4.373  0.00  0.00     0.003 A 
ATOM      3  C3  I4B d   1      -1.679  -0.207   3.255  0.00  0.00     0.002 A 
ATOM      4  C4  I4B d   1      -2.610  -0.290   2.240  0.00  0.00    -0.004 A 
ATOM      5  C5  I4B d   1      -3.761   0.492   2.282  0.00  0.00     0.002 A 
ATOM      6  C6  I4B d   1      -3.995   1.339   3.375  0.00  0.00     0.003 A 
ENDROOT
BRANCH   1   7
ATOM      7  C1' I4B d   1      -3.344   2.213   5.635  0.00  0.00     0.060 C 
BRANCH   7   8
ATOM      8  C2' I4B d   1      -4.625   2.988   5.402  0.00  0.00    -0.013 C 
ATOM      9  C4' I4B d   1      -5.810   2.276   6.000  0.00  0.00     0.013 C 
ATOM     10  C3' I4B d   1      -4.456   4.353   5.999  0.00  0.00     0.013 C 
ENDBRANCH   7   8
ENDBRANCH   1   7
TORSDOF 2
ENDMDL
