MODEL 1
REMARK minimizedAffinity 11.6506758
REMARK minimizedRMSD -1
REMARK  2 active torsions:
REMARK  status: ('A' for Active; 'I' for Inactive)
REMARK    1  A    between atoms: C2'_3  and  C1'_4 
REMARK    2  A    between atoms: C1'_4  and  C1_5 
ROOT
ATOM      1  C1  I4B d   1      -3.491   0.913   3.463  0.00  0.00    -0.075 A 
ATOM      2  C2  I4B d   1      -2.257   0.365   3.215  0.00  0.00     0.003 A 
ATOM      3  C3  I4B d   1      -2.118  -0.682   2.273  0.00  0.00     0.002 A 
ATOM      4  C4  I4B d   1      -3.239  -1.182   1.642  0.00  0.00    -0.004 A 
ATOM      5  C5  I4B d   1      -4.486  -0.611   1.878  0.00  0.00     0.002 A 
ATOM      6  C6  I4B d   1      -4.612   0.452   2.785  0.00  0.00     0.003 A 
ENDROOT
BRANCH   1   7
ATOM      7  C1' I4B d   1      -3.606   1.995   4.489  0.00  0.00     0.060 C 
BRANCH   7   8
ATOM      8  C2' I4B d   1      -4.968   1.876   5.143  0.00  0.00    -0.013 C 
ATOM      9  C4' I4B d   1      -5.271   3.079   5.995  0.00  0.00     0.013 C 
ATOM     10  C3' I4B d   1      -5.989   1.710   4.057  0.00  0.00     0.013 C 
ENDBRANCH   7   8
ENDBRANCH   1   7
TORSDOF 2
ENDMDL
