MODEL 1
REMARK minimizedAffinity 6.78918552
REMARK minimizedRMSD -1
REMARK  2 active torsions:
REMARK  status: ('A' for Active; 'I' for Inactive)
REMARK    1  A    between atoms: C2'_3  and  C1'_4 
REMARK    2  A    between atoms: C1'_4  and  C1_5 
ROOT
ATOM      1  C1  I4B d   1       3.588  -3.737  -0.281  0.00  0.00    -0.075 A 
ATOM      2  C2  I4B d   1       4.742  -3.013  -0.450  0.00  0.00     0.003 A 
ATOM      3  C3  I4B d   1       5.966  -3.674  -0.713  0.00  0.00     0.002 A 
ATOM      4  C4  I4B d   1       6.000  -5.053  -0.748  0.00  0.00    -0.004 A 
ATOM      5  C5  I4B d   1       4.825  -5.784  -0.599  0.00  0.00     0.002 A 
ATOM      6  C6  I4B d   1       3.609  -5.122  -0.376  0.00  0.00     0.003 A 
ENDROOT
BRANCH   1   7
ATOM      7  C1' I4B d   1       2.319  -3.008   0.029  0.00  0.00     0.060 C 
BRANCH   7   8
ATOM      8  C2' I4B d   1       2.496  -2.305   1.359  0.00  0.00    -0.013 C 
ATOM      9  C4' I4B d   1       2.627  -0.816   1.175  0.00  0.00     0.013 C 
ATOM     10  C3' I4B d   1       1.318  -2.643   2.222  0.00  0.00     0.013 C 
ENDBRANCH   7   8
ENDBRANCH   1   7
TORSDOF 2
ENDMDL
