MODEL 1
REMARK minimizedAffinity 19.3530941
REMARK minimizedRMSD -1
REMARK  2 active torsions:
REMARK  status: ('A' for Active; 'I' for Inactive)
REMARK    1  A    between atoms: C2'_3  and  C1'_4 
REMARK    2  A    between atoms: C1'_4  and  C1_5 
ROOT
ATOM      1  C1  I4B d   1      -3.598  -0.069   1.392  0.00  0.00    -0.075 A 
ATOM      2  C2  I4B d   1      -3.143   0.806   2.347  0.00  0.00     0.003 A 
ATOM      3  C3  I4B d   1      -1.839   0.666   2.879  0.00  0.00     0.002 A 
ATOM      4  C4  I4B d   1      -1.046  -0.385   2.466  0.00  0.00    -0.004 A 
ATOM      5  C5  I4B d   1      -1.499  -1.257   1.480  0.00  0.00     0.002 A 
ATOM      6  C6  I4B d   1      -2.778  -1.091   0.930  0.00  0.00     0.003 A 
ENDROOT
BRANCH   1   7
ATOM      7  C1' I4B d   1      -4.993   0.088   0.876  0.00  0.00     0.060 C 
BRANCH   7   8
ATOM      8  C2' I4B d   1      -4.915   0.734  -0.492  0.00  0.00    -0.013 C 
ATOM      9  C4' I4B d   1      -5.556  -0.134  -1.543  0.00  0.00     0.013 C 
ATOM     10  C3' I4B d   1      -5.587   2.072  -0.412  0.00  0.00     0.013 C 
ENDBRANCH   7   8
ENDBRANCH   1   7
TORSDOF 2
ENDMDL
