MODEL 1
REMARK minimizedAffinity 7.54591942
REMARK minimizedRMSD -1
REMARK  2 active torsions:
REMARK  status: ('A' for Active; 'I' for Inactive)
REMARK    1  A    between atoms: C2'_3  and  C1'_4 
REMARK    2  A    between atoms: C1'_4  and  C1_5 
ROOT
ATOM      1  C1  I4B d   1      -3.456   1.152   4.098  0.00  0.00    -0.075 A 
ATOM      2  C2  I4B d   1      -4.547   0.992   3.281  0.00  0.00     0.003 A 
ATOM      3  C3  I4B d   1      -4.439   0.239   2.087  0.00  0.00     0.002 A 
ATOM      4  C4  I4B d   1      -3.217  -0.290   1.725  0.00  0.00    -0.004 A 
ATOM      5  C5  I4B d   1      -2.117  -0.146   2.566  0.00  0.00     0.002 A 
ATOM      6  C6  I4B d   1      -2.240   0.569   3.766  0.00  0.00     0.003 A 
ENDROOT
BRANCH   1   7
ATOM      7  C1' I4B d   1      -3.597   1.981   5.335  0.00  0.00     0.060 C 
BRANCH   7   8
ATOM      8  C2' I4B d   1      -4.975   2.610   5.321  0.00  0.00    -0.013 C 
ATOM      9  C4' I4B d   1      -5.986   1.723   6.000  0.00  0.00     0.013 C 
ATOM     10  C3' I4B d   1      -4.883   3.944   5.999  0.00  0.00     0.013 C 
ENDBRANCH   7   8
ENDBRANCH   1   7
TORSDOF 2
ENDMDL
