MODEL 1
REMARK minimizedAffinity 17.8301239
REMARK minimizedRMSD -1
REMARK  2 active torsions:
REMARK  status: ('A' for Active; 'I' for Inactive)
REMARK    1  A    between atoms: C2'_3  and  C1'_4 
REMARK    2  A    between atoms: C1'_4  and  C1_5 
ROOT
ATOM      1  C1  I4B d   1       1.405   1.930  -1.821  0.00  0.00    -0.075 A 
ATOM      2  C2  I4B d   1       2.713   1.514  -1.842  0.00  0.00     0.003 A 
ATOM      3  C3  I4B d   1       3.282   0.896  -0.703  0.00  0.00     0.002 A 
ATOM      4  C4  I4B d   1       2.528   0.760   0.445  0.00  0.00    -0.004 A 
ATOM      5  C5  I4B d   1       1.196   1.161   0.457  0.00  0.00     0.002 A 
ATOM      6  C6  I4B d   1       0.626   1.739  -0.687  0.00  0.00     0.003 A 
ENDROOT
BRANCH   1   7
ATOM      7  C1' I4B d   1       0.845   2.609  -3.031  0.00  0.00     0.060 C 
BRANCH   7   8
ATOM      8  C2' I4B d   1       0.172   3.889  -2.579  0.00  0.00    -0.013 C 
ATOM      9  C4' I4B d   1       1.168   5.011  -2.445  0.00  0.00     0.013 C 
ATOM     10  C3' I4B d   1      -0.895   4.228  -3.576  0.00  0.00     0.013 C 
ENDBRANCH   7   8
ENDBRANCH   1   7
TORSDOF 2
ENDMDL
