MODEL 1
REMARK minimizedAffinity 10.7747478
REMARK minimizedRMSD -1
REMARK  2 active torsions:
REMARK  status: ('A' for Active; 'I' for Inactive)
REMARK    1  A    between atoms: C2'_3  and  C1'_4 
REMARK    2  A    between atoms: C1'_4  and  C1_5 
ROOT
ATOM      1  C1  I4B d   1      -4.223   1.768   3.345  0.00  0.00    -0.075 A 
ATOM      2  C2  I4B d   1      -4.558   0.999   2.258  0.00  0.00     0.003 A 
ATOM      3  C3  I4B d   1      -3.667   0.004   1.787  0.00  0.00     0.002 A 
ATOM      4  C4  I4B d   1      -2.440  -0.153   2.396  0.00  0.00    -0.004 A 
ATOM      5  C5  I4B d   1      -2.111   0.612   3.512  0.00  0.00     0.002 A 
ATOM      6  C6  I4B d   1      -3.013   1.570   3.997  0.00  0.00     0.003 A 
ENDROOT
BRANCH   1   7
ATOM      7  C1' I4B d   1      -5.173   2.832   3.795  0.00  0.00     0.060 C 
BRANCH   7   8
ATOM      8  C2' I4B d   1      -4.979   3.030   5.285  0.00  0.00    -0.013 C 
ATOM      9  C4' I4B d   1      -5.106   4.483   5.663  0.00  0.00     0.013 C 
ATOM     10  C3' I4B d   1      -5.997   2.193   6.000  0.00  0.00     0.013 C 
ENDBRANCH   7   8
ENDBRANCH   1   7
TORSDOF 2
ENDMDL
