MODEL 1
REMARK minimizedAffinity 0.853912532
REMARK minimizedRMSD -1
REMARK  2 active torsions:
REMARK  status: ('A' for Active; 'I' for Inactive)
REMARK    1  A    between atoms: C2'_3  and  C1'_4 
REMARK    2  A    between atoms: C1'_4  and  C1_5 
ROOT
ATOM      1  C1  I4B d   1      -3.741   1.084   3.890  0.00  0.00    -0.075 A 
ATOM      2  C2  I4B d   1      -2.540   0.422   3.820  0.00  0.00     0.003 A 
ATOM      3  C3  I4B d   1      -2.320  -0.552   2.817  0.00  0.00     0.002 A 
ATOM      4  C4  I4B d   1      -3.338  -0.867   1.940  0.00  0.00    -0.004 A 
ATOM      5  C5  I4B d   1      -4.547  -0.178   1.997  0.00  0.00     0.002 A 
ATOM      6  C6  I4B d   1      -4.746   0.812   2.970  0.00  0.00     0.003 A 
ENDROOT
BRANCH   1   7
ATOM      7  C1' I4B d   1      -3.951   2.083   4.983  0.00  0.00     0.060 C 
BRANCH   7   8
ATOM      8  C2' I4B d   1      -5.441   2.187   5.240  0.00  0.00    -0.013 C 
ATOM      9  C4' I4B d   1      -5.947   0.989   6.000  0.00  0.00     0.013 C 
ATOM     10  C3' I4B d   1      -5.692   3.455   6.000  0.00  0.00     0.013 C 
ENDBRANCH   7   8
ENDBRANCH   1   7
TORSDOF 2
ENDMDL
