MODEL 1
REMARK minimizedAffinity 13.270195
REMARK minimizedRMSD -1
REMARK  2 active torsions:
REMARK  status: ('A' for Active; 'I' for Inactive)
REMARK    1  A    between atoms: C2'_3  and  C1'_4 
REMARK    2  A    between atoms: C1'_4  and  C1_5 
ROOT
ATOM      1  C1  I4B d   1       0.328   3.722  -2.852  0.00  0.00    -0.075 A 
ATOM      2  C2  I4B d   1       1.181   4.021  -1.819  0.00  0.00     0.003 A 
ATOM      3  C3  I4B d   1       1.666   2.993  -0.975  0.00  0.00     0.002 A 
ATOM      4  C4  I4B d   1       1.237   1.695  -1.168  0.00  0.00    -0.004 A 
ATOM      5  C5  I4B d   1       0.391   1.391  -2.230  0.00  0.00     0.002 A 
ATOM      6  C6  I4B d   1      -0.057   2.408  -3.086  0.00  0.00     0.003 A 
ENDROOT
BRANCH   1   7
ATOM      7  C1' I4B d   1      -0.191   4.836  -3.704  0.00  0.00     0.060 C 
BRANCH   7   8
ATOM      8  C2' I4B d   1      -1.447   4.348  -4.396  0.00  0.00    -0.013 C 
ATOM      9  C4' I4B d   1      -2.683   4.905  -3.739  0.00  0.00     0.013 C 
ATOM     10  C3' I4B d   1      -1.370   4.756  -5.837  0.00  0.00     0.013 C 
ENDBRANCH   7   8
ENDBRANCH   1   7
TORSDOF 2
ENDMDL
