MODEL 1
REMARK minimizedAffinity 9.82714272
REMARK minimizedRMSD -1
REMARK  2 active torsions:
REMARK  status: ('A' for Active; 'I' for Inactive)
REMARK    1  A    between atoms: C2'_3  and  C1'_4 
REMARK    2  A    between atoms: C1'_4  and  C1_5 
ROOT
ATOM      1  C1  I4B d   1       3.484   2.002  -0.722  0.00  0.00    -0.075 A 
ATOM      2  C2  I4B d   1       4.640   2.706  -0.491  0.00  0.00     0.003 A 
ATOM      3  C3  I4B d   1       4.972   3.120   0.822  0.00  0.00     0.002 A 
ATOM      4  C4  I4B d   1       4.100   2.855   1.859  0.00  0.00    -0.004 A 
ATOM      5  C5  I4B d   1       2.941   2.122   1.626  0.00  0.00     0.002 A 
ATOM      6  C6  I4B d   1       2.636   1.682   0.330  0.00  0.00     0.003 A 
ENDROOT
BRANCH   1   7
ATOM      7  C1' I4B d   1       3.149   1.609  -2.126  0.00  0.00     0.060 C 
BRANCH   7   8
ATOM      8  C2' I4B d   1       2.914   2.876  -2.922  0.00  0.00    -0.013 C 
ATOM      9  C4' I4B d   1       3.868   2.976  -4.082  0.00  0.00     0.013 C 
ATOM     10  C3' I4B d   1       1.489   2.871  -3.392  0.00  0.00     0.013 C 
ENDBRANCH   7   8
ENDBRANCH   1   7
TORSDOF 2
ENDMDL
