MODEL 1
REMARK minimizedAffinity 18.6555157
REMARK minimizedRMSD -1
REMARK  2 active torsions:
REMARK  status: ('A' for Active; 'I' for Inactive)
REMARK    1  A    between atoms: C2'_3  and  C1'_4 
REMARK    2  A    between atoms: C1'_4  and  C1_5 
ROOT
ATOM      1  C1  I4B d   1       3.625   2.849  -0.445  0.00  0.00    -0.075 A 
ATOM      2  C2  I4B d   1       4.830   3.454  -0.702  0.00  0.00     0.003 A 
ATOM      3  C3  I4B d   1       5.692   3.808   0.365  0.00  0.00     0.002 A 
ATOM      4  C4  I4B d   1       5.289   3.588   1.666  0.00  0.00    -0.004 A 
ATOM      5  C5  I4B d   1       4.076   2.954   1.924  0.00  0.00     0.002 A 
ATOM      6  C6  I4B d   1       3.244   2.571   0.862  0.00  0.00     0.003 A 
ENDROOT
BRANCH   1   7
ATOM      7  C1' I4B d   1       2.725   2.518  -1.593  0.00  0.00     0.060 C 
BRANCH   7   8
ATOM      8  C2' I4B d   1       2.821   3.645  -2.601  0.00  0.00    -0.013 C 
ATOM      9  C4' I4B d   1       2.790   3.119  -4.012  0.00  0.00     0.013 C 
ATOM     10  C3' I4B d   1       1.683   4.589  -2.350  0.00  0.00     0.013 C 
ENDBRANCH   7   8
ENDBRANCH   1   7
TORSDOF 2
ENDMDL
