MODEL 1
REMARK minimizedAffinity -3.38760114
REMARK minimizedRMSD -1
REMARK  0 active torsions:
REMARK  status: ('A' for Active; 'I' for Inactive)
ROOT
ATOM      1  C4' PXY d   1      -2.294   0.590   0.355  0.00  0.00     0.077 C 
ATOM      2  C1' PXY d   1       2.898  -0.232   2.761  0.00  0.00     0.077 C 
ATOM      3  C1  PXY d   1       1.531  -0.018   2.142  0.00  0.00    -0.082 A 
ATOM      4  C2  PXY d   1       1.354  -0.250   0.851  0.00  0.00     0.003 A 
ATOM      5  C3  PXY d   1       0.132  -0.031   0.268  0.00  0.00     0.003 A 
ATOM      6  C4  PXY d   1      -0.933   0.379   1.025  0.00  0.00    -0.082 A 
ATOM      7  C5  PXY d   1      -0.763   0.607   2.344  0.00  0.00     0.003 A 
ATOM      8  C6  PXY d   1       0.495   0.418   2.909  0.00  0.00     0.003 A 
ENDROOT
TORSDOF 0
ENDMDL
