MODEL 1
REMARK minimizedAffinity -3.09095311
REMARK minimizedRMSD -1
REMARK  0 active torsions:
REMARK  status: ('A' for Active; 'I' for Inactive)
ROOT
ATOM      1  C4' PXY d   1       2.613  -0.109   1.730  0.00  0.00     0.077 C 
ATOM      2  C1' PXY d   1      -2.736   0.101  -0.451  0.00  0.00     0.077 C 
ATOM      3  C1  PXY d   1      -1.331   0.035   0.114  0.00  0.00    -0.082 A 
ATOM      4  C2  PXY d   1      -1.070   0.595   1.284  0.00  0.00     0.003 A 
ATOM      5  C3  PXY d   1       0.203   0.572   1.795  0.00  0.00     0.003 A 
ATOM      6  C4  PXY d   1       1.206  -0.075   1.126  0.00  0.00    -0.082 A 
ATOM      7  C5  PXY d   1       0.945  -0.658  -0.064  0.00  0.00     0.003 A 
ATOM      8  C6  PXY d   1      -0.344  -0.589  -0.584  0.00  0.00     0.003 A 
ENDROOT
TORSDOF 0
ENDMDL
