MODEL 1
REMARK minimizedAffinity -6.30067873
REMARK minimizedRMSD -1
REMARK  0 active torsions:
REMARK  status: ('A' for Active; 'I' for Inactive)
ROOT
ATOM      1  C4' PXY d   1       2.032  -0.165   3.029  0.00  0.00     0.077 C 
ATOM      2  C1' PXY d   1      -2.616   0.246  -0.383  0.00  0.00     0.077 C 
ATOM      3  C1  PXY d   1      -1.401   0.149   0.518  0.00  0.00    -0.082 A 
ATOM      4  C2  PXY d   1      -0.302  -0.438   0.074  0.00  0.00     0.003 A 
ATOM      5  C3  PXY d   1       0.795  -0.563   0.887  0.00  0.00     0.003 A 
ATOM      6  C4  PXY d   1       0.785  -0.036   2.150  0.00  0.00    -0.082 A 
ATOM      7  C5  PXY d   1      -0.330   0.574   2.608  0.00  0.00     0.003 A 
ATOM      8  C6  PXY d   1      -1.446   0.654   1.781  0.00  0.00     0.003 A 
ENDROOT
TORSDOF 0
ENDMDL
