MODEL 1
REMARK minimizedAffinity -4.45501184
REMARK minimizedRMSD -1
REMARK  0 active torsions:
REMARK  status: ('A' for Active; 'I' for Inactive)
ROOT
ATOM      1  C4' PXY d   1      -0.542   2.029   3.146  0.00  0.00     0.077 C 
ATOM      2  C1' PXY d   1      -0.003  -0.893  -1.812  0.00  0.00     0.077 C 
ATOM      3  C1  PXY d   1      -0.156  -0.121  -0.516  0.00  0.00    -0.082 A 
ATOM      4  C2  PXY d   1       0.915   0.158   0.209  0.00  0.00     0.003 A 
ATOM      5  C3  PXY d   1       0.792   0.827   1.399  0.00  0.00     0.003 A 
ATOM      6  C4  PXY d   1      -0.435   1.261   1.826  0.00  0.00    -0.082 A 
ATOM      7  C5  PXY d   1      -1.531   0.989   1.087  0.00  0.00     0.003 A 
ATOM      8  C6  PXY d   1      -1.389   0.273  -0.098  0.00  0.00     0.003 A 
ENDROOT
TORSDOF 0
ENDMDL
