MODEL 1
REMARK minimizedAffinity -4.51738882
REMARK minimizedRMSD -1
REMARK  0 active torsions:
REMARK  status: ('A' for Active; 'I' for Inactive)
ROOT
ATOM      1  C4' PXY d   1       0.526  -0.942  -2.063  0.00  0.00     0.077 C 
ATOM      2  C1' PXY d   1      -0.750   1.173   3.163  0.00  0.00     0.077 C 
ATOM      3  C1  PXY d   1      -0.428   0.613   1.792  0.00  0.00    -0.082 A 
ATOM      4  C2  PXY d   1       0.834   0.405   1.451  0.00  0.00     0.003 A 
ATOM      5  C3  PXY d   1       1.145  -0.071   0.203  0.00  0.00     0.003 A 
ATOM      6  C4  PXY d   1       0.153  -0.387  -0.686  0.00  0.00    -0.082 A 
ATOM      7  C5  PXY d   1      -1.137  -0.187  -0.341  0.00  0.00     0.003 A 
ATOM      8  C6  PXY d   1      -1.430   0.336   0.915  0.00  0.00     0.003 A 
ENDROOT
TORSDOF 0
ENDMDL
