MODEL 1
REMARK minimizedAffinity -3.4681139
REMARK minimizedRMSD -1
REMARK  0 active torsions:
REMARK  status: ('A' for Active; 'I' for Inactive)
ROOT
ATOM      1  C4' PXY d   1      -0.250  -2.577  -0.924  0.00  0.00     0.077 C 
ATOM      2  C1' PXY d   1      -0.618   2.116   2.430  0.00  0.00     0.077 C 
ATOM      3  C1  PXY d   1      -0.533   0.881   1.556  0.00  0.00    -0.082 A 
ATOM      4  C2  PXY d   1       0.644   0.481   1.102  0.00  0.00     0.003 A 
ATOM      5  C3  PXY d   1       0.735  -0.615   0.284  0.00  0.00     0.003 A 
ATOM      6  C4  PXY d   1      -0.383  -1.341  -0.030  0.00  0.00    -0.082 A 
ATOM      7  C5  PXY d   1      -1.585  -0.945   0.438  0.00  0.00     0.003 A 
ATOM      8  C6  PXY d   1      -1.662   0.194   1.233  0.00  0.00     0.003 A 
ENDROOT
TORSDOF 0
ENDMDL
