MODEL 1
REMARK minimizedAffinity -0.0163602717
REMARK minimizedRMSD -1
REMARK  0 active torsions:
REMARK  status: ('A' for Active; 'I' for Inactive)
ROOT
ATOM      1  C4' PXY d   1      -2.270  -1.502  -0.462  0.00  0.00     0.077 C 
ATOM      2  C1' PXY d   1       0.401   2.225   3.057  0.00  0.00     0.077 C 
ATOM      3  C1  PXY d   1      -0.299   1.256   2.124  0.00  0.00    -0.082 A 
ATOM      4  C2  PXY d   1      -1.094   0.325   2.625  0.00  0.00     0.003 A 
ATOM      5  C3  PXY d   1      -1.709  -0.580   1.799  0.00  0.00     0.003 A 
ATOM      6  C4  PXY d   1      -1.551  -0.497   0.441  0.00  0.00    -0.082 A 
ATOM      7  C5  PXY d   1      -0.750   0.458  -0.078  0.00  0.00     0.003 A 
ATOM      8  C6  PXY d   1      -0.102   1.340   0.781  0.00  0.00     0.003 A 
ENDROOT
TORSDOF 0
ENDMDL
