MODEL 1
REMARK minimizedAffinity -4.04710531
REMARK minimizedRMSD -1
REMARK  0 active torsions:
REMARK  status: ('A' for Active; 'I' for Inactive)
ROOT
ATOM      1  C4' PXY d   1       0.441   0.707  -5.441  0.00  0.00     0.077 C 
ATOM      2  C1' PXY d   1       0.368  -0.524   0.206  0.00  0.00     0.077 C 
ATOM      3  C1  PXY d   1       0.385  -0.188  -1.272  0.00  0.00    -0.082 A 
ATOM      4  C2  PXY d   1       0.073  -1.120  -2.158  0.00  0.00     0.003 A 
ATOM      5  C3  PXY d   1       0.114  -0.843  -3.500  0.00  0.00     0.003 A 
ATOM      6  C4  PXY d   1       0.427   0.416  -3.938  0.00  0.00    -0.082 A 
ATOM      7  C5  PXY d   1       0.737   1.375  -3.040  0.00  0.00     0.003 A 
ATOM      8  C6  PXY d   1       0.729   1.062  -1.684  0.00  0.00     0.003 A 
ENDROOT
TORSDOF 0
ENDMDL
