MODEL 1
REMARK minimizedAffinity -2.13476372
REMARK minimizedRMSD -1
REMARK  0 active torsions:
REMARK  status: ('A' for Active; 'I' for Inactive)
ROOT
ATOM      1  C4' PXY d   1      -1.474   0.334   2.568  0.00  0.00     0.077 C 
ATOM      2  C1' PXY d   1       0.913  -0.170  -2.673  0.00  0.00     0.077 C 
ATOM      3  C1  PXY d   1       0.297  -0.031  -1.295  0.00  0.00    -0.082 A 
ATOM      4  C2  PXY d   1      -0.539  -0.957  -0.855  0.00  0.00     0.003 A 
ATOM      5  C3  PXY d   1      -1.130  -0.830   0.376  0.00  0.00     0.003 A 
ATOM      6  C4  PXY d   1      -0.821   0.229   1.187  0.00  0.00    -0.082 A 
ATOM      7  C5  PXY d   1       0.040   1.173   0.750  0.00  0.00     0.003 A 
ATOM      8  C6  PXY d   1       0.597   1.047  -0.519  0.00  0.00     0.003 A 
ENDROOT
TORSDOF 0
ENDMDL
