MODEL 1
REMARK minimizedAffinity -5.53239346
REMARK minimizedRMSD -1
REMARK  0 active torsions:
REMARK  status: ('A' for Active; 'I' for Inactive)
ROOT
ATOM      1  C4' PXY d   1       0.775  -2.005  -1.132  0.00  0.00     0.077 C 
ATOM      2  C1' PXY d   1      -0.822   1.541   3.144  0.00  0.00     0.077 C 
ATOM      3  C1  PXY d   1      -0.391   0.615   2.025  0.00  0.00    -0.082 A 
ATOM      4  C2  PXY d   1      -1.263   0.264   1.093  0.00  0.00     0.003 A 
ATOM      5  C3  PXY d   1      -0.898  -0.598   0.091  0.00  0.00     0.003 A 
ATOM      6  C4  PXY d   1       0.386  -1.064   0.012  0.00  0.00    -0.082 A 
ATOM      7  C5  PXY d   1       1.285  -0.702   0.952  0.00  0.00     0.003 A 
ATOM      8  C6  PXY d   1       0.884   0.141   1.984  0.00  0.00     0.003 A 
ENDROOT
TORSDOF 0
ENDMDL
