MODEL 1
REMARK minimizedAffinity -4.95061541
REMARK minimizedRMSD -1
REMARK  0 active torsions:
REMARK  status: ('A' for Active; 'I' for Inactive)
ROOT
ATOM      1  C4' PXY d   1       0.784  -0.518  -2.147  0.00  0.00     0.077 C 
ATOM      2  C1' PXY d   1      -1.582   0.429   3.041  0.00  0.00     0.077 C 
ATOM      3  C1  PXY d   1      -0.969   0.170   1.679  0.00  0.00    -0.082 A 
ATOM      4  C2  PXY d   1       0.226   0.662   1.396  0.00  0.00     0.003 A 
ATOM      5  C3  PXY d   1       0.782   0.464   0.158  0.00  0.00     0.003 A 
ATOM      6  C4  PXY d   1       0.130  -0.289  -0.781  0.00  0.00    -0.082 A 
ATOM      7  C5  PXY d   1      -1.084  -0.804  -0.496  0.00  0.00     0.003 A 
ATOM      8  C6  PXY d   1      -1.649  -0.557   0.752  0.00  0.00     0.003 A 
ENDROOT
TORSDOF 0
ENDMDL
