MODEL 1
REMARK minimizedAffinity -2.84449506
REMARK minimizedRMSD -1
REMARK  0 active torsions:
REMARK  status: ('A' for Active; 'I' for Inactive)
ROOT
ATOM      1  C4' PXY d   1      -2.349  -1.509   0.095  0.00  0.00     0.077 C 
ATOM      2  C1' PXY d   1       2.613   0.839   1.907  0.00  0.00     0.077 C 
ATOM      3  C1  PXY d   1       1.318   0.216   1.423  0.00  0.00    -0.082 A 
ATOM      4  C2  PXY d   1       0.176   0.861   1.599  0.00  0.00     0.003 A 
ATOM      5  C3  PXY d   1      -1.008   0.298   1.196  0.00  0.00     0.003 A 
ATOM      6  C4  PXY d   1      -1.017  -0.914   0.559  0.00  0.00    -0.082 A 
ATOM      7  C5  PXY d   1       0.145  -1.573   0.366  0.00  0.00     0.003 A 
ATOM      8  C6  PXY d   1       1.331  -1.003   0.819  0.00  0.00     0.003 A 
ENDROOT
TORSDOF 0
ENDMDL
