MODEL 1
REMARK minimizedAffinity -3.51648712
REMARK minimizedRMSD -1
REMARK  0 active torsions:
REMARK  status: ('A' for Active; 'I' for Inactive)
ROOT
ATOM      1  C1  BNZ d   1      -0.766  -0.081  -1.345  0.00  0.00     0.000 A 
ATOM      2  C2  BNZ d   1      -0.646  -1.438  -1.489  0.00  0.00     0.000 A 
ATOM      3  C3  BNZ d   1       0.424  -2.106  -0.963  0.00  0.00     0.000 A 
ATOM      4  C4  BNZ d   1       1.391  -1.413  -0.328  0.00  0.00     0.000 A 
ATOM      5  C5  BNZ d   1       1.290  -0.044  -0.183  0.00  0.00     0.000 A 
ATOM      6  C6  BNZ d   1       0.192   0.620  -0.680  0.00  0.00     0.000 A 
ENDROOT
TORSDOF 0
ENDMDL
