MODEL 1
REMARK minimizedAffinity -1.32188511
REMARK minimizedRMSD -1
REMARK  0 active torsions:
REMARK  status: ('A' for Active; 'I' for Inactive)
ROOT
ATOM      1  C1  BNZ d   1       0.739   0.484  -0.497  0.00  0.00     0.000 A 
ATOM      2  C2  BNZ d   1      -0.127  -0.577  -0.493  0.00  0.00     0.000 A 
ATOM      3  C3  BNZ d   1       0.339  -1.860  -0.556  0.00  0.00     0.000 A 
ATOM      4  C4  BNZ d   1       1.666  -2.080  -0.663  0.00  0.00     0.000 A 
ATOM      5  C5  BNZ d   1       2.551  -1.020  -0.677  0.00  0.00     0.000 A 
ATOM      6  C6  BNZ d   1       2.080   0.269  -0.574  0.00  0.00     0.000 A 
ENDROOT
TORSDOF 0
ENDMDL
