MODEL 1
REMARK minimizedAffinity 0.243100271
REMARK minimizedRMSD -1
REMARK  0 active torsions:
REMARK  status: ('A' for Active; 'I' for Inactive)
ROOT
ATOM      1  C1  BNZ d   1       3.836  -2.157  -2.888  0.00  0.00     0.000 A 
ATOM      2  C2  BNZ d   1       4.890  -1.333  -3.178  0.00  0.00     0.000 A 
ATOM      3  C3  BNZ d   1       5.138  -0.220  -2.423  0.00  0.00     0.000 A 
ATOM      4  C4  BNZ d   1       4.308   0.089  -1.406  0.00  0.00     0.000 A 
ATOM      5  C5  BNZ d   1       3.235  -0.727  -1.107  0.00  0.00     0.000 A 
ATOM      6  C6  BNZ d   1       3.012  -1.867  -1.844  0.00  0.00     0.000 A 
ENDROOT
TORSDOF 0
ENDMDL
