MODEL 1
REMARK minimizedAffinity -4.02607155
REMARK minimizedRMSD -1
REMARK  0 active torsions:
REMARK  status: ('A' for Active; 'I' for Inactive)
ROOT
ATOM      1  C1  BNZ d   1      -0.425  -1.212  -1.640  0.00  0.00     0.000 A 
ATOM      2  C2  BNZ d   1      -0.129  -2.530  -1.861  0.00  0.00     0.000 A 
ATOM      3  C3  BNZ d   1       1.102  -3.034  -1.548  0.00  0.00     0.000 A 
ATOM      4  C4  BNZ d   1       2.048  -2.210  -1.052  0.00  0.00     0.000 A 
ATOM      5  C5  BNZ d   1       1.769  -0.876  -0.832  0.00  0.00     0.000 A 
ATOM      6  C6  BNZ d   1       0.515  -0.382  -1.112  0.00  0.00     0.000 A 
ENDROOT
TORSDOF 0
ENDMDL
