MODEL 1
REMARK minimizedAffinity -2.15489745
REMARK minimizedRMSD -1
REMARK  0 active torsions:
REMARK  status: ('A' for Active; 'I' for Inactive)
ROOT
ATOM      1  C1  BNZ d   1      -0.257   0.339   1.135  0.00  0.00     0.000 A 
ATOM      2  C2  BNZ d   1      -0.902  -0.659   0.454  0.00  0.00     0.000 A 
ATOM      3  C3  BNZ d   1      -0.459  -1.069  -0.773  0.00  0.00     0.000 A 
ATOM      4  C4  BNZ d   1       0.602  -0.455  -1.334  0.00  0.00     0.000 A 
ATOM      5  C5  BNZ d   1       1.258   0.559  -0.664  0.00  0.00     0.000 A 
ATOM      6  C6  BNZ d   1       0.833   0.943   0.587  0.00  0.00     0.000 A 
ENDROOT
TORSDOF 0
ENDMDL
