MODEL 1
REMARK minimizedAffinity -2.72978091
REMARK minimizedRMSD -1
REMARK  0 active torsions:
REMARK  status: ('A' for Active; 'I' for Inactive)
ROOT
ATOM      1  C1  BNZ d   1       0.898   0.119   0.459  0.00  0.00     0.000 A 
ATOM      2  C2  BNZ d   1       0.513   1.412   0.692  0.00  0.00     0.000 A 
ATOM      3  C3  BNZ d   1      -0.639   1.908   0.150  0.00  0.00     0.000 A 
ATOM      4  C4  BNZ d   1      -1.383   1.125  -0.657  0.00  0.00     0.000 A 
ATOM      5  C5  BNZ d   1      -1.004  -0.179  -0.909  0.00  0.00     0.000 A 
ATOM      6  C6  BNZ d   1       0.136  -0.687  -0.330  0.00  0.00     0.000 A 
ENDROOT
TORSDOF 0
ENDMDL
