MODEL 1
REMARK minimizedAffinity 9.75310135
REMARK minimizedRMSD -1
REMARK  1 active torsions:
REMARK  status: ('A' for Active; 'I' for Inactive)
REMARK    1  A    between atoms: C1_2  and  C2_3 
ROOT
ATOM      1  C2  UNL d   1       3.725  -1.857   2.261  0.00  0.00    -0.073 A 
ATOM      2  C3  UNL d   1       2.838  -1.170   1.423  0.00  0.00    -0.002 A 
ATOM      3  C4  UNL d   1       1.476  -1.125   1.724  0.00  0.00     0.004 A 
ATOM      4  C5  UNL d   1       0.988  -1.759   2.867  0.00  0.00    -0.004 A 
ATOM      5  C6  UNL d   1       1.860  -2.440   3.722  0.00  0.00    -0.075 A 
ATOM      6  C7  UNL d   1       1.350  -3.129   4.954  0.00  0.00     0.076 C 
ATOM      7  C8  UNL d   1       3.226  -2.483   3.412  0.00  0.00     0.001 A 
ENDROOT
BRANCH   1   8
ATOM      8  C1  UNL d   1       5.197  -1.903   1.944  0.00  0.00     0.053 C 
ATOM      9  C   UNL d   1       6.000  -2.556   3.058  0.00  0.00     0.018 C 
ENDBRANCH   1   8
TORSDOF 1
ENDMDL
