MODEL 1
REMARK minimizedAffinity 2.67369175
REMARK minimizedRMSD -1
REMARK  1 active torsions:
REMARK  status: ('A' for Active; 'I' for Inactive)
REMARK    1  A    between atoms: C1_2  and  C2_3 
ROOT
ATOM      1  C2  UNL d   1       0.875  -2.071   3.236  0.00  0.00    -0.073 A 
ATOM      2  C3  UNL d   1       1.305  -2.857   2.161  0.00  0.00    -0.002 A 
ATOM      3  C4  UNL d   1       1.665  -2.260   0.952  0.00  0.00     0.004 A 
ATOM      4  C5  UNL d   1       1.605  -0.874   0.808  0.00  0.00    -0.004 A 
ATOM      5  C6  UNL d   1       1.189  -0.071   1.875  0.00  0.00    -0.075 A 
ATOM      6  C7  UNL d   1       1.117   1.421   1.736  0.00  0.00     0.076 C 
ATOM      7  C8  UNL d   1       0.827  -0.678   3.085  0.00  0.00     0.001 A 
ENDROOT
BRANCH   1   8
ATOM      8  C1  UNL d   1       0.491  -2.710   4.546  0.00  0.00     0.053 C 
ATOM      9  C   UNL d   1       1.708  -3.167   5.335  0.00  0.00     0.018 C 
ENDBRANCH   1   8
TORSDOF 1
ENDMDL
