MODEL 1
REMARK minimizedAffinity 7.36296415
REMARK minimizedRMSD -1
REMARK  1 active torsions:
REMARK  status: ('A' for Active; 'I' for Inactive)
REMARK    1  A    between atoms: C1_2  and  C2_3 
ROOT
ATOM      1  C2  UNL d   1       1.220  -1.245   3.994  0.00  0.00    -0.073 A 
ATOM      2  C3  UNL d   1       2.247  -1.882   3.288  0.00  0.00    -0.002 A 
ATOM      3  C4  UNL d   1       2.334  -1.754   1.901  0.00  0.00     0.004 A 
ATOM      4  C5  UNL d   1       1.401  -0.983   1.207  0.00  0.00    -0.004 A 
ATOM      5  C6  UNL d   1       0.374  -0.330   1.896  0.00  0.00    -0.075 A 
ATOM      6  C7  UNL d   1      -0.639   0.501   1.164  0.00  0.00     0.076 C 
ATOM      7  C8  UNL d   1       0.292  -0.465   3.289  0.00  0.00     0.001 A 
ENDROOT
BRANCH   1   8
ATOM      8  C1  UNL d   1       1.125  -1.376   5.492  0.00  0.00     0.053 C 
ATOM      9  C   UNL d   1       1.810  -2.635   5.999  0.00  0.00     0.018 C 
ENDBRANCH   1   8
TORSDOF 1
ENDMDL
