MODEL 1
REMARK minimizedAffinity 5.19076014
REMARK minimizedRMSD -1
REMARK  0 active torsions:
REMARK  status: ('A' for Active; 'I' for Inactive)
ROOT
ATOM      1  C   UNL d   1       5.110  -3.822  -1.374  0.00  0.00     0.023 A 
ATOM      2  C1  UNL d   1       5.199  -2.471  -1.710  0.00  0.00     0.003 A 
ATOM      3  C2  UNL d   1       4.071  -1.653  -1.624  0.00  0.00     0.048 A 
ATOM      4  C3  UNL d   1       2.856  -2.193  -1.202  0.00  0.00     0.023 A 
ATOM      5  C4  UNL d   1       2.762  -3.544  -0.864  0.00  0.00     0.048 A 
ATOM      6  C5  UNL d   1       3.893  -4.358  -0.952  0.00  0.00     0.003 A 
ATOM      7  I   UNL d   1       1.175  -0.977  -1.074  0.00  0.00    -0.146 I 
ENDROOT
TORSDOF 0
ENDMDL
