MODEL 1
REMARK minimizedAffinity 0.622423768
REMARK minimizedRMSD -1
REMARK  0 active torsions:
REMARK  status: ('A' for Active; 'I' for Inactive)
ROOT
ATOM      1  C   UNL d   1      -0.439   3.444  -1.540  0.00  0.00     0.023 A 
ATOM      2  C1  UNL d   1      -0.356   4.186  -0.362  0.00  0.00     0.003 A 
ATOM      3  C2  UNL d   1      -0.281   3.535   0.872  0.00  0.00     0.048 A 
ATOM      4  C3  UNL d   1      -0.290   2.142   0.919  0.00  0.00     0.023 A 
ATOM      5  C4  UNL d   1      -0.372   1.395  -0.257  0.00  0.00     0.048 A 
ATOM      6  C5  UNL d   1      -0.448   2.050  -1.488  0.00  0.00     0.003 A 
ATOM      7  I   UNL d   1      -0.178   1.170   2.753  0.00  0.00    -0.146 I 
ENDROOT
TORSDOF 0
ENDMDL
