MODEL 1
REMARK minimizedAffinity 6.64978361
REMARK minimizedRMSD -1
REMARK  0 active torsions:
REMARK  status: ('A' for Active; 'I' for Inactive)
ROOT
ATOM      1  C   UNL d   1      -1.828  -0.740  -2.789  0.00  0.00     0.023 A 
ATOM      2  C1  UNL d   1      -2.726  -0.263  -1.834  0.00  0.00     0.003 A 
ATOM      3  C2  UNL d   1      -2.411   0.871  -1.082  0.00  0.00     0.048 A 
ATOM      4  C3  UNL d   1      -1.196   1.522  -1.290  0.00  0.00     0.023 A 
ATOM      5  C4  UNL d   1      -0.294   1.049  -2.245  0.00  0.00     0.048 A 
ATOM      6  C5  UNL d   1      -0.613  -0.085  -2.994  0.00  0.00     0.003 A 
ATOM      7  I   UNL d   1      -0.724   3.210  -0.171  0.00  0.00    -0.146 I 
ENDROOT
TORSDOF 0
ENDMDL
