MODEL 1
REMARK minimizedAffinity -1.36242187
REMARK minimizedRMSD -1
REMARK  0 active torsions:
REMARK  status: ('A' for Active; 'I' for Inactive)
ROOT
ATOM      1  C   UNL d   1      -1.523   2.607   2.777  0.00  0.00     0.023 A 
ATOM      2  C1  UNL d   1      -1.539   3.198   1.513  0.00  0.00     0.003 A 
ATOM      3  C2  UNL d   1      -0.899   2.572   0.441  0.00  0.00     0.048 A 
ATOM      4  C3  UNL d   1      -0.247   1.356   0.639  0.00  0.00     0.023 A 
ATOM      5  C4  UNL d   1      -0.229   0.761   1.902  0.00  0.00     0.048 A 
ATOM      6  C5  UNL d   1      -0.869   1.391   2.971  0.00  0.00     0.003 A 
ATOM      7  I   UNL d   1       0.705   0.423  -0.955  0.00  0.00    -0.146 I 
ENDROOT
TORSDOF 0
ENDMDL
