MODEL 1
REMARK minimizedAffinity 3.44529295
REMARK minimizedRMSD -1
REMARK  0 active torsions:
REMARK  status: ('A' for Active; 'I' for Inactive)
ROOT
ATOM      1  C   UNL d   1      -1.892   3.377   2.737  0.00  0.00     0.023 A 
ATOM      2  C1  UNL d   1      -2.032   4.179   1.605  0.00  0.00     0.003 A 
ATOM      3  C2  UNL d   1      -1.708   3.674   0.344  0.00  0.00     0.048 A 
ATOM      4  C3  UNL d   1      -1.247   2.363   0.222  0.00  0.00     0.023 A 
ATOM      5  C4  UNL d   1      -1.106   1.556   1.352  0.00  0.00     0.048 A 
ATOM      6  C5  UNL d   1      -1.430   2.066   2.611  0.00  0.00     0.003 A 
ATOM      7  I   UNL d   1      -0.766   1.608  -1.653  0.00  0.00    -0.146 I 
ENDROOT
TORSDOF 0
ENDMDL
