MODEL 1
REMARK minimizedAffinity 13.876996
REMARK minimizedRMSD -1
REMARK  0 active torsions:
REMARK  status: ('A' for Active; 'I' for Inactive)
ROOT
ATOM      1  C   UNL d   1      -0.282   0.568   3.081  0.00  0.00     0.023 A 
ATOM      2  C1  UNL d   1      -1.364   1.448   3.107  0.00  0.00     0.003 A 
ATOM      3  C2  UNL d   1      -1.581   2.322   2.039  0.00  0.00     0.048 A 
ATOM      4  C3  UNL d   1      -0.712   2.309   0.948  0.00  0.00     0.023 A 
ATOM      5  C4  UNL d   1       0.371   1.429   0.918  0.00  0.00     0.048 A 
ATOM      6  C5  UNL d   1       0.584   0.558   1.988  0.00  0.00     0.003 A 
ATOM      7  I   UNL d   1      -1.033   3.608  -0.642  0.00  0.00    -0.146 I 
ENDROOT
TORSDOF 0
ENDMDL
