MODEL 1
REMARK minimizedAffinity 8.72998047
REMARK minimizedRMSD -1
REMARK  0 active torsions:
REMARK  status: ('A' for Active; 'I' for Inactive)
ROOT
ATOM      1  C   UNL d   1      -1.006   3.860  -1.741  0.00  0.00     0.023 A 
ATOM      2  C1  UNL d   1      -1.555   2.619  -1.416  0.00  0.00     0.003 A 
ATOM      3  C2  UNL d   1      -1.373   2.086  -0.139  0.00  0.00     0.048 A 
ATOM      4  C3  UNL d   1      -0.642   2.800   0.810  0.00  0.00     0.023 A 
ATOM      5  C4  UNL d   1      -0.092   4.042   0.491  0.00  0.00     0.048 A 
ATOM      6  C5  UNL d   1      -0.276   4.570  -0.788  0.00  0.00     0.003 A 
ATOM      7  I   UNL d   1      -0.370   2.008   2.713  0.00  0.00    -0.146 I 
ENDROOT
TORSDOF 0
ENDMDL
