MODEL 1
REMARK minimizedAffinity 5.12400293
REMARK minimizedRMSD -1
REMARK  0 active torsions:
REMARK  status: ('A' for Active; 'I' for Inactive)
ROOT
ATOM      1  C   UNL d   1      -0.226   1.905   2.663  0.00  0.00     0.023 A 
ATOM      2  C1  UNL d   1       0.760   0.955   2.396  0.00  0.00     0.003 A 
ATOM      3  C2  UNL d   1       0.778   0.292   1.167  0.00  0.00     0.048 A 
ATOM      4  C3  UNL d   1      -0.192   0.585   0.209  0.00  0.00     0.023 A 
ATOM      5  C4  UNL d   1      -1.180   1.536   0.471  0.00  0.00     0.048 A 
ATOM      6  C5  UNL d   1      -1.195   2.195   1.702  0.00  0.00     0.003 A 
ATOM      7  I   UNL d   1      -0.166  -0.399  -1.621  0.00  0.00    -0.146 I 
ENDROOT
TORSDOF 0
ENDMDL
