MODEL 1
REMARK minimizedAffinity 3.46527505
REMARK minimizedRMSD -1
REMARK  0 active torsions:
REMARK  status: ('A' for Active; 'I' for Inactive)
ROOT
ATOM      1  C   UNL d   1       4.075  -6.000  -2.912  0.00  0.00     0.023 A 
ATOM      2  C1  UNL d   1       2.923  -5.602  -2.233  0.00  0.00     0.003 A 
ATOM      3  C2  UNL d   1       2.944  -4.463  -1.426  0.00  0.00     0.048 A 
ATOM      4  C3  UNL d   1       4.121  -3.725  -1.303  0.00  0.00     0.023 A 
ATOM      5  C4  UNL d   1       5.276  -4.119  -1.980  0.00  0.00     0.048 A 
ATOM      6  C5  UNL d   1       5.250  -5.259  -2.785  0.00  0.00     0.003 A 
ATOM      7  I   UNL d   1       4.155  -2.029  -0.103  0.00  0.00    -0.146 I 
ENDROOT
TORSDOF 0
ENDMDL
