MODEL 1
REMARK minimizedAffinity 5.95837116
REMARK minimizedRMSD -1
REMARK  0 active torsions:
REMARK  status: ('A' for Active; 'I' for Inactive)
ROOT
ATOM      1  C   UNL d   1      -1.689   0.571  -0.866  0.00  0.00     0.023 A 
ATOM      2  C1  UNL d   1      -2.640  -0.417  -1.122  0.00  0.00     0.003 A 
ATOM      3  C2  UNL d   1      -2.551  -1.190  -2.282  0.00  0.00     0.048 A 
ATOM      4  C3  UNL d   1      -1.508  -0.970  -3.181  0.00  0.00     0.023 A 
ATOM      5  C4  UNL d   1      -0.554   0.017  -2.929  0.00  0.00     0.048 A 
ATOM      6  C5  UNL d   1      -0.648   0.788  -1.769  0.00  0.00     0.003 A 
ATOM      7  I   UNL d   1      -1.374  -2.119  -4.908  0.00  0.00    -0.146 I 
ENDROOT
TORSDOF 0
ENDMDL
