MODEL 1
REMARK minimizedAffinity -0.515299737
REMARK minimizedRMSD -1
REMARK  0 active torsions:
REMARK  status: ('A' for Active; 'I' for Inactive)
ROOT
ATOM      1  C1  DEN d   1      -0.302  -0.574  -1.031  0.00  0.00     0.130 A 
ATOM      2  C2  DEN d   1      -1.184   0.140  -0.113  0.00  0.00    -0.031 A 
ATOM      3  C3  DEN d   1      -0.436   0.392   1.135  0.00  0.00     0.027 A 
ATOM      4  C4  DEN d   1       1.991  -0.246   1.729  0.00  0.00     0.027 A 
ATOM      5  C5  DEN d   1       3.131  -0.872   1.274  0.00  0.00    -0.003 A 
ATOM      6  C6  DEN d   1       3.194  -1.467   0.042  0.00  0.00     0.001 A 
ATOM      7  C7  DEN d   1       2.112  -1.410  -0.796  0.00  0.00     0.017 A 
ATOM      8  C8  DEN d   1       0.957  -0.787  -0.341  0.00  0.00    -0.094 A 
ATOM      9  C9  DEN d   1       0.917  -0.181   0.902  0.00  0.00    -0.072 A 
ENDROOT
TORSDOF 0
ENDMDL
