MODEL 1
REMARK minimizedAffinity -3.26406121
REMARK minimizedRMSD -1
REMARK  0 active torsions:
REMARK  status: ('A' for Active; 'I' for Inactive)
ROOT
ATOM      1  C1  DEN d   1      -0.275  -1.108  -1.441  0.00  0.00     0.130 A 
ATOM      2  C2  DEN d   1      -1.192  -0.067  -0.985  0.00  0.00    -0.031 A 
ATOM      3  C3  DEN d   1      -0.594   0.581   0.200  0.00  0.00     0.027 A 
ATOM      4  C4  DEN d   1       1.652   0.079   1.364  0.00  0.00     0.027 A 
ATOM      5  C5  DEN d   1       2.770  -0.725   1.347  0.00  0.00    -0.003 A 
ATOM      6  C6  DEN d   1       2.935  -1.727   0.427  0.00  0.00     0.001 A 
ATOM      7  C7  DEN d   1       1.986  -1.922  -0.541  0.00  0.00     0.017 A 
ATOM      8  C8  DEN d   1       0.853  -1.120  -0.526  0.00  0.00    -0.094 A 
ATOM      9  C9  DEN d   1       0.710  -0.104   0.404  0.00  0.00    -0.072 A 
ENDROOT
TORSDOF 0
ENDMDL
