MODEL 1
REMARK minimizedAffinity -4.02340841
REMARK minimizedRMSD -1
REMARK  0 active torsions:
REMARK  status: ('A' for Active; 'I' for Inactive)
ROOT
ATOM      1  C1  DEN d   1       0.455  -1.102   1.894  0.00  0.00     0.130 A 
ATOM      2  C2  DEN d   1       1.421  -1.305   0.818  0.00  0.00    -0.031 A 
ATOM      3  C3  DEN d   1       0.929  -0.591  -0.378  0.00  0.00     0.027 A 
ATOM      4  C4  DEN d   1      -1.221   0.805  -0.663  0.00  0.00     0.027 A 
ATOM      5  C5  DEN d   1      -2.360   1.254  -0.032  0.00  0.00    -0.003 A 
ATOM      6  C6  DEN d   1      -2.655   0.924   1.264  0.00  0.00     0.001 A 
ATOM      7  C7  DEN d   1      -1.778   0.158   1.986  0.00  0.00     0.017 A 
ATOM      8  C8  DEN d   1      -0.631  -0.304   1.354  0.00  0.00    -0.094 A 
ATOM      9  C9  DEN d   1      -0.345   0.051   0.047  0.00  0.00    -0.072 A 
ENDROOT
TORSDOF 0
ENDMDL
