MODEL 1
REMARK minimizedAffinity -2.91705751
REMARK minimizedRMSD -1
REMARK  0 active torsions:
REMARK  status: ('A' for Active; 'I' for Inactive)
ROOT
ATOM      1  C1  DEN d   1      -0.441   0.126   0.050  0.00  0.00     0.130 A 
ATOM      2  C2  DEN d   1      -0.999  -0.542  -1.123  0.00  0.00    -0.031 A 
ATOM      3  C3  DEN d   1      -0.050  -1.590  -1.547  0.00  0.00     0.027 A 
ATOM      4  C4  DEN d   1       2.217  -2.244  -0.506  0.00  0.00     0.027 A 
ATOM      5  C5  DEN d   1       3.118  -1.955   0.495  0.00  0.00    -0.003 A 
ATOM      6  C6  DEN d   1       2.913  -0.938   1.390  0.00  0.00     0.001 A 
ATOM      7  C7  DEN d   1       1.759  -0.202   1.329  0.00  0.00     0.017 A 
ATOM      8  C8  DEN d   1       0.850  -0.483   0.318  0.00  0.00    -0.094 A 
ATOM      9  C9  DEN d   1       1.069  -1.523  -0.569  0.00  0.00    -0.072 A 
ENDROOT
TORSDOF 0
ENDMDL
