MODEL 1
REMARK minimizedAffinity -3.86464405
REMARK minimizedRMSD -1
REMARK  0 active torsions:
REMARK  status: ('A' for Active; 'I' for Inactive)
ROOT
ATOM      1  C1  DEN d   1       0.277  -0.798  -0.181  0.00  0.00     0.130 A 
ATOM      2  C2  DEN d   1       0.741  -2.163  -0.409  0.00  0.00    -0.031 A 
ATOM      3  C3  DEN d   1       2.217  -2.158  -0.363  0.00  0.00     0.027 A 
ATOM      4  C4  DEN d   1       3.820  -0.178   0.041  0.00  0.00     0.027 A 
ATOM      5  C5  DEN d   1       3.893   1.178   0.273  0.00  0.00    -0.003 A 
ATOM      6  C6  DEN d   1       2.777   1.969   0.335  0.00  0.00     0.001 A 
ATOM      7  C7  DEN d   1       1.536   1.404   0.208  0.00  0.00     0.017 A 
ATOM      8  C8  DEN d   1       1.454   0.039  -0.033  0.00  0.00    -0.094 A 
ATOM      9  C9  DEN d   1       2.593  -0.747  -0.080  0.00  0.00    -0.072 A 
ENDROOT
TORSDOF 0
ENDMDL
