MODEL 1
REMARK minimizedAffinity -5.24467754
REMARK minimizedRMSD -1
REMARK  0 active torsions:
REMARK  status: ('A' for Active; 'I' for Inactive)
ROOT
ATOM      1  C1  DEN d   1      -0.256   0.795   1.054  0.00  0.00     0.130 A 
ATOM      2  C2  DEN d   1      -1.512   0.715   0.314  0.00  0.00    -0.031 A 
ATOM      3  C3  DEN d   1      -1.406  -0.401  -0.647  0.00  0.00     0.027 A 
ATOM      4  C4  DEN d   1       0.570  -2.008  -1.055  0.00  0.00     0.027 A 
ATOM      5  C5  DEN d   1       1.856  -2.325  -0.676  0.00  0.00    -0.003 A 
ATOM      6  C6  DEN d   1       2.534  -1.609   0.274  0.00  0.00     0.001 A 
ATOM      7  C7  DEN d   1       1.914  -0.567   0.910  0.00  0.00     0.017 A 
ATOM      8  C8  DEN d   1       0.620  -0.237   0.529  0.00  0.00    -0.094 A 
ATOM      9  C9  DEN d   1      -0.054  -0.980  -0.425  0.00  0.00    -0.072 A 
ENDROOT
TORSDOF 0
ENDMDL
