MODEL 1
REMARK minimizedAffinity -4.62821484
REMARK minimizedRMSD -1
REMARK  0 active torsions:
REMARK  status: ('A' for Active; 'I' for Inactive)
ROOT
ATOM      1  C1  DEN d   1      -1.180   0.557  -1.029  0.00  0.00     0.130 A 
ATOM      2  C2  DEN d   1      -0.054   0.029  -0.263  0.00  0.00    -0.031 A 
ATOM      3  C3  DEN d   1      -0.491  -0.132   1.138  0.00  0.00     0.027 A 
ATOM      4  C4  DEN d   1      -2.790   0.377   2.190  0.00  0.00     0.027 A 
ATOM      5  C5  DEN d   1      -4.059   0.852   1.939  0.00  0.00    -0.003 A 
ATOM      6  C6  DEN d   1      -4.443   1.290   0.699  0.00  0.00     0.001 A 
ATOM      7  C7  DEN d   1      -3.563   1.220  -0.348  0.00  0.00     0.017 A 
ATOM      8  C8  DEN d   1      -2.280   0.749  -0.101  0.00  0.00    -0.094 A 
ATOM      9  C9  DEN d   1      -1.914   0.300   1.156  0.00  0.00    -0.072 A 
ENDROOT
TORSDOF 0
ENDMDL
