MODEL 1
REMARK minimizedAffinity -3.74510503
REMARK minimizedRMSD -1
REMARK  0 active torsions:
REMARK  status: ('A' for Active; 'I' for Inactive)
ROOT
ATOM      1  C1  DEN d   1      -0.149   2.513  -0.146  0.00  0.00     0.130 A 
ATOM      2  C2  DEN d   1      -1.421   1.903  -0.522  0.00  0.00    -0.031 A 
ATOM      3  C3  DEN d   1      -1.325   0.452  -0.266  0.00  0.00     0.027 A 
ATOM      4  C4  DEN d   1       0.658  -0.902   0.674  0.00  0.00     0.027 A 
ATOM      5  C5  DEN d   1       1.956  -0.823   1.129  0.00  0.00    -0.003 A 
ATOM      6  C6  DEN d   1       2.650   0.358   1.157  0.00  0.00     0.001 A 
ATOM      7  C7  DEN d   1       2.032   1.517   0.766  0.00  0.00     0.017 A 
ATOM      8  C8  DEN d   1       0.726   1.444   0.300  0.00  0.00    -0.094 A 
ATOM      9  C9  DEN d   1       0.038   0.243   0.291  0.00  0.00    -0.072 A 
ENDROOT
TORSDOF 0
ENDMDL
