MODEL 1
REMARK minimizedAffinity -0.826324642
REMARK minimizedRMSD -1
REMARK  0 active torsions:
REMARK  status: ('A' for Active; 'I' for Inactive)
ROOT
ATOM      1  C1  DEN d   1      -2.814   1.491   0.200  0.00  0.00     0.130 A 
ATOM      2  C2  DEN d   1      -3.644   0.827   1.202  0.00  0.00    -0.031 A 
ATOM      3  C3  DEN d   1      -2.813  -0.186   1.883  0.00  0.00     0.027 A 
ATOM      4  C4  DEN d   1      -0.335  -0.784   1.492  0.00  0.00     0.027 A 
ATOM      5  C5  DEN d   1       0.783  -0.498   0.739  0.00  0.00    -0.003 A 
ATOM      6  C6  DEN d   1       0.771   0.438  -0.260  0.00  0.00     0.001 A 
ATOM      7  C7  DEN d   1      -0.369   1.156  -0.504  0.00  0.00     0.017 A 
ATOM      8  C8  DEN d   1      -1.503   0.869   0.245  0.00  0.00    -0.094 A 
ATOM      9  C9  DEN d   1      -1.467  -0.073   1.260  0.00  0.00    -0.072 A 
ENDROOT
TORSDOF 0
ENDMDL
