MODEL 1
REMARK minimizedAffinity -3.16524291
REMARK minimizedRMSD -1
REMARK  0 active torsions:
REMARK  status: ('A' for Active; 'I' for Inactive)
ROOT
ATOM      1  C1  DEN d   1      -1.697  -0.388  -0.251  0.00  0.00     0.130 A 
ATOM      2  C2  DEN d   1      -2.666   0.697  -0.132  0.00  0.00    -0.031 A 
ATOM      3  C3  DEN d   1      -1.931   1.929   0.217  0.00  0.00     0.027 A 
ATOM      4  C4  DEN d   1       0.601   2.261   0.580  0.00  0.00     0.027 A 
ATOM      5  C5  DEN d   1       1.824   1.629   0.599  0.00  0.00    -0.003 A 
ATOM      6  C6  DEN d   1       1.955   0.284   0.372  0.00  0.00     0.001 A 
ATOM      7  C7  DEN d   1       0.848  -0.464   0.071  0.00  0.00     0.017 A 
ATOM      8  C8  DEN d   1      -0.390   0.165   0.057  0.00  0.00    -0.094 A 
ATOM      9  C9  DEN d   1      -0.500   1.528   0.277  0.00  0.00    -0.072 A 
ENDROOT
TORSDOF 0
ENDMDL
