MODEL 1
REMARK minimizedAffinity -0.0774442926
REMARK minimizedRMSD -1
REMARK  0 active torsions:
REMARK  status: ('A' for Active; 'I' for Inactive)
ROOT
ATOM      1  O1  BZF d   1       4.510   4.327  -2.149  0.00  0.00    -0.204 OA
ATOM      2  C2  BZF d   1       5.289   5.251  -1.479  0.00  0.00     0.174 A 
ATOM      3  C3  BZF d   1       6.000   5.997  -2.348  0.00  0.00    -0.012 A 
ATOM      4  C3A BZF d   1       5.574   5.572  -3.646  0.00  0.00    -0.107 A 
ATOM      5  C4  BZF d   1       5.906   5.953  -4.914  0.00  0.00     0.055 A 
ATOM      6  C5  BZF d   1       5.362   5.288  -5.967  0.00  0.00    -0.016 A 
ATOM      7  C6  BZF d   1       4.487   4.236  -5.788  0.00  0.00     0.022 A 
ATOM      8  C7  BZF d   1       4.124   3.826  -4.549  0.00  0.00     0.029 A 
ATOM      9  C7A BZF d   1       4.647   4.517  -3.483  0.00  0.00     0.058 A 
ENDROOT
TORSDOF 0
ENDMDL
