MODEL 1
REMARK minimizedAffinity 2.32247376
REMARK minimizedRMSD -1
REMARK  0 active torsions:
REMARK  status: ('A' for Active; 'I' for Inactive)
ROOT
ATOM      1  O1  BZF d   1       6.000   2.653  -3.844  0.00  0.00    -0.204 OA
ATOM      2  C2  BZF d   1       5.997   1.889  -4.995  0.00  0.00     0.174 A 
ATOM      3  C3  BZF d   1       5.375   2.539  -6.000  0.00  0.00    -0.012 A 
ATOM      4  C3A BZF d   1       5.045   3.826  -5.468  0.00  0.00    -0.107 A 
ATOM      5  C4  BZF d   1       4.430   4.928  -5.990  0.00  0.00     0.055 A 
ATOM      6  C5  BZF d   1       4.196   5.997  -5.184  0.00  0.00    -0.016 A 
ATOM      7  C6  BZF d   1       4.558   5.996  -3.853  0.00  0.00     0.022 A 
ATOM      8  C7  BZF d   1       5.175   4.928  -3.292  0.00  0.00     0.029 A 
ATOM      9  C7A BZF d   1       5.443   3.859  -4.111  0.00  0.00     0.058 A 
ENDROOT
TORSDOF 0
ENDMDL
