MODEL 1
REMARK minimizedAffinity -1.47524428
REMARK minimizedRMSD -1
REMARK  0 active torsions:
REMARK  status: ('A' for Active; 'I' for Inactive)
ROOT
ATOM      1  O1  BZF d   1       3.986   3.445  -5.032  0.00  0.00    -0.204 OA
ATOM      2  C2  BZF d   1       5.006   3.596  -5.951  0.00  0.00     0.174 A 
ATOM      3  C3  BZF d   1       5.922   4.481  -5.508  0.00  0.00    -0.012 A 
ATOM      4  C3A BZF d   1       5.492   4.841  -4.191  0.00  0.00    -0.107 A 
ATOM      5  C4  BZF d   1       5.997   5.673  -3.233  0.00  0.00     0.055 A 
ATOM      6  C5  BZF d   1       5.296   5.858  -2.084  0.00  0.00    -0.016 A 
ATOM      7  C6  BZF d   1       4.086   5.234  -1.862  0.00  0.00     0.022 A 
ATOM      8  C7  BZF d   1       3.547   4.396  -2.781  0.00  0.00     0.029 A 
ATOM      9  C7A BZF d   1       4.269   4.180  -3.930  0.00  0.00     0.058 A 
ENDROOT
TORSDOF 0
ENDMDL
