MODEL 1
REMARK minimizedAffinity 6.2924552
REMARK minimizedRMSD -1
REMARK  0 active torsions:
REMARK  status: ('A' for Active; 'I' for Inactive)
ROOT
ATOM      1  O1  BZF d   1       3.293   3.950  -4.085  0.00  0.00    -0.204 OA
ATOM      2  C2  BZF d   1       3.694   4.302  -5.359  0.00  0.00     0.174 A 
ATOM      3  C3  BZF d   1       4.729   5.165  -5.313  0.00  0.00    -0.012 A 
ATOM      4  C3A BZF d   1       5.051   5.293  -3.924  0.00  0.00    -0.107 A 
ATOM      5  C4  BZF d   1       5.999   6.000  -3.242  0.00  0.00     0.055 A 
ATOM      6  C5  BZF d   1       5.999   5.965  -1.883  0.00  0.00    -0.016 A 
ATOM      7  C6  BZF d   1       5.062   5.239  -1.176  0.00  0.00     0.022 A 
ATOM      8  C7  BZF d   1       4.105   4.519  -1.809  0.00  0.00     0.029 A 
ATOM      9  C7A BZF d   1       4.123   4.525  -3.183  0.00  0.00     0.058 A 
ENDROOT
TORSDOF 0
ENDMDL
