MODEL 1
REMARK minimizedAffinity 1.06227124
REMARK minimizedRMSD -1
REMARK  0 active torsions:
REMARK  status: ('A' for Active; 'I' for Inactive)
ROOT
ATOM      1  O1  BZF d   1       2.411   4.133  -2.774  0.00  0.00    -0.204 OA
ATOM      2  C2  BZF d   1       2.047   4.457  -1.481  0.00  0.00     0.174 A 
ATOM      3  C3  BZF d   1       3.024   5.157  -0.870  0.00  0.00    -0.012 A 
ATOM      4  C3A BZF d   1       4.026   5.359  -1.872  0.00  0.00    -0.107 A 
ATOM      5  C4  BZF d   1       5.231   6.000  -1.878  0.00  0.00     0.055 A 
ATOM      6  C5  BZF d   1       6.000   5.950  -2.998  0.00  0.00    -0.016 A 
ATOM      7  C6  BZF d   1       5.596   5.266  -4.125  0.00  0.00     0.022 A 
ATOM      8  C7  BZF d   1       4.406   4.619  -4.168  0.00  0.00     0.029 A 
ATOM      9  C7A BZF d   1       3.613   4.695  -3.050  0.00  0.00     0.058 A 
ENDROOT
TORSDOF 0
ENDMDL
