MODEL 1
REMARK minimizedAffinity -1.27853191
REMARK minimizedRMSD -1
REMARK  0 active torsions:
REMARK  status: ('A' for Active; 'I' for Inactive)
ROOT
ATOM      1  O1  BZF d   1       2.813   5.992  -3.045  0.00  0.00    -0.204 OA
ATOM      2  C2  BZF d   1       2.915   5.305  -1.850  0.00  0.00     0.174 A 
ATOM      3  C3  BZF d   1       3.950   4.442  -1.881  0.00  0.00    -0.012 A 
ATOM      4  C3A BZF d   1       4.589   4.665  -3.142  0.00  0.00    -0.107 A 
ATOM      5  C4  BZF d   1       5.685   4.122  -3.749  0.00  0.00     0.055 A 
ATOM      6  C5  BZF d   1       5.999   4.508  -5.013  0.00  0.00    -0.016 A 
ATOM      7  C6  BZF d   1       5.238   5.430  -5.702  0.00  0.00     0.022 A 
ATOM      8  C7  BZF d   1       4.144   6.000  -5.139  0.00  0.00     0.029 A 
ATOM      9  C7A BZF d   1       3.843   5.636  -3.850  0.00  0.00     0.058 A 
ENDROOT
TORSDOF 0
ENDMDL
