MODEL 1
REMARK minimizedAffinity -2.08836555
REMARK minimizedRMSD -1
REMARK  0 active torsions:
REMARK  status: ('A' for Active; 'I' for Inactive)
ROOT
ATOM      1  O1  BZF d   1       4.215   3.359  -5.022  0.00  0.00    -0.204 OA
ATOM      2  C2  BZF d   1       5.183   3.606  -5.977  0.00  0.00     0.174 A 
ATOM      3  C3  BZF d   1       5.996   4.609  -5.586  0.00  0.00    -0.012 A 
ATOM      4  C3A BZF d   1       5.562   4.952  -4.267  0.00  0.00    -0.107 A 
ATOM      5  C4  BZF d   1       5.989   5.867  -3.346  0.00  0.00     0.055 A 
ATOM      6  C5  BZF d   1       5.303   6.000  -2.181  0.00  0.00    -0.016 A 
ATOM      7  C6  BZF d   1       4.185   5.240  -1.905  0.00  0.00     0.022 A 
ATOM      8  C7  BZF d   1       3.727   4.316  -2.785  0.00  0.00     0.029 A 
ATOM      9  C7A BZF d   1       4.438   4.156  -3.949  0.00  0.00     0.058 A 
ENDROOT
TORSDOF 0
ENDMDL
