MODEL 1
REMARK minimizedAffinity -0.555942416
REMARK minimizedRMSD -1
REMARK  0 active torsions:
REMARK  status: ('A' for Active; 'I' for Inactive)
ROOT
ATOM      1  O1  BZF d   1       3.865   3.990  -4.452  0.00  0.00    -0.204 OA
ATOM      2  C2  BZF d   1       5.003   3.986  -5.235  0.00  0.00     0.174 A 
ATOM      3  C3  BZF d   1       6.000   4.668  -4.635  0.00  0.00    -0.012 A 
ATOM      4  C3A BZF d   1       5.479   5.049  -3.358  0.00  0.00    -0.107 A 
ATOM      5  C4  BZF d   1       5.999   5.734  -2.297  0.00  0.00     0.055 A 
ATOM      6  C5  BZF d   1       5.204   6.000  -1.228  0.00  0.00    -0.016 A 
ATOM      7  C6  BZF d   1       3.884   5.601  -1.188  0.00  0.00     0.022 A 
ATOM      8  C7  BZF d   1       3.324   4.915  -2.214  0.00  0.00     0.029 A 
ATOM      9  C7A BZF d   1       4.135   4.615  -3.281  0.00  0.00     0.058 A 
ENDROOT
TORSDOF 0
ENDMDL
