MODEL 1
REMARK minimizedAffinity 7.01087046
REMARK minimizedRMSD -1
REMARK  0 active torsions:
REMARK  status: ('A' for Active; 'I' for Inactive)
ROOT
ATOM      1  O1  BZF d   1       4.511   4.922  -1.441  0.00  0.00    -0.204 OA
ATOM      2  C2  BZF d   1       3.215   4.445  -1.410  0.00  0.00     0.174 A 
ATOM      3  C3  BZF d   1       2.656   4.499  -2.636  0.00  0.00    -0.012 A 
ATOM      4  C3A BZF d   1       3.696   4.958  -3.504  0.00  0.00    -0.107 A 
ATOM      5  C4  BZF d   1       3.761   5.200  -4.847  0.00  0.00     0.055 A 
ATOM      6  C5  BZF d   1       4.904   5.712  -5.372  0.00  0.00    -0.016 A 
ATOM      7  C6  BZF d   1       6.000   5.999  -4.584  0.00  0.00     0.022 A 
ATOM      8  C7  BZF d   1       5.985   5.772  -3.248  0.00  0.00     0.029 A 
ATOM      9  C7A BZF d   1       4.843   5.223  -2.720  0.00  0.00     0.058 A 
ENDROOT
TORSDOF 0
ENDMDL
