MODEL 1
REMARK minimizedAffinity 1.37673259
REMARK minimizedRMSD -1
REMARK  0 active torsions:
REMARK  status: ('A' for Active; 'I' for Inactive)
ROOT
ATOM      1  O1  BZF d   1       3.953   3.361  -4.596  0.00  0.00    -0.204 OA
ATOM      2  C2  BZF d   1       5.049   3.327  -5.435  0.00  0.00     0.174 A 
ATOM      3  C3  BZF d   1       5.999   4.187  -5.016  0.00  0.00    -0.012 A 
ATOM      4  C3A BZF d   1       5.501   4.730  -3.790  0.00  0.00    -0.107 A 
ATOM      5  C4  BZF d   1       5.999   5.628  -2.889  0.00  0.00     0.055 A 
ATOM      6  C5  BZF d   1       5.231   5.999  -1.832  0.00  0.00    -0.016 A 
ATOM      7  C6  BZF d   1       3.959   5.496  -1.647  0.00  0.00     0.022 A 
ATOM      8  C7  BZF d   1       3.424   4.599  -2.510  0.00  0.00     0.029 A 
ATOM      9  C7A BZF d   1       4.211   4.197  -3.562  0.00  0.00     0.058 A 
ENDROOT
TORSDOF 0
ENDMDL
