MODEL 1
REMARK minimizedAffinity -0.315581262
REMARK minimizedRMSD -1
REMARK  0 active torsions:
REMARK  status: ('A' for Active; 'I' for Inactive)
ROOT
ATOM      1  O1  BZF d   1       3.756   5.488  -1.737  0.00  0.00    -0.204 OA
ATOM      2  C2  BZF d   1       4.940   5.996  -1.237  0.00  0.00     0.174 A 
ATOM      3  C3  BZF d   1       6.000   5.419  -1.839  0.00  0.00    -0.012 A 
ATOM      4  C3A BZF d   1       5.444   4.559  -2.838  0.00  0.00    -0.107 A 
ATOM      5  C4  BZF d   1       5.992   3.729  -3.773  0.00  0.00     0.055 A 
ATOM      6  C5  BZF d   1       5.171   2.973  -4.548  0.00  0.00    -0.016 A 
ATOM      7  C6  BZF d   1       3.799   3.018  -4.411  0.00  0.00     0.022 A 
ATOM      8  C7  BZF d   1       3.208   3.830  -3.501  0.00  0.00     0.029 A 
ATOM      9  C7A BZF d   1       4.034   4.620  -2.739  0.00  0.00     0.058 A 
ENDROOT
TORSDOF 0
ENDMDL
