MODEL 1
REMARK minimizedAffinity -0.352250338
REMARK minimizedRMSD -1
REMARK  0 active torsions:
REMARK  status: ('A' for Active; 'I' for Inactive)
ROOT
ATOM      1  O1  BZF d   1       4.056   6.000  -2.851  0.00  0.00    -0.204 OA
ATOM      2  C2  BZF d   1       5.102   5.993  -1.948  0.00  0.00     0.174 A 
ATOM      3  C3  BZF d   1       5.999   5.037  -2.262  0.00  0.00    -0.012 A 
ATOM      4  C3A BZF d   1       5.528   4.467  -3.487  0.00  0.00    -0.107 A 
ATOM      5  C4  BZF d   1       6.000   3.481  -4.306  0.00  0.00     0.055 A 
ATOM      6  C5  BZF d   1       5.265   3.114  -5.388  0.00  0.00    -0.016 A 
ATOM      7  C6  BZF d   1       4.053   3.706  -5.678  0.00  0.00     0.022 A 
ATOM      8  C7  BZF d   1       3.546   4.691  -4.898  0.00  0.00     0.029 A 
ATOM      9  C7A BZF d   1       4.303   5.088  -3.822  0.00  0.00     0.058 A 
ENDROOT
TORSDOF 0
ENDMDL
