MODEL 1
REMARK minimizedAffinity 0.0787132829
REMARK minimizedRMSD -1
REMARK  0 active torsions:
REMARK  status: ('A' for Active; 'I' for Inactive)
ROOT
ATOM      1  O1  BZF d   1       4.032   3.678  -5.063  0.00  0.00    -0.204 OA
ATOM      2  C2  BZF d   1       5.020   3.915  -5.999  0.00  0.00     0.174 A 
ATOM      3  C3  BZF d   1       5.911   4.815  -5.536  0.00  0.00    -0.012 A 
ATOM      4  C3A BZF d   1       5.502   5.093  -4.194  0.00  0.00    -0.107 A 
ATOM      5  C4  BZF d   1       5.999   5.899  -3.209  0.00  0.00     0.055 A 
ATOM      6  C5  BZF d   1       5.323   6.000  -2.035  0.00  0.00    -0.016 A 
ATOM      7  C6  BZF d   1       4.146   5.315  -1.813  0.00  0.00     0.022 A 
ATOM      8  C7  BZF d   1       3.616   4.501  -2.759  0.00  0.00     0.029 A 
ATOM      9  C7A BZF d   1       4.315   4.371  -3.934  0.00  0.00     0.058 A 
ENDROOT
TORSDOF 0
ENDMDL
