MODEL 1
REMARK minimizedAffinity 4.94169998
REMARK minimizedRMSD -1
REMARK  0 active torsions:
REMARK  status: ('A' for Active; 'I' for Inactive)
ROOT
ATOM      1  O1  BZF d   1       4.912   5.190  -5.340  0.00  0.00    -0.204 OA
ATOM      2  C2  BZF d   1       5.984   4.433  -4.909  0.00  0.00     0.174 A 
ATOM      3  C3  BZF d   1       5.851   4.112  -3.606  0.00  0.00    -0.012 A 
ATOM      4  C3A BZF d   1       4.573   4.627  -3.221  0.00  0.00    -0.107 A 
ATOM      5  C4  BZF d   1       3.868   4.611  -2.052  0.00  0.00     0.055 A 
ATOM      6  C5  BZF d   1       2.680   5.269  -1.987  0.00  0.00    -0.016 A 
ATOM      7  C6  BZF d   1       2.172   5.957  -3.069  0.00  0.00     0.022 A 
ATOM      8  C7  BZF d   1       2.833   5.997  -4.252  0.00  0.00     0.029 A 
ATOM      9  C7A BZF d   1       4.017   5.306  -4.330  0.00  0.00     0.058 A 
ENDROOT
TORSDOF 0
ENDMDL
