MODEL 1
REMARK minimizedAffinity 9.83833694
REMARK minimizedRMSD -1
REMARK  0 active torsions:
REMARK  status: ('A' for Active; 'I' for Inactive)
ROOT
ATOM      1  O1  BZF d   1       4.913   6.000  -1.484  0.00  0.00    -0.204 OA
ATOM      2  C2  BZF d   1       5.999   5.187  -1.220  0.00  0.00     0.174 A 
ATOM      3  C3  BZF d   1       5.996   4.107  -2.027  0.00  0.00    -0.012 A 
ATOM      4  C3A BZF d   1       4.887   4.300  -2.910  0.00  0.00    -0.107 A 
ATOM      5  C4  BZF d   1       4.375   3.575  -3.948  0.00  0.00     0.055 A 
ATOM      6  C5  BZF d   1       3.239   4.004  -4.557  0.00  0.00    -0.016 A 
ATOM      7  C6  BZF d   1       2.586   5.149  -4.151  0.00  0.00     0.022 A 
ATOM      8  C7  BZF d   1       3.058   5.905  -3.130  0.00  0.00     0.029 A 
ATOM      9  C7A BZF d   1       4.225   5.492  -2.534  0.00  0.00     0.058 A 
ENDROOT
TORSDOF 0
ENDMDL
