MODEL 1
REMARK minimizedAffinity 7.21592712
REMARK minimizedRMSD -1
REMARK  0 active torsions:
REMARK  status: ('A' for Active; 'I' for Inactive)
ROOT
ATOM      1  O1  BZF d   1       2.772   3.768  -2.416  0.00  0.00    -0.204 OA
ATOM      2  C2  BZF d   1       2.226   4.947  -1.949  0.00  0.00     0.174 A 
ATOM      3  C3  BZF d   1       2.999   5.999  -2.286  0.00  0.00    -0.012 A 
ATOM      4  C3A BZF d   1       4.050   5.452  -3.088  0.00  0.00    -0.107 A 
ATOM      5  C4  BZF d   1       5.122   6.000  -3.732  0.00  0.00     0.055 A 
ATOM      6  C5  BZF d   1       6.000   5.181  -4.369  0.00  0.00    -0.016 A 
ATOM      7  C6  BZF d   1       5.839   3.811  -4.377  0.00  0.00     0.022 A 
ATOM      8  C7  BZF d   1       4.788   3.221  -3.757  0.00  0.00     0.029 A 
ATOM      9  C7A BZF d   1       3.881   4.049  -3.141  0.00  0.00     0.058 A 
ENDROOT
TORSDOF 0
ENDMDL
