MODEL 1
REMARK minimizedAffinity 10.1253948
REMARK minimizedRMSD -1
REMARK  1 active torsions:
REMARK  status: ('A' for Active; 'I' for Inactive)
REMARK    1  A    between atoms: C3_4  and  O_7 
ROOT
ATOM      1  C   UNL d   1       3.943   1.839  -1.493  0.00  0.00    -0.033 A 
ATOM      2  C1  UNL d   1       5.298   1.876  -1.830  0.00  0.00     0.039 A 
ATOM      3  C2  UNL d   1       6.000   3.082  -1.777  0.00  0.00    -0.080 A 
ATOM      4  C3  UNL d   1       5.337   4.242  -1.385  0.00  0.00     0.150 A 
ATOM      5  C4  UNL d   1       3.989   4.212  -1.044  0.00  0.00    -0.007 A 
ATOM      6  C5  UNL d   1       3.289   3.007  -1.099  0.00  0.00     0.039 A 
ENDROOT
BRANCH   4   7
ATOM      7  O   UNL d   1       5.979   5.443  -1.322  0.00  0.00    -0.526 OA
ATOM      8  H5  UNL d   1       6.898   5.316  -1.613  0.00  0.00     0.418 HD
ENDBRANCH   4   7
TORSDOF 1
ENDMDL
