MODEL 1
REMARK minimizedAffinity -0.836771131
REMARK minimizedRMSD -1
REMARK  1 active torsions:
REMARK  status: ('A' for Active; 'I' for Inactive)
REMARK    1  A    between atoms: C3_4  and  O_7 
ROOT
ATOM      1  C   UNL d   1       0.182   2.364   0.495  0.00  0.00    -0.033 A 
ATOM      2  C1  UNL d   1       1.399   1.765   0.827  0.00  0.00     0.039 A 
ATOM      3  C2  UNL d   1       1.545   1.109   2.051  0.00  0.00    -0.080 A 
ATOM      4  C3  UNL d   1       0.468   1.058   2.932  0.00  0.00     0.150 A 
ATOM      5  C4  UNL d   1      -0.748   1.650   2.606  0.00  0.00    -0.007 A 
ATOM      6  C5  UNL d   1      -0.892   2.305   1.383  0.00  0.00     0.039 A 
ENDROOT
BRANCH   4   7
ATOM      7  O   UNL d   1       0.565   0.434   4.140  0.00  0.00    -0.526 OA
ATOM      8  H5  UNL d   1       1.470   0.097   4.240  0.00  0.00     0.418 HD
ENDBRANCH   4   7
TORSDOF 1
ENDMDL
