MODEL 1
REMARK minimizedAffinity -3.02325916
REMARK minimizedRMSD -1
REMARK  1 active torsions:
REMARK  status: ('A' for Active; 'I' for Inactive)
REMARK    1  A    between atoms: C3_4  and  O_7 
ROOT
ATOM      1  C   UNL d   1      -4.913   2.464  -3.550  0.00  0.00    -0.033 A 
ATOM      2  C1  UNL d   1      -4.504   1.907  -2.337  0.00  0.00     0.039 A 
ATOM      3  C2  UNL d   1      -3.282   1.237  -2.252  0.00  0.00    -0.080 A 
ATOM      4  C3  UNL d   1      -2.479   1.133  -3.385  0.00  0.00     0.150 A 
ATOM      5  C4  UNL d   1      -2.879   1.689  -4.595  0.00  0.00    -0.007 A 
ATOM      6  C5  UNL d   1      -4.100   2.356  -4.679  0.00  0.00     0.039 A 
ENDROOT
BRANCH   4   7
ATOM      7  O   UNL d   1      -1.280   0.484  -3.351  0.00  0.00    -0.526 OA
ATOM      8  H5  UNL d   1      -1.149   0.127  -2.457  0.00  0.00     0.418 HD
ENDBRANCH   4   7
TORSDOF 1
ENDMDL
