MODEL 1
REMARK minimizedAffinity 2.81997466
REMARK minimizedRMSD -1
REMARK  1 active torsions:
REMARK  status: ('A' for Active; 'I' for Inactive)
REMARK    1  A    between atoms: C3_4  and  O_7 
ROOT
ATOM      1  C   UNL d   1       0.848   1.993   0.046  0.00  0.00    -0.033 A 
ATOM      2  C1  UNL d   1      -0.485   2.345   0.267  0.00  0.00     0.039 A 
ATOM      3  C2  UNL d   1      -1.139   1.919   1.425  0.00  0.00    -0.080 A 
ATOM      4  C3  UNL d   1      -0.449   1.144   2.354  0.00  0.00     0.150 A 
ATOM      5  C4  UNL d   1       0.881   0.794   2.142  0.00  0.00    -0.007 A 
ATOM      6  C5  UNL d   1       1.531   1.219   0.984  0.00  0.00     0.039 A 
ENDROOT
BRANCH   4   7
ATOM      7  O   UNL d   1      -1.046   0.701   3.496  0.00  0.00    -0.526 OA
ATOM      8  H5  UNL d   1      -1.971   0.996   3.494  0.00  0.00     0.418 HD
ENDBRANCH   4   7
TORSDOF 1
ENDMDL
