MODEL 1
REMARK minimizedAffinity 2.96015048
REMARK minimizedRMSD -1
REMARK  1 active torsions:
REMARK  status: ('A' for Active; 'I' for Inactive)
REMARK    1  A    between atoms: C3_4  and  O_7 
ROOT
ATOM      1  C   UNL d   1      -3.131   0.604  -0.947  0.00  0.00    -0.033 A 
ATOM      2  C1  UNL d   1      -2.738   1.009   0.330  0.00  0.00     0.039 A 
ATOM      3  C2  UNL d   1      -1.446   1.494   0.544  0.00  0.00    -0.080 A 
ATOM      4  C3  UNL d   1      -0.559   1.570  -0.527  0.00  0.00     0.150 A 
ATOM      5  C4  UNL d   1      -0.946   1.172  -1.802  0.00  0.00    -0.007 A 
ATOM      6  C5  UNL d   1      -2.236   0.687  -2.013  0.00  0.00     0.039 A 
ENDROOT
BRANCH   4   7
ATOM      7  O   UNL d   1       0.713   2.032  -0.367  0.00  0.00    -0.526 OA
ATOM      8  H5  UNL d   1       0.848   2.243   0.572  0.00  0.00     0.418 HD
ENDBRANCH   4   7
TORSDOF 1
ENDMDL
