MODEL 1
REMARK minimizedAffinity 2.97313929
REMARK minimizedRMSD -1
REMARK  1 active torsions:
REMARK  status: ('A' for Active; 'I' for Inactive)
REMARK    1  A    between atoms: C3_4  and  O_7 
ROOT
ATOM      1  C   UNL d   1       3.202  -1.452   1.181  0.00  0.00    -0.033 A 
ATOM      2  C1  UNL d   1       2.781  -1.368  -0.148  0.00  0.00     0.039 A 
ATOM      3  C2  UNL d   1       2.117  -0.226  -0.601  0.00  0.00    -0.080 A 
ATOM      4  C3  UNL d   1       1.881   0.823   0.283  0.00  0.00     0.150 A 
ATOM      5  C4  UNL d   1       2.301   0.748   1.607  0.00  0.00    -0.007 A 
ATOM      6  C5  UNL d   1       2.963  -0.393   2.058  0.00  0.00     0.039 A 
ENDROOT
BRANCH   4   7
ATOM      7  O   UNL d   1       1.232   1.955  -0.112  0.00  0.00    -0.526 OA
ATOM      8  H5  UNL d   1       0.976   1.854  -1.044  0.00  0.00     0.418 HD
ENDBRANCH   4   7
TORSDOF 1
ENDMDL
