MODEL 1
REMARK minimizedAffinity 0.836828828
REMARK minimizedRMSD -1
REMARK  1 active torsions:
REMARK  status: ('A' for Active; 'I' for Inactive)
REMARK    1  A    between atoms: C3_4  and  O_7 
ROOT
ATOM      1  C   UNL d   1      -1.040   0.582  -1.890  0.00  0.00    -0.033 A 
ATOM      2  C1  UNL d   1      -2.217   0.380  -1.166  0.00  0.00     0.039 A 
ATOM      3  C2  UNL d   1      -2.275   0.724   0.186  0.00  0.00    -0.080 A 
ATOM      4  C3  UNL d   1      -1.151   1.268   0.801  0.00  0.00     0.150 A 
ATOM      5  C4  UNL d   1       0.023   1.476   0.086  0.00  0.00    -0.007 A 
ATOM      6  C5  UNL d   1       0.080   1.131  -1.264  0.00  0.00     0.039 A 
ENDROOT
BRANCH   4   7
ATOM      7  O   UNL d   1      -1.159   1.615   2.120  0.00  0.00    -0.526 OA
ATOM      8  H5  UNL d   1      -2.027   1.388   2.493  0.00  0.00     0.418 HD
ENDBRANCH   4   7
TORSDOF 1
ENDMDL
