MODEL 1
REMARK minimizedAffinity -1.61101401
REMARK minimizedRMSD -1
REMARK  1 active torsions:
REMARK  status: ('A' for Active; 'I' for Inactive)
REMARK    1  A    between atoms: C3_4  and  O_7 
ROOT
ATOM      1  C   UNL d   1       3.310   1.593  -0.035  0.00  0.00    -0.033 A 
ATOM      2  C1  UNL d   1       2.012   1.278   0.374  0.00  0.00     0.039 A 
ATOM      3  C2  UNL d   1       1.572  -0.047   0.348  0.00  0.00    -0.080 A 
ATOM      4  C3  UNL d   1       2.438  -1.046  -0.089  0.00  0.00     0.150 A 
ATOM      5  C4  UNL d   1       3.732  -0.740  -0.494  0.00  0.00    -0.007 A 
ATOM      6  C5  UNL d   1       4.170   0.583  -0.468  0.00  0.00     0.039 A 
ENDROOT
BRANCH   4   7
ATOM      7  O   UNL d   1       2.051  -2.352  -0.136  0.00  0.00    -0.526 OA
ATOM      8  H5  UNL d   1       1.123  -2.409   0.146  0.00  0.00     0.418 HD
ENDBRANCH   4   7
TORSDOF 1
ENDMDL
