MODEL 1
REMARK minimizedAffinity -0.955168784
REMARK minimizedRMSD -1
REMARK  0 active torsions:
REMARK  status: ('A' for Active; 'I' for Inactive)
ROOT
ATOM      1  C1  BNZ d   1      -4.926   0.396  -4.924  0.00  0.00     0.000 A 
ATOM      2  C2  BNZ d   1      -6.000   1.179  -4.592  0.00  0.00     0.000 A 
ATOM      3  C3  BNZ d   1      -5.837   2.308  -3.839  0.00  0.00     0.000 A 
ATOM      4  C4  BNZ d   1      -4.608   2.631  -3.386  0.00  0.00     0.000 A 
ATOM      5  C5  BNZ d   1      -3.517   1.847  -3.705  0.00  0.00     0.000 A 
ATOM      6  C6  BNZ d   1      -3.679   0.733  -4.495  0.00  0.00     0.000 A 
ENDROOT
TORSDOF 0
ENDMDL
