MODEL 1
REMARK minimizedAffinity 2.87901497
REMARK minimizedRMSD -1
REMARK  0 active torsions:
REMARK  status: ('A' for Active; 'I' for Inactive)
ROOT
ATOM      1  C1  BNZ d   1      -0.035  -1.858   3.120  0.00  0.00     0.000 A 
ATOM      2  C2  BNZ d   1      -0.216  -3.118   3.625  0.00  0.00     0.000 A 
ATOM      3  C3  BNZ d   1       0.348  -3.481   4.816  0.00  0.00     0.000 A 
ATOM      4  C4  BNZ d   1       1.123  -2.599   5.479  0.00  0.00     0.000 A 
ATOM      5  C5  BNZ d   1       1.323  -1.329   4.978  0.00  0.00     0.000 A 
ATOM      6  C6  BNZ d   1       0.722  -0.953   3.798  0.00  0.00     0.000 A 
ENDROOT
TORSDOF 0
ENDMDL
