MODEL 1
REMARK minimizedAffinity 6.93211842
REMARK minimizedRMSD -1
REMARK  0 active torsions:
REMARK  status: ('A' for Active; 'I' for Inactive)
ROOT
ATOM      1  C1  BNZ d   1       5.976  -0.374  -0.369  0.00  0.00     0.000 A 
ATOM      2  C2  BNZ d   1       4.780  -1.039  -0.310  0.00  0.00     0.000 A 
ATOM      3  C3  BNZ d   1       3.600  -0.373  -0.490  0.00  0.00     0.000 A 
ATOM      4  C4  BNZ d   1       3.615   0.961  -0.689  0.00  0.00     0.000 A 
ATOM      5  C5  BNZ d   1       4.812   1.647  -0.742  0.00  0.00     0.000 A 
ATOM      6  C6  BNZ d   1       6.000   0.967  -0.599  0.00  0.00     0.000 A 
ENDROOT
TORSDOF 0
ENDMDL
