MODEL 1
REMARK minimizedAffinity 11.3236074
REMARK minimizedRMSD -1
REMARK  0 active torsions:
REMARK  status: ('A' for Active; 'I' for Inactive)
ROOT
ATOM      1  C1  BNZ d   1      -1.898   0.111  -4.019  0.00  0.00     0.000 A 
ATOM      2  C2  BNZ d   1      -2.036   0.901  -5.129  0.00  0.00     0.000 A 
ATOM      3  C3  BNZ d   1      -3.263   1.373  -5.504  0.00  0.00     0.000 A 
ATOM      4  C4  BNZ d   1      -4.354   1.021  -4.794  0.00  0.00     0.000 A 
ATOM      5  C5  BNZ d   1      -4.233   0.218  -3.678  0.00  0.00     0.000 A 
ATOM      6  C6  BNZ d   1      -2.991  -0.223  -3.280  0.00  0.00     0.000 A 
ENDROOT
TORSDOF 0
ENDMDL
