MODEL 1
REMARK minimizedAffinity 1.47778916
REMARK minimizedRMSD -1
REMARK  0 active torsions:
REMARK  status: ('A' for Active; 'I' for Inactive)
ROOT
ATOM      1  C1  BNZ d   1       4.309  -0.364  -1.506  0.00  0.00     0.000 A 
ATOM      2  C2  BNZ d   1       3.735  -0.941  -0.405  0.00  0.00     0.000 A 
ATOM      3  C3  BNZ d   1       3.266  -2.224  -0.451  0.00  0.00     0.000 A 
ATOM      4  C4  BNZ d   1       3.335  -2.914  -1.607  0.00  0.00     0.000 A 
ATOM      5  C5  BNZ d   1       3.902  -2.343  -2.729  0.00  0.00     0.000 A 
ATOM      6  C6  BNZ d   1       4.409  -1.065  -2.668  0.00  0.00     0.000 A 
ENDROOT
TORSDOF 0
ENDMDL
