MODEL 1
REMARK minimizedAffinity 3.06187463
REMARK minimizedRMSD -1
REMARK  0 active torsions:
REMARK  status: ('A' for Active; 'I' for Inactive)
ROOT
ATOM      1  C1  BNZ d   1       3.350   0.004  -0.944  0.00  0.00     0.000 A 
ATOM      2  C2  BNZ d   1       3.991   1.090  -1.476  0.00  0.00     0.000 A 
ATOM      3  C3  BNZ d   1       5.261   1.414  -1.086  0.00  0.00     0.000 A 
ATOM      4  C4  BNZ d   1       5.872   0.676  -0.137  0.00  0.00     0.000 A 
ATOM      5  C5  BNZ d   1       5.235  -0.417   0.416  0.00  0.00     0.000 A 
ATOM      6  C6  BNZ d   1       3.972  -0.763  -0.007  0.00  0.00     0.000 A 
ENDROOT
TORSDOF 0
ENDMDL
