MODEL 1
REMARK minimizedAffinity 3.43621492
REMARK minimizedRMSD -1
REMARK  0 active torsions:
REMARK  status: ('A' for Active; 'I' for Inactive)
ROOT
ATOM      1  C1  BNZ d   1       0.277  -1.275  -0.505  0.00  0.00     0.000 A 
ATOM      2  C2  BNZ d   1       1.016  -0.633   0.452  0.00  0.00     0.000 A 
ATOM      3  C3  BNZ d   1       0.787   0.682   0.749  0.00  0.00     0.000 A 
ATOM      4  C4  BNZ d   1      -0.153   1.362   0.062  0.00  0.00     0.000 A 
ATOM      5  C5  BNZ d   1      -0.901   0.731  -0.912  0.00  0.00     0.000 A 
ATOM      6  C6  BNZ d   1      -0.694  -0.603  -1.182  0.00  0.00     0.000 A 
ENDROOT
TORSDOF 0
ENDMDL
