MODEL 1
REMARK minimizedAffinity -1.90984595
REMARK minimizedRMSD -1
REMARK  0 active torsions:
REMARK  status: ('A' for Active; 'I' for Inactive)
ROOT
ATOM      1  C1  BNZ d   1       5.981   3.643   1.552  0.00  0.00     0.000 A 
ATOM      2  C2  BNZ d   1       5.933   3.660   2.920  0.00  0.00     0.000 A 
ATOM      3  C3  BNZ d   1       5.811   4.839   3.602  0.00  0.00     0.000 A 
ATOM      4  C4  BNZ d   1       5.778   6.000   2.917  0.00  0.00     0.000 A 
ATOM      5  C5  BNZ d   1       5.835   6.000   1.538  0.00  0.00     0.000 A 
ATOM      6  C6  BNZ d   1       5.918   4.809   0.853  0.00  0.00     0.000 A 
ENDROOT
TORSDOF 0
ENDMDL
