MODEL 1
REMARK minimizedAffinity -0.846361279
REMARK minimizedRMSD -1
REMARK  0 active torsions:
REMARK  status: ('A' for Active; 'I' for Inactive)
ROOT
ATOM      1  C1  BNZ d   1      -1.228  -3.990  -2.300  0.00  0.00     0.000 A 
ATOM      2  C2  BNZ d   1      -1.730  -4.285  -3.539  0.00  0.00     0.000 A 
ATOM      3  C3  BNZ d   1      -1.711  -3.356  -4.541  0.00  0.00     0.000 A 
ATOM      4  C4  BNZ d   1      -1.228  -2.122  -4.292  0.00  0.00     0.000 A 
ATOM      5  C5  BNZ d   1      -0.726  -1.806  -3.045  0.00  0.00     0.000 A 
ATOM      6  C6  BNZ d   1      -0.711  -2.756  -2.050  0.00  0.00     0.000 A 
ENDROOT
TORSDOF 0
ENDMDL
