MODEL 1
REMARK minimizedAffinity 9.02920055
REMARK minimizedRMSD -1
REMARK  0 active torsions:
REMARK  status: ('A' for Active; 'I' for Inactive)
ROOT
ATOM      1  C1  BNZ d   1       2.995  -1.035  -0.041  0.00  0.00     0.000 A 
ATOM      2  C2  BNZ d   1       3.749   0.108  -0.042  0.00  0.00     0.000 A 
ATOM      3  C3  BNZ d   1       4.218   0.636  -1.213  0.00  0.00     0.000 A 
ATOM      4  C4  BNZ d   1       3.967  -0.001  -2.375  0.00  0.00     0.000 A 
ATOM      5  C5  BNZ d   1       3.216  -1.160  -2.389  0.00  0.00     0.000 A 
ATOM      6  C6  BNZ d   1       2.713  -1.667  -1.213  0.00  0.00     0.000 A 
ENDROOT
TORSDOF 0
ENDMDL
