MODEL 1
REMARK minimizedAffinity 4.39401817
REMARK minimizedRMSD -1
REMARK  0 active torsions:
REMARK  status: ('A' for Active; 'I' for Inactive)
ROOT
ATOM      1  C1  BNZ d   1       1.533  -2.994  -0.266  0.00  0.00     0.000 A 
ATOM      2  C2  BNZ d   1       1.423  -3.706  -1.431  0.00  0.00     0.000 A 
ATOM      3  C3  BNZ d   1       2.214  -3.414  -2.507  0.00  0.00     0.000 A 
ATOM      4  C4  BNZ d   1       3.084  -2.386  -2.431  0.00  0.00     0.000 A 
ATOM      5  C5  BNZ d   1       3.201  -1.654  -1.266  0.00  0.00     0.000 A 
ATOM      6  C6  BNZ d   1       2.431  -1.975  -0.172  0.00  0.00     0.000 A 
ENDROOT
TORSDOF 0
ENDMDL
