MODEL 1
REMARK minimizedAffinity 2.43959045
REMARK minimizedRMSD -1
REMARK  1 active torsions:
REMARK  status: ('A' for Active; 'I' for Inactive)
REMARK    1  A    between atoms: N_2  and  C1_3 
ROOT
ATOM      1  C1  UNL d   1      -1.816  -5.923  -2.762  0.00  0.00     0.143 A 
ATOM      2  C2  UNL d   1      -0.527  -5.956  -2.219  0.00  0.00    -0.057 A 
ATOM      3  C3  UNL d   1       0.607  -5.979  -3.040  0.00  0.00     0.033 A 
ATOM      4  C4  UNL d   1       0.470  -5.999  -4.425  0.00  0.00    -0.042 A 
ATOM      5  C5  UNL d   1      -0.802  -5.992  -4.986  0.00  0.00     0.033 A 
ATOM      6  C6  UNL d   1      -1.930  -5.962  -4.161  0.00  0.00    -0.057 A 
ENDROOT
BRANCH   1   7
ATOM      7  N   UNL d   1      -2.984  -5.998  -2.000  0.00  0.00    -0.732 N 
ATOM      8  C   UNL d   1      -4.283  -6.000  -2.638  0.00  0.00     0.284 C 
ATOM      9  H3  UNL d   1      -2.900  -6.654  -1.225  0.00  0.00     0.395 HD
ENDBRANCH   1   7
TORSDOF 1
ENDMDL
