MODEL 1
REMARK minimizedAffinity 1.83332407
REMARK minimizedRMSD -1
REMARK  1 active torsions:
REMARK  status: ('A' for Active; 'I' for Inactive)
REMARK    1  A    between atoms: N_2  and  C1_3 
ROOT
ATOM      1  C1  UNL d   1      -1.796  -5.645  -4.605  0.00  0.00     0.143 A 
ATOM      2  C2  UNL d   1      -3.179  -5.771  -4.439  0.00  0.00    -0.057 A 
ATOM      3  C3  UNL d   1      -3.747  -5.932  -3.169  0.00  0.00     0.033 A 
ATOM      4  C4  UNL d   1      -2.935  -5.999  -2.041  0.00  0.00    -0.042 A 
ATOM      5  C5  UNL d   1      -1.555  -5.900  -2.185  0.00  0.00     0.033 A 
ATOM      6  C6  UNL d   1      -0.995  -5.733  -3.455  0.00  0.00    -0.057 A 
ENDROOT
BRANCH   1   7
ATOM      7  N   UNL d   1      -1.165  -5.581  -5.850  0.00  0.00    -0.732 N 
ATOM      8  C   UNL d   1       0.213  -5.999  -6.000  0.00  0.00     0.284 C 
ATOM      9  H3  UNL d   1      -1.774  -5.876  -6.610  0.00  0.00     0.395 HD
ENDBRANCH   1   7
TORSDOF 1
ENDMDL
