MODEL 1
REMARK minimizedAffinity -1.78984368
REMARK minimizedRMSD -1
REMARK  1 active torsions:
REMARK  status: ('A' for Active; 'I' for Inactive)
REMARK    1  A    between atoms: N_2  and  C1_3 
ROOT
ATOM      1  C1  UNL d   1      -3.446  -6.000  -3.661  0.00  0.00     0.143 A 
ATOM      2  C2  UNL d   1      -3.433  -5.996  -5.060  0.00  0.00    -0.057 A 
ATOM      3  C3  UNL d   1      -2.234  -5.894  -5.775  0.00  0.00     0.033 A 
ATOM      4  C4  UNL d   1      -1.024  -5.765  -5.100  0.00  0.00    -0.042 A 
ATOM      5  C5  UNL d   1      -1.015  -5.741  -3.710  0.00  0.00     0.033 A 
ATOM      6  C6  UNL d   1      -2.216  -5.850  -3.002  0.00  0.00    -0.057 A 
ENDROOT
BRANCH   1   7
ATOM      7  N   UNL d   1      -4.614  -5.999  -2.894  0.00  0.00    -0.732 N 
ATOM      8  C   UNL d   1      -4.546  -5.955  -1.449  0.00  0.00     0.284 C 
ATOM      9  H3  UNL d   1      -5.341  -5.411  -3.294  0.00  0.00     0.395 HD
ENDBRANCH   1   7
TORSDOF 1
ENDMDL
