MODEL 1
REMARK minimizedAffinity -0.592876852
REMARK minimizedRMSD -1
REMARK  1 active torsions:
REMARK  status: ('A' for Active; 'I' for Inactive)
REMARK    1  A    between atoms: N_2  and  C1_3 
ROOT
ATOM      1  C1  UNL d   1      -1.962  -5.999  -3.593  0.00  0.00     0.143 A 
ATOM      2  C2  UNL d   1      -2.450  -5.944  -4.903  0.00  0.00    -0.057 A 
ATOM      3  C3  UNL d   1      -1.581  -5.845  -5.997  0.00  0.00     0.033 A 
ATOM      4  C4  UNL d   1      -0.207  -5.771  -5.797  0.00  0.00    -0.042 A 
ATOM      5  C5  UNL d   1       0.299  -5.799  -4.502  0.00  0.00     0.033 A 
ATOM      6  C6  UNL d   1      -0.573  -5.904  -3.414  0.00  0.00    -0.057 A 
ENDROOT
BRANCH   1   7
ATOM      7  N   UNL d   1      -2.778  -5.998  -2.459  0.00  0.00    -0.732 N 
ATOM      8  C   UNL d   1      -4.220  -6.000  -2.588  0.00  0.00     0.284 C 
ATOM      9  H3  UNL d   1      -2.426  -6.610  -1.726  0.00  0.00     0.395 HD
ENDBRANCH   1   7
TORSDOF 1
ENDMDL
