MODEL 1
REMARK minimizedAffinity -3.36134434
REMARK minimizedRMSD -1
REMARK  1 active torsions:
REMARK  status: ('A' for Active; 'I' for Inactive)
REMARK    1  A    between atoms: N_2  and  C1_3 
ROOT
ATOM      1  C1  UNL d   1      -1.278  -5.092  -4.506  0.00  0.00     0.143 A 
ATOM      2  C2  UNL d   1      -2.634  -4.875  -4.238  0.00  0.00    -0.057 A 
ATOM      3  C3  UNL d   1      -3.186  -5.187  -2.990  0.00  0.00     0.033 A 
ATOM      4  C4  UNL d   1      -2.395  -5.751  -1.994  0.00  0.00    -0.042 A 
ATOM      5  C5  UNL d   1      -1.051  -5.999  -2.247  0.00  0.00     0.033 A 
ATOM      6  C6  UNL d   1      -0.504  -5.679  -3.493  0.00  0.00    -0.057 A 
ENDROOT
BRANCH   1   7
ATOM      7  N   UNL d   1      -0.691  -4.894  -5.759  0.00  0.00    -0.732 N 
ATOM      8  C   UNL d   1       0.682  -5.280  -5.999  0.00  0.00     0.284 C 
ATOM      9  H3  UNL d   1      -1.325  -5.114  -6.524  0.00  0.00     0.395 HD
ENDBRANCH   1   7
TORSDOF 1
ENDMDL
