MODEL 1
REMARK minimizedAffinity 0.943149149
REMARK minimizedRMSD -1
REMARK  1 active torsions:
REMARK  status: ('A' for Active; 'I' for Inactive)
REMARK    1  A    between atoms: N_2  and  C1_3 
ROOT
ATOM      1  C1  UNL d   1      -1.637   2.541  -3.299  0.00  0.00     0.143 A 
ATOM      2  C2  UNL d   1      -0.285   2.479  -2.944  0.00  0.00    -0.057 A 
ATOM      3  C3  UNL d   1       0.649   3.370  -3.487  0.00  0.00     0.033 A 
ATOM      4  C4  UNL d   1       0.251   4.323  -4.419  0.00  0.00    -0.042 A 
ATOM      5  C5  UNL d   1      -1.084   4.386  -4.804  0.00  0.00     0.033 A 
ATOM      6  C6  UNL d   1      -2.013   3.498  -4.254  0.00  0.00    -0.057 A 
ENDROOT
BRANCH   1   7
ATOM      7  N   UNL d   1      -2.597   1.621  -2.869  0.00  0.00    -0.732 N 
ATOM      8  C   UNL d   1      -3.833   1.449  -3.602  0.00  0.00     0.284 C 
ATOM      9  H3  UNL d   1      -2.182   0.751  -2.544  0.00  0.00     0.395 HD
ENDBRANCH   1   7
TORSDOF 1
ENDMDL
