MODEL 1
REMARK minimizedAffinity 8.93832302
REMARK minimizedRMSD -1
REMARK  1 active torsions:
REMARK  status: ('A' for Active; 'I' for Inactive)
REMARK    1  A    between atoms: N_2  and  C1_3 
ROOT
ATOM      1  C1  UNL d   1      -0.900  -5.866  -3.432  0.00  0.00     0.143 A 
ATOM      2  C2  UNL d   1      -0.113  -5.905  -4.587  0.00  0.00    -0.057 A 
ATOM      3  C3  UNL d   1      -0.694  -5.954  -5.860  0.00  0.00     0.033 A 
ATOM      4  C4  UNL d   1      -2.077  -5.996  -5.999  0.00  0.00    -0.042 A 
ATOM      5  C5  UNL d   1      -2.879  -5.984  -4.863  0.00  0.00     0.033 A 
ATOM      6  C6  UNL d   1      -2.293  -5.927  -3.595  0.00  0.00    -0.057 A 
ENDROOT
BRANCH   1   7
ATOM      7  N   UNL d   1      -0.382  -5.916  -2.135  0.00  0.00    -0.732 N 
ATOM      8  C   UNL d   1      -1.156  -5.432  -1.013  0.00  0.00     0.284 C 
ATOM      9  H3  UNL d   1       0.122  -6.780  -1.951  0.00  0.00     0.395 HD
ENDBRANCH   1   7
TORSDOF 1
ENDMDL
