MODEL 1
REMARK minimizedAffinity 0.278294712
REMARK minimizedRMSD -1
REMARK  1 active torsions:
REMARK  status: ('A' for Active; 'I' for Inactive)
REMARK    1  A    between atoms: N_2  and  C1_3 
ROOT
ATOM      1  C1  UNL d   1      -1.273  -5.901  -3.853  0.00  0.00     0.143 A 
ATOM      2  C2  UNL d   1      -0.123  -5.997  -3.062  0.00  0.00    -0.057 A 
ATOM      3  C3  UNL d   1       1.155  -5.998  -3.635  0.00  0.00     0.033 A 
ATOM      4  C4  UNL d   1       1.304  -5.932  -5.017  0.00  0.00    -0.042 A 
ATOM      5  C5  UNL d   1       0.174  -5.860  -5.824  0.00  0.00     0.033 A 
ATOM      6  C6  UNL d   1      -1.099  -5.853  -5.245  0.00  0.00    -0.057 A 
ENDROOT
BRANCH   1   7
ATOM      7  N   UNL d   1      -2.573  -5.994  -3.350  0.00  0.00    -0.732 N 
ATOM      8  C   UNL d   1      -3.185  -4.869  -2.676  0.00  0.00     0.284 C 
ATOM      9  H3  UNL d   1      -3.198  -6.493  -3.979  0.00  0.00     0.395 HD
ENDBRANCH   1   7
TORSDOF 1
ENDMDL
