MODEL 1
REMARK minimizedAffinity -0.791332543
REMARK minimizedRMSD -1
REMARK  1 active torsions:
REMARK  status: ('A' for Active; 'I' for Inactive)
REMARK    1  A    between atoms: N_2  and  C1_3 
ROOT
ATOM      1  C1  UNL d   1      -0.753  -5.996  -3.488  0.00  0.00     0.143 A 
ATOM      2  C2  UNL d   1      -1.461  -5.981  -4.694  0.00  0.00    -0.057 A 
ATOM      3  C3  UNL d   1      -0.797  -5.997  -5.926  0.00  0.00     0.033 A 
ATOM      4  C4  UNL d   1       0.594  -5.999  -5.974  0.00  0.00    -0.042 A 
ATOM      5  C5  UNL d   1       1.318  -5.989  -4.787  0.00  0.00     0.033 A 
ATOM      6  C6  UNL d   1       0.649  -5.980  -3.560  0.00  0.00    -0.057 A 
ENDROOT
BRANCH   1   7
ATOM      7  N   UNL d   1      -1.354  -5.882  -2.232  0.00  0.00    -0.732 N 
ATOM      8  C   UNL d   1      -2.793  -5.951  -2.094  0.00  0.00     0.284 C 
ATOM      9  H3  UNL d   1      -0.843  -6.384  -1.509  0.00  0.00     0.395 HD
ENDBRANCH   1   7
TORSDOF 1
ENDMDL
