MODEL 1
REMARK minimizedAffinity -1.54570901
REMARK minimizedRMSD -1
REMARK  1 active torsions:
REMARK  status: ('A' for Active; 'I' for Inactive)
REMARK    1  A    between atoms: N_2  and  C1_3 
ROOT
ATOM      1  C1  UNL d   1      -1.927  -5.220  -3.598  0.00  0.00     0.143 A 
ATOM      2  C2  UNL d   1      -1.024  -5.633  -2.612  0.00  0.00    -0.057 A 
ATOM      3  C3  UNL d   1       0.288  -5.999  -2.937  0.00  0.00     0.033 A 
ATOM      4  C4  UNL d   1       0.712  -5.986  -4.262  0.00  0.00    -0.042 A 
ATOM      5  C5  UNL d   1      -0.176  -5.602  -5.261  0.00  0.00     0.033 A 
ATOM      6  C6  UNL d   1      -1.482  -5.231  -4.929  0.00  0.00    -0.057 A 
ENDROOT
BRANCH   1   7
ATOM      7  N   UNL d   1      -3.273  -4.938  -3.350  0.00  0.00    -0.732 N 
ATOM      8  C   UNL d   1      -4.197  -5.998  -3.010  0.00  0.00     0.284 C 
ATOM      9  H3  UNL d   1      -3.398  -4.087  -2.807  0.00  0.00     0.395 HD
ENDBRANCH   1   7
TORSDOF 1
ENDMDL
