MODEL 1
REMARK minimizedAffinity 2.66876745
REMARK minimizedRMSD -1
REMARK  1 active torsions:
REMARK  status: ('A' for Active; 'I' for Inactive)
REMARK    1  A    between atoms: N_2  and  C1_3 
ROOT
ATOM      1  C1  UNL d   1       0.745  -1.564   1.627  0.00  0.00     0.143 A 
ATOM      2  C2  UNL d   1       0.785  -2.505   2.661  0.00  0.00    -0.057 A 
ATOM      3  C3  UNL d   1      -0.186  -3.507   2.770  0.00  0.00     0.033 A 
ATOM      4  C4  UNL d   1      -1.235  -3.569   1.858  0.00  0.00    -0.042 A 
ATOM      5  C5  UNL d   1      -1.310  -2.629   0.836  0.00  0.00     0.033 A 
ATOM      6  C6  UNL d   1      -0.333  -1.634   0.730  0.00  0.00    -0.057 A 
ENDROOT
BRANCH   1   7
ATOM      7  N   UNL d   1       1.625  -0.485   1.523  0.00  0.00    -0.732 N 
ATOM      8  C   UNL d   1       1.401   0.557   0.543  0.00  0.00     0.284 C 
ATOM      9  H3  UNL d   1       1.930  -0.143   2.431  0.00  0.00     0.395 HD
ENDBRANCH   1   7
TORSDOF 1
ENDMDL
