MODEL 1
REMARK minimizedAffinity 1.85973716
REMARK minimizedRMSD -1
REMARK  1 active torsions:
REMARK  status: ('A' for Active; 'I' for Inactive)
REMARK    1  A    between atoms: N_2  and  C1_3 
ROOT
ATOM      1  C1  UNL d   1      -1.563   2.662  -3.231  0.00  0.00     0.143 A 
ATOM      2  C2  UNL d   1      -1.689   3.677  -4.186  0.00  0.00    -0.057 A 
ATOM      3  C3  UNL d   1      -0.578   4.415  -4.611  0.00  0.00     0.033 A 
ATOM      4  C4  UNL d   1       0.678   4.170  -4.065  0.00  0.00    -0.042 A 
ATOM      5  C5  UNL d   1       0.822   3.184  -3.096  0.00  0.00     0.033 A 
ATOM      6  C6  UNL d   1      -0.290   2.445  -2.680  0.00  0.00    -0.057 A 
ENDROOT
BRANCH   1   7
ATOM      7  N   UNL d   1      -2.646   1.960  -2.696  0.00  0.00    -0.732 N 
ATOM      8  C   UNL d   1      -3.661   1.399  -3.561  0.00  0.00     0.284 C 
ATOM      9  H3  UNL d   1      -2.372   1.351  -1.927  0.00  0.00     0.395 HD
ENDBRANCH   1   7
TORSDOF 1
ENDMDL
