MODEL 1
REMARK minimizedAffinity 0.367530286
REMARK minimizedRMSD -1
REMARK  1 active torsions:
REMARK  status: ('A' for Active; 'I' for Inactive)
REMARK    1  A    between atoms: N_2  and  C1_3 
ROOT
ATOM      1  C1  UNL d   1      -0.773  -5.998  -4.162  0.00  0.00     0.143 A 
ATOM      2  C2  UNL d   1      -0.219  -5.973  -2.878  0.00  0.00    -0.057 A 
ATOM      3  C3  UNL d   1      -1.030  -5.988  -1.737  0.00  0.00     0.033 A 
ATOM      4  C4  UNL d   1      -2.415  -5.998  -1.861  0.00  0.00    -0.042 A 
ATOM      5  C5  UNL d   1      -2.988  -5.998  -3.127  0.00  0.00     0.033 A 
ATOM      6  C6  UNL d   1      -2.173  -5.990  -4.263  0.00  0.00    -0.057 A 
ENDROOT
BRANCH   1   7
ATOM      7  N   UNL d   1      -0.023  -5.886  -5.336  0.00  0.00    -0.732 N 
ATOM      8  C   UNL d   1       1.420  -5.983  -5.300  0.00  0.00     0.284 C 
ATOM      9  H3  UNL d   1      -0.454  -6.371  -6.120  0.00  0.00     0.395 HD
ENDBRANCH   1   7
TORSDOF 1
ENDMDL
