MODEL 1
REMARK minimizedAffinity 12.3626871
REMARK minimizedRMSD -1
REMARK  1 active torsions:
REMARK  status: ('A' for Active; 'I' for Inactive)
REMARK    1  A    between atoms: C1_2  and  C2_3 
ROOT
ATOM      1  C2  UNL d   1      -3.406   0.890   5.136  0.00  0.00    -0.076 A 
ATOM      2  C3  UNL d   1      -3.600  -0.342   5.783  0.00  0.00     0.004 A 
ATOM      3  C4  UNL d   1      -3.803  -1.512   5.054  0.00  0.00    -0.003 A 
ATOM      4  C5  UNL d   1      -3.815  -1.469   3.664  0.00  0.00     0.000 A 
ATOM      5  C6  UNL d   1      -3.607  -0.258   3.004  0.00  0.00     0.000 A 
ATOM      6  C7  UNL d   1      -3.384   0.928   3.725  0.00  0.00    -0.073 A 
ATOM      7  C8  UNL d   1      -3.171   2.207   2.963  0.00  0.00     0.078 C 
ENDROOT
BRANCH   1   8
ATOM      8  C1  UNL d   1      -3.217   2.130   5.980  0.00  0.00     0.053 C 
ATOM      9  C   UNL d   1      -4.453   3.016   5.998  0.00  0.00     0.018 C 
ENDBRANCH   1   8
TORSDOF 1
ENDMDL
