MODEL 1
REMARK minimizedAffinity 18.8670902
REMARK minimizedRMSD -1
REMARK  1 active torsions:
REMARK  status: ('A' for Active; 'I' for Inactive)
REMARK    1  A    between atoms: C1_2  and  C2_3 
ROOT
ATOM      1  C2  UNL d   1      -3.658   0.229   3.855  0.00  0.00    -0.076 A 
ATOM      2  C3  UNL d   1      -3.874  -1.001   3.209  0.00  0.00     0.004 A 
ATOM      3  C4  UNL d   1      -3.779  -2.204   3.906  0.00  0.00    -0.003 A 
ATOM      4  C5  UNL d   1      -3.467  -2.197   5.262  0.00  0.00     0.000 A 
ATOM      5  C6  UNL d   1      -3.268  -0.985   5.922  0.00  0.00     0.000 A 
ATOM      6  C7  UNL d   1      -3.376   0.238   5.238  0.00  0.00    -0.073 A 
ATOM      7  C8  UNL d   1      -3.144   1.514   5.999  0.00  0.00     0.078 C 
ENDROOT
BRANCH   1   8
ATOM      8  C1  UNL d   1      -3.748   1.500   3.041  0.00  0.00     0.053 C 
ATOM      9  C   UNL d   1      -4.981   2.324   3.381  0.00  0.00     0.018 C 
ENDBRANCH   1   8
TORSDOF 1
ENDMDL
