MODEL 1
REMARK minimizedAffinity 21.778019
REMARK minimizedRMSD -1
REMARK  1 active torsions:
REMARK  status: ('A' for Active; 'I' for Inactive)
REMARK    1  A    between atoms: C1_2  and  C2_3 
ROOT
ATOM      1  C2  UNL d   1      -3.506   1.687   3.860  0.00  0.00    -0.076 A 
ATOM      2  C3  UNL d   1      -4.175   2.756   3.238  0.00  0.00     0.004 A 
ATOM      3  C4  UNL d   1      -4.930   3.660   3.983  0.00  0.00    -0.003 A 
ATOM      4  C5  UNL d   1      -5.028   3.511   5.362  0.00  0.00     0.000 A 
ATOM      5  C6  UNL d   1      -4.356   2.467   5.997  0.00  0.00     0.000 A 
ATOM      6  C7  UNL d   1      -3.577   1.556   5.263  0.00  0.00    -0.073 A 
ATOM      7  C8  UNL d   1      -2.879   0.446   5.999  0.00  0.00     0.078 C 
ENDROOT
BRANCH   1   8
ATOM      8  C1  UNL d   1      -2.725   0.722   2.997  0.00  0.00     0.053 C 
ATOM      9  C   UNL d   1      -1.682   1.422   2.138  0.00  0.00     0.018 C 
ENDBRANCH   1   8
TORSDOF 1
ENDMDL
