MODEL 1
REMARK minimizedAffinity 7.5048089
REMARK minimizedRMSD -1
REMARK  1 active torsions:
REMARK  status: ('A' for Active; 'I' for Inactive)
REMARK    1  A    between atoms: C1_2  and  C2_3 
ROOT
ATOM      1  C2  UNL d   1       2.075  -2.282  -1.526  0.00  0.00    -0.076 A 
ATOM      2  C3  UNL d   1       3.074  -2.331  -0.539  0.00  0.00     0.004 A 
ATOM      3  C4  UNL d   1       3.501  -3.548  -0.010  0.00  0.00    -0.003 A 
ATOM      4  C5  UNL d   1       2.935  -4.736  -0.460  0.00  0.00     0.000 A 
ATOM      5  C6  UNL d   1       1.955  -4.707  -1.452  0.00  0.00     0.000 A 
ATOM      6  C7  UNL d   1       1.525  -3.490  -2.007  0.00  0.00    -0.073 A 
ATOM      7  C8  UNL d   1       0.461  -3.517  -3.070  0.00  0.00     0.078 C 
ENDROOT
BRANCH   1   8
ATOM      8  C1  UNL d   1       1.633  -0.931  -2.043  0.00  0.00     0.053 C 
ATOM      9  C   UNL d   1       2.025   0.206  -1.112  0.00  0.00     0.018 C 
ENDBRANCH   1   8
TORSDOF 1
ENDMDL
