MODEL 1
REMARK minimizedAffinity 7.23563671
REMARK minimizedRMSD -1
REMARK  1 active torsions:
REMARK  status: ('A' for Active; 'I' for Inactive)
REMARK    1  A    between atoms: C1_2  and  C2_3 
ROOT
ATOM      1  C2  UNL d   1       2.183  -2.497  -2.907  0.00  0.00    -0.076 A 
ATOM      2  C3  UNL d   1       1.656  -3.792  -3.050  0.00  0.00     0.004 A 
ATOM      3  C4  UNL d   1       1.326  -4.559  -1.934  0.00  0.00    -0.003 A 
ATOM      4  C5  UNL d   1       1.516  -4.043  -0.657  0.00  0.00     0.000 A 
ATOM      5  C6  UNL d   1       2.020  -2.753  -0.497  0.00  0.00     0.000 A 
ATOM      6  C7  UNL d   1       2.343  -1.960  -1.612  0.00  0.00    -0.073 A 
ATOM      7  C8  UNL d   1       2.890  -0.578  -1.381  0.00  0.00     0.078 C 
ENDROOT
BRANCH   1   8
ATOM      8  C1  UNL d   1       2.548  -1.722  -4.153  0.00  0.00     0.053 C 
ATOM      9  C   UNL d   1       3.502  -2.488  -5.057  0.00  0.00     0.018 C 
ENDBRANCH   1   8
TORSDOF 1
ENDMDL
