MODEL 1
REMARK minimizedAffinity 21.6295853
REMARK minimizedRMSD -1
REMARK  1 active torsions:
REMARK  status: ('A' for Active; 'I' for Inactive)
REMARK    1  A    between atoms: C1_2  and  C2_3 
ROOT
ATOM      1  C2  UNL d   1      -3.327   1.126   3.121  0.00  0.00    -0.076 A 
ATOM      2  C3  UNL d   1      -3.643   2.423   3.562  0.00  0.00     0.004 A 
ATOM      3  C4  UNL d   1      -4.968   2.825   3.718  0.00  0.00    -0.003 A 
ATOM      4  C5  UNL d   1      -6.000   1.936   3.436  0.00  0.00     0.000 A 
ATOM      5  C6  UNL d   1      -5.705   0.639   3.015  0.00  0.00     0.000 A 
ATOM      6  C7  UNL d   1      -4.374   0.213   2.868  0.00  0.00    -0.073 A 
ATOM      7  C8  UNL d   1      -4.113  -1.194   2.405  0.00  0.00     0.078 C 
ENDROOT
BRANCH   1   8
ATOM      8  C1  UNL d   1      -1.872   0.755   2.945  0.00  0.00     0.053 C 
ATOM      9  C   UNL d   1      -1.010   1.947   2.559  0.00  0.00     0.018 C 
ENDBRANCH   1   8
TORSDOF 1
ENDMDL
