MODEL 1
REMARK minimizedAffinity 12.7915668
REMARK minimizedRMSD -1
REMARK  1 active torsions:
REMARK  status: ('A' for Active; 'I' for Inactive)
REMARK    1  A    between atoms: C1_2  and  C2_3 
ROOT
ATOM      1  C2  UNL d   1       1.640  -2.750  -1.785  0.00  0.00    -0.076 A 
ATOM      2  C3  UNL d   1       1.313  -1.491  -2.319  0.00  0.00     0.004 A 
ATOM      3  C4  UNL d   1       1.703  -0.317  -1.679  0.00  0.00    -0.003 A 
ATOM      4  C5  UNL d   1       2.428  -0.382  -0.494  0.00  0.00     0.000 A 
ATOM      5  C6  UNL d   1       2.777  -1.621   0.041  0.00  0.00     0.000 A 
ATOM      6  C7  UNL d   1       2.405  -2.815  -0.601  0.00  0.00    -0.073 A 
ATOM      7  C8  UNL d   1       2.802  -4.125   0.023  0.00  0.00     0.078 C 
ENDROOT
BRANCH   1   8
ATOM      8  C1  UNL d   1       1.165  -3.989  -2.510  0.00  0.00     0.053 C 
ATOM      9  C   UNL d   1      -0.332  -3.971  -2.778  0.00  0.00     0.018 C 
ENDBRANCH   1   8
TORSDOF 1
ENDMDL
