MODEL 1
REMARK minimizedAffinity 18.6021557
REMARK minimizedRMSD -1
REMARK  1 active torsions:
REMARK  status: ('A' for Active; 'I' for Inactive)
REMARK    1  A    between atoms: C1_2  and  C2_3 
ROOT
ATOM      1  C2  UNL d   1      -3.654   0.083   3.753  0.00  0.00    -0.076 A 
ATOM      2  C3  UNL d   1      -4.071  -1.045   3.026  0.00  0.00     0.004 A 
ATOM      3  C4  UNL d   1      -4.302  -2.264   3.662  0.00  0.00    -0.003 A 
ATOM      4  C5  UNL d   1      -4.120  -2.374   5.036  0.00  0.00     0.000 A 
ATOM      5  C6  UNL d   1      -3.724  -1.261   5.776  0.00  0.00     0.000 A 
ATOM      6  C7  UNL d   1      -3.502  -0.021   5.152  0.00  0.00    -0.073 A 
ATOM      7  C8  UNL d   1      -3.070   1.145   5.998  0.00  0.00     0.078 C 
ENDROOT
BRANCH   1   8
ATOM      8  C1  UNL d   1      -3.393   1.371   3.006  0.00  0.00     0.053 C 
ATOM      9  C   UNL d   1      -1.929   1.539   2.628  0.00  0.00     0.018 C 
ENDBRANCH   1   8
TORSDOF 1
ENDMDL
