MODEL 1
REMARK minimizedAffinity 20.9861069
REMARK minimizedRMSD -1
REMARK  1 active torsions:
REMARK  status: ('A' for Active; 'I' for Inactive)
REMARK    1  A    between atoms: C1_2  and  C2_3 
ROOT
ATOM      1  C2  UNL d   1      -4.493  -0.601   3.462  0.00  0.00    -0.076 A 
ATOM      2  C3  UNL d   1      -3.623  -0.618   4.566  0.00  0.00     0.004 A 
ATOM      3  C4  UNL d   1      -3.350  -1.805   5.245  0.00  0.00    -0.003 A 
ATOM      4  C5  UNL d   1      -3.942  -2.992   4.831  0.00  0.00     0.000 A 
ATOM      5  C6  UNL d   1      -4.794  -2.996   3.727  0.00  0.00     0.000 A 
ATOM      6  C7  UNL d   1      -5.068  -1.812   3.022  0.00  0.00    -0.073 A 
ATOM      7  C8  UNL d   1      -5.999  -1.873   1.842  0.00  0.00     0.078 C 
ENDROOT
BRANCH   1   8
ATOM      8  C1  UNL d   1      -4.773   0.720   2.782  0.00  0.00     0.053 C 
ATOM      9  C   UNL d   1      -5.334   1.761   3.739  0.00  0.00     0.018 C 
ENDBRANCH   1   8
TORSDOF 1
ENDMDL
