MODEL 1
REMARK minimizedAffinity 12.8968182
REMARK minimizedRMSD -1
REMARK  1 active torsions:
REMARK  status: ('A' for Active; 'I' for Inactive)
REMARK    1  A    between atoms: C1_2  and  C2_3 
ROOT
ATOM      1  C2  UNL d   1      -2.036   3.807  -4.855  0.00  0.00    -0.076 A 
ATOM      2  C3  UNL d   1      -3.024   3.819  -5.855  0.00  0.00     0.004 A 
ATOM      3  C4  UNL d   1      -3.893   4.899  -5.993  0.00  0.00    -0.003 A 
ATOM      4  C5  UNL d   1      -3.789   5.987  -5.132  0.00  0.00     0.000 A 
ATOM      5  C6  UNL d   1      -2.804   6.000  -4.146  0.00  0.00     0.000 A 
ATOM      6  C7  UNL d   1      -1.909   4.926  -4.004  0.00  0.00    -0.073 A 
ATOM      7  C8  UNL d   1      -0.869   4.990  -2.918  0.00  0.00     0.078 C 
ENDROOT
BRANCH   1   8
ATOM      8  C1  UNL d   1      -1.139   2.595  -4.737  0.00  0.00     0.053 C 
ATOM      9  C   UNL d   1      -1.708   1.539  -3.802  0.00  0.00     0.018 C 
ENDBRANCH   1   8
TORSDOF 1
ENDMDL
