MODEL 1
REMARK minimizedAffinity 12.0766888
REMARK minimizedRMSD -1
REMARK  1 active torsions:
REMARK  status: ('A' for Active; 'I' for Inactive)
REMARK    1  A    between atoms: C1_2  and  C2_3 
ROOT
ATOM      1  C2  UNL d   1       3.066  -0.560  -0.573  0.00  0.00    -0.076 A 
ATOM      2  C3  UNL d   1       4.027  -1.231   0.203  0.00  0.00     0.004 A 
ATOM      3  C4  UNL d   1       3.905  -2.593   0.476  0.00  0.00    -0.003 A 
ATOM      4  C5  UNL d   1       2.820  -3.305  -0.022  0.00  0.00     0.000 A 
ATOM      5  C6  UNL d   1       1.867  -2.660  -0.809  0.00  0.00     0.000 A 
ATOM      6  C7  UNL d   1       1.983  -1.291  -1.107  0.00  0.00    -0.073 A 
ATOM      7  C8  UNL d   1       0.923  -0.644  -1.955  0.00  0.00     0.078 C 
ENDROOT
BRANCH   1   8
ATOM      8  C1  UNL d   1       3.237   0.923  -0.814  0.00  0.00     0.053 C 
ATOM      9  C   UNL d   1       4.381   1.516  -0.007  0.00  0.00     0.018 C 
ENDBRANCH   1   8
TORSDOF 1
ENDMDL
