MODEL 1
REMARK minimizedAffinity 19.3742886
REMARK minimizedRMSD -1
REMARK  1 active torsions:
REMARK  status: ('A' for Active; 'I' for Inactive)
REMARK    1  A    between atoms: C1_2  and  C2_3 
ROOT
ATOM      1  C2  UNL d   1      -4.269  -0.924   3.188  0.00  0.00    -0.076 A 
ATOM      2  C3  UNL d   1      -3.546  -1.036   4.388  0.00  0.00     0.004 A 
ATOM      3  C4  UNL d   1      -3.759  -2.105   5.257  0.00  0.00    -0.003 A 
ATOM      4  C5  UNL d   1      -4.696  -3.081   4.938  0.00  0.00     0.000 A 
ATOM      5  C6  UNL d   1      -5.410  -2.996   3.743  0.00  0.00     0.000 A 
ATOM      6  C7  UNL d   1      -5.197  -1.933   2.849  0.00  0.00    -0.073 A 
ATOM      7  C8  UNL d   1      -5.998  -1.887   1.577  0.00  0.00     0.078 C 
ENDROOT
BRANCH   1   8
ATOM      8  C1  UNL d   1      -4.016   0.272   2.299  0.00  0.00     0.053 C 
ATOM      9  C   UNL d   1      -2.602   0.814   2.439  0.00  0.00     0.018 C 
ENDBRANCH   1   8
TORSDOF 1
ENDMDL
