MODEL 1
REMARK minimizedAffinity 18.9823322
REMARK minimizedRMSD -1
REMARK  1 active torsions:
REMARK  status: ('A' for Active; 'I' for Inactive)
REMARK    1  A    between atoms: C1_2  and  C2_3 
ROOT
ATOM      1  C2  UNL d   1      -4.278  -0.816   3.384  0.00  0.00    -0.076 A 
ATOM      2  C3  UNL d   1      -5.139  -1.312   2.390  0.00  0.00     0.004 A 
ATOM      3  C4  UNL d   1      -5.993  -2.383   2.650  0.00  0.00    -0.003 A 
ATOM      4  C5  UNL d   1      -5.998  -2.975   3.908  0.00  0.00     0.000 A 
ATOM      5  C6  UNL d   1      -5.163  -2.485   4.911  0.00  0.00     0.000 A 
ATOM      6  C7  UNL d   1      -4.308  -1.395   4.670  0.00  0.00    -0.073 A 
ATOM      7  C8  UNL d   1      -3.424  -0.911   5.787  0.00  0.00     0.078 C 
ENDROOT
BRANCH   1   8
ATOM      8  C1  UNL d   1      -3.355   0.331   3.036  0.00  0.00     0.053 C 
ATOM      9  C   UNL d   1      -3.946   1.685   3.397  0.00  0.00     0.018 C 
ENDBRANCH   1   8
TORSDOF 1
ENDMDL
