MODEL 1
REMARK minimizedAffinity 18.8635273
REMARK minimizedRMSD -1
REMARK  1 active torsions:
REMARK  status: ('A' for Active; 'I' for Inactive)
REMARK    1  A    between atoms: C1_2  and  C2_3 
ROOT
ATOM      1  C2  UNL d   1       1.247   0.588   1.066  0.00  0.00    -0.076 A 
ATOM      2  C3  UNL d   1      -0.096   0.186   0.967  0.00  0.00     0.004 A 
ATOM      3  C4  UNL d   1      -1.072   0.736   1.796  0.00  0.00    -0.003 A 
ATOM      4  C5  UNL d   1      -0.721   1.698   2.737  0.00  0.00     0.000 A 
ATOM      5  C6  UNL d   1       0.604   2.122   2.836  0.00  0.00     0.000 A 
ATOM      6  C7  UNL d   1       1.598   1.589   1.997  0.00  0.00    -0.073 A 
ATOM      7  C8  UNL d   1       3.012   2.078   2.151  0.00  0.00     0.078 C 
ENDROOT
BRANCH   1   8
ATOM      8  C1  UNL d   1       2.266  -0.064   0.159  0.00  0.00     0.053 C 
ATOM      9  C   UNL d   1       1.707  -0.368  -1.223  0.00  0.00     0.018 C 
ENDBRANCH   1   8
TORSDOF 1
ENDMDL
