MODEL 1
REMARK minimizedAffinity -4.30894041
REMARK minimizedRMSD -1
REMARK  1 active torsions:
REMARK  status: ('A' for Active; 'I' for Inactive)
REMARK    1  A    between atoms: C3_4  and  O_7 
ROOT
ATOM      1  C   UNL d   1      -0.707  -0.412  -0.425  0.00  0.00    -0.033 A 
ATOM      2  C1  UNL d   1      -1.908  -0.225   0.261  0.00  0.00     0.039 A 
ATOM      3  C2  UNL d   1      -1.928   0.505   1.451  0.00  0.00    -0.080 A 
ATOM      4  C3  UNL d   1      -0.742   1.043   1.943  0.00  0.00     0.150 A 
ATOM      5  C4  UNL d   1       0.458   0.864   1.262  0.00  0.00    -0.007 A 
ATOM      6  C5  UNL d   1       0.476   0.134   0.075  0.00  0.00     0.039 A 
ENDROOT
BRANCH   4   7
ATOM      7  O   UNL d   1      -0.711   1.759   3.103  0.00  0.00    -0.526 OA
ATOM      8  H5  UNL d   1      -1.608   1.776   3.478  0.00  0.00     0.418 HD
ENDBRANCH   4   7
TORSDOF 1
ENDMDL
