MODEL 1
REMARK minimizedAffinity -3.7900877
REMARK minimizedRMSD -1
REMARK  1 active torsions:
REMARK  status: ('A' for Active; 'I' for Inactive)
REMARK    1  A    between atoms: C3_4  and  O_7 
ROOT
ATOM      1  C   UNL d   1      -0.343  -0.745  -0.973  0.00  0.00    -0.033 A 
ATOM      2  C1  UNL d   1       0.622  -0.321  -0.058  0.00  0.00     0.039 A 
ATOM      3  C2  UNL d   1       0.242   0.403   1.074  0.00  0.00    -0.080 A 
ATOM      4  C3  UNL d   1      -1.103   0.696   1.278  0.00  0.00     0.150 A 
ATOM      5  C4  UNL d   1      -2.070   0.274   0.372  0.00  0.00    -0.007 A 
ATOM      6  C5  UNL d   1      -1.690  -0.449  -0.758  0.00  0.00     0.039 A 
ENDROOT
BRANCH   4   7
ATOM      7  O   UNL d   1      -1.521   1.405   2.366  0.00  0.00    -0.526 OA
ATOM      8  H5  UNL d   1      -0.741   1.654   2.888  0.00  0.00     0.418 HD
ENDBRANCH   4   7
TORSDOF 1
ENDMDL
