MODEL 1
REMARK minimizedAffinity -3.95652676
REMARK minimizedRMSD -1
REMARK  1 active torsions:
REMARK  status: ('A' for Active; 'I' for Inactive)
REMARK    1  A    between atoms: C3_4  and  O_7 
ROOT
ATOM      1  C   UNL d   1       1.914   0.277   2.343  0.00  0.00    -0.033 A 
ATOM      2  C1  UNL d   1       1.268   0.565   3.547  0.00  0.00     0.039 A 
ATOM      3  C2  UNL d   1      -0.107   0.805   3.564  0.00  0.00    -0.080 A 
ATOM      4  C3  UNL d   1      -0.824   0.755   2.372  0.00  0.00     0.150 A 
ATOM      5  C4  UNL d   1      -0.188   0.465   1.169  0.00  0.00    -0.007 A 
ATOM      6  C5  UNL d   1       1.186   0.226   1.154  0.00  0.00     0.039 A 
ENDROOT
BRANCH   4   7
ATOM      7  O   UNL d   1      -2.167   0.987   2.338  0.00  0.00    -0.526 OA
ATOM      8  H5  UNL d   1      -2.465   1.202   3.237  0.00  0.00     0.418 HD
ENDBRANCH   4   7
TORSDOF 1
ENDMDL
