MODEL 1
REMARK minimizedAffinity -5.13354206
REMARK minimizedRMSD -1
REMARK  1 active torsions:
REMARK  status: ('A' for Active; 'I' for Inactive)
REMARK    1  A    between atoms: C3_4  and  O_7 
ROOT
ATOM      1  C   UNL d   1      -1.886   0.756   1.717  0.00  0.00    -0.033 A 
ATOM      2  C1  UNL d   1      -0.541   0.600   2.055  0.00  0.00     0.039 A 
ATOM      3  C2  UNL d   1       0.339  -0.014   1.162  0.00  0.00    -0.080 A 
ATOM      4  C3  UNL d   1      -0.138  -0.466  -0.066  0.00  0.00     0.150 A 
ATOM      5  C4  UNL d   1      -1.477  -0.310  -0.411  0.00  0.00    -0.007 A 
ATOM      6  C5  UNL d   1      -2.354   0.303   0.483  0.00  0.00     0.039 A 
ENDROOT
BRANCH   4   7
ATOM      7  O   UNL d   1       0.681  -1.075  -0.968  0.00  0.00    -0.526 OA
ATOM      8  H5  UNL d   1       1.571  -1.140  -0.582  0.00  0.00     0.418 HD
ENDBRANCH   4   7
TORSDOF 1
ENDMDL
