MODEL 1
REMARK minimizedAffinity -5.33586597
REMARK minimizedRMSD -1
REMARK  1 active torsions:
REMARK  status: ('A' for Active; 'I' for Inactive)
REMARK    1  A    between atoms: C3_4  and  O_7 
ROOT
ATOM      1  C   UNL d   1       1.476  -0.144   3.150  0.00  0.00    -0.033 A 
ATOM      2  C1  UNL d   1       1.403  -0.286   1.763  0.00  0.00     0.039 A 
ATOM      3  C2  UNL d   1       0.311   0.230   1.063  0.00  0.00    -0.080 A 
ATOM      4  C3  UNL d   1      -0.699   0.886   1.760  0.00  0.00     0.150 A 
ATOM      5  C4  UNL d   1      -0.632   1.035   3.142  0.00  0.00    -0.007 A 
ATOM      6  C5  UNL d   1       0.459   0.517   3.839  0.00  0.00     0.039 A 
ENDROOT
BRANCH   4   7
ATOM      7  O   UNL d   1      -1.787   1.403   1.121  0.00  0.00    -0.526 OA
ATOM      8  H5  UNL d   1      -1.712   1.200   0.173  0.00  0.00     0.418 HD
ENDBRANCH   4   7
TORSDOF 1
ENDMDL
