MODEL 1
REMARK minimizedAffinity -4.37874269
REMARK minimizedRMSD -1
REMARK  1 active torsions:
REMARK  status: ('A' for Active; 'I' for Inactive)
REMARK    1  A    between atoms: C3_4  and  O_7 
ROOT
ATOM      1  C   UNL d   1      -1.659   0.349   0.462  0.00  0.00    -0.033 A 
ATOM      2  C1  UNL d   1      -0.666  -0.308  -0.267  0.00  0.00     0.039 A 
ATOM      3  C2  UNL d   1       0.579  -0.558   0.314  0.00  0.00    -0.080 A 
ATOM      4  C3  UNL d   1       0.817  -0.146   1.623  0.00  0.00     0.150 A 
ATOM      5  C4  UNL d   1      -0.169   0.506   2.356  0.00  0.00    -0.007 A 
ATOM      6  C5  UNL d   1      -1.411   0.755   1.774  0.00  0.00     0.039 A 
ENDROOT
BRANCH   4   7
ATOM      7  O   UNL d   1       2.018  -0.363   2.230  0.00  0.00    -0.526 OA
ATOM      8  H5  UNL d   1       2.611  -0.797   1.594  0.00  0.00     0.418 HD
ENDBRANCH   4   7
TORSDOF 1
ENDMDL
