MODEL 1
REMARK minimizedAffinity -5.17265511
REMARK minimizedRMSD -1
REMARK  1 active torsions:
REMARK  status: ('A' for Active; 'I' for Inactive)
REMARK    1  A    between atoms: C3_4  and  O_7 
ROOT
ATOM      1  C   UNL d   1      -1.062   1.265   2.683  0.00  0.00    -0.033 A 
ATOM      2  C1  UNL d   1      -1.918   0.518   1.871  0.00  0.00     0.039 A 
ATOM      3  C2  UNL d   1      -1.439  -0.058   0.692  0.00  0.00    -0.080 A 
ATOM      4  C3  UNL d   1      -0.104   0.119   0.339  0.00  0.00     0.150 A 
ATOM      5  C4  UNL d   1       0.755   0.858   1.145  0.00  0.00    -0.007 A 
ATOM      6  C5  UNL d   1       0.274   1.434   2.320  0.00  0.00     0.039 A 
ENDROOT
BRANCH   4   7
ATOM      7  O   UNL d   1       0.407  -0.420  -0.804  0.00  0.00    -0.526 OA
ATOM      8  H5  UNL d   1      -0.308  -0.880  -1.275  0.00  0.00     0.418 HD
ENDBRANCH   4   7
TORSDOF 1
ENDMDL
