MODEL 1
REMARK minimizedAffinity 6.29228926
REMARK minimizedRMSD -1
REMARK  3 active torsions:
REMARK  status: ('A' for Active; 'I' for Inactive)
REMARK    1  A    between atoms: C3'_2  and  C2'_3 
REMARK    2  A    between atoms: C2'_3  and  C1'_4 
REMARK    3  A    between atoms: C1'_4  and  C1_5 
ROOT
ATOM      1  C1  N4B d   1       3.362  -0.884  -0.713  0.00  0.00    -0.075 A 
ATOM      2  C2  N4B d   1       2.992   0.268  -1.441  0.00  0.00     0.002 A 
ATOM      3  C3  N4B d   1       2.177   0.154  -2.540  0.00  0.00     0.002 A 
ATOM      4  C4  N4B d   1       1.738  -1.099  -2.940  0.00  0.00    -0.004 A 
ATOM      5  C5  N4B d   1       2.079  -2.205  -2.217  0.00  0.00     0.002 A 
ATOM      6  C6  N4B d   1       2.894  -2.104  -1.107  0.00  0.00     0.002 A 
ENDROOT
BRANCH   1   7
ATOM      7  C1' N4B d   1       4.320  -0.818   0.445  0.00  0.00     0.057 C 
BRANCH   7   8
ATOM      8  C2' N4B d   1       3.625  -0.161   1.634  0.00  0.00     0.009 C 
BRANCH   8   9
ATOM      9  C3' N4B d   1       4.500  -0.162   2.875  0.00  0.00     0.004 C 
ATOM     10  C4' N4B d   1       5.961  -0.055   2.556  0.00  0.00     0.003 C 
ENDBRANCH   8   9
ENDBRANCH   7   8
ENDBRANCH   1   7
TORSDOF 3
ENDMDL
