MODEL 1
REMARK minimizedAffinity 5.30553675
REMARK minimizedRMSD -1
REMARK  3 active torsions:
REMARK  status: ('A' for Active; 'I' for Inactive)
REMARK    1  A    between atoms: C3'_2  and  C2'_3 
REMARK    2  A    between atoms: C2'_3  and  C1'_4 
REMARK    3  A    between atoms: C1'_4  and  C1_5 
ROOT
ATOM      1  C1  N4B d   1       0.126   1.876  -0.392  0.00  0.00    -0.075 A 
ATOM      2  C2  N4B d   1      -1.235   2.148  -0.134  0.00  0.00     0.002 A 
ATOM      3  C3  N4B d   1      -1.628   2.567   1.113  0.00  0.00     0.002 A 
ATOM      4  C4  N4B d   1      -0.683   2.703   2.120  0.00  0.00    -0.004 A 
ATOM      5  C5  N4B d   1       0.634   2.463   1.855  0.00  0.00     0.002 A 
ATOM      6  C6  N4B d   1       1.043   2.045   0.605  0.00  0.00     0.002 A 
ENDROOT
BRANCH   1   7
ATOM      7  C1' N4B d   1       0.591   1.333  -1.716  0.00  0.00     0.057 C 
BRANCH   7   8
ATOM      8  C2' N4B d   1       2.107   1.165  -1.684  0.00  0.00     0.009 C 
BRANCH   8   9
ATOM      9  C3' N4B d   1       2.520  -0.292  -1.799  0.00  0.00     0.004 C 
ATOM     10  C4' N4B d   1       1.376  -1.193  -2.155  0.00  0.00     0.003 C 
ENDBRANCH   8   9
ENDBRANCH   7   8
ENDBRANCH   1   7
TORSDOF 3
ENDMDL
