MODEL 1
REMARK minimizedAffinity 20.1781578
REMARK minimizedRMSD -1
REMARK  3 active torsions:
REMARK  status: ('A' for Active; 'I' for Inactive)
REMARK    1  A    between atoms: C3'_2  and  C2'_3 
REMARK    2  A    between atoms: C2'_3  and  C1'_4 
REMARK    3  A    between atoms: C1'_4  and  C1_5 
ROOT
ATOM      1  C1  N4B d   1      -5.330   1.111   3.443  0.00  0.00    -0.075 A 
ATOM      2  C2  N4B d   1      -5.999   0.765   4.637  0.00  0.00     0.002 A 
ATOM      3  C3  N4B d   1      -5.582  -0.320   5.368  0.00  0.00     0.002 A 
ATOM      4  C4  N4B d   1      -4.515  -1.082   4.917  0.00  0.00    -0.004 A 
ATOM      5  C5  N4B d   1      -3.858  -0.727   3.775  0.00  0.00     0.002 A 
ATOM      6  C6  N4B d   1      -4.264   0.364   3.032  0.00  0.00     0.002 A 
ENDROOT
BRANCH   1   7
ATOM      7  C1' N4B d   1      -5.803   2.237   2.565  0.00  0.00     0.057 C 
BRANCH   7   8
ATOM      8  C2' N4B d   1      -4.598   3.045   2.094  0.00  0.00     0.009 C 
BRANCH   8   9
ATOM      9  C3' N4B d   1      -4.992   4.439   1.637  0.00  0.00     0.004 C 
ATOM     10  C4' N4B d   1      -3.822   5.245   1.155  0.00  0.00     0.003 C 
ENDBRANCH   8   9
ENDBRANCH   7   8
ENDBRANCH   1   7
TORSDOF 3
ENDMDL
