MODEL 1
REMARK minimizedAffinity 7.91068172
REMARK minimizedRMSD -1
REMARK  3 active torsions:
REMARK  status: ('A' for Active; 'I' for Inactive)
REMARK    1  A    between atoms: C3'_2  and  C2'_3 
REMARK    2  A    between atoms: C2'_3  and  C1'_4 
REMARK    3  A    between atoms: C1'_4  and  C1_5 
ROOT
ATOM      1  C1  N4B d   1       1.613   2.581  -1.225  0.00  0.00    -0.075 A 
ATOM      2  C2  N4B d   1       2.218   1.917  -2.315  0.00  0.00     0.002 A 
ATOM      3  C3  N4B d   1       1.747   0.691  -2.718  0.00  0.00     0.002 A 
ATOM      4  C4  N4B d   1       0.691   0.105  -2.038  0.00  0.00    -0.004 A 
ATOM      5  C5  N4B d   1       0.096   0.764  -1.003  0.00  0.00     0.002 A 
ATOM      6  C6  N4B d   1       0.555   1.999  -0.589  0.00  0.00     0.002 A 
ENDROOT
BRANCH   1   7
ATOM      7  C1' N4B d   1       2.147   3.883  -0.693  0.00  0.00     0.057 C 
BRANCH   7   8
ATOM      8  C2' N4B d   1       1.802   3.998   0.788  0.00  0.00     0.009 C 
BRANCH   8   9
ATOM      9  C3' N4B d   1       3.016   3.775   1.673  0.00  0.00     0.004 C 
ATOM     10  C4' N4B d   1       3.163   2.348   2.109  0.00  0.00     0.003 C 
ENDBRANCH   8   9
ENDBRANCH   7   8
ENDBRANCH   1   7
TORSDOF 3
ENDMDL
