MODEL 1
REMARK minimizedAffinity 1.99088776
REMARK minimizedRMSD -1
REMARK  3 active torsions:
REMARK  status: ('A' for Active; 'I' for Inactive)
REMARK    1  A    between atoms: C3'_2  and  C2'_3 
REMARK    2  A    between atoms: C2'_3  and  C1'_4 
REMARK    3  A    between atoms: C1'_4  and  C1_5 
ROOT
ATOM      1  C1  N4B d   1       1.828  -0.710  -1.658  0.00  0.00    -0.075 A 
ATOM      2  C2  N4B d   1       2.964  -1.343  -1.108  0.00  0.00     0.002 A 
ATOM      3  C3  N4B d   1       2.810  -2.378  -0.218  0.00  0.00     0.002 A 
ATOM      4  C4  N4B d   1       1.536  -2.783   0.149  0.00  0.00    -0.004 A 
ATOM      5  C5  N4B d   1       0.444  -2.183  -0.406  0.00  0.00     0.002 A 
ATOM      6  C6  N4B d   1       0.583  -1.145  -1.305  0.00  0.00     0.002 A 
ENDROOT
BRANCH   1   7
ATOM      7  C1' N4B d   1       1.946   0.481  -2.568  0.00  0.00     0.057 C 
BRANCH   7   8
ATOM      8  C2' N4B d   1       1.900   1.757  -1.732  0.00  0.00     0.009 C 
BRANCH   8   9
ATOM      9  C3' N4B d   1       0.610   2.531  -1.946  0.00  0.00     0.004 C 
ATOM     10  C4' N4B d   1      -0.427   2.231  -0.906  0.00  0.00     0.003 C 
ENDBRANCH   8   9
ENDBRANCH   7   8
ENDBRANCH   1   7
TORSDOF 3
ENDMDL
