MODEL 1
REMARK minimizedAffinity 11.4161205
REMARK minimizedRMSD -1
REMARK  3 active torsions:
REMARK  status: ('A' for Active; 'I' for Inactive)
REMARK    1  A    between atoms: C3'_2  and  C2'_3 
REMARK    2  A    between atoms: C2'_3  and  C1'_4 
REMARK    3  A    between atoms: C1'_4  and  C1_5 
ROOT
ATOM      1  C1  N4B d   1       1.058   1.297  -0.823  0.00  0.00    -0.075 A 
ATOM      2  C2  N4B d   1       1.602   1.644   0.433  0.00  0.00     0.002 A 
ATOM      3  C3  N4B d   1       0.816   2.261   1.375  0.00  0.00     0.002 A 
ATOM      4  C4  N4B d   1      -0.506   2.558   1.078  0.00  0.00    -0.004 A 
ATOM      5  C5  N4B d   1      -1.031   2.196  -0.129  0.00  0.00     0.002 A 
ATOM      6  C6  N4B d   1      -0.253   1.572  -1.083  0.00  0.00     0.002 A 
ENDROOT
BRANCH   1   7
ATOM      7  C1' N4B d   1       1.901   0.698  -1.915  0.00  0.00     0.057 C 
BRANCH   7   8
ATOM      8  C2' N4B d   1       1.985  -0.812  -1.713  0.00  0.00     0.009 C 
BRANCH   8   9
ATOM      9  C3' N4B d   1       1.283  -1.574  -2.824  0.00  0.00     0.004 C 
ATOM     10  C4' N4B d   1       0.126  -2.389  -2.329  0.00  0.00     0.003 C 
ENDBRANCH   8   9
ENDBRANCH   7   8
ENDBRANCH   1   7
TORSDOF 3
ENDMDL
