MODEL 1
REMARK minimizedAffinity -2.97568297
REMARK minimizedRMSD -1
REMARK  1 active torsions:
REMARK  status: ('A' for Active; 'I' for Inactive)
REMARK    1  A    between atoms: C3_4  and  O_7 
ROOT
ATOM      1  C   UNL d   1       1.298   5.957   4.934  0.00  0.00    -0.033 A 
ATOM      2  C1  UNL d   1       2.196   6.000   3.865  0.00  0.00     0.039 A 
ATOM      3  C2  UNL d   1       3.316   5.166   3.858  0.00  0.00    -0.080 A 
ATOM      4  C3  UNL d   1       3.525   4.294   4.923  0.00  0.00     0.150 A 
ATOM      5  C4  UNL d   1       2.632   4.243   5.989  0.00  0.00    -0.007 A 
ATOM      6  C5  UNL d   1       1.515   5.077   5.994  0.00  0.00     0.039 A 
ENDROOT
BRANCH   4   7
ATOM      7  O   UNL d   1       4.606   3.464   4.963  0.00  0.00    -0.526 OA
ATOM      8  H5  UNL d   1       5.150   3.629   4.175  0.00  0.00     0.418 HD
ENDBRANCH   4   7
TORSDOF 1
ENDMDL
