MODEL 1
REMARK minimizedAffinity -3.86395788
REMARK minimizedRMSD -1
REMARK  1 active torsions:
REMARK  status: ('A' for Active; 'I' for Inactive)
REMARK    1  A    between atoms: C3_4  and  O_7 
ROOT
ATOM      1  C   UNL d   1       0.032   5.999   4.810  0.00  0.00    -0.033 A 
ATOM      2  C1  UNL d   1       0.749   5.775   3.633  0.00  0.00     0.039 A 
ATOM      3  C2  UNL d   1       1.853   4.920   3.639  0.00  0.00    -0.080 A 
ATOM      4  C3  UNL d   1       2.227   4.295   4.825  0.00  0.00     0.150 A 
ATOM      5  C4  UNL d   1       1.515   4.510   6.000  0.00  0.00    -0.007 A 
ATOM      6  C5  UNL d   1       0.413   5.366   5.993  0.00  0.00     0.039 A 
ENDROOT
BRANCH   4   7
ATOM      7  O   UNL d   1       3.300   3.456   4.880  0.00  0.00    -0.526 OA
ATOM      8  H5  UNL d   1       3.712   3.425   4.001  0.00  0.00     0.418 HD
ENDBRANCH   4   7
TORSDOF 1
ENDMDL
