MODEL 1
REMARK minimizedAffinity 2.44561172
REMARK minimizedRMSD -1
REMARK  1 active torsions:
REMARK  status: ('A' for Active; 'I' for Inactive)
REMARK    1  A    between atoms: C3_4  and  O_7 
ROOT
ATOM      1  C   UNL d   1      -2.372   2.246   1.250  0.00  0.00    -0.033 A 
ATOM      2  C1  UNL d   1      -2.200   1.209   0.331  0.00  0.00     0.039 A 
ATOM      3  C2  UNL d   1      -3.307   0.505  -0.145  0.00  0.00    -0.080 A 
ATOM      4  C3  UNL d   1      -4.579   0.846   0.304  0.00  0.00     0.150 A 
ATOM      5  C4  UNL d   1      -4.759   1.880   1.217  0.00  0.00    -0.007 A 
ATOM      6  C5  UNL d   1      -3.652   2.583   1.692  0.00  0.00     0.039 A 
ENDROOT
BRANCH   4   7
ATOM      7  O   UNL d   1      -5.690   0.184  -0.128  0.00  0.00    -0.526 OA
ATOM      8  H5  UNL d   1      -5.410  -0.523  -0.733  0.00  0.00     0.418 HD
ENDBRANCH   4   7
TORSDOF 1
ENDMDL
