MODEL 1
REMARK minimizedAffinity 0.670062482
REMARK minimizedRMSD -1
REMARK  1 active torsions:
REMARK  status: ('A' for Active; 'I' for Inactive)
REMARK    1  A    between atoms: C3_4  and  O_7 
ROOT
ATOM      1  C   UNL d   1       2.577   1.548  -0.066  0.00  0.00    -0.033 A 
ATOM      2  C1  UNL d   1       3.222   1.571   1.172  0.00  0.00     0.039 A 
ATOM      3  C2  UNL d   1       3.733   0.391   1.717  0.00  0.00    -0.080 A 
ATOM      4  C3  UNL d   1       3.594  -0.803   1.013  0.00  0.00     0.150 A 
ATOM      5  C4  UNL d   1       2.956  -0.831  -0.222  0.00  0.00    -0.007 A 
ATOM      6  C5  UNL d   1       2.446   0.348  -0.764  0.00  0.00     0.039 A 
ENDROOT
BRANCH   4   7
ATOM      7  O   UNL d   1       4.072  -1.980   1.507  0.00  0.00    -0.526 OA
ATOM      8  H5  UNL d   1       4.462  -1.812   2.381  0.00  0.00     0.418 HD
ENDBRANCH   4   7
TORSDOF 1
ENDMDL
