MODEL 1
REMARK minimizedAffinity -4.32145023
REMARK minimizedRMSD -1
REMARK  1 active torsions:
REMARK  status: ('A' for Active; 'I' for Inactive)
REMARK    1  A    between atoms: C3_4  and  O_7 
ROOT
ATOM      1  C   UNL d   1       2.903   4.714   4.839  0.00  0.00    -0.033 A 
ATOM      2  C1  UNL d   1       2.063   4.100   5.770  0.00  0.00     0.039 A 
ATOM      3  C2  UNL d   1       0.708   4.434   5.817  0.00  0.00    -0.080 A 
ATOM      4  C3  UNL d   1       0.207   5.381   4.929  0.00  0.00     0.150 A 
ATOM      5  C4  UNL d   1       1.037   5.994   3.997  0.00  0.00    -0.007 A 
ATOM      6  C5  UNL d   1       2.390   5.660   3.952  0.00  0.00     0.039 A 
ENDROOT
BRANCH   4   7
ATOM      7  O   UNL d   1      -1.107   5.743   4.941  0.00  0.00    -0.526 OA
ATOM      8  H5  UNL d   1      -1.554   5.259   5.656  0.00  0.00     0.418 HD
ENDBRANCH   4   7
TORSDOF 1
ENDMDL
