MODEL 1
REMARK minimizedAffinity -4.22452974
REMARK minimizedRMSD -1
REMARK  1 active torsions:
REMARK  status: ('A' for Active; 'I' for Inactive)
REMARK    1  A    between atoms: C3_4  and  O_7 
ROOT
ATOM      1  C   UNL d   1       2.800   5.084   4.273  0.00  0.00    -0.033 A 
ATOM      2  C1  UNL d   1       1.919   5.876   3.534  0.00  0.00     0.039 A 
ATOM      3  C2  UNL d   1       0.550   5.845   3.810  0.00  0.00    -0.080 A 
ATOM      4  C3  UNL d   1       0.077   5.019   4.826  0.00  0.00     0.150 A 
ATOM      5  C4  UNL d   1       0.950   4.231   5.569  0.00  0.00    -0.007 A 
ATOM      6  C5  UNL d   1       2.315   4.262   5.291  0.00  0.00     0.039 A 
ENDROOT
BRANCH   4   7
ATOM      7  O   UNL d   1      -1.251   4.952   5.129  0.00  0.00    -0.526 OA
ATOM      8  H5  UNL d   1      -1.736   5.528   4.515  0.00  0.00     0.418 HD
ENDBRANCH   4   7
TORSDOF 1
ENDMDL
