MODEL 1
REMARK minimizedAffinity 4.24821854
REMARK minimizedRMSD -1
REMARK  1 active torsions:
REMARK  status: ('A' for Active; 'I' for Inactive)
REMARK    1  A    between atoms: C3_4  and  O_7 
ROOT
ATOM      1  C   UNL d   1       1.653  -0.541   0.354  0.00  0.00    -0.033 A 
ATOM      2  C1  UNL d   1       0.913  -1.360  -0.502  0.00  0.00     0.039 A 
ATOM      3  C2  UNL d   1      -0.397  -1.713  -0.174  0.00  0.00    -0.080 A 
ATOM      4  C3  UNL d   1      -0.956  -1.241   1.010  0.00  0.00     0.150 A 
ATOM      5  C4  UNL d   1      -0.227  -0.422   1.866  0.00  0.00    -0.007 A 
ATOM      6  C5  UNL d   1       1.082  -0.071   1.537  0.00  0.00     0.039 A 
ENDROOT
BRANCH   4   7
ATOM      7  O   UNL d   1      -2.230  -1.563   1.375  0.00  0.00    -0.526 OA
ATOM      8  H5  UNL d   1      -2.601  -2.158   0.703  0.00  0.00     0.418 HD
ENDBRANCH   4   7
TORSDOF 1
ENDMDL
