MODEL 1
REMARK minimizedAffinity 0.458003968
REMARK minimizedRMSD -1
REMARK  0 active torsions:
REMARK  status: ('A' for Active; 'I' for Inactive)
ROOT
ATOM      1  C4' PXY d   1      -5.081   1.962   0.639  0.00  0.00     0.077 C 
ATOM      2  C1' PXY d   1       0.644   1.752  -0.133  0.00  0.00     0.077 C 
ATOM      3  C1  PXY d   1      -0.858   1.817   0.061  0.00  0.00    -0.082 A 
ATOM      4  C2  PXY d   1      -1.397   1.329   1.167  0.00  0.00     0.003 A 
ATOM      5  C3  PXY d   1      -2.756   1.351   1.345  0.00  0.00     0.003 A 
ATOM      6  C4  PXY d   1      -3.568   1.926   0.405  0.00  0.00    -0.082 A 
ATOM      7  C5  PXY d   1      -3.026   2.436  -0.721  0.00  0.00     0.003 A 
ATOM      8  C6  PXY d   1      -1.647   2.367  -0.901  0.00  0.00     0.003 A 
ENDROOT
TORSDOF 0
ENDMDL
