MODEL 1
REMARK minimizedAffinity -2.09614706
REMARK minimizedRMSD -1
REMARK  0 active torsions:
REMARK  status: ('A' for Active; 'I' for Inactive)
ROOT
ATOM      1  C4' PXY d   1       0.922   0.749   0.715  0.00  0.00     0.077 C 
ATOM      2  C1' PXY d   1      -4.635   2.338   0.743  0.00  0.00     0.077 C 
ATOM      3  C1  PXY d   1      -3.181   1.913   0.745  0.00  0.00    -0.082 A 
ATOM      4  C2  PXY d   1      -2.249   2.765   0.348  0.00  0.00     0.003 A 
ATOM      5  C3  PXY d   1      -0.932   2.385   0.313  0.00  0.00     0.003 A 
ATOM      6  C4  PXY d   1      -0.558   1.139   0.739  0.00  0.00    -0.082 A 
ATOM      7  C5  PXY d   1      -1.501   0.268   1.156  0.00  0.00     0.003 A 
ATOM      8  C6  PXY d   1      -2.837   0.658   1.145  0.00  0.00     0.003 A 
ENDROOT
TORSDOF 0
ENDMDL
