MODEL 1
REMARK minimizedAffinity -1.75685036
REMARK minimizedRMSD -1
REMARK  0 active torsions:
REMARK  status: ('A' for Active; 'I' for Inactive)
ROOT
ATOM      1  C4' PXY d   1      -5.687   1.921   0.797  0.00  0.00     0.077 C 
ATOM      2  C1' PXY d   1       0.031   1.249   0.281  0.00  0.00     0.077 C 
ATOM      3  C1  PXY d   1      -1.470   1.412   0.418  0.00  0.00    -0.082 A 
ATOM      4  C2  PXY d   1      -2.064   2.469  -0.113  0.00  0.00     0.003 A 
ATOM      5  C3  PXY d   1      -3.416   2.649   0.029  0.00  0.00     0.003 A 
ATOM      6  C4  PXY d   1      -4.175   1.710   0.675  0.00  0.00    -0.082 A 
ATOM      7  C5  PXY d   1      -3.578   0.625   1.210  0.00  0.00     0.003 A 
ATOM      8  C6  PXY d   1      -2.199   0.481   1.091  0.00  0.00     0.003 A 
ENDROOT
TORSDOF 0
ENDMDL
