MODEL 1
REMARK minimizedAffinity -0.973727345
REMARK minimizedRMSD -1
REMARK  0 active torsions:
REMARK  status: ('A' for Active; 'I' for Inactive)
ROOT
ATOM      1  C4' PXY d   1      -4.505  -0.225   0.760  0.00  0.00     0.077 C 
ATOM      2  C1' PXY d   1       1.159   0.912   0.555  0.00  0.00     0.077 C 
ATOM      3  C1  PXY d   1      -0.324   0.602   0.614  0.00  0.00    -0.082 A 
ATOM      4  C2  PXY d   1      -1.150   1.190  -0.236  0.00  0.00     0.003 A 
ATOM      5  C3  PXY d   1      -2.497   0.946  -0.176  0.00  0.00     0.003 A 
ATOM      6  C4  PXY d   1      -2.999   0.050   0.730  0.00  0.00    -0.082 A 
ATOM      7  C5  PXY d   1      -2.162  -0.562   1.595  0.00  0.00     0.003 A 
ATOM      8  C6  PXY d   1      -0.802  -0.269   1.544  0.00  0.00     0.003 A 
ENDROOT
TORSDOF 0
ENDMDL
