MODEL 1
REMARK minimizedAffinity -3.13378358
REMARK minimizedRMSD -1
REMARK  0 active torsions:
REMARK  status: ('A' for Active; 'I' for Inactive)
ROOT
ATOM      1  C4' PXY d   1      -5.544   2.406   0.586  0.00  0.00     0.077 C 
ATOM      2  C1' PXY d   1       0.035   0.930   0.243  0.00  0.00     0.077 C 
ATOM      3  C1  PXY d   1      -1.425   1.330   0.332  0.00  0.00    -0.082 A 
ATOM      4  C2  PXY d   1      -2.294   0.509   0.899  0.00  0.00     0.003 A 
ATOM      5  C3  PXY d   1      -3.624   0.840   0.959  0.00  0.00     0.003 A 
ATOM      6  C4  PXY d   1      -4.059   2.048   0.482  0.00  0.00    -0.082 A 
ATOM      7  C5  PXY d   1      -3.176   2.896  -0.087  0.00  0.00     0.003 A 
ATOM      8  C6  PXY d   1      -1.838   2.522  -0.176  0.00  0.00     0.003 A 
ENDROOT
TORSDOF 0
ENDMDL
