MODEL 1
REMARK minimizedAffinity 1.47082305
REMARK minimizedRMSD -1
REMARK  0 active torsions:
REMARK  status: ('A' for Active; 'I' for Inactive)
ROOT
ATOM      1  C4' PXY d   1      -2.847  -0.424   1.850  0.00  0.00     0.077 C 
ATOM      2  C1' PXY d   1       2.004   1.725  -0.444  0.00  0.00     0.077 C 
ATOM      3  C1  PXY d   1       0.739   1.152   0.163  0.00  0.00    -0.082 A 
ATOM      4  C2  PXY d   1      -0.431   1.409  -0.399  0.00  0.00     0.003 A 
ATOM      5  C3  PXY d   1      -1.588   0.925   0.155  0.00  0.00     0.003 A 
ATOM      6  C4  PXY d   1      -1.543   0.126   1.266  0.00  0.00    -0.082 A 
ATOM      7  C5  PXY d   1      -0.352  -0.150   1.839  0.00  0.00     0.003 A 
ATOM      8  C6  PXY d   1       0.807   0.385   1.285  0.00  0.00     0.003 A 
ENDROOT
TORSDOF 0
ENDMDL
