MODEL 1
REMARK minimizedAffinity 7.29734135
REMARK minimizedRMSD -1
REMARK  0 active torsions:
REMARK  status: ('A' for Active; 'I' for Inactive)
ROOT
ATOM      1  C4' PXY d   1       0.950   1.052   0.719  0.00  0.00     0.077 C 
ATOM      2  C1' PXY d   1      -4.630   2.508   0.330  0.00  0.00     0.077 C 
ATOM      3  C1  PXY d   1      -3.169   2.120   0.443  0.00  0.00    -0.082 A 
ATOM      4  C2  PXY d   1      -2.246   2.869  -0.139  0.00  0.00     0.003 A 
ATOM      5  C3  PXY d   1      -0.923   2.514  -0.074  0.00  0.00     0.003 A 
ATOM      6  C4  PXY d   1      -0.536   1.411   0.639  0.00  0.00    -0.082 A 
ATOM      7  C5  PXY d   1      -1.470   0.648   1.244  0.00  0.00     0.003 A 
ATOM      8  C6  PXY d   1      -2.812   1.002   1.132  0.00  0.00     0.003 A 
ENDROOT
TORSDOF 0
ENDMDL
