MODEL 1
REMARK minimizedAffinity 2.04837298
REMARK minimizedRMSD -1
REMARK  0 active torsions:
REMARK  status: ('A' for Active; 'I' for Inactive)
ROOT
ATOM      1  C4' PXY d   1      -2.964   2.929   0.829  0.00  0.00     0.077 C 
ATOM      2  C1' PXY d   1       2.147   0.238   0.608  0.00  0.00     0.077 C 
ATOM      3  C1  PXY d   1       0.811   0.952   0.674  0.00  0.00    -0.082 A 
ATOM      4  C2  PXY d   1      -0.299   0.292   0.386  0.00  0.00     0.003 A 
ATOM      5  C3  PXY d   1      -1.511   0.931   0.410  0.00  0.00     0.003 A 
ATOM      6  C4  PXY d   1      -1.595   2.246   0.784  0.00  0.00    -0.082 A 
ATOM      7  C5  PXY d   1      -0.468   2.923   1.090  0.00  0.00     0.003 A 
ATOM      8  C6  PXY d   1       0.758   2.267   1.020  0.00  0.00     0.003 A 
ENDROOT
TORSDOF 0
ENDMDL
