MODEL 1
REMARK minimizedAffinity 5.0628171
REMARK minimizedRMSD -1
REMARK  0 active torsions:
REMARK  status: ('A' for Active; 'I' for Inactive)
ROOT
ATOM      1  C4' PXY d   1      -4.148   0.012   1.138  0.00  0.00     0.077 C 
ATOM      2  C1' PXY d   1       0.905   2.750   0.517  0.00  0.00     0.077 C 
ATOM      3  C1  PXY d   1      -0.414   2.021   0.685  0.00  0.00    -0.082 A 
ATOM      4  C2  PXY d   1      -1.441   2.341  -0.087  0.00  0.00     0.003 A 
ATOM      5  C3  PXY d   1      -2.650   1.715   0.074  0.00  0.00     0.003 A 
ATOM      6  C4  PXY d   1      -2.795   0.714   0.997  0.00  0.00    -0.082 A 
ATOM      7  C5  PXY d   1      -1.749   0.375   1.781  0.00  0.00     0.003 A 
ATOM      8  C6  PXY d   1      -0.542   1.051   1.630  0.00  0.00     0.003 A 
ENDROOT
TORSDOF 0
ENDMDL
