MODEL 1
REMARK minimizedAffinity 0.309029877
REMARK minimizedRMSD -1
REMARK  0 active torsions:
REMARK  status: ('A' for Active; 'I' for Inactive)
ROOT
ATOM      1  C4' PXY d   1      -4.281   1.131   0.373  0.00  0.00     0.077 C 
ATOM      2  C1' PXY d   1       1.411   1.358   1.355  0.00  0.00     0.077 C 
ATOM      3  C1  PXY d   1      -0.083   1.311   1.101  0.00  0.00    -0.082 A 
ATOM      4  C2  PXY d   1      -0.713   0.147   1.117  0.00  0.00     0.003 A 
ATOM      5  C3  PXY d   1      -2.058   0.083   0.858  0.00  0.00     0.003 A 
ATOM      6  C4  PXY d   1      -2.775   1.227   0.633  0.00  0.00    -0.082 A 
ATOM      7  C5  PXY d   1      -2.142   2.419   0.625  0.00  0.00     0.003 A 
ATOM      8  C6  PXY d   1      -0.769   2.459   0.850  0.00  0.00     0.003 A 
ENDROOT
TORSDOF 0
ENDMDL
