MODEL 1
REMARK minimizedAffinity -3.26641059
REMARK minimizedRMSD -1
REMARK  0 active torsions:
REMARK  status: ('A' for Active; 'I' for Inactive)
ROOT
ATOM      1  C4' PXY d   1      -5.330   1.089   0.660  0.00  0.00     0.077 C 
ATOM      2  C1' PXY d   1       0.408   1.753   0.880  0.00  0.00     0.077 C 
ATOM      3  C1  PXY d   1      -1.095   1.566   0.822  0.00  0.00    -0.082 A 
ATOM      4  C2  PXY d   1      -1.861   2.554   0.389  0.00  0.00     0.003 A 
ATOM      5  C3  PXY d   1      -3.224   2.413   0.360  0.00  0.00     0.003 A 
ATOM      6  C4  PXY d   1      -3.807   1.230   0.727  0.00  0.00    -0.082 A 
ATOM      7  C5  PXY d   1      -3.032   0.213   1.159  0.00  0.00     0.003 A 
ATOM      8  C6  PXY d   1      -1.652   0.390   1.221  0.00  0.00     0.003 A 
ENDROOT
TORSDOF 0
ENDMDL
