MODEL 1
REMARK minimizedAffinity -3.52028894
REMARK minimizedRMSD -1
REMARK  0 active torsions:
REMARK  status: ('A' for Active; 'I' for Inactive)
ROOT
ATOM      1  C4' PXY d   1      -5.040   1.904   0.633  0.00  0.00     0.077 C 
ATOM      2  C1' PXY d   1       0.691   1.167   0.483  0.00  0.00     0.077 C 
ATOM      3  C1  PXY d   1      -0.810   1.373   0.525  0.00  0.00    -0.082 A 
ATOM      4  C2  PXY d   1      -1.604   0.346   0.779  0.00  0.00     0.003 A 
ATOM      5  C3  PXY d   1      -2.966   0.507   0.789  0.00  0.00     0.003 A 
ATOM      6  C4  PXY d   1      -3.518   1.745   0.590  0.00  0.00    -0.082 A 
ATOM      7  C5  PXY d   1      -2.714   2.800   0.341  0.00  0.00     0.003 A 
ATOM      8  C6  PXY d   1      -1.336   2.606   0.294  0.00  0.00     0.003 A 
ENDROOT
TORSDOF 0
ENDMDL
