MODEL 1
REMARK minimizedAffinity 1.04505432
REMARK minimizedRMSD -1
REMARK  0 active torsions:
REMARK  status: ('A' for Active; 'I' for Inactive)
ROOT
ATOM      1  C4' PXY d   1      -3.710   3.023   0.327  0.00  0.00     0.077 C 
ATOM      2  C1' PXY d   1       1.337   0.227   0.684  0.00  0.00     0.077 C 
ATOM      3  C1  PXY d   1       0.019   0.972   0.593  0.00  0.00    -0.082 A 
ATOM      4  C2  PXY d   1      -1.113   0.328   0.825  0.00  0.00     0.003 A 
ATOM      5  C3  PXY d   1      -2.315   0.978   0.716  0.00  0.00     0.003 A 
ATOM      6  C4  PXY d   1      -2.356   2.314   0.417  0.00  0.00    -0.082 A 
ATOM      7  C5  PXY d   1      -1.204   2.980   0.188  0.00  0.00     0.003 A 
ATOM      8  C6  PXY d   1       0.003   2.292   0.264  0.00  0.00     0.003 A 
ENDROOT
TORSDOF 0
ENDMDL
