MODEL 1
REMARK minimizedAffinity -2.36726928
REMARK minimizedRMSD -1
REMARK  0 active torsions:
REMARK  status: ('A' for Active; 'I' for Inactive)
ROOT
ATOM      1  C4' PXY d   1       0.607   0.734   0.298  0.00  0.00     0.077 C 
ATOM      2  C1' PXY d   1      -4.939   2.211   0.986  0.00  0.00     0.077 C 
ATOM      3  C1  PXY d   1      -3.485   1.817   0.817  0.00  0.00    -0.082 A 
ATOM      4  C2  PXY d   1      -2.681   2.578   0.093  0.00  0.00     0.003 A 
ATOM      5  C3  PXY d   1      -1.371   2.220  -0.097  0.00  0.00     0.003 A 
ATOM      6  C4  PXY d   1      -0.866   1.098   0.504  0.00  0.00    -0.082 A 
ATOM      7  C5  PXY d   1      -1.677   0.322   1.253  0.00  0.00     0.003 A 
ATOM      8  C6  PXY d   1      -3.014   0.681   1.400  0.00  0.00     0.003 A 
ENDROOT
TORSDOF 0
ENDMDL
