MODEL 1
REMARK minimizedAffinity -3.84340596
REMARK minimizedRMSD -1
REMARK  0 active torsions:
REMARK  status: ('A' for Active; 'I' for Inactive)
ROOT
ATOM      1  C4' PXY d   1      -4.894   1.634   0.703  0.00  0.00     0.077 C 
ATOM      2  C1' PXY d   1       0.696   2.063  -0.705  0.00  0.00     0.077 C 
ATOM      3  C1  PXY d   1      -0.768   1.938  -0.331  0.00  0.00    -0.082 A 
ATOM      4  C2  PXY d   1      -1.671   2.663  -0.972  0.00  0.00     0.003 A 
ATOM      5  C3  PXY d   1      -2.995   2.587  -0.625  0.00  0.00     0.003 A 
ATOM      6  C4  PXY d   1      -3.406   1.720   0.352  0.00  0.00    -0.082 A 
ATOM      7  C5  PXY d   1      -2.493   0.970   1.003  0.00  0.00     0.003 A 
ATOM      8  C6  PXY d   1      -1.148   1.092   0.664  0.00  0.00     0.003 A 
ENDROOT
TORSDOF 0
ENDMDL
