MODEL 1
REMARK minimizedAffinity 0.107422858
REMARK minimizedRMSD -1
REMARK  0 active torsions:
REMARK  status: ('A' for Active; 'I' for Inactive)
ROOT
ATOM      1  C4' PXY d   1      -5.161   2.065   0.597  0.00  0.00     0.077 C 
ATOM      2  C1' PXY d   1       0.519   1.133   0.071  0.00  0.00     0.077 C 
ATOM      3  C1  PXY d   1      -0.972   1.365   0.212  0.00  0.00    -0.082 A 
ATOM      4  C2  PXY d   1      -1.536   2.390  -0.406  0.00  0.00     0.003 A 
ATOM      5  C3  PXY d   1      -2.878   2.633  -0.264  0.00  0.00     0.003 A 
ATOM      6  C4  PXY d   1      -3.661   1.787   0.476  0.00  0.00    -0.082 A 
ATOM      7  C5  PXY d   1      -3.095   0.733   1.100  0.00  0.00     0.003 A 
ATOM      8  C6  PXY d   1      -1.723   0.527   0.977  0.00  0.00     0.003 A 
ENDROOT
TORSDOF 0
ENDMDL
