MODEL 1
REMARK minimizedAffinity -3.34190798
REMARK minimizedRMSD -1
REMARK  0 active torsions:
REMARK  status: ('A' for Active; 'I' for Inactive)
ROOT
ATOM      1  C4' PXY d   1      -4.927   1.917   0.367  0.00  0.00     0.077 C 
ATOM      2  C1' PXY d   1       0.778   0.999   0.203  0.00  0.00     0.077 C 
ATOM      3  C1  PXY d   1      -0.716   1.252   0.246  0.00  0.00    -0.082 A 
ATOM      4  C2  PXY d   1      -1.526   0.311   0.703  0.00  0.00     0.003 A 
ATOM      5  C3  PXY d   1      -2.883   0.512   0.719  0.00  0.00     0.003 A 
ATOM      6  C4  PXY d   1      -3.411   1.708   0.313  0.00  0.00    -0.082 A 
ATOM      7  C5  PXY d   1      -2.590   2.677  -0.144  0.00  0.00     0.003 A 
ATOM      8  C6  PXY d   1      -1.220   2.438  -0.191  0.00  0.00     0.003 A 
ENDROOT
TORSDOF 0
ENDMDL
