MODEL 1
REMARK minimizedAffinity 1.23306
REMARK minimizedRMSD -1
REMARK  0 active torsions:
REMARK  status: ('A' for Active; 'I' for Inactive)
ROOT
ATOM      1  C4' PXY d   1       0.502   1.520  -0.198  0.00  0.00     0.077 C 
ATOM      2  C1' PXY d   1      -5.137   2.531   0.575  0.00  0.00     0.077 C 
ATOM      3  C1  PXY d   1      -3.658   2.260   0.384  0.00  0.00    -0.082 A 
ATOM      4  C2  PXY d   1      -2.951   3.030  -0.427  0.00  0.00     0.003 A 
ATOM      5  C3  PXY d   1      -1.619   2.779  -0.636  0.00  0.00     0.003 A 
ATOM      6  C4  PXY d   1      -0.993   1.763   0.033  0.00  0.00    -0.082 A 
ATOM      7  C5  PXY d   1      -1.704   0.979   0.870  0.00  0.00     0.003 A 
ATOM      8  C6  PXY d   1      -3.064   1.225   1.037  0.00  0.00     0.003 A 
ENDROOT
TORSDOF 0
ENDMDL
