MODEL 1
REMARK minimizedAffinity -2.67670584
REMARK minimizedRMSD -1
REMARK  0 active torsions:
REMARK  status: ('A' for Active; 'I' for Inactive)
ROOT
ATOM      1  C4' PXY d   1      -5.030   1.858   0.682  0.00  0.00     0.077 C 
ATOM      2  C1' PXY d   1       0.592   1.463  -0.607  0.00  0.00     0.077 C 
ATOM      3  C1  PXY d   1      -0.883   1.553  -0.268  0.00  0.00    -0.082 A 
ATOM      4  C2  PXY d   1      -1.590   2.588  -0.693  0.00  0.00     0.003 A 
ATOM      5  C3  PXY d   1      -2.917   2.702  -0.368  0.00  0.00     0.003 A 
ATOM      6  C4  PXY d   1      -3.540   1.720   0.355  0.00  0.00    -0.082 A 
ATOM      7  C5  PXY d   1      -2.828   0.656   0.783  0.00  0.00     0.003 A 
ATOM      8  C6  PXY d   1      -1.473   0.580   0.478  0.00  0.00     0.003 A 
ENDROOT
TORSDOF 0
ENDMDL
