MODEL 1
REMARK minimizedAffinity 5.08190918
REMARK minimizedRMSD -1
REMARK  0 active torsions:
REMARK  status: ('A' for Active; 'I' for Inactive)
ROOT
ATOM      1  C4' PXY d   1      -2.306   2.469   2.223  0.00  0.00     0.077 C 
ATOM      2  C1' PXY d   1       3.300   1.203   1.609  0.00  0.00     0.077 C 
ATOM      3  C1  PXY d   1       1.830   1.529   1.781  0.00  0.00    -0.082 A 
ATOM      4  C2  PXY d   1       1.085   1.774   0.716  0.00  0.00     0.003 A 
ATOM      5  C3  PXY d   1      -0.239   2.102   0.855  0.00  0.00     0.003 A 
ATOM      6  C4  PXY d   1      -0.819   2.127   2.095  0.00  0.00    -0.082 A 
ATOM      7  C5  PXY d   1      -0.069   1.868   3.187  0.00  0.00     0.003 A 
ATOM      8  C6  PXY d   1       1.283   1.578   3.026  0.00  0.00     0.003 A 
ENDROOT
TORSDOF 0
ENDMDL
