MODEL 1
REMARK minimizedAffinity 3.05883884
REMARK minimizedRMSD -1
REMARK  0 active torsions:
REMARK  status: ('A' for Active; 'I' for Inactive)
ROOT
ATOM      1  C1  DEN d   1       4.339  -5.946   5.891  0.00  0.00     0.130 A 
ATOM      2  C2  DEN d   1       5.774  -5.972   5.624  0.00  0.00    -0.031 A 
ATOM      3  C3  DEN d   1       5.966  -5.995   4.160  0.00  0.00     0.027 A 
ATOM      4  C4  DEN d   1       4.190  -5.989   2.291  0.00  0.00     0.027 A 
ATOM      5  C5  DEN d   1       2.838  -5.984   2.027  0.00  0.00    -0.003 A 
ATOM      6  C6  DEN d   1       1.899  -5.999   3.024  0.00  0.00     0.001 A 
ATOM      7  C7  DEN d   1       2.300  -5.976   4.334  0.00  0.00     0.017 A 
ATOM      8  C8  DEN d   1       3.661  -5.989   4.608  0.00  0.00    -0.094 A 
ATOM      9  C9  DEN d   1       4.595  -5.961   3.586  0.00  0.00    -0.072 A 
ENDROOT
TORSDOF 0
ENDMDL
