MODEL 1
REMARK minimizedAffinity 16.9044342
REMARK minimizedRMSD -1
REMARK  0 active torsions:
REMARK  status: ('A' for Active; 'I' for Inactive)
ROOT
ATOM      1  C1  DEN d   1       5.411   2.543  -6.000  0.00  0.00     0.130 A 
ATOM      2  C2  DEN d   1       4.788   3.864  -6.000  0.00  0.00    -0.031 A 
ATOM      3  C3  DEN d   1       3.350   3.691  -5.713  0.00  0.00     0.027 A 
ATOM      4  C4  DEN d   1       2.035   1.517  -5.266  0.00  0.00     0.027 A 
ATOM      5  C5  DEN d   1       2.131   0.146  -5.173  0.00  0.00    -0.003 A 
ATOM      6  C6  DEN d   1       3.310  -0.519  -5.381  0.00  0.00     0.001 A 
ATOM      7  C7  DEN d   1       4.451   0.190  -5.648  0.00  0.00     0.017 A 
ATOM      8  C8  DEN d   1       4.361   1.572  -5.751  0.00  0.00    -0.094 A 
ATOM      9  C9  DEN d   1       3.162   2.227  -5.525  0.00  0.00    -0.072 A 
ENDROOT
TORSDOF 0
ENDMDL
