MODEL 1
REMARK minimizedAffinity 21.3108177
REMARK minimizedRMSD -1
REMARK  0 active torsions:
REMARK  status: ('A' for Active; 'I' for Inactive)
ROOT
ATOM      1  C1  DEN d   1      -1.679   0.082   0.852  0.00  0.00     0.130 A 
ATOM      2  C2  DEN d   1      -2.861  -0.384   0.132  0.00  0.00    -0.031 A 
ATOM      3  C3  DEN d   1      -3.883   0.680   0.195  0.00  0.00     0.027 A 
ATOM      4  C4  DEN d   1      -3.748   2.994   1.326  0.00  0.00     0.027 A 
ATOM      5  C5  DEN d   1      -2.951   3.835   2.070  0.00  0.00    -0.003 A 
ATOM      6  C6  DEN d   1      -1.697   3.474   2.486  0.00  0.00     0.001 A 
ATOM      7  C7  DEN d   1      -1.185   2.257   2.122  0.00  0.00     0.017 A 
ATOM      8  C8  DEN d   1      -1.986   1.400   1.378  0.00  0.00    -0.094 A 
ATOM      9  C9  DEN d   1      -3.247   1.789   0.956  0.00  0.00    -0.072 A 
ENDROOT
TORSDOF 0
ENDMDL
