MODEL 1
REMARK minimizedAffinity 13.3334694
REMARK minimizedRMSD -1
REMARK  0 active torsions:
REMARK  status: ('A' for Active; 'I' for Inactive)
ROOT
ATOM      1  C1  DEN d   1      -5.855   5.453   5.187  0.00  0.00     0.130 A 
ATOM      2  C2  DEN d   1      -4.720   5.879   6.000  0.00  0.00    -0.031 A 
ATOM      3  C3  DEN d   1      -3.483   5.447   5.319  0.00  0.00     0.027 A 
ATOM      4  C4  DEN d   1      -3.217   4.172   3.092  0.00  0.00     0.027 A 
ATOM      5  C5  DEN d   1      -3.895   3.585   2.047  0.00  0.00    -0.003 A 
ATOM      6  C6  DEN d   1      -5.263   3.550   1.992  0.00  0.00     0.001 A 
ATOM      7  C7  DEN d   1      -5.997   4.152   2.979  0.00  0.00     0.017 A 
ATOM      8  C8  DEN d   1      -5.321   4.739   4.041  0.00  0.00    -0.094 A 
ATOM      9  C9  DEN d   1      -3.937   4.775   4.072  0.00  0.00    -0.072 A 
ENDROOT
TORSDOF 0
ENDMDL
