MODEL 1
REMARK minimizedAffinity 9.71497059
REMARK minimizedRMSD -1
REMARK  0 active torsions:
REMARK  status: ('A' for Active; 'I' for Inactive)
ROOT
ATOM      1  C1  DEN d   1      -3.250  -2.643  -5.972  0.00  0.00     0.130 A 
ATOM      2  C2  DEN d   1      -2.196  -3.653  -5.994  0.00  0.00    -0.031 A 
ATOM      3  C3  DEN d   1      -0.895  -2.955  -6.000  0.00  0.00     0.027 A 
ATOM      4  C4  DEN d   1      -0.413  -0.421  -5.972  0.00  0.00     0.027 A 
ATOM      5  C5  DEN d   1      -0.987   0.831  -5.963  0.00  0.00    -0.003 A 
ATOM      6  C6  DEN d   1      -2.345   1.012  -5.991  0.00  0.00     0.001 A 
ATOM      7  C7  DEN d   1      -3.175  -0.078  -5.983  0.00  0.00     0.017 A 
ATOM      8  C8  DEN d   1      -2.603  -1.343  -5.999  0.00  0.00    -0.094 A 
ATOM      9  C9  DEN d   1      -1.228  -1.505  -5.959  0.00  0.00    -0.072 A 
ENDROOT
TORSDOF 0
ENDMDL
