MODEL 1
REMARK minimizedAffinity 7.06362438
REMARK minimizedRMSD -1
REMARK  0 active torsions:
REMARK  status: ('A' for Active; 'I' for Inactive)
ROOT
ATOM      1  C1  DEN d   1      -3.756  -3.815  -6.000  0.00  0.00     0.130 A 
ATOM      2  C2  DEN d   1      -4.936  -3.212  -5.385  0.00  0.00    -0.031 A 
ATOM      3  C3  DEN d   1      -4.508  -1.985  -4.682  0.00  0.00     0.027 A 
ATOM      4  C4  DEN d   1      -2.147  -0.964  -4.492  0.00  0.00     0.027 A 
ATOM      5  C5  DEN d   1      -0.824  -1.124  -4.838  0.00  0.00    -0.003 A 
ATOM      6  C6  DEN d   1      -0.383  -2.201  -5.561  0.00  0.00     0.001 A 
ATOM      7  C7  DEN d   1      -1.282  -3.137  -6.000  0.00  0.00     0.017 A 
ATOM      8  C8  DEN d   1      -2.617  -2.987  -5.649  0.00  0.00    -0.094 A 
ATOM      9  C9  DEN d   1      -3.044  -1.885  -4.928  0.00  0.00    -0.072 A 
ENDROOT
TORSDOF 0
ENDMDL
