MODEL 1
REMARK minimizedAffinity 6.03071928
REMARK minimizedRMSD -1
REMARK  0 active torsions:
REMARK  status: ('A' for Active; 'I' for Inactive)
ROOT
ATOM      1  C1  DEN d   1      -2.777   1.200   2.387  0.00  0.00     0.130 A 
ATOM      2  C2  DEN d   1      -2.477   2.581   2.019  0.00  0.00    -0.031 A 
ATOM      3  C3  DEN d   1      -1.018   2.778   2.133  0.00  0.00     0.027 A 
ATOM      4  C4  DEN d   1       0.797   1.085   2.837  0.00  0.00     0.027 A 
ATOM      5  C5  DEN d   1       1.025  -0.208   3.253  0.00  0.00    -0.003 A 
ATOM      6  C6  DEN d   1       0.007  -1.105   3.442  0.00  0.00     0.001 A 
ATOM      7  C7  DEN d   1      -1.283  -0.734   3.169  0.00  0.00     0.017 A 
ATOM      8  C8  DEN d   1      -1.522   0.570   2.756  0.00  0.00    -0.094 A 
ATOM      9  C9  DEN d   1      -0.478   1.459   2.560  0.00  0.00    -0.072 A 
ENDROOT
TORSDOF 0
ENDMDL
