MODEL 1
REMARK minimizedAffinity 14.847476
REMARK minimizedRMSD -1
REMARK  0 active torsions:
REMARK  status: ('A' for Active; 'I' for Inactive)
ROOT
ATOM      1  C1  DEN d   1      -3.348  -0.162   1.367  0.00  0.00     0.130 A 
ATOM      2  C2  DEN d   1      -1.932  -0.045   1.706  0.00  0.00    -0.031 A 
ATOM      3  C3  DEN d   1      -1.734   1.243   2.400  0.00  0.00     0.027 A 
ATOM      4  C4  DEN d   1      -3.473   3.056   2.984  0.00  0.00     0.027 A 
ATOM      5  C5  DEN d   1      -4.800   3.410   2.890  0.00  0.00    -0.003 A 
ATOM      6  C6  DEN d   1      -5.723   2.621   2.256  0.00  0.00     0.001 A 
ATOM      7  C7  DEN d   1      -5.339   1.415   1.732  0.00  0.00     0.017 A 
ATOM      8  C8  DEN d   1      -4.001   1.054   1.817  0.00  0.00    -0.094 A 
ATOM      9  C9  DEN d   1      -3.085   1.861   2.472  0.00  0.00    -0.072 A 
ENDROOT
TORSDOF 0
ENDMDL
