MODEL 1
REMARK minimizedAffinity 15.2239256
REMARK minimizedRMSD -1
REMARK  0 active torsions:
REMARK  status: ('A' for Active; 'I' for Inactive)
ROOT
ATOM      1  C1  DEN d   1       4.446   2.535  -5.979  0.00  0.00     0.130 A 
ATOM      2  C2  DEN d   1       5.711   2.882  -5.337  0.00  0.00    -0.031 A 
ATOM      3  C3  DEN d   1       5.507   4.127  -4.570  0.00  0.00     0.027 A 
ATOM      4  C4  DEN d   1       3.366   5.542  -4.311  0.00  0.00     0.027 A 
ATOM      5  C5  DEN d   1       2.043   5.653  -4.679  0.00  0.00    -0.003 A 
ATOM      6  C6  DEN d   1       1.443   4.759  -5.525  0.00  0.00     0.001 A 
ATOM      7  C7  DEN d   1       2.154   3.688  -5.998  0.00  0.00     0.017 A 
ATOM      8  C8  DEN d   1       3.490   3.573  -5.638  0.00  0.00    -0.094 A 
ATOM      9  C9  DEN d   1       4.076   4.480  -4.771  0.00  0.00    -0.072 A 
ENDROOT
TORSDOF 0
ENDMDL
