MODEL 1
REMARK minimizedAffinity 17.4201183
REMARK minimizedRMSD -1
REMARK  0 active torsions:
REMARK  status: ('A' for Active; 'I' for Inactive)
ROOT
ATOM      1  C1  DEN d   1      -0.909  -0.740   1.483  0.00  0.00     0.130 A 
ATOM      2  C2  DEN d   1      -1.596   0.454   1.969  0.00  0.00    -0.031 A 
ATOM      3  C3  DEN d   1      -3.050   0.225   1.846  0.00  0.00     0.027 A 
ATOM      4  C4  DEN d   1      -4.296  -1.851   0.958  0.00  0.00     0.027 A 
ATOM      5  C5  DEN d   1      -4.140  -3.110   0.423  0.00  0.00    -0.003 A 
ATOM      6  C6  DEN d   1      -2.906  -3.650   0.173  0.00  0.00     0.001 A 
ATOM      7  C7  DEN d   1      -1.778  -2.945   0.502  0.00  0.00     0.017 A 
ATOM      8  C8  DEN d   1      -1.928  -1.672   1.036  0.00  0.00    -0.094 A 
ATOM      9  C9  DEN d   1      -3.184  -1.149   1.291  0.00  0.00    -0.072 A 
ENDROOT
TORSDOF 0
ENDMDL
