MODEL 1
REMARK minimizedAffinity 17.9567375
REMARK minimizedRMSD -1
REMARK  0 active torsions:
REMARK  status: ('A' for Active; 'I' for Inactive)
ROOT
ATOM      1  C1  DEN d   1      -3.911  -0.121   4.754  0.00  0.00     0.130 A 
ATOM      2  C2  DEN d   1      -3.545  -0.790   6.000  0.00  0.00    -0.031 A 
ATOM      3  C3  DEN d   1      -4.070  -2.169   5.949  0.00  0.00     0.027 A 
ATOM      4  C4  DEN d   1      -5.402  -3.330   4.070  0.00  0.00     0.027 A 
ATOM      5  C5  DEN d   1      -5.963  -3.162   2.823  0.00  0.00    -0.003 A 
ATOM      6  C6  DEN d   1      -5.909  -1.969   2.153  0.00  0.00     0.001 A 
ATOM      7  C7  DEN d   1      -5.241  -0.909   2.707  0.00  0.00     0.017 A 
ATOM      8  C8  DEN d   1      -4.680  -1.068   3.967  0.00  0.00    -0.094 A 
ATOM      9  C9  DEN d   1      -4.734  -2.286   4.623  0.00  0.00    -0.072 A 
ENDROOT
TORSDOF 0
ENDMDL
