MODEL 1
REMARK minimizedAffinity 13.6716537
REMARK minimizedRMSD -1
REMARK  0 active torsions:
REMARK  status: ('A' for Active; 'I' for Inactive)
ROOT
ATOM      1  C1  DEN d   1      -3.474  -1.818   0.839  0.00  0.00     0.130 A 
ATOM      2  C2  DEN d   1      -4.932  -1.753   0.812  0.00  0.00    -0.031 A 
ATOM      3  C3  DEN d   1      -5.336  -0.396   1.233  0.00  0.00     0.027 A 
ATOM      4  C4  DEN d   1      -3.852   1.600   1.916  0.00  0.00     0.027 A 
ATOM      5  C5  DEN d   1      -2.555   2.021   2.104  0.00  0.00    -0.003 A 
ATOM      6  C6  DEN d   1      -1.483   1.189   1.919  0.00  0.00     0.001 A 
ATOM      7  C7  DEN d   1      -1.687  -0.096   1.489  0.00  0.00     0.017 A 
ATOM      8  C8  DEN d   1      -2.993  -0.530   1.304  0.00  0.00    -0.094 A 
ATOM      9  C9  DEN d   1      -4.063   0.331   1.485  0.00  0.00    -0.072 A 
ENDROOT
TORSDOF 0
ENDMDL
