MODEL 1
REMARK minimizedAffinity 15.2493305
REMARK minimizedRMSD -1
REMARK  0 active torsions:
REMARK  status: ('A' for Active; 'I' for Inactive)
ROOT
ATOM      1  C1  DEN d   1      -2.375   0.019   1.106  0.00  0.00     0.130 A 
ATOM      2  C2  DEN d   1      -2.680   1.225   1.871  0.00  0.00    -0.031 A 
ATOM      3  C3  DEN d   1      -4.079   1.130   2.335  0.00  0.00     0.027 A 
ATOM      4  C4  DEN d   1      -5.791  -0.760   1.950  0.00  0.00     0.027 A 
ATOM      5  C5  DEN d   1      -5.997  -1.983   1.351  0.00  0.00    -0.003 A 
ATOM      6  C6  DEN d   1      -5.030  -2.604   0.606  0.00  0.00     0.001 A 
ATOM      7  C7  DEN d   1      -3.795  -2.024   0.479  0.00  0.00     0.017 A 
ATOM      8  C8  DEN d   1      -3.582  -0.787   1.073  0.00  0.00    -0.094 A 
ATOM      9  C9  DEN d   1      -4.569  -0.182   1.832  0.00  0.00    -0.072 A 
ENDROOT
TORSDOF 0
ENDMDL
