MODEL 1
REMARK minimizedAffinity 21.8770466
REMARK minimizedRMSD -1
REMARK  0 active torsions:
REMARK  status: ('A' for Active; 'I' for Inactive)
ROOT
ATOM      1  C1  DEN d   1      -4.569  -0.530   2.255  0.00  0.00     0.130 A 
ATOM      2  C2  DEN d   1      -3.635   0.589   2.342  0.00  0.00    -0.031 A 
ATOM      3  C3  DEN d   1      -3.001   0.552   3.675  0.00  0.00     0.027 A 
ATOM      4  C4  DEN d   1      -3.369  -1.123   5.601  0.00  0.00     0.027 A 
ATOM      5  C5  DEN d   1      -4.072  -2.238   6.000  0.00  0.00    -0.003 A 
ATOM      6  C6  DEN d   1      -5.007  -2.837   5.198  0.00  0.00     0.001 A 
ATOM      7  C7  DEN d   1      -5.232  -2.350   3.938  0.00  0.00     0.017 A 
ATOM      8  C8  DEN d   1      -4.532  -1.222   3.531  0.00  0.00    -0.094 A 
ATOM      9  C9  DEN d   1      -3.582  -0.638   4.352  0.00  0.00    -0.072 A 
ENDROOT
TORSDOF 0
ENDMDL
