MODEL 1
REMARK minimizedAffinity -4.54377174
REMARK minimizedRMSD -1
REMARK  0 active torsions:
REMARK  status: ('A' for Active; 'I' for Inactive)
ROOT
ATOM      1  C   UNL d   1      -0.483   0.908   3.373  0.00  0.00     0.023 A 
ATOM      2  C1  UNL d   1      -1.512   0.766   2.442  0.00  0.00     0.003 A 
ATOM      3  C2  UNL d   1      -1.231   0.305   1.154  0.00  0.00     0.048 A 
ATOM      4  C3  UNL d   1       0.080  -0.014   0.805  0.00  0.00     0.023 A 
ATOM      5  C4  UNL d   1       1.113   0.125   1.734  0.00  0.00     0.048 A 
ATOM      6  C5  UNL d   1       0.827   0.587   3.020  0.00  0.00     0.003 A 
ATOM      7  I   UNL d   1       0.501  -0.701  -1.111  0.00  0.00    -0.146 I 
ENDROOT
TORSDOF 0
ENDMDL
