MODEL 1
REMARK minimizedAffinity -3.94188976
REMARK minimizedRMSD -1
REMARK  0 active torsions:
REMARK  status: ('A' for Active; 'I' for Inactive)
ROOT
ATOM      1  C   UNL d   1      -0.501  -0.102   3.145  0.00  0.00     0.023 A 
ATOM      2  C1  UNL d   1       0.793  -0.349   2.685  0.00  0.00     0.003 A 
ATOM      3  C2  UNL d   1       1.059  -0.355   1.314  0.00  0.00     0.048 A 
ATOM      4  C3  UNL d   1       0.027  -0.112   0.408  0.00  0.00     0.023 A 
ATOM      5  C4  UNL d   1      -1.269   0.135   0.864  0.00  0.00     0.048 A 
ATOM      6  C5  UNL d   1      -1.531   0.139   2.235  0.00  0.00     0.003 A 
ATOM      7  I   UNL d   1       0.420  -0.121  -1.632  0.00  0.00    -0.146 I 
ENDROOT
TORSDOF 0
ENDMDL
