MODEL 1
REMARK minimizedAffinity -2.65149283
REMARK minimizedRMSD -1
REMARK  0 active torsions:
REMARK  status: ('A' for Active; 'I' for Inactive)
ROOT
ATOM      1  C   UNL d   1       2.274  -0.659   2.226  0.00  0.00     0.023 A 
ATOM      2  C1  UNL d   1       1.807  -0.339   0.951  0.00  0.00     0.003 A 
ATOM      3  C2  UNL d   1       0.468   0.011   0.764  0.00  0.00     0.048 A 
ATOM      4  C3  UNL d   1      -0.398   0.040   1.857  0.00  0.00     0.023 A 
ATOM      5  C4  UNL d   1       0.066  -0.279   3.135  0.00  0.00     0.048 A 
ATOM      6  C5  UNL d   1       1.405  -0.629   3.316  0.00  0.00     0.003 A 
ATOM      7  I   UNL d   1      -2.391   0.561   1.582  0.00  0.00    -0.146 I 
ENDROOT
TORSDOF 0
ENDMDL
