MODEL 1
REMARK minimizedAffinity -3.36814523
REMARK minimizedRMSD -1
REMARK  0 active torsions:
REMARK  status: ('A' for Active; 'I' for Inactive)
ROOT
ATOM      1  C   UNL d   1       0.903   0.453   3.241  0.00  0.00     0.023 A 
ATOM      2  C1  UNL d   1      -0.109   1.211   2.652  0.00  0.00     0.003 A 
ATOM      3  C2  UNL d   1      -0.381   1.076   1.289  0.00  0.00     0.048 A 
ATOM      4  C3  UNL d   1       0.362   0.180   0.521  0.00  0.00     0.023 A 
ATOM      5  C4  UNL d   1       1.375  -0.581   1.107  0.00  0.00     0.048 A 
ATOM      6  C5  UNL d   1       1.645  -0.441   2.469  0.00  0.00     0.003 A 
ATOM      7  I   UNL d   1      -0.041  -0.024  -1.507  0.00  0.00    -0.146 I 
ENDROOT
TORSDOF 0
ENDMDL
