MODEL 1
REMARK minimizedAffinity -3.2872858
REMARK minimizedRMSD -1
REMARK  0 active torsions:
REMARK  status: ('A' for Active; 'I' for Inactive)
ROOT
ATOM      1  C   UNL d   1       0.631  -0.388   3.756  0.00  0.00     0.023 A 
ATOM      2  C1  UNL d   1       1.706  -0.770   2.955  0.00  0.00     0.003 A 
ATOM      3  C2  UNL d   1       1.572  -0.788   1.565  0.00  0.00     0.048 A 
ATOM      4  C3  UNL d   1       0.358  -0.422   0.983  0.00  0.00     0.023 A 
ATOM      5  C4  UNL d   1      -0.721  -0.038   1.781  0.00  0.00     0.048 A 
ATOM      6  C5  UNL d   1      -0.581  -0.023   3.170  0.00  0.00     0.003 A 
ATOM      7  I   UNL d   1       0.155  -0.448  -1.085  0.00  0.00    -0.146 I 
ENDROOT
TORSDOF 0
ENDMDL
