MODEL 1
REMARK minimizedAffinity -1.47874689
REMARK minimizedRMSD -1
REMARK  0 active torsions:
REMARK  status: ('A' for Active; 'I' for Inactive)
ROOT
ATOM      1  C   UNL d   1      -0.632   0.191   2.661  0.00  0.00     0.023 A 
ATOM      2  C1  UNL d   1       0.617  -0.291   2.269  0.00  0.00     0.003 A 
ATOM      3  C2  UNL d   1       0.916  -0.435   0.913  0.00  0.00     0.048 A 
ATOM      4  C3  UNL d   1      -0.037  -0.093  -0.046  0.00  0.00     0.023 A 
ATOM      5  C4  UNL d   1      -1.287   0.391   0.342  0.00  0.00     0.048 A 
ATOM      6  C5  UNL d   1      -1.583   0.532   1.699  0.00  0.00     0.003 A 
ATOM      7  I   UNL d   1       0.407  -0.306  -2.065  0.00  0.00    -0.146 I 
ENDROOT
TORSDOF 0
ENDMDL
