MODEL 1
REMARK minimizedAffinity -3.28809643
REMARK minimizedRMSD -1
REMARK  0 active torsions:
REMARK  status: ('A' for Active; 'I' for Inactive)
ROOT
ATOM      1  C   UNL d   1      -1.633   0.259   0.485  0.00  0.00     0.023 A 
ATOM      2  C1  UNL d   1      -1.657   0.610   1.835  0.00  0.00     0.003 A 
ATOM      3  C2  UNL d   1      -0.560   0.326   2.651  0.00  0.00     0.048 A 
ATOM      4  C3  UNL d   1       0.558  -0.309   2.111  0.00  0.00     0.023 A 
ATOM      5  C4  UNL d   1       0.586  -0.662   0.761  0.00  0.00     0.048 A 
ATOM      6  C5  UNL d   1      -0.513  -0.377  -0.051  0.00  0.00     0.003 A 
ATOM      7  I   UNL d   1       2.191  -0.733   3.324  0.00  0.00    -0.146 I 
ENDROOT
TORSDOF 0
ENDMDL
