MODEL 1
REMARK minimizedAffinity -2.05266023
REMARK minimizedRMSD -1
REMARK  0 active torsions:
REMARK  status: ('A' for Active; 'I' for Inactive)
ROOT
ATOM      1  C   UNL d   1      -1.412   0.967   2.640  0.00  0.00     0.023 A 
ATOM      2  C1  UNL d   1      -2.072   0.140   1.730  0.00  0.00     0.003 A 
ATOM      3  C2  UNL d   1      -1.419  -0.288   0.573  0.00  0.00     0.048 A 
ATOM      4  C3  UNL d   1      -0.105   0.112   0.332  0.00  0.00     0.023 A 
ATOM      5  C4  UNL d   1       0.560   0.938   1.240  0.00  0.00     0.048 A 
ATOM      6  C5  UNL d   1      -0.098   1.365   2.396  0.00  0.00     0.003 A 
ATOM      7  I   UNL d   1       0.870  -0.524  -1.389  0.00  0.00    -0.146 I 
ENDROOT
TORSDOF 0
ENDMDL
