MODEL 1
REMARK minimizedAffinity -2.71581101
REMARK minimizedRMSD -1
REMARK  0 active torsions:
REMARK  status: ('A' for Active; 'I' for Inactive)
ROOT
ATOM      1  C   UNL d   1      -0.137   0.270   3.274  0.00  0.00     0.023 A 
ATOM      2  C1  UNL d   1       1.181   0.541   2.905  0.00  0.00     0.003 A 
ATOM      3  C2  UNL d   1       1.521   0.653   1.556  0.00  0.00     0.048 A 
ATOM      4  C3  UNL d   1       0.539   0.493   0.579  0.00  0.00     0.023 A 
ATOM      5  C4  UNL d   1      -0.781   0.222   0.943  0.00  0.00     0.048 A 
ATOM      6  C5  UNL d   1      -1.117   0.111   2.294  0.00  0.00     0.003 A 
ATOM      7  I   UNL d   1       1.043   0.659  -1.430  0.00  0.00    -0.146 I 
ENDROOT
TORSDOF 0
ENDMDL
