MODEL 1
REMARK minimizedAffinity -0.476783842
REMARK minimizedRMSD -1
REMARK  0 active torsions:
REMARK  status: ('A' for Active; 'I' for Inactive)
ROOT
ATOM      1  C   UNL d   1      -1.736   2.639   2.167  0.00  0.00     0.023 A 
ATOM      2  C1  UNL d   1      -0.798   1.794   1.573  0.00  0.00     0.003 A 
ATOM      3  C2  UNL d   1      -0.439   1.977   0.236  0.00  0.00     0.048 A 
ATOM      4  C3  UNL d   1      -1.020   3.009  -0.501  0.00  0.00     0.023 A 
ATOM      5  C4  UNL d   1      -1.958   3.857   0.089  0.00  0.00     0.048 A 
ATOM      6  C5  UNL d   1      -2.315   3.670   1.425  0.00  0.00     0.003 A 
ATOM      7  I   UNL d   1      -0.485   3.283  -2.490  0.00  0.00    -0.146 I 
ENDROOT
TORSDOF 0
ENDMDL
