MODEL 1
REMARK minimizedAffinity 8.01733875
REMARK minimizedRMSD -1
REMARK  0 active torsions:
REMARK  status: ('A' for Active; 'I' for Inactive)
ROOT
ATOM      1  C   UNL d   1      -1.488  -0.721  -2.807  0.00  0.00     0.023 A 
ATOM      2  C1  UNL d   1      -0.292  -0.003  -2.793  0.00  0.00     0.003 A 
ATOM      3  C2  UNL d   1      -0.080   0.985  -1.830  0.00  0.00     0.048 A 
ATOM      4  C3  UNL d   1      -1.068   1.250  -0.883  0.00  0.00     0.023 A 
ATOM      5  C4  UNL d   1      -2.266   0.534  -0.892  0.00  0.00     0.048 A 
ATOM      6  C5  UNL d   1      -2.474  -0.453  -1.857  0.00  0.00     0.003 A 
ATOM      7  I   UNL d   1      -0.755   2.721   0.552  0.00  0.00    -0.146 I 
ENDROOT
TORSDOF 0
ENDMDL
