MODEL 1
REMARK minimizedAffinity 12.3679619
REMARK minimizedRMSD -1
REMARK  0 active torsions:
REMARK  status: ('A' for Active; 'I' for Inactive)
ROOT
ATOM      1  C   UNL d   1       1.181   3.305   0.838  0.00  0.00     0.023 A 
ATOM      2  C1  UNL d   1       0.048   2.500   0.959  0.00  0.00     0.003 A 
ATOM      3  C2  UNL d   1      -0.931   2.518  -0.036  0.00  0.00     0.048 A 
ATOM      4  C3  UNL d   1      -0.771   3.341  -1.150  0.00  0.00     0.023 A 
ATOM      5  C4  UNL d   1       0.361   4.148  -1.275  0.00  0.00     0.048 A 
ATOM      6  C5  UNL d   1       1.337   4.128  -0.277  0.00  0.00     0.003 A 
ATOM      7  I   UNL d   1      -2.228   3.369  -2.633  0.00  0.00    -0.146 I 
ENDROOT
TORSDOF 0
ENDMDL
