MODEL 1
REMARK minimizedAffinity 9.08792591
REMARK minimizedRMSD -1
REMARK  0 active torsions:
REMARK  status: ('A' for Active; 'I' for Inactive)
ROOT
ATOM      1  C   UNL d   1      -4.925  -4.839  -6.000  0.00  0.00     0.023 A 
ATOM      2  C1  UNL d   1      -4.114  -3.704  -5.980  0.00  0.00     0.003 A 
ATOM      3  C2  UNL d   1      -2.917  -3.713  -5.261  0.00  0.00     0.048 A 
ATOM      4  C3  UNL d   1      -2.537  -4.860  -4.565  0.00  0.00     0.023 A 
ATOM      5  C4  UNL d   1      -3.345  -5.998  -4.582  0.00  0.00     0.048 A 
ATOM      6  C5  UNL d   1      -4.541  -5.984  -5.302  0.00  0.00     0.003 A 
ATOM      7  I   UNL d   1      -0.756  -4.874  -3.494  0.00  0.00    -0.146 I 
ENDROOT
TORSDOF 0
ENDMDL
