MODEL 1
REMARK minimizedAffinity 7.07212543
REMARK minimizedRMSD -1
REMARK  0 active torsions:
REMARK  status: ('A' for Active; 'I' for Inactive)
ROOT
ATOM      1  C   UNL d   1      -0.943   1.093  -3.089  0.00  0.00     0.023 A 
ATOM      2  C1  UNL d   1      -0.332   0.470  -2.001  0.00  0.00     0.003 A 
ATOM      3  C2  UNL d   1      -0.560   0.941  -0.707  0.00  0.00     0.048 A 
ATOM      4  C3  UNL d   1      -1.400   2.035  -0.507  0.00  0.00     0.023 A 
ATOM      5  C4  UNL d   1      -2.014   2.662  -1.593  0.00  0.00     0.048 A 
ATOM      6  C5  UNL d   1      -1.782   2.188  -2.885  0.00  0.00     0.003 A 
ATOM      7  I   UNL d   1      -1.741   2.738   1.419  0.00  0.00    -0.146 I 
ENDROOT
TORSDOF 0
ENDMDL
