MODEL 1
REMARK minimizedAffinity 4.52593422
REMARK minimizedRMSD -1
REMARK  0 active torsions:
REMARK  status: ('A' for Active; 'I' for Inactive)
ROOT
ATOM      1  C   UNL d   1      -0.747   4.234   0.406  0.00  0.00     0.023 A 
ATOM      2  C1  UNL d   1      -0.531   2.988   0.996  0.00  0.00     0.003 A 
ATOM      3  C2  UNL d   1      -0.384   1.852   0.197  0.00  0.00     0.048 A 
ATOM      4  C3  UNL d   1      -0.453   1.970  -1.191  0.00  0.00     0.023 A 
ATOM      5  C4  UNL d   1      -0.668   3.214  -1.785  0.00  0.00     0.048 A 
ATOM      6  C5  UNL d   1      -0.816   4.347  -0.982  0.00  0.00     0.003 A 
ATOM      7  I   UNL d   1      -0.234   0.281  -2.383  0.00  0.00    -0.146 I 
ENDROOT
TORSDOF 0
ENDMDL
