MODEL 1
REMARK minimizedAffinity 12.0963678
REMARK minimizedRMSD -1
REMARK  0 active torsions:
REMARK  status: ('A' for Active; 'I' for Inactive)
ROOT
ATOM      1  C   UNL d   1      -0.160   1.852  -2.743  0.00  0.00     0.023 A 
ATOM      2  C1  UNL d   1      -1.486   2.284  -2.767  0.00  0.00     0.003 A 
ATOM      3  C2  UNL d   1      -2.477   1.537  -2.127  0.00  0.00     0.048 A 
ATOM      4  C3  UNL d   1      -2.134   0.359  -1.464  0.00  0.00     0.023 A 
ATOM      5  C4  UNL d   1      -0.808  -0.077  -1.436  0.00  0.00     0.048 A 
ATOM      6  C5  UNL d   1       0.179   0.673  -2.078  0.00  0.00     0.003 A 
ATOM      7  I   UNL d   1      -3.607  -0.755  -0.510  0.00  0.00    -0.146 I 
ENDROOT
TORSDOF 0
ENDMDL
