MODEL 1
REMARK minimizedAffinity 8.68076611
REMARK minimizedRMSD -1
REMARK  0 active torsions:
REMARK  status: ('A' for Active; 'I' for Inactive)
ROOT
ATOM      1  C   UNL d   1      -1.567   0.092  -3.442  0.00  0.00     0.023 A 
ATOM      2  C1  UNL d   1      -0.663   1.138  -3.626  0.00  0.00     0.003 A 
ATOM      3  C2  UNL d   1      -0.120   1.796  -2.520  0.00  0.00     0.048 A 
ATOM      4  C3  UNL d   1      -0.485   1.402  -1.233  0.00  0.00     0.023 A 
ATOM      5  C4  UNL d   1      -1.389   0.355  -1.044  0.00  0.00     0.048 A 
ATOM      6  C5  UNL d   1      -1.930  -0.299  -2.153  0.00  0.00     0.003 A 
ATOM      7  I   UNL d   1       0.322   2.379   0.414  0.00  0.00    -0.146 I 
ENDROOT
TORSDOF 0
ENDMDL
