MODEL 1
REMARK minimizedAffinity 2.24388409
REMARK minimizedRMSD -1
REMARK  0 active torsions:
REMARK  status: ('A' for Active; 'I' for Inactive)
ROOT
ATOM      1  C   UNL d   1       0.134   2.070   1.925  0.00  0.00     0.023 A 
ATOM      2  C1  UNL d   1       0.085   1.008   1.023  0.00  0.00     0.003 A 
ATOM      3  C2  UNL d   1      -0.238   1.241  -0.316  0.00  0.00     0.048 A 
ATOM      4  C3  UNL d   1      -0.508   2.540  -0.745  0.00  0.00     0.023 A 
ATOM      5  C4  UNL d   1      -0.459   3.606   0.154  0.00  0.00     0.048 A 
ATOM      6  C5  UNL d   1      -0.137   3.368   1.491  0.00  0.00     0.003 A 
ATOM      7  I   UNL d   1      -0.988   2.890  -2.737  0.00  0.00    -0.146 I 
ENDROOT
TORSDOF 0
ENDMDL
