MODEL 1
REMARK minimizedAffinity 4.2344141
REMARK minimizedRMSD -1
REMARK  0 active torsions:
REMARK  status: ('A' for Active; 'I' for Inactive)
ROOT
ATOM      1  C   UNL d   1      -0.831   2.987  -1.339  0.00  0.00     0.023 A 
ATOM      2  C1  UNL d   1      -0.631   1.607  -1.304  0.00  0.00     0.003 A 
ATOM      3  C2  UNL d   1      -0.472   0.954  -0.080  0.00  0.00     0.048 A 
ATOM      4  C3  UNL d   1      -0.514   1.687   1.105  0.00  0.00     0.023 A 
ATOM      5  C4  UNL d   1      -0.714   3.068   1.075  0.00  0.00     0.048 A 
ATOM      6  C5  UNL d   1      -0.872   3.717  -0.151  0.00  0.00     0.003 A 
ATOM      7  I   UNL d   1      -0.277   0.717   2.928  0.00  0.00    -0.146 I 
ENDROOT
TORSDOF 0
ENDMDL
