MODEL 1
REMARK minimizedAffinity 6.66555357
REMARK minimizedRMSD -1
REMARK  0 active torsions:
REMARK  status: ('A' for Active; 'I' for Inactive)
ROOT
ATOM      1  C   UNL d   1      -1.060   1.374  -0.003  0.00  0.00     0.023 A 
ATOM      2  C1  UNL d   1      -2.053   0.460  -0.356  0.00  0.00     0.003 A 
ATOM      3  C2  UNL d   1      -2.057  -0.111  -1.630  0.00  0.00     0.048 A 
ATOM      4  C3  UNL d   1      -1.065   0.236  -2.546  0.00  0.00     0.023 A 
ATOM      5  C4  UNL d   1      -0.069   1.149  -2.198  0.00  0.00     0.048 A 
ATOM      6  C5  UNL d   1      -0.070   1.719  -0.923  0.00  0.00     0.003 A 
ATOM      7  I   UNL d   1      -1.069  -0.613  -4.443  0.00  0.00    -0.146 I 
ENDROOT
TORSDOF 0
ENDMDL
