MODEL 1
REMARK minimizedAffinity 5.14523935
REMARK minimizedRMSD -1
REMARK  0 active torsions:
REMARK  status: ('A' for Active; 'I' for Inactive)
ROOT
ATOM      1  C   UNL d   1       4.549  -3.054  -1.813  0.00  0.00     0.023 A 
ATOM      2  C1  UNL d   1       3.352  -3.479  -1.236  0.00  0.00     0.003 A 
ATOM      3  C2  UNL d   1       2.471  -2.547  -0.683  0.00  0.00     0.048 A 
ATOM      4  C3  UNL d   1       2.793  -1.190  -0.712  0.00  0.00     0.023 A 
ATOM      5  C4  UNL d   1       3.989  -0.760  -1.289  0.00  0.00     0.048 A 
ATOM      6  C5  UNL d   1       4.867  -1.696  -1.839  0.00  0.00     0.003 A 
ATOM      7  I   UNL d   1       1.484   0.199   0.109  0.00  0.00    -0.146 I 
ENDROOT
TORSDOF 0
ENDMDL
