MODEL 1
REMARK minimizedAffinity 1.71716797
REMARK minimizedRMSD -1
REMARK  0 active torsions:
REMARK  status: ('A' for Active; 'I' for Inactive)
ROOT
ATOM      1  C   UNL d   1      -0.624   0.568   1.772  0.00  0.00     0.124 A 
ATOM      2  C1  UNL d   1      -1.802   0.376   1.064  0.00  0.00     0.062 A 
ATOM      3  C2  UNL d   1      -1.761  -0.053  -0.260  0.00  0.00     0.162 A 
ATOM      4  C3  UNL d   1      -0.538  -0.294  -0.884  0.00  0.00    -0.034 A 
ATOM      5  C4  UNL d   1       0.643  -0.098  -0.166  0.00  0.00     0.162 A 
ATOM      6  C5  UNL d   1       0.597   0.331   1.157  0.00  0.00     0.062 A 
ATOM      7  F   UNL d   1       1.737   0.516   1.839  0.00  0.00    -0.097 F 
ATOM      8  F1  UNL d   1       1.837  -0.320  -0.735  0.00  0.00    -0.096 F 
ATOM      9  I   UNL d   1      -0.472  -0.935  -2.863  0.00  0.00    -0.060 I 
ATOM     10  F2  UNL d   1      -2.916  -0.230  -0.920  0.00  0.00    -0.096 F 
ATOM     11  F3  UNL d   1      -2.983   0.605   1.655  0.00  0.00    -0.097 F 
ATOM     12  F4  UNL d   1      -0.666   0.981   3.045  0.00  0.00    -0.092 F 
ENDROOT
TORSDOF 0
ENDMDL
