MODEL 1
REMARK minimizedAffinity -4.71070766
REMARK minimizedRMSD -1
REMARK  0 active torsions:
REMARK  status: ('A' for Active; 'I' for Inactive)
ROOT
ATOM      1  C   UNL d   1      -0.141  -0.646  -0.438  0.00  0.00     0.124 A 
ATOM      2  C1  UNL d   1       1.051  -0.468   0.251  0.00  0.00     0.062 A 
ATOM      3  C2  UNL d   1       1.055   0.163   1.492  0.00  0.00     0.162 A 
ATOM      4  C3  UNL d   1      -0.138   0.619   2.053  0.00  0.00    -0.034 A 
ATOM      5  C4  UNL d   1      -1.333   0.437   1.354  0.00  0.00     0.162 A 
ATOM      6  C5  UNL d   1      -1.331  -0.194   0.114  0.00  0.00     0.062 A 
ATOM      7  F   UNL d   1      -2.484  -0.365  -0.550  0.00  0.00    -0.097 F 
ATOM      8  F1  UNL d   1      -2.497   0.863   1.864  0.00  0.00    -0.096 F 
ATOM      9  I   UNL d   1      -0.137   1.562   3.908  0.00  0.00    -0.060 I 
ATOM     10  F2  UNL d   1       2.221   0.321   2.135  0.00  0.00    -0.096 F 
ATOM     11  F3  UNL d   1       2.202  -0.903  -0.281  0.00  0.00    -0.097 F 
ATOM     12  F4  UNL d   1      -0.142  -1.252  -1.633  0.00  0.00    -0.092 F 
ENDROOT
TORSDOF 0
ENDMDL
