MODEL 1
REMARK minimizedAffinity 1.5768348
REMARK minimizedRMSD -1
REMARK  0 active torsions:
REMARK  status: ('A' for Active; 'I' for Inactive)
ROOT
ATOM      1  C   UNL d   1       0.042  -0.917  -0.708  0.00  0.00     0.124 A 
ATOM      2  C1  UNL d   1      -1.207  -0.601  -0.192  0.00  0.00     0.062 A 
ATOM      3  C2  UNL d   1      -1.314   0.105   1.002  0.00  0.00     0.162 A 
ATOM      4  C3  UNL d   1      -0.167   0.503   1.689  0.00  0.00    -0.034 A 
ATOM      5  C4  UNL d   1       1.086   0.181   1.165  0.00  0.00     0.162 A 
ATOM      6  C5  UNL d   1       1.188  -0.526  -0.029  0.00  0.00     0.062 A 
ATOM      7  F   UNL d   1       2.396  -0.830  -0.525  0.00  0.00    -0.097 F 
ATOM      8  F1  UNL d   1       2.210   0.547   1.800  0.00  0.00    -0.096 F 
ATOM      9  I   UNL d   1      -0.322   1.560   3.475  0.00  0.00    -0.060 I 
ATOM     10  F2  UNL d   1      -2.534   0.397   1.477  0.00  0.00    -0.096 F 
ATOM     11  F3  UNL d   1      -2.315  -0.979  -0.846  0.00  0.00    -0.097 F 
ATOM     12  F4  UNL d   1       0.142  -1.598  -1.857  0.00  0.00    -0.092 F 
ENDROOT
TORSDOF 0
ENDMDL
