MODEL 1
REMARK minimizedAffinity 10.8429356
REMARK minimizedRMSD -1
REMARK  0 active torsions:
REMARK  status: ('A' for Active; 'I' for Inactive)
ROOT
ATOM      1  C   UNL d   1      -0.896   0.043   2.429  0.00  0.00     0.124 A 
ATOM      2  C1  UNL d   1       0.321  -0.238   1.824  0.00  0.00     0.062 A 
ATOM      3  C2  UNL d   1       0.416  -0.297   0.437  0.00  0.00     0.162 A 
ATOM      4  C3  UNL d   1      -0.710  -0.075  -0.356  0.00  0.00    -0.034 A 
ATOM      5  C4  UNL d   1      -1.931   0.206   0.260  0.00  0.00     0.162 A 
ATOM      6  C5  UNL d   1      -2.020   0.264   1.647  0.00  0.00     0.062 A 
ATOM      7  F   UNL d   1      -3.197   0.535   2.230  0.00  0.00    -0.097 F 
ATOM      8  F1  UNL d   1      -3.033   0.424  -0.472  0.00  0.00    -0.096 F 
ATOM      9  I   UNL d   1      -0.572  -0.163  -2.430  0.00  0.00    -0.060 I 
ATOM     10  F2  UNL d   1       1.605  -0.570  -0.121  0.00  0.00    -0.096 F 
ATOM     11  F3  UNL d   1       1.409  -0.453   2.578  0.00  0.00    -0.097 F 
ATOM     12  F4  UNL d   1      -0.984   0.099   3.765  0.00  0.00    -0.092 F 
ENDROOT
TORSDOF 0
ENDMDL
