MODEL 1
REMARK minimizedAffinity -3.2353344
REMARK minimizedRMSD -1
REMARK  0 active torsions:
REMARK  status: ('A' for Active; 'I' for Inactive)
ROOT
ATOM      1  C   UNL d   1      -0.096  -0.281  -4.085  0.00  0.00     0.124 A 
ATOM      2  C1  UNL d   1      -0.497  -1.313  -3.248  0.00  0.00     0.062 A 
ATOM      3  C2  UNL d   1      -0.207  -1.264  -1.887  0.00  0.00     0.162 A 
ATOM      4  C3  UNL d   1       0.488  -0.178  -1.355  0.00  0.00    -0.034 A 
ATOM      5  C4  UNL d   1       0.888   0.856  -2.203  0.00  0.00     0.162 A 
ATOM      6  C5  UNL d   1       0.596   0.802  -3.562  0.00  0.00     0.062 A 
ATOM      7  F   UNL d   1       0.984   1.800  -4.369  0.00  0.00    -0.097 F 
ATOM      8  F1  UNL d   1       1.558   1.915  -1.724  0.00  0.00    -0.096 F 
ATOM      9  I   UNL d   1       0.924  -0.100   0.679  0.00  0.00    -0.060 I 
ATOM     10  F2  UNL d   1      -0.606  -2.275  -1.102  0.00  0.00    -0.096 F 
ATOM     11  F3  UNL d   1      -1.165  -2.362  -3.750  0.00  0.00    -0.097 F 
ATOM     12  F4  UNL d   1      -0.376  -0.332  -5.393  0.00  0.00    -0.092 F 
ENDROOT
TORSDOF 0
ENDMDL
