MODEL 1
REMARK minimizedAffinity 13.1712742
REMARK minimizedRMSD -1
REMARK  0 active torsions:
REMARK  status: ('A' for Active; 'I' for Inactive)
ROOT
ATOM      1  C   UNL d   1       2.002   0.456  -3.437  0.00  0.00     0.124 A 
ATOM      2  C1  UNL d   1       3.227   0.879  -2.939  0.00  0.00     0.062 A 
ATOM      3  C2  UNL d   1       4.369   0.112  -3.146  0.00  0.00     0.162 A 
ATOM      4  C3  UNL d   1       4.294  -1.086  -3.857  0.00  0.00    -0.034 A 
ATOM      5  C4  UNL d   1       3.058  -1.506  -4.354  0.00  0.00     0.162 A 
ATOM      6  C5  UNL d   1       1.919  -0.736  -4.144  0.00  0.00     0.062 A 
ATOM      7  F   UNL d   1       0.737  -1.146  -4.626  0.00  0.00    -0.097 F 
ATOM      8  F1  UNL d   1       2.950  -2.652  -5.041  0.00  0.00    -0.096 F 
ATOM      9  I   UNL d   1       6.000  -2.236  -4.169  0.00  0.00    -0.060 I 
ATOM     10  F2  UNL d   1       5.539   0.545  -2.653  0.00  0.00    -0.096 F 
ATOM     11  F3  UNL d   1       3.309   2.029  -2.255  0.00  0.00    -0.097 F 
ATOM     12  F4  UNL d   1       0.904   1.195  -3.235  0.00  0.00    -0.092 F 
ENDROOT
TORSDOF 0
ENDMDL
