MODEL 1
REMARK minimizedAffinity -0.108497366
REMARK minimizedRMSD -1
REMARK  0 active torsions:
REMARK  status: ('A' for Active; 'I' for Inactive)
ROOT
ATOM      1  C1  BNZ d   1      -4.111   1.121   2.980  0.00  0.00     0.000 A 
ATOM      2  C2  BNZ d   1      -4.252   1.692   1.743  0.00  0.00     0.000 A 
ATOM      3  C3  BNZ d   1      -3.364   2.631   1.300  0.00  0.00     0.000 A 
ATOM      4  C4  BNZ d   1      -2.361   3.029   2.109  0.00  0.00     0.000 A 
ATOM      5  C5  BNZ d   1      -2.210   2.470   3.362  0.00  0.00     0.000 A 
ATOM      6  C6  BNZ d   1      -3.083   1.496   3.790  0.00  0.00     0.000 A 
ENDROOT
TORSDOF 0
ENDMDL
