MODEL 1
REMARK minimizedAffinity 2.91278434
REMARK minimizedRMSD -1
REMARK  0 active torsions:
REMARK  status: ('A' for Active; 'I' for Inactive)
ROOT
ATOM      1  C1  BNZ d   1       1.638   1.804   0.158  0.00  0.00     0.000 A 
ATOM      2  C2  BNZ d   1       1.304   2.208  -1.107  0.00  0.00     0.000 A 
ATOM      3  C3  BNZ d   1       0.813   1.316  -2.020  0.00  0.00     0.000 A 
ATOM      4  C4  BNZ d   1       0.695   0.016  -1.679  0.00  0.00     0.000 A 
ATOM      5  C5  BNZ d   1       1.037  -0.408  -0.411  0.00  0.00     0.000 A 
ATOM      6  C6  BNZ d   1       1.494   0.499   0.517  0.00  0.00     0.000 A 
ENDROOT
TORSDOF 0
ENDMDL
