MODEL 1
REMARK minimizedAffinity 0.121481247
REMARK minimizedRMSD -1
REMARK  0 active torsions:
REMARK  status: ('A' for Active; 'I' for Inactive)
ROOT
ATOM      1  C1  BNZ d   1       1.740   1.642  -1.445  0.00  0.00     0.000 A 
ATOM      2  C2  BNZ d   1       1.599   1.445  -0.097  0.00  0.00     0.000 A 
ATOM      3  C3  BNZ d   1       0.976   0.328   0.386  0.00  0.00     0.000 A 
ATOM      4  C4  BNZ d   1       0.460  -0.569  -0.479  0.00  0.00     0.000 A 
ATOM      5  C5  BNZ d   1       0.586  -0.380  -1.841  0.00  0.00     0.000 A 
ATOM      6  C6  BNZ d   1       1.248   0.726  -2.322  0.00  0.00     0.000 A 
ENDROOT
TORSDOF 0
ENDMDL
