MODEL 1
REMARK minimizedAffinity 2.32688594
REMARK minimizedRMSD -1
REMARK  0 active torsions:
REMARK  status: ('A' for Active; 'I' for Inactive)
ROOT
ATOM      1  C1  BNZ d   1       0.247  -0.190  -1.836  0.00  0.00     0.000 A 
ATOM      2  C2  BNZ d   1       0.412  -0.548  -0.525  0.00  0.00     0.000 A 
ATOM      3  C3  BNZ d   1       1.157   0.222   0.323  0.00  0.00     0.000 A 
ATOM      4  C4  BNZ d   1       1.769   1.327  -0.150  0.00  0.00     0.000 A 
ATOM      5  C5  BNZ d   1       1.620   1.697  -1.472  0.00  0.00     0.000 A 
ATOM      6  C6  BNZ d   1       0.838   0.940  -2.313  0.00  0.00     0.000 A 
ENDROOT
TORSDOF 0
ENDMDL
