MODEL 1
REMARK minimizedAffinity -1.3154161
REMARK minimizedRMSD -1
REMARK  0 active torsions:
REMARK  status: ('A' for Active; 'I' for Inactive)
ROOT
ATOM      1  C1  BNZ d   1       0.832  -0.064  -1.265  0.00  0.00     0.000 A 
ATOM      2  C2  BNZ d   1       0.603   0.139   0.070  0.00  0.00     0.000 A 
ATOM      3  C3  BNZ d   1       1.020   1.287   0.685  0.00  0.00     0.000 A 
ATOM      4  C4  BNZ d   1       1.700   2.210  -0.025  0.00  0.00     0.000 A 
ATOM      5  C5  BNZ d   1       1.947   2.016  -1.369  0.00  0.00     0.000 A 
ATOM      6  C6  BNZ d   1       1.491   0.878  -1.994  0.00  0.00     0.000 A 
ENDROOT
TORSDOF 0
ENDMDL
