MODEL 1
REMARK minimizedAffinity -2.49369001
REMARK minimizedRMSD -1
REMARK  0 active torsions:
REMARK  status: ('A' for Active; 'I' for Inactive)
ROOT
ATOM      1  C1  BNZ d   1       1.020   1.602  -0.973  0.00  0.00     0.000 A 
ATOM      2  C2  BNZ d   1       0.890   0.673  -1.972  0.00  0.00     0.000 A 
ATOM      3  C3  BNZ d   1       0.893  -0.664  -1.688  0.00  0.00     0.000 A 
ATOM      4  C4  BNZ d   1       1.067  -1.071  -0.415  0.00  0.00     0.000 A 
ATOM      5  C5  BNZ d   1       1.209  -0.148   0.602  0.00  0.00     0.000 A 
ATOM      6  C6  BNZ d   1       1.166   1.198   0.318  0.00  0.00     0.000 A 
ENDROOT
TORSDOF 0
ENDMDL
