MODEL 1
REMARK minimizedAffinity 0.79306823
REMARK minimizedRMSD -1
REMARK  0 active torsions:
REMARK  status: ('A' for Active; 'I' for Inactive)
ROOT
ATOM      1  C1  BNZ d   1       1.115  -0.443  -0.648  0.00  0.00     0.000 A 
ATOM      2  C2  BNZ d   1       1.027  -0.086  -1.967  0.00  0.00     0.000 A 
ATOM      3  C3  BNZ d   1       1.131   1.224  -2.345  0.00  0.00     0.000 A 
ATOM      4  C4  BNZ d   1       1.282   2.176  -1.403  0.00  0.00     0.000 A 
ATOM      5  C5  BNZ d   1       1.363   1.833  -0.068  0.00  0.00     0.000 A 
ATOM      6  C6  BNZ d   1       1.297   0.510   0.306  0.00  0.00     0.000 A 
ENDROOT
TORSDOF 0
ENDMDL
