MODEL 1
REMARK minimizedAffinity -1.37465656
REMARK minimizedRMSD -1
REMARK  0 active torsions:
REMARK  status: ('A' for Active; 'I' for Inactive)
ROOT
ATOM      1  C1  BNZ d   1       0.909   1.425   1.008  0.00  0.00     0.000 A 
ATOM      2  C2  BNZ d   1       0.286   0.680   0.042  0.00  0.00     0.000 A 
ATOM      3  C3  BNZ d   1       0.985  -0.234  -0.696  0.00  0.00     0.000 A 
ATOM      4  C4  BNZ d   1       2.311  -0.373  -0.496  0.00  0.00     0.000 A 
ATOM      5  C5  BNZ d   1       2.955   0.378   0.468  0.00  0.00     0.000 A 
ATOM      6  C6  BNZ d   1       2.241   1.269   1.236  0.00  0.00     0.000 A 
ENDROOT
TORSDOF 0
ENDMDL
