MODEL 1
REMARK minimizedAffinity -2.04915333
REMARK minimizedRMSD -1
REMARK  0 active torsions:
REMARK  status: ('A' for Active; 'I' for Inactive)
ROOT
ATOM      1  C1  BNZ d   1       0.935   1.605   0.528  0.00  0.00     0.000 A 
ATOM      2  C2  BNZ d   1       0.427   1.580  -0.743  0.00  0.00     0.000 A 
ATOM      3  C3  BNZ d   1       0.308   0.402  -1.427  0.00  0.00     0.000 A 
ATOM      4  C4  BNZ d   1       0.733  -0.742  -0.855  0.00  0.00     0.000 A 
ATOM      5  C5  BNZ d   1       1.257  -0.733   0.423  0.00  0.00     0.000 A 
ATOM      6  C6  BNZ d   1       1.339   0.449   1.123  0.00  0.00     0.000 A 
ENDROOT
TORSDOF 0
ENDMDL
