MODEL 1
REMARK minimizedAffinity 0.348104447
REMARK minimizedRMSD -1
REMARK  0 active torsions:
REMARK  status: ('A' for Active; 'I' for Inactive)
ROOT
ATOM      1  C1  BNZ d   1       1.026  -0.707  -0.747  0.00  0.00     0.000 A 
ATOM      2  C2  BNZ d   1       1.512  -0.234   0.443  0.00  0.00     0.000 A 
ATOM      3  C3  BNZ d   1       1.632   1.109   0.666  0.00  0.00     0.000 A 
ATOM      4  C4  BNZ d   1       1.304   1.976  -0.314  0.00  0.00     0.000 A 
ATOM      5  C5  BNZ d   1       0.822   1.515  -1.522  0.00  0.00     0.000 A 
ATOM      6  C6  BNZ d   1       0.665   0.163  -1.729  0.00  0.00     0.000 A 
ENDROOT
TORSDOF 0
ENDMDL
