MODEL 1
REMARK minimizedAffinity -0.00948190875
REMARK minimizedRMSD -1
REMARK  0 active torsions:
REMARK  status: ('A' for Active; 'I' for Inactive)
ROOT
ATOM      1  C1  BNZ d   1       1.196  -0.764  -0.663  0.00  0.00     0.000 A 
ATOM      2  C2  BNZ d   1       0.911  -0.246  -1.899  0.00  0.00     0.000 A 
ATOM      3  C3  BNZ d   1       0.884   1.105  -2.102  0.00  0.00     0.000 A 
ATOM      4  C4  BNZ d   1       1.103   1.936  -1.062  0.00  0.00     0.000 A 
ATOM      5  C5  BNZ d   1       1.382   1.430   0.191  0.00  0.00     0.000 A 
ATOM      6  C6  BNZ d   1       1.447   0.069   0.383  0.00  0.00     0.000 A 
ENDROOT
TORSDOF 0
ENDMDL
