MODEL 1
REMARK minimizedAffinity 1.60901356
REMARK minimizedRMSD -1
REMARK  0 active torsions:
REMARK  status: ('A' for Active; 'I' for Inactive)
ROOT
ATOM      1  C1  BNZ d   1      -3.860   1.330   2.204  0.00  0.00     0.000 A 
ATOM      2  C2  BNZ d   1      -3.859   1.877   0.948  0.00  0.00     0.000 A 
ATOM      3  C3  BNZ d   1      -3.082   2.963   0.658  0.00  0.00     0.000 A 
ATOM      4  C4  BNZ d   1      -2.339   3.526   1.633  0.00  0.00     0.000 A 
ATOM      5  C5  BNZ d   1      -2.337   2.993   2.906  0.00  0.00     0.000 A 
ATOM      6  C6  BNZ d   1      -3.090   1.875   3.184  0.00  0.00     0.000 A 
ENDROOT
TORSDOF 0
ENDMDL
