MODEL 1
REMARK minimizedAffinity 0.352324069
REMARK minimizedRMSD -1
REMARK  0 active torsions:
REMARK  status: ('A' for Active; 'I' for Inactive)
ROOT
ATOM      1  C1  BNZ d   1       2.391   1.125   0.495  0.00  0.00     0.000 A 
ATOM      2  C2  BNZ d   1       2.567   0.645  -0.776  0.00  0.00     0.000 A 
ATOM      3  C3  BNZ d   1       1.504   0.193  -1.507  0.00  0.00     0.000 A 
ATOM      4  C4  BNZ d   1       0.275   0.184  -0.953  0.00  0.00     0.000 A 
ATOM      5  C5  BNZ d   1       0.083   0.656   0.330  0.00  0.00     0.000 A 
ATOM      6  C6  BNZ d   1       1.149   1.147   1.049  0.00  0.00     0.000 A 
ENDROOT
TORSDOF 0
ENDMDL
