MODEL 1
REMARK minimizedAffinity 0.849052846
REMARK minimizedRMSD -1
REMARK  0 active torsions:
REMARK  status: ('A' for Active; 'I' for Inactive)
ROOT
ATOM      1  C1  BNZ d   1       0.857  -0.091  -1.732  0.00  0.00     0.000 A 
ATOM      2  C2  BNZ d   1       0.821  -0.352  -0.389  0.00  0.00     0.000 A 
ATOM      3  C3  BNZ d   1       1.023   0.645   0.524  0.00  0.00     0.000 A 
ATOM      4  C4  BNZ d   1       1.300   1.892   0.093  0.00  0.00     0.000 A 
ATOM      5  C5  BNZ d   1       1.349   2.170  -1.259  0.00  0.00     0.000 A 
ATOM      6  C6  BNZ d   1       1.106   1.172  -2.174  0.00  0.00     0.000 A 
ENDROOT
TORSDOF 0
ENDMDL
