MODEL 1
REMARK minimizedAffinity -1.05427957
REMARK minimizedRMSD -1
REMARK  0 active torsions:
REMARK  status: ('A' for Active; 'I' for Inactive)
ROOT
ATOM      1  C1  BNZ d   1       0.317   1.818  -0.315  0.00  0.00     0.000 A 
ATOM      2  C2  BNZ d   1       0.282   0.745  -1.166  0.00  0.00     0.000 A 
ATOM      3  C3  BNZ d   1       1.032  -0.370  -0.916  0.00  0.00     0.000 A 
ATOM      4  C4  BNZ d   1       1.844  -0.396   0.160  0.00  0.00     0.000 A 
ATOM      5  C5  BNZ d   1       1.897   0.682   1.022  0.00  0.00     0.000 A 
ATOM      6  C6  BNZ d   1       1.112   1.788   0.788  0.00  0.00     0.000 A 
ENDROOT
TORSDOF 0
ENDMDL
