MODEL 1
REMARK minimizedAffinity -3.92861772
REMARK minimizedRMSD -1
REMARK  0 active torsions:
REMARK  status: ('A' for Active; 'I' for Inactive)
ROOT
ATOM      1  C1  BNZ d   1       3.134   0.475   0.459  0.00  0.00     0.000 A 
ATOM      2  C2  BNZ d   1       2.729   0.081  -0.788  0.00  0.00     0.000 A 
ATOM      3  C3  BNZ d   1       1.513   0.462  -1.282  0.00  0.00     0.000 A 
ATOM      4  C4  BNZ d   1       0.688   1.202  -0.513  0.00  0.00     0.000 A 
ATOM      5  C5  BNZ d   1       1.078   1.600   0.750  0.00  0.00     0.000 A 
ATOM      6  C6  BNZ d   1       2.319   1.247   1.228  0.00  0.00     0.000 A 
ENDROOT
TORSDOF 0
ENDMDL
