MODEL 1
REMARK minimizedAffinity 2.08449507
REMARK minimizedRMSD -1
REMARK  0 active torsions:
REMARK  status: ('A' for Active; 'I' for Inactive)
ROOT
ATOM      1  O1  BZF d   1       2.831  -1.670  -2.960  0.00  0.00    -0.204 OA
ATOM      2  C2  BZF d   1       2.126  -2.623  -2.250  0.00  0.00     0.174 A 
ATOM      3  C3  BZF d   1       0.925  -2.852  -2.820  0.00  0.00    -0.012 A 
ATOM      4  C3A BZF d   1       0.915  -2.057  -4.009  0.00  0.00    -0.107 A 
ATOM      5  C4  BZF d   1       0.000  -1.871  -5.006  0.00  0.00     0.055 A 
ATOM      6  C5  BZF d   1       0.267  -0.970  -5.988  0.00  0.00    -0.016 A 
ATOM      7  C6  BZF d   1       1.434  -0.234  -6.000  0.00  0.00     0.022 A 
ATOM      8  C7  BZF d   1       2.373  -0.387  -5.035  0.00  0.00     0.029 A 
ATOM      9  C7A BZF d   1       2.121  -1.321  -4.060  0.00  0.00     0.058 A 
ENDROOT
TORSDOF 0
ENDMDL
