MODEL 1
REMARK minimizedAffinity 1.39377689
REMARK minimizedRMSD -1
REMARK  0 active torsions:
REMARK  status: ('A' for Active; 'I' for Inactive)
ROOT
ATOM      1  O1  BZF d   1      -1.958  -0.289   2.217  0.00  0.00    -0.204 OA
ATOM      2  C2  BZF d   1      -2.414  -1.590   2.310  0.00  0.00     0.174 A 
ATOM      3  C3  BZF d   1      -1.396  -2.435   2.573  0.00  0.00    -0.012 A 
ATOM      4  C3A BZF d   1      -0.247  -1.600   2.741  0.00  0.00    -0.107 A 
ATOM      5  C4  BZF d   1       1.063  -1.854   3.034  0.00  0.00     0.055 A 
ATOM      6  C5  BZF d   1       1.947  -0.822   3.053  0.00  0.00    -0.016 A 
ATOM      7  C6  BZF d   1       1.557   0.473   2.779  0.00  0.00     0.022 A 
ATOM      8  C7  BZF d   1       0.268   0.774   2.488  0.00  0.00     0.029 A 
ATOM      9  C7A BZF d   1      -0.633  -0.262   2.500  0.00  0.00     0.058 A 
ENDROOT
TORSDOF 0
ENDMDL
