MODEL 1
REMARK minimizedAffinity -0.544430673
REMARK minimizedRMSD -1
REMARK  0 active torsions:
REMARK  status: ('A' for Active; 'I' for Inactive)
ROOT
ATOM      1  O1  BZF d   1      -0.180  -0.152  -5.999  0.00  0.00    -0.204 OA
ATOM      2  C2  BZF d   1      -1.137  -0.625  -5.123  0.00  0.00     0.174 A 
ATOM      3  C3  BZF d   1      -0.560  -1.243  -4.072  0.00  0.00    -0.012 A 
ATOM      4  C3A BZF d   1       0.848  -1.069  -4.260  0.00  0.00    -0.107 A 
ATOM      5  C4  BZF d   1       1.945  -1.447  -3.540  0.00  0.00     0.055 A 
ATOM      6  C5  BZF d   1       3.182  -1.186  -4.036  0.00  0.00    -0.016 A 
ATOM      7  C6  BZF d   1       3.360  -0.555  -5.250  0.00  0.00     0.022 A 
ATOM      8  C7  BZF d   1       2.302  -0.157  -5.998  0.00  0.00     0.029 A 
ATOM      9  C7A BZF d   1       1.050  -0.390  -5.484  0.00  0.00     0.058 A 
ENDROOT
TORSDOF 0
ENDMDL
