MODEL 1
REMARK minimizedAffinity 6.09846163
REMARK minimizedRMSD -1
REMARK  0 active torsions:
REMARK  status: ('A' for Active; 'I' for Inactive)
ROOT
ATOM      1  O1  BZF d   1      -0.257  -1.416  -3.774  0.00  0.00    -0.204 OA
ATOM      2  C2  BZF d   1      -1.042  -1.206  -4.891  0.00  0.00     0.174 A 
ATOM      3  C3  BZF d   1      -0.299  -0.741  -5.916  0.00  0.00    -0.012 A 
ATOM      4  C3A BZF d   1       1.049  -0.742  -5.436  0.00  0.00    -0.107 A 
ATOM      5  C4  BZF d   1       2.246  -0.401  -5.998  0.00  0.00     0.055 A 
ATOM      6  C5  BZF d   1       3.370  -0.448  -5.236  0.00  0.00    -0.016 A 
ATOM      7  C6  BZF d   1       3.333  -0.824  -3.909  0.00  0.00     0.022 A 
ATOM      8  C7  BZF d   1       2.169  -1.176  -3.309  0.00  0.00     0.029 A 
ATOM      9  C7A BZF d   1       1.037  -1.162  -4.086  0.00  0.00     0.058 A 
ENDROOT
TORSDOF 0
ENDMDL
