MODEL 1
REMARK minimizedAffinity 2.34955263
REMARK minimizedRMSD -1
REMARK  0 active torsions:
REMARK  status: ('A' for Active; 'I' for Inactive)
ROOT
ATOM      1  O1  BZF d   1      -0.094  -0.487  -5.997  0.00  0.00    -0.204 OA
ATOM      2  C2  BZF d   1      -0.998  -1.003  -5.089  0.00  0.00     0.174 A 
ATOM      3  C3  BZF d   1      -0.363  -1.477  -3.998  0.00  0.00    -0.012 A 
ATOM      4  C3A BZF d   1       1.018  -1.159  -4.199  0.00  0.00    -0.107 A 
ATOM      5  C4  BZF d   1       2.145  -1.359  -3.454  0.00  0.00     0.055 A 
ATOM      6  C5  BZF d   1       3.349  -0.996  -3.968  0.00  0.00    -0.016 A 
ATOM      7  C6  BZF d   1       3.463  -0.436  -5.223  0.00  0.00     0.022 A 
ATOM      8  C7  BZF d   1       2.373  -0.213  -5.997  0.00  0.00     0.029 A 
ATOM      9  C7A BZF d   1       1.151  -0.549  -5.467  0.00  0.00     0.058 A 
ENDROOT
TORSDOF 0
ENDMDL
