MODEL 1
REMARK minimizedAffinity 13.3080149
REMARK minimizedRMSD -1
REMARK  0 active torsions:
REMARK  status: ('A' for Active; 'I' for Inactive)
ROOT
ATOM      1  O1  BZF d   1       0.126  -2.474   2.038  0.00  0.00    -0.204 OA
ATOM      2  C2  BZF d   1      -1.204  -2.284   2.359  0.00  0.00     0.174 A 
ATOM      3  C3  BZF d   1      -1.323  -1.577   3.501  0.00  0.00    -0.012 A 
ATOM      4  C3A BZF d   1       0.015  -1.230   3.871  0.00  0.00    -0.107 A 
ATOM      5  C4  BZF d   1       0.548  -0.516   4.906  0.00  0.00     0.055 A 
ATOM      6  C5  BZF d   1       1.899  -0.424   5.018  0.00  0.00    -0.016 A 
ATOM      7  C6  BZF d   1       2.746  -1.036   4.117  0.00  0.00     0.022 A 
ATOM      8  C7  BZF d   1       2.264  -1.750   3.071  0.00  0.00     0.029 A 
ATOM      9  C7A BZF d   1       0.898  -1.817   2.936  0.00  0.00     0.058 A 
ENDROOT
TORSDOF 0
ENDMDL
