MODEL 1
REMARK minimizedAffinity 3.16778851
REMARK minimizedRMSD -1
REMARK  0 active torsions:
REMARK  status: ('A' for Active; 'I' for Inactive)
ROOT
ATOM      1  O1  BZF d   1       0.477  -0.645  -5.998  0.00  0.00    -0.204 OA
ATOM      2  C2  BZF d   1      -0.523  -1.072  -5.145  0.00  0.00     0.174 A 
ATOM      3  C3  BZF d   1       0.000  -1.567  -4.005  0.00  0.00    -0.012 A 
ATOM      4  C3A BZF d   1       1.411  -1.357  -4.116  0.00  0.00    -0.107 A 
ATOM      5  C4  BZF d   1       2.468  -1.623  -3.293  0.00  0.00     0.055 A 
ATOM      6  C5  BZF d   1       3.728  -1.361  -3.729  0.00  0.00    -0.016 A 
ATOM      7  C6  BZF d   1       3.968  -0.838  -4.983  0.00  0.00     0.022 A 
ATOM      8  C7  BZF d   1       2.952  -0.553  -5.833  0.00  0.00     0.029 A 
ATOM      9  C7A BZF d   1       1.675  -0.786  -5.383  0.00  0.00     0.058 A 
ENDROOT
TORSDOF 0
ENDMDL
