MODEL 1
REMARK minimizedAffinity -3.41188598
REMARK minimizedRMSD -1
REMARK  0 active torsions:
REMARK  status: ('A' for Active; 'I' for Inactive)
ROOT
ATOM      1  O1  BZF d   1       0.129  -2.043   3.260  0.00  0.00    -0.204 OA
ATOM      2  C2  BZF d   1       1.482  -1.798   3.389  0.00  0.00     0.174 A 
ATOM      3  C3  BZF d   1       1.862  -0.777   2.593  0.00  0.00    -0.012 A 
ATOM      4  C3A BZF d   1       0.654  -0.297   1.995  0.00  0.00    -0.107 A 
ATOM      5  C4  BZF d   1       0.376   0.714   1.120  0.00  0.00     0.055 A 
ATOM      6  C5  BZF d   1      -0.898   0.872   0.676  0.00  0.00    -0.016 A 
ATOM      7  C6  BZF d   1      -1.917   0.035   1.081  0.00  0.00     0.022 A 
ATOM      8  C7  BZF d   1      -1.692  -0.979   1.951  0.00  0.00     0.029 A 
ATOM      9  C7A BZF d   1      -0.411  -1.121   2.428  0.00  0.00     0.058 A 
ENDROOT
TORSDOF 0
ENDMDL
