MODEL 1
REMARK minimizedAffinity 7.71671867
REMARK minimizedRMSD -1
REMARK  0 active torsions:
REMARK  status: ('A' for Active; 'I' for Inactive)
ROOT
ATOM      1  O1  BZF d   1      -0.871  -1.950   1.727  0.00  0.00    -0.204 OA
ATOM      2  C2  BZF d   1      -1.913  -1.937   2.634  0.00  0.00     0.174 A 
ATOM      3  C3  BZF d   1      -1.448  -1.815   3.894  0.00  0.00    -0.012 A 
ATOM      4  C3A BZF d   1      -0.033  -1.654   3.760  0.00  0.00    -0.107 A 
ATOM      5  C4  BZF d   1       0.981  -1.471   4.656  0.00  0.00     0.055 A 
ATOM      6  C5  BZF d   1       2.262  -1.423   4.205  0.00  0.00    -0.016 A 
ATOM      7  C6  BZF d   1       2.565  -1.560   2.866  0.00  0.00     0.022 A 
ATOM      8  C7  BZF d   1       1.593  -1.738   1.938  0.00  0.00     0.029 A 
ATOM      9  C7A BZF d   1       0.295  -1.754   2.388  0.00  0.00     0.058 A 
ENDROOT
TORSDOF 0
ENDMDL
