MODEL 1
REMARK minimizedAffinity -4.24718904
REMARK minimizedRMSD -1
REMARK  0 active torsions:
REMARK  status: ('A' for Active; 'I' for Inactive)
ROOT
ATOM      1  C4' PXY d   1       1.597   1.637  -1.119  0.00  0.00     0.077 C 
ATOM      2  C1' PXY d   1      -1.456  -2.691   1.196  0.00  0.00     0.077 C 
ATOM      3  C1  PXY d   1      -0.667  -1.551   0.584  0.00  0.00    -0.082 A 
ATOM      4  C2  PXY d   1       0.622  -1.711   0.329  0.00  0.00     0.003 A 
ATOM      5  C3  PXY d   1       1.358  -0.680  -0.195  0.00  0.00     0.003 A 
ATOM      6  C4  PXY d   1       0.758   0.510  -0.510  0.00  0.00    -0.082 A 
ATOM      7  C5  PXY d   1      -0.558   0.677  -0.263  0.00  0.00     0.003 A 
ATOM      8  C6  PXY d   1      -1.279  -0.368   0.307  0.00  0.00     0.003 A 
ENDROOT
TORSDOF 0
ENDMDL
