MODEL 1
REMARK minimizedAffinity -4.68329048
REMARK minimizedRMSD -1
REMARK  0 active torsions:
REMARK  status: ('A' for Active; 'I' for Inactive)
ROOT
ATOM      1  C4' PXY d   1       0.832   2.290  -1.281  0.00  0.00     0.077 C 
ATOM      2  C1' PXY d   1      -0.514  -2.624   1.448  0.00  0.00     0.077 C 
ATOM      3  C1  PXY d   1      -0.174  -1.334   0.729  0.00  0.00    -0.082 A 
ATOM      4  C2  PXY d   1       1.054  -1.143   0.275  0.00  0.00     0.003 A 
ATOM      5  C3  PXY d   1       1.388   0.032  -0.350  0.00  0.00     0.003 A 
ATOM      6  C4  PXY d   1       0.441   0.999  -0.558  0.00  0.00    -0.082 A 
ATOM      7  C5  PXY d   1      -0.817   0.807  -0.106  0.00  0.00     0.003 A 
ATOM      8  C6  PXY d   1      -1.124  -0.375   0.561  0.00  0.00     0.003 A 
ENDROOT
TORSDOF 0
ENDMDL
