MODEL 1
REMARK minimizedAffinity -2.64102936
REMARK minimizedRMSD -1
REMARK  0 active torsions:
REMARK  status: ('A' for Active; 'I' for Inactive)
ROOT
ATOM      1  C4' PXY d   1       1.520   1.781  -1.018  0.00  0.00     0.077 C 
ATOM      2  C1' PXY d   1      -1.385  -2.589   1.406  0.00  0.00     0.077 C 
ATOM      3  C1  PXY d   1      -0.634  -1.439   0.765  0.00  0.00    -0.082 A 
ATOM      4  C2  PXY d   1       0.667  -1.546   0.548  0.00  0.00     0.003 A 
ATOM      5  C3  PXY d   1       1.367  -0.504  -0.002  0.00  0.00     0.003 A 
ATOM      6  C4  PXY d   1       0.720   0.641  -0.382  0.00  0.00    -0.082 A 
ATOM      7  C5  PXY d   1      -0.609   0.755  -0.174  0.00  0.00     0.003 A 
ATOM      8  C6  PXY d   1      -1.294  -0.299   0.423  0.00  0.00     0.003 A 
ENDROOT
TORSDOF 0
ENDMDL
