MODEL 1
REMARK minimizedAffinity -2.91764975
REMARK minimizedRMSD -1
REMARK  0 active torsions:
REMARK  status: ('A' for Active; 'I' for Inactive)
ROOT
ATOM      1  C4' PXY d   1       0.544   1.833  -2.024  0.00  0.00     0.077 C 
ATOM      2  C1' PXY d   1      -0.684  -2.572   1.512  0.00  0.00     0.077 C 
ATOM      3  C1  PXY d   1      -0.372  -1.410   0.590  0.00  0.00    -0.082 A 
ATOM      4  C2  PXY d   1       0.257  -1.632  -0.552  0.00  0.00     0.003 A 
ATOM      5  C3  PXY d   1       0.576  -0.589  -1.383  0.00  0.00     0.003 A 
ATOM      6  C4  PXY d   1       0.199   0.689  -1.067  0.00  0.00    -0.082 A 
ATOM      7  C5  PXY d   1      -0.452   0.923   0.092  0.00  0.00     0.003 A 
ATOM      8  C6  PXY d   1      -0.730  -0.145   0.941  0.00  0.00     0.003 A 
ENDROOT
TORSDOF 0
ENDMDL
