MODEL 1
REMARK minimizedAffinity -3.65456533
REMARK minimizedRMSD -1
REMARK  0 active torsions:
REMARK  status: ('A' for Active; 'I' for Inactive)
ROOT
ATOM      1  C4' PXY d   1       0.948   1.985  -1.203  0.00  0.00     0.077 C 
ATOM      2  C1' PXY d   1      -1.062  -2.515   1.816  0.00  0.00     0.077 C 
ATOM      3  C1  PXY d   1      -0.547  -1.332   1.021  0.00  0.00    -0.082 A 
ATOM      4  C2  PXY d   1       0.710  -1.318   0.609  0.00  0.00     0.003 A 
ATOM      5  C3  PXY d   1       1.201  -0.242  -0.084  0.00  0.00     0.003 A 
ATOM      6  C4  PXY d   1       0.383   0.807  -0.405  0.00  0.00    -0.082 A 
ATOM      7  C5  PXY d   1      -0.904   0.796   0.002  0.00  0.00     0.003 A 
ATOM      8  C6  PXY d   1      -1.372  -0.287   0.740  0.00  0.00     0.003 A 
ENDROOT
TORSDOF 0
ENDMDL
