MODEL 1
REMARK minimizedAffinity -2.73835182
REMARK minimizedRMSD -1
REMARK  0 active torsions:
REMARK  status: ('A' for Active; 'I' for Inactive)
ROOT
ATOM      1  C4' PXY d   1       1.732   1.126  -0.297  0.00  0.00     0.077 C 
ATOM      2  C1' PXY d   1      -2.127  -3.042   0.774  0.00  0.00     0.077 C 
ATOM      3  C1  PXY d   1      -1.124  -1.943   0.486  0.00  0.00    -0.082 A 
ATOM      4  C2  PXY d   1       0.171  -2.208   0.539  0.00  0.00     0.003 A 
ATOM      5  C3  PXY d   1       1.092  -1.218   0.313  0.00  0.00     0.003 A 
ATOM      6  C4  PXY d   1       0.684   0.045  -0.023  0.00  0.00    -0.082 A 
ATOM      7  C5  PXY d   1      -0.636   0.321  -0.090  0.00  0.00     0.003 A 
ATOM      8  C6  PXY d   1      -1.555  -0.688   0.183  0.00  0.00     0.003 A 
ENDROOT
TORSDOF 0
ENDMDL
