MODEL 1
REMARK minimizedAffinity -4.87749958
REMARK minimizedRMSD -1
REMARK  0 active torsions:
REMARK  status: ('A' for Active; 'I' for Inactive)
ROOT
ATOM      1  C4' PXY d   1       1.031   2.057  -0.874  0.00  0.00     0.077 C 
ATOM      2  C1' PXY d   1      -1.553  -2.674   1.213  0.00  0.00     0.077 C 
ATOM      3  C1  PXY d   1      -0.887  -1.429   0.661  0.00  0.00    -0.082 A 
ATOM      4  C2  PXY d   1       0.407  -1.447   0.386  0.00  0.00     0.003 A 
ATOM      5  C3  PXY d   1       1.032  -0.320  -0.083  0.00  0.00     0.003 A 
ATOM      6  C4  PXY d   1       0.315   0.821  -0.324  0.00  0.00    -0.082 A 
ATOM      7  C5  PXY d   1      -1.008   0.844  -0.057  0.00  0.00     0.003 A 
ATOM      8  C6  PXY d   1      -1.616  -0.298   0.458  0.00  0.00     0.003 A 
ENDROOT
TORSDOF 0
ENDMDL
