MODEL 1
REMARK minimizedAffinity -4.73594856
REMARK minimizedRMSD -1
REMARK  0 active torsions:
REMARK  status: ('A' for Active; 'I' for Inactive)
ROOT
ATOM      1  C4' PXY d   1       1.025   1.294  -0.390  0.00  0.00     0.077 C 
ATOM      2  C1' PXY d   1      -2.117  -3.310   1.144  0.00  0.00     0.077 C 
ATOM      3  C1  PXY d   1      -1.283  -2.108   0.747  0.00  0.00    -0.082 A 
ATOM      4  C2  PXY d   1      -1.872  -0.941   0.545  0.00  0.00     0.003 A 
ATOM      5  C3  PXY d   1      -1.136   0.149   0.154  0.00  0.00     0.003 A 
ATOM      6  C4  PXY d   1       0.223   0.056   0.021  0.00  0.00    -0.082 A 
ATOM      7  C5  PXY d   1       0.833  -1.129   0.236  0.00  0.00     0.003 A 
ATOM      8  C6  PXY d   1       0.063  -2.233   0.592  0.00  0.00     0.003 A 
ENDROOT
TORSDOF 0
ENDMDL
