MODEL 1
REMARK minimizedAffinity -3.98122692
REMARK minimizedRMSD -1
REMARK  0 active torsions:
REMARK  status: ('A' for Active; 'I' for Inactive)
ROOT
ATOM      1  C4' PXY d   1       1.296   1.882  -1.627  0.00  0.00     0.077 C 
ATOM      2  C1' PXY d   1      -1.402  -2.341   1.254  0.00  0.00     0.077 C 
ATOM      3  C1  PXY d   1      -0.706  -1.229   0.494  0.00  0.00    -0.082 A 
ATOM      4  C2  PXY d   1       0.546  -1.391   0.098  0.00  0.00     0.003 A 
ATOM      5  C3  PXY d   1       1.201  -0.383  -0.562  0.00  0.00     0.003 A 
ATOM      6  C4  PXY d   1       0.551   0.783  -0.866  0.00  0.00    -0.082 A 
ATOM      7  C5  PXY d   1      -0.730   0.952  -0.475  0.00  0.00     0.003 A 
ATOM      8  C6  PXY d   1      -1.364  -0.067   0.230  0.00  0.00     0.003 A 
ENDROOT
TORSDOF 0
ENDMDL
