MODEL 1
REMARK minimizedAffinity -5.14789677
REMARK minimizedRMSD -1
REMARK  0 active torsions:
REMARK  status: ('A' for Active; 'I' for Inactive)
ROOT
ATOM      1  C4' PXY d   1       1.084   1.236  -1.052  0.00  0.00     0.077 C 
ATOM      2  C1' PXY d   1      -2.302  -2.710   1.473  0.00  0.00     0.077 C 
ATOM      3  C1  PXY d   1      -1.404  -1.681   0.816  0.00  0.00    -0.082 A 
ATOM      4  C2  PXY d   1      -1.894  -0.496   0.492  0.00  0.00     0.003 A 
ATOM      5  C3  PXY d   1      -1.104   0.435  -0.132  0.00  0.00     0.003 A 
ATOM      6  C4  PXY d   1       0.216   0.169  -0.379  0.00  0.00    -0.082 A 
ATOM      7  C5  PXY d   1       0.727  -1.034  -0.041  0.00  0.00     0.003 A 
ATOM      8  C6  PXY d   1      -0.102  -1.980   0.554  0.00  0.00     0.003 A 
ENDROOT
TORSDOF 0
ENDMDL
