MODEL 1
REMARK minimizedAffinity -3.36327791
REMARK minimizedRMSD -1
REMARK  0 active torsions:
REMARK  status: ('A' for Active; 'I' for Inactive)
ROOT
ATOM      1  C4' PXY d   1      -0.728  -2.671   1.577  0.00  0.00     0.077 C 
ATOM      2  C1' PXY d   1       1.016   2.012  -1.329  0.00  0.00     0.077 C 
ATOM      3  C1  PXY d   1       0.567   0.777  -0.573  0.00  0.00    -0.082 A 
ATOM      4  C2  PXY d   1      -0.659   0.721  -0.079  0.00  0.00     0.003 A 
ATOM      5  C3  PXY d   1      -1.070  -0.375   0.635  0.00  0.00     0.003 A 
ATOM      6  C4  PXY d   1      -0.235  -1.448   0.799  0.00  0.00    -0.082 A 
ATOM      7  C5  PXY d   1       1.014  -1.403   0.289  0.00  0.00     0.003 A 
ATOM      8  C6  PXY d   1       1.426  -0.264  -0.397  0.00  0.00     0.003 A 
ENDROOT
TORSDOF 0
ENDMDL
