MODEL 1
REMARK minimizedAffinity -5.36642122
REMARK minimizedRMSD -1
REMARK  0 active torsions:
REMARK  status: ('A' for Active; 'I' for Inactive)
ROOT
ATOM      1  C4' PXY d   1       1.978   2.231  -1.407  0.00  0.00     0.077 C 
ATOM      2  C1' PXY d   1      -0.875  -2.031   1.261  0.00  0.00     0.077 C 
ATOM      3  C1  PXY d   1      -0.137  -0.906   0.562  0.00  0.00    -0.082 A 
ATOM      4  C2  PXY d   1       0.886  -1.186  -0.228  0.00  0.00     0.003 A 
ATOM      5  C3  PXY d   1       1.585  -0.179  -0.842  0.00  0.00     0.003 A 
ATOM      6  C4  PXY d   1       1.198   1.126  -0.688  0.00  0.00    -0.082 A 
ATOM      7  C5  PXY d   1       0.148   1.419   0.107  0.00  0.00     0.003 A 
ATOM      8  C6  PXY d   1      -0.522   0.385   0.755  0.00  0.00     0.003 A 
ENDROOT
TORSDOF 0
ENDMDL
