MODEL 1
REMARK minimizedAffinity -4.42657948
REMARK minimizedRMSD -1
REMARK  0 active torsions:
REMARK  status: ('A' for Active; 'I' for Inactive)
ROOT
ATOM      1  C4' PXY d   1       1.083   2.098  -1.014  0.00  0.00     0.077 C 
ATOM      2  C1' PXY d   1      -1.035  -2.764   1.284  0.00  0.00     0.077 C 
ATOM      3  C1  PXY d   1      -0.492  -1.486   0.676  0.00  0.00    -0.082 A 
ATOM      4  C2  PXY d   1       0.798  -1.392   0.398  0.00  0.00     0.003 A 
ATOM      5  C3  PXY d   1       1.313  -0.232  -0.122  0.00  0.00     0.003 A 
ATOM      6  C4  PXY d   1       0.489   0.824  -0.409  0.00  0.00    -0.082 A 
ATOM      7  C5  PXY d   1      -0.830   0.731  -0.137  0.00  0.00     0.003 A 
ATOM      8  C6  PXY d   1      -1.326  -0.440   0.428  0.00  0.00     0.003 A 
ENDROOT
TORSDOF 0
ENDMDL
