MODEL 1
REMARK minimizedAffinity -5.17057467
REMARK minimizedRMSD -1
REMARK  0 active torsions:
REMARK  status: ('A' for Active; 'I' for Inactive)
ROOT
ATOM      1  C4' PXY d   1       1.815  -1.928   0.143  0.00  0.00     0.077 C 
ATOM      2  C1' PXY d   1      -3.214   0.422   1.755  0.00  0.00     0.077 C 
ATOM      3  C1  PXY d   1      -1.894  -0.185   1.323  0.00  0.00    -0.082 A 
ATOM      4  C2  PXY d   1      -1.645  -1.459   1.580  0.00  0.00     0.003 A 
ATOM      5  C3  PXY d   1      -0.443  -2.016   1.225  0.00  0.00     0.003 A 
ATOM      6  C4  PXY d   1       0.492  -1.275   0.553  0.00  0.00    -0.082 A 
ATOM      7  C5  PXY d   1       0.241   0.022   0.277  0.00  0.00     0.003 A 
ATOM      8  C6  PXY d   1      -0.969   0.579   0.683  0.00  0.00     0.003 A 
ENDROOT
TORSDOF 0
ENDMDL
