MODEL 1
REMARK minimizedAffinity -5.00698614
REMARK minimizedRMSD -1
REMARK  0 active torsions:
REMARK  status: ('A' for Active; 'I' for Inactive)
ROOT
ATOM      1  C4' PXY d   1       1.501   1.586  -1.281  0.00  0.00     0.077 C 
ATOM      2  C1' PXY d   1      -1.736  -2.480   1.250  0.00  0.00     0.077 C 
ATOM      3  C1  PXY d   1      -0.897  -1.410   0.579  0.00  0.00    -0.082 A 
ATOM      4  C2  PXY d   1       0.412  -1.573   0.477  0.00  0.00     0.003 A 
ATOM      5  C3  PXY d   1       1.189  -0.600  -0.097  0.00  0.00     0.003 A 
ATOM      6  C4  PXY d   1       0.614   0.527  -0.620  0.00  0.00    -0.082 A 
ATOM      7  C5  PXY d   1      -0.722   0.696  -0.529  0.00  0.00     0.003 A 
ATOM      8  C6  PXY d   1      -1.489  -0.284   0.094  0.00  0.00     0.003 A 
ENDROOT
TORSDOF 0
ENDMDL
