MODEL 1
REMARK minimizedAffinity -3.64513969
REMARK minimizedRMSD -1
REMARK  0 active torsions:
REMARK  status: ('A' for Active; 'I' for Inactive)
ROOT
ATOM      1  C4' PXY d   1       1.086   1.415  -1.992  0.00  0.00     0.077 C 
ATOM      2  C1' PXY d   1      -1.207  -2.514   1.573  0.00  0.00     0.077 C 
ATOM      3  C1  PXY d   1      -0.618  -1.481   0.634  0.00  0.00    -0.082 A 
ATOM      4  C2  PXY d   1       0.658  -1.562   0.290  0.00  0.00     0.003 A 
ATOM      5  C3  PXY d   1       1.215  -0.618  -0.533  0.00  0.00     0.003 A 
ATOM      6  C4  PXY d   1       0.446   0.389  -1.053  0.00  0.00    -0.082 A 
ATOM      7  C5  PXY d   1      -0.858   0.472  -0.716  0.00  0.00     0.003 A 
ATOM      8  C6  PXY d   1      -1.395  -0.473   0.154  0.00  0.00     0.003 A 
ENDROOT
TORSDOF 0
ENDMDL
