MODEL 1
REMARK minimizedAffinity -4.13501453
REMARK minimizedRMSD -1
REMARK  0 active torsions:
REMARK  status: ('A' for Active; 'I' for Inactive)
ROOT
ATOM      1  C4' PXY d   1      -2.172  -2.567   1.173  0.00  0.00     0.077 C 
ATOM      2  C1' PXY d   1       1.638   1.391  -0.624  0.00  0.00     0.077 C 
ATOM      3  C1  PXY d   1       0.647   0.344  -0.156  0.00  0.00    -0.082 A 
ATOM      4  C2  PXY d   1      -0.635   0.654  -0.057  0.00  0.00     0.003 A 
ATOM      5  C3  PXY d   1      -1.540  -0.271   0.395  0.00  0.00     0.003 A 
ATOM      6  C4  PXY d   1      -1.137  -1.544   0.697  0.00  0.00    -0.082 A 
ATOM      7  C5  PXY d   1       0.168  -1.873   0.588  0.00  0.00     0.003 A 
ATOM      8  C6  PXY d   1       1.077  -0.906   0.167  0.00  0.00     0.003 A 
ENDROOT
TORSDOF 0
ENDMDL
