MODEL 1
REMARK minimizedAffinity -2.67504525
REMARK minimizedRMSD -1
REMARK  0 active torsions:
REMARK  status: ('A' for Active; 'I' for Inactive)
ROOT
ATOM      1  C4' PXY d   1       1.123   0.837  -0.488  0.00  0.00     0.077 C 
ATOM      2  C1' PXY d   1      -2.606  -3.128   1.456  0.00  0.00     0.077 C 
ATOM      3  C1  PXY d   1      -1.635  -2.087   0.935  0.00  0.00    -0.082 A 
ATOM      4  C2  PXY d   1      -0.391  -2.071   1.384  0.00  0.00     0.003 A 
ATOM      5  C3  PXY d   1       0.492  -1.116   0.948  0.00  0.00     0.003 A 
ATOM      6  C4  PXY d   1       0.111  -0.201   0.002  0.00  0.00    -0.082 A 
ATOM      7  C5  PXY d   1      -1.154  -0.218  -0.468  0.00  0.00     0.003 A 
ATOM      8  C6  PXY d   1      -2.046  -1.169   0.018  0.00  0.00     0.003 A 
ENDROOT
TORSDOF 0
ENDMDL
