MODEL 1
REMARK minimizedAffinity -4.11968231
REMARK minimizedRMSD -1
REMARK  0 active torsions:
REMARK  status: ('A' for Active; 'I' for Inactive)
ROOT
ATOM      1  C4' PXY d   1       1.186   1.089  -0.446  0.00  0.00     0.077 C 
ATOM      2  C1' PXY d   1      -2.137  -3.260   1.414  0.00  0.00     0.077 C 
ATOM      3  C1  PXY d   1      -1.256  -2.124   0.935  0.00  0.00    -0.082 A 
ATOM      4  C2  PXY d   1      -1.810  -1.047   0.402  0.00  0.00     0.003 A 
ATOM      5  C3  PXY d   1      -1.027  -0.023  -0.067  0.00  0.00     0.003 A 
ATOM      6  C4  PXY d   1       0.335  -0.079   0.061  0.00  0.00    -0.082 A 
ATOM      7  C5  PXY d   1       0.908  -1.170   0.613  0.00  0.00     0.003 A 
ATOM      8  C6  PXY d   1       0.097  -2.216   1.045  0.00  0.00     0.003 A 
ENDROOT
TORSDOF 0
ENDMDL
