MODEL 1
REMARK minimizedAffinity -4.30258799
REMARK minimizedRMSD -1
REMARK  0 active torsions:
REMARK  status: ('A' for Active; 'I' for Inactive)
ROOT
ATOM      1  C4' PXY d   1      -5.993  -1.888  -3.449  0.00  0.00     0.077 C 
ATOM      2  C1' PXY d   1      -1.626  -4.689  -5.998  0.00  0.00     0.077 C 
ATOM      3  C1  PXY d   1      -2.772  -3.965  -5.321  0.00  0.00    -0.082 A 
ATOM      4  C2  PXY d   1      -3.471  -3.069  -5.999  0.00  0.00     0.003 A 
ATOM      5  C3  PXY d   1      -4.491  -2.381  -5.393  0.00  0.00     0.003 A 
ATOM      6  C4  PXY d   1      -4.833  -2.651  -4.095  0.00  0.00    -0.082 A 
ATOM      7  C5  PXY d   1      -4.131  -3.571  -3.400  0.00  0.00     0.003 A 
ATOM      8  C6  PXY d   1      -3.073  -4.229  -4.021  0.00  0.00     0.003 A 
ENDROOT
TORSDOF 0
ENDMDL
