MODEL 1
REMARK minimizedAffinity -2.31980658
REMARK minimizedRMSD -1
REMARK  0 active torsions:
REMARK  status: ('A' for Active; 'I' for Inactive)
ROOT
ATOM      1  O1  BZF d   1      -3.652   4.195  -1.896  0.00  0.00    -0.204 OA
ATOM      2  C2  BZF d   1      -3.577   4.721  -3.171  0.00  0.00     0.174 A 
ATOM      3  C3  BZF d   1      -3.088   3.810  -4.036  0.00  0.00    -0.012 A 
ATOM      4  C3A BZF d   1      -2.929   2.612  -3.271  0.00  0.00    -0.107 A 
ATOM      5  C4  BZF d   1      -2.496   1.353  -3.577  0.00  0.00     0.055 A 
ATOM      6  C5  BZF d   1      -2.390   0.432  -2.584  0.00  0.00    -0.016 A 
ATOM      7  C6  BZF d   1      -2.705   0.735  -1.276  0.00  0.00     0.022 A 
ATOM      8  C7  BZF d   1      -3.143   1.968  -0.924  0.00  0.00     0.029 A 
ATOM      9  C7A BZF d   1      -3.282   2.892  -1.931  0.00  0.00     0.058 A 
ENDROOT
TORSDOF 0
ENDMDL
