MODEL 1
REMARK minimizedAffinity -0.358730674
REMARK minimizedRMSD -1
REMARK  0 active torsions:
REMARK  status: ('A' for Active; 'I' for Inactive)
ROOT
ATOM      1  O1  BZF d   1      -2.889   5.764  -3.263  0.00  0.00    -0.204 OA
ATOM      2  C2  BZF d   1      -2.788   5.833  -4.639  0.00  0.00     0.174 A 
ATOM      3  C3  BZF d   1      -2.752   4.597  -5.179  0.00  0.00    -0.012 A 
ATOM      4  C3A BZF d   1      -2.928   3.700  -4.078  0.00  0.00    -0.107 A 
ATOM      5  C4  BZF d   1      -2.998   2.340  -3.977  0.00  0.00     0.055 A 
ATOM      6  C5  BZF d   1      -3.102   1.774  -2.746  0.00  0.00    -0.016 A 
ATOM      7  C6  BZF d   1      -3.134   2.536  -1.596  0.00  0.00     0.022 A 
ATOM      8  C7  BZF d   1      -3.073   3.889  -1.647  0.00  0.00     0.029 A 
ATOM      9  C7A BZF d   1      -3.001   4.466  -2.891  0.00  0.00     0.058 A 
ENDROOT
TORSDOF 0
ENDMDL
