MODEL 1
REMARK minimizedAffinity 8.61946392
REMARK minimizedRMSD -1
REMARK  0 active torsions:
REMARK  status: ('A' for Active; 'I' for Inactive)
ROOT
ATOM      1  O1  BZF d   1      -3.756   4.935  -0.770  0.00  0.00    -0.204 OA
ATOM      2  C2  BZF d   1      -4.377   3.749  -0.427  0.00  0.00     0.174 A 
ATOM      3  C3  BZF d   1      -4.474   2.934  -1.497  0.00  0.00    -0.012 A 
ATOM      4  C3A BZF d   1      -3.794   3.617  -2.554  0.00  0.00    -0.107 A 
ATOM      5  C4  BZF d   1      -3.538   3.309  -3.860  0.00  0.00     0.055 A 
ATOM      6  C5  BZF d   1      -2.913   4.225  -4.645  0.00  0.00    -0.016 A 
ATOM      7  C6  BZF d   1      -2.535   5.460  -4.159  0.00  0.00     0.022 A 
ATOM      8  C7  BZF d   1      -2.764   5.810  -2.870  0.00  0.00     0.029 A 
ATOM      9  C7A BZF d   1      -3.366   4.873  -2.065  0.00  0.00     0.058 A 
ENDROOT
TORSDOF 0
ENDMDL
