MODEL 1
REMARK minimizedAffinity -3.46771121
REMARK minimizedRMSD -1
REMARK  0 active torsions:
REMARK  status: ('A' for Active; 'I' for Inactive)
ROOT
ATOM      1  O1  BZF d   1      -2.225   5.268  -4.441  0.00  0.00    -0.204 OA
ATOM      2  C2  BZF d   1      -1.450   4.636  -5.394  0.00  0.00     0.174 A 
ATOM      3  C3  BZF d   1      -1.163   3.374  -5.016  0.00  0.00    -0.012 A 
ATOM      4  C3A BZF d   1      -1.875   3.176  -3.791  0.00  0.00    -0.107 A 
ATOM      5  C4  BZF d   1      -2.000   2.117  -2.938  0.00  0.00     0.055 A 
ATOM      6  C5  BZF d   1      -2.711   2.274  -1.790  0.00  0.00    -0.016 A 
ATOM      7  C6  BZF d   1      -3.304   3.476  -1.462  0.00  0.00     0.022 A 
ATOM      8  C7  BZF d   1      -3.211   4.553  -2.279  0.00  0.00     0.029 A 
ATOM      9  C7A BZF d   1      -2.522   4.388  -3.455  0.00  0.00     0.058 A 
ENDROOT
TORSDOF 0
ENDMDL
