MODEL 1
REMARK minimizedAffinity -2.06955338
REMARK minimizedRMSD -1
REMARK  0 active torsions:
REMARK  status: ('A' for Active; 'I' for Inactive)
ROOT
ATOM      1  O1  BZF d   1      -1.988   4.884  -3.188  0.00  0.00    -0.204 OA
ATOM      2  C2  BZF d   1      -3.292   4.945  -3.638  0.00  0.00     0.174 A 
ATOM      3  C3  BZF d   1      -3.833   3.711  -3.707  0.00  0.00    -0.012 A 
ATOM      4  C3A BZF d   1      -2.832   2.832  -3.185  0.00  0.00    -0.107 A 
ATOM      5  C4  BZF d   1      -2.782   1.483  -2.980  0.00  0.00     0.055 A 
ATOM      6  C5  BZF d   1      -1.629   0.927  -2.523  0.00  0.00    -0.016 A 
ATOM      7  C6  BZF d   1      -0.508   1.688  -2.265  0.00  0.00     0.022 A 
ATOM      8  C7  BZF d   1      -0.511   3.031  -2.448  0.00  0.00     0.029 A 
ATOM      9  C7A BZF d   1      -1.685   3.600  -2.879  0.00  0.00     0.058 A 
ENDROOT
TORSDOF 0
ENDMDL
