MODEL 1
REMARK minimizedAffinity 13.8213968
REMARK minimizedRMSD -1
REMARK  0 active torsions:
REMARK  status: ('A' for Active; 'I' for Inactive)
ROOT
ATOM      1  C   UNL d   1       1.083   0.605   1.154  0.00  0.00     0.124 A 
ATOM      2  C1  UNL d   1       0.401   1.125   2.246  0.00  0.00     0.062 A 
ATOM      3  C2  UNL d   1      -0.402   0.300   3.028  0.00  0.00     0.162 A 
ATOM      4  C3  UNL d   1      -0.527  -1.055   2.722  0.00  0.00    -0.034 A 
ATOM      5  C4  UNL d   1       0.161  -1.571   1.622  0.00  0.00     0.162 A 
ATOM      6  C5  UNL d   1       0.962  -0.742   0.844  0.00  0.00     0.062 A 
ATOM      7  F   UNL d   1       1.620  -1.247  -0.210  0.00  0.00    -0.097 F 
ATOM      8  F1  UNL d   1       0.064  -2.870   1.300  0.00  0.00    -0.096 F 
ATOM      9  I   UNL d   1      -1.726  -2.292   3.889  0.00  0.00    -0.060 I 
ATOM     10  F2  UNL d   1      -1.049   0.830   4.076  0.00  0.00    -0.096 F 
ATOM     11  F3  UNL d   1       0.515   2.427   2.547  0.00  0.00    -0.097 F 
ATOM     12  F4  UNL d   1       1.854   1.401   0.403  0.00  0.00    -0.092 F 
ENDROOT
TORSDOF 0
ENDMDL
