MODEL 1
REMARK minimizedAffinity 29.5860424
REMARK minimizedRMSD -1
REMARK  0 active torsions:
REMARK  status: ('A' for Active; 'I' for Inactive)
ROOT
ATOM      1  C   UNL d   1       4.286   3.352   2.886  0.00  0.00     0.124 A 
ATOM      2  C1  UNL d   1       4.727   3.918   4.074  0.00  0.00     0.062 A 
ATOM      3  C2  UNL d   1       3.857   4.672   4.856  0.00  0.00     0.162 A 
ATOM      4  C3  UNL d   1       2.535   4.864   4.454  0.00  0.00    -0.034 A 
ATOM      5  C4  UNL d   1       2.099   4.292   3.257  0.00  0.00     0.162 A 
ATOM      6  C5  UNL d   1       2.972   3.540   2.479  0.00  0.00     0.062 A 
ATOM      7  F   UNL d   1       2.544   2.994   1.331  0.00  0.00    -0.097 F 
ATOM      8  F1  UNL d   1       0.835   4.457   2.840  0.00  0.00    -0.096 F 
ATOM      9  I   UNL d   1       1.231   5.990   5.620  0.00  0.00    -0.060 I 
ATOM     10  F2  UNL d   1       4.311   5.207   6.000  0.00  0.00    -0.096 F 
ATOM     11  F3  UNL d   1       5.996   3.739   4.469  0.00  0.00    -0.097 F 
ATOM     12  F4  UNL d   1       5.125   2.628   2.135  0.00  0.00    -0.092 F 
ENDROOT
TORSDOF 0
ENDMDL
