MODEL 1
REMARK minimizedAffinity 18.7306347
REMARK minimizedRMSD -1
REMARK  0 active torsions:
REMARK  status: ('A' for Active; 'I' for Inactive)
ROOT
ATOM      1  C   UNL d   1      -1.810  -1.271  -0.653  0.00  0.00     0.124 A 
ATOM      2  C1  UNL d   1      -1.682  -1.207  -2.034  0.00  0.00     0.062 A 
ATOM      3  C2  UNL d   1      -0.420  -1.162  -2.619  0.00  0.00     0.162 A 
ATOM      4  C3  UNL d   1       0.725  -1.182  -1.823  0.00  0.00    -0.034 A 
ATOM      5  C4  UNL d   1       0.589  -1.246  -0.435  0.00  0.00     0.162 A 
ATOM      6  C5  UNL d   1      -0.675  -1.291   0.145  0.00  0.00     0.062 A 
ATOM      7  F   UNL d   1      -0.796  -1.353   1.479  0.00  0.00    -0.097 F 
ATOM      8  F1  UNL d   1       1.669  -1.268   0.360  0.00  0.00    -0.096 F 
ATOM      9  I   UNL d   1       2.614  -1.115  -2.694  0.00  0.00    -0.060 I 
ATOM     10  F2  UNL d   1      -0.327  -1.099  -3.955  0.00  0.00    -0.096 F 
ATOM     11  F3  UNL d   1      -2.778  -1.186  -2.807  0.00  0.00    -0.097 F 
ATOM     12  F4  UNL d   1      -3.026  -1.313  -0.093  0.00  0.00    -0.092 F 
ENDROOT
TORSDOF 0
ENDMDL
