MODEL 1
REMARK minimizedAffinity 15.1809988
REMARK minimizedRMSD -1
REMARK  0 active torsions:
REMARK  status: ('A' for Active; 'I' for Inactive)
ROOT
ATOM      1  C   UNL d   1       1.216  -1.075   4.387  0.00  0.00     0.124 A 
ATOM      2  C1  UNL d   1       1.922  -0.940   3.200  0.00  0.00     0.062 A 
ATOM      3  C2  UNL d   1       1.263  -1.047   1.978  0.00  0.00     0.162 A 
ATOM      4  C3  UNL d   1      -0.110  -1.290   1.938  0.00  0.00    -0.034 A 
ATOM      5  C4  UNL d   1      -0.812  -1.426   3.136  0.00  0.00     0.162 A 
ATOM      6  C5  UNL d   1      -0.150  -1.318   4.355  0.00  0.00     0.062 A 
ATOM      7  F   UNL d   1      -0.833  -1.450   5.501  0.00  0.00    -0.097 F 
ATOM      8  F1  UNL d   1      -2.133  -1.661   3.134  0.00  0.00    -0.096 F 
ATOM      9  I   UNL d   1      -1.098  -1.451   0.113  0.00  0.00    -0.060 I 
ATOM     10  F2  UNL d   1       1.970  -0.912   0.846  0.00  0.00    -0.096 F 
ATOM     11  F3  UNL d   1       3.242  -0.706   3.229  0.00  0.00    -0.097 F 
ATOM     12  F4  UNL d   1       1.853  -0.973   5.561  0.00  0.00    -0.092 F 
ENDROOT
TORSDOF 0
ENDMDL
