MODEL 1
REMARK minimizedAffinity 19.9445744
REMARK minimizedRMSD -1
REMARK  0 active torsions:
REMARK  status: ('A' for Active; 'I' for Inactive)
ROOT
ATOM      1  C   UNL d   1      -1.519  -1.135   0.127  0.00  0.00     0.124 A 
ATOM      2  C1  UNL d   1      -0.354  -1.267   0.870  0.00  0.00     0.062 A 
ATOM      3  C2  UNL d   1       0.887  -1.117   0.258  0.00  0.00     0.162 A 
ATOM      4  C3  UNL d   1       0.970  -0.832  -1.105  0.00  0.00    -0.034 A 
ATOM      5  C4  UNL d   1      -0.207  -0.702  -1.846  0.00  0.00     0.162 A 
ATOM      6  C5  UNL d   1      -1.445  -0.853  -1.229  0.00  0.00     0.062 A 
ATOM      7  F   UNL d   1      -2.569  -0.725  -1.949  0.00  0.00    -0.097 F 
ATOM      8  F1  UNL d   1      -0.163  -0.428  -3.158  0.00  0.00    -0.096 F 
ATOM      9  I   UNL d   1       2.823  -0.607  -2.024  0.00  0.00    -0.060 I 
ATOM     10  F2  UNL d   1       1.996  -1.250   1.000  0.00  0.00    -0.096 F 
ATOM     11  F3  UNL d   1      -0.424  -1.541   2.181  0.00  0.00    -0.097 F 
ATOM     12  F4  UNL d   1      -2.712  -1.281   0.718  0.00  0.00    -0.092 F 
ENDROOT
TORSDOF 0
ENDMDL
