MODEL 1
REMARK minimizedAffinity 26.3680668
REMARK minimizedRMSD -1
REMARK  0 active torsions:
REMARK  status: ('A' for Active; 'I' for Inactive)
ROOT
ATOM      1  C   UNL d   1       4.141  -0.664  -4.160  0.00  0.00     0.124 A 
ATOM      2  C1  UNL d   1       3.192  -0.793  -3.155  0.00  0.00     0.062 A 
ATOM      3  C2  UNL d   1       3.184   0.094  -2.082  0.00  0.00     0.162 A 
ATOM      4  C3  UNL d   1       4.126   1.119  -2.009  0.00  0.00    -0.034 A 
ATOM      5  C4  UNL d   1       5.078   1.242  -3.024  0.00  0.00     0.162 A 
ATOM      6  C5  UNL d   1       5.082   0.353  -4.093  0.00  0.00     0.062 A 
ATOM      7  F   UNL d   1       5.999   0.480  -5.064  0.00  0.00    -0.097 F 
ATOM      8  F1  UNL d   1       5.998   2.217  -2.985  0.00  0.00    -0.096 F 
ATOM      9  I   UNL d   1       4.117   2.448  -0.407  0.00  0.00    -0.060 I 
ATOM     10  F2  UNL d   1       2.256  -0.055  -1.125  0.00  0.00    -0.096 F 
ATOM     11  F3  UNL d   1       2.282  -1.776  -3.216  0.00  0.00    -0.097 F 
ATOM     12  F4  UNL d   1       4.148  -1.520  -5.190  0.00  0.00    -0.092 F 
ENDROOT
TORSDOF 0
ENDMDL
