MODEL 1
REMARK minimizedAffinity 21.6288757
REMARK minimizedRMSD -1
REMARK  0 active torsions:
REMARK  status: ('A' for Active; 'I' for Inactive)
ROOT
ATOM      1  C   UNL d   1       3.218   2.247  -0.218  0.00  0.00     0.124 A 
ATOM      2  C1  UNL d   1       4.232   3.027  -0.758  0.00  0.00     0.062 A 
ATOM      3  C2  UNL d   1       5.027   2.528  -1.785  0.00  0.00     0.162 A 
ATOM      4  C3  UNL d   1       4.812   1.242  -2.281  0.00  0.00    -0.034 A 
ATOM      5  C4  UNL d   1       3.791   0.463  -1.732  0.00  0.00     0.162 A 
ATOM      6  C5  UNL d   1       2.998   0.967  -0.706  0.00  0.00     0.062 A 
ATOM      7  F   UNL d   1       2.019   0.212  -0.186  0.00  0.00    -0.097 F 
ATOM      8  F1  UNL d   1       3.556  -0.777  -2.185  0.00  0.00    -0.096 F 
ATOM      9  I   UNL d   1       5.999   0.491  -3.816  0.00  0.00    -0.060 I 
ATOM     10  F2  UNL d   1       6.000   3.303  -2.287  0.00  0.00    -0.096 F 
ATOM     11  F3  UNL d   1       4.446   4.264  -0.288  0.00  0.00    -0.097 F 
ATOM     12  F4  UNL d   1       2.454   2.730   0.770  0.00  0.00    -0.092 F 
ENDROOT
TORSDOF 0
ENDMDL
