MODEL 1
REMARK minimizedAffinity 13.3289108
REMARK minimizedRMSD -1
REMARK  0 active torsions:
REMARK  status: ('A' for Active; 'I' for Inactive)
ROOT
ATOM      1  C   UNL d   1      -1.639  -2.604  -2.214  0.00  0.00     0.124 A 
ATOM      2  C1  UNL d   1      -1.080  -3.552  -1.369  0.00  0.00     0.062 A 
ATOM      3  C2  UNL d   1      -1.120  -3.372   0.011  0.00  0.00     0.162 A 
ATOM      4  C3  UNL d   1      -1.723  -2.238   0.555  0.00  0.00    -0.034 A 
ATOM      5  C4  UNL d   1      -2.283  -1.287  -0.302  0.00  0.00     0.162 A 
ATOM      6  C5  UNL d   1      -2.239  -1.472  -1.680  0.00  0.00     0.062 A 
ATOM      7  F   UNL d   1      -2.780  -0.555  -2.494  0.00  0.00    -0.097 F 
ATOM      8  F1  UNL d   1      -2.870  -0.185   0.188  0.00  0.00    -0.096 F 
ATOM      9  I   UNL d   1      -1.786  -1.964   2.617  0.00  0.00    -0.060 I 
ATOM     10  F2  UNL d   1      -0.572  -4.305   0.803  0.00  0.00    -0.096 F 
ATOM     11  F3  UNL d   1      -0.498  -4.646  -1.882  0.00  0.00    -0.097 F 
ATOM     12  F4  UNL d   1      -1.597  -2.779  -3.541  0.00  0.00    -0.092 F 
ENDROOT
TORSDOF 0
ENDMDL
