MODEL 1
REMARK minimizedAffinity 14.8480396
REMARK minimizedRMSD -1
REMARK  0 active torsions:
REMARK  status: ('A' for Active; 'I' for Inactive)
ROOT
ATOM      1  C   UNL d   1      -1.676  -1.566  -1.449  0.00  0.00     0.124 A 
ATOM      2  C1  UNL d   1      -2.781  -0.839  -1.027  0.00  0.00     0.062 A 
ATOM      3  C2  UNL d   1      -2.946   0.482  -1.431  0.00  0.00     0.162 A 
ATOM      4  C3  UNL d   1      -2.004   1.086  -2.264  0.00  0.00    -0.034 A 
ATOM      5  C4  UNL d   1      -0.895   0.349  -2.683  0.00  0.00     0.162 A 
ATOM      6  C5  UNL d   1      -0.735  -0.971  -2.276  0.00  0.00     0.062 A 
ATOM      7  F   UNL d   1       0.333  -1.671  -2.685  0.00  0.00    -0.097 F 
ATOM      8  F1  UNL d   1       0.030   0.899  -3.484  0.00  0.00    -0.096 F 
ATOM      9  I   UNL d   1      -2.247   3.062  -2.871  0.00  0.00    -0.060 I 
ATOM     10  F2  UNL d   1      -4.023   1.160  -1.008  0.00  0.00    -0.096 F 
ATOM     11  F3  UNL d   1      -3.692  -1.411  -0.226  0.00  0.00    -0.097 F 
ATOM     12  F4  UNL d   1      -1.520  -2.837  -1.057  0.00  0.00    -0.092 F 
ENDROOT
TORSDOF 0
ENDMDL
