MODEL 1
REMARK minimizedAffinity -0.500367165
REMARK minimizedRMSD -1
REMARK  0 active torsions:
REMARK  status: ('A' for Active; 'I' for Inactive)
ROOT
ATOM      1  C   UNL d   1      -2.642  -0.930  -0.063  0.00  0.00     0.124 A 
ATOM      2  C1  UNL d   1      -1.769  -1.117   1.000  0.00  0.00     0.062 A 
ATOM      3  C2  UNL d   1      -0.506  -0.533   0.978  0.00  0.00     0.162 A 
ATOM      4  C3  UNL d   1      -0.108   0.245  -0.109  0.00  0.00    -0.034 A 
ATOM      5  C4  UNL d   1      -0.992   0.428  -1.174  0.00  0.00     0.162 A 
ATOM      6  C5  UNL d   1      -2.253  -0.158  -1.148  0.00  0.00     0.062 A 
ATOM      7  F   UNL d   1      -3.096   0.024  -2.175  0.00  0.00    -0.097 F 
ATOM      8  F1  UNL d   1      -0.642   1.171  -2.235  0.00  0.00    -0.096 F 
ATOM      9  I   UNL d   1       1.780   1.121  -0.144  0.00  0.00    -0.060 I 
ATOM     10  F2  UNL d   1       0.318  -0.731   2.019  0.00  0.00    -0.096 F 
ATOM     11  F3  UNL d   1      -2.142  -1.863   2.049  0.00  0.00    -0.097 F 
ATOM     12  F4  UNL d   1      -3.857  -1.494  -0.040  0.00  0.00    -0.092 F 
ENDROOT
TORSDOF 0
ENDMDL
