MODEL 1
REMARK minimizedAffinity 1.37123466
REMARK minimizedRMSD -1
REMARK  0 active torsions:
REMARK  status: ('A' for Active; 'I' for Inactive)
ROOT
ATOM      1  C   UNL d   1       1.747  -0.555  -0.195  0.00  0.00     0.124 A 
ATOM      2  C1  UNL d   1       1.036  -0.056  -1.277  0.00  0.00     0.062 A 
ATOM      3  C2  UNL d   1      -0.349  -0.186  -1.325  0.00  0.00     0.162 A 
ATOM      4  C3  UNL d   1      -1.033  -0.819  -0.287  0.00  0.00    -0.034 A 
ATOM      5  C4  UNL d   1      -0.311  -1.319   0.798  0.00  0.00     0.162 A 
ATOM      6  C5  UNL d   1       1.073  -1.186   0.841  0.00  0.00     0.062 A 
ATOM      7  F   UNL d   1       1.758  -1.670   1.888  0.00  0.00    -0.097 F 
ATOM      8  F1  UNL d   1      -0.937  -1.933   1.813  0.00  0.00    -0.096 F 
ATOM      9  I   UNL d   1      -3.104  -1.016  -0.356  0.00  0.00    -0.060 I 
ATOM     10  F2  UNL d   1      -1.010   0.306  -2.383  0.00  0.00    -0.096 F 
ATOM     11  F3  UNL d   1       1.685   0.554  -2.280  0.00  0.00    -0.097 F 
ATOM     12  F4  UNL d   1       3.079  -0.429  -0.151  0.00  0.00    -0.092 F 
ENDROOT
TORSDOF 0
ENDMDL
