MODEL 1
REMARK minimizedAffinity 11.6257067
REMARK minimizedRMSD -1
REMARK  0 active torsions:
REMARK  status: ('A' for Active; 'I' for Inactive)
ROOT
ATOM      1  C   UNL d   1       5.863   1.468  -0.280  0.00  0.00     0.124 A 
ATOM      2  C1  UNL d   1       5.907   1.925  -1.589  0.00  0.00     0.062 A 
ATOM      3  C2  UNL d   1       5.858   1.023  -2.648  0.00  0.00     0.162 A 
ATOM      4  C3  UNL d   1       5.763  -0.347  -2.401  0.00  0.00    -0.034 A 
ATOM      5  C4  UNL d   1       5.720  -0.799  -1.081  0.00  0.00     0.162 A 
ATOM      6  C5  UNL d   1       5.770   0.107  -0.027  0.00  0.00     0.062 A 
ATOM      7  F   UNL d   1       5.727  -0.337   1.238  0.00  0.00    -0.097 F 
ATOM      8  F1  UNL d   1       5.629  -2.109  -0.808  0.00  0.00    -0.096 F 
ATOM      9  I   UNL d   1       5.689  -1.700  -3.981  0.00  0.00    -0.060 I 
ATOM     10  F2  UNL d   1       5.902   1.493  -3.903  0.00  0.00    -0.096 F 
ATOM     11  F3  UNL d   1       5.998   3.240  -1.836  0.00  0.00    -0.097 F 
ATOM     12  F4  UNL d   1       5.912   2.339   0.737  0.00  0.00    -0.092 F 
ENDROOT
TORSDOF 0
ENDMDL
