MODEL 1
REMARK minimizedAffinity -0.716008842
REMARK minimizedRMSD -1
REMARK  0 active torsions:
REMARK  status: ('A' for Active; 'I' for Inactive)
ROOT
ATOM      1  C   UNL d   1      -3.037  -2.370   1.119  0.00  0.00     0.124 A 
ATOM      2  C1  UNL d   1      -3.258  -2.368  -0.252  0.00  0.00     0.062 A 
ATOM      3  C2  UNL d   1      -2.514  -1.531  -1.079  0.00  0.00     0.162 A 
ATOM      4  C3  UNL d   1      -1.541  -0.690  -0.539  0.00  0.00    -0.034 A 
ATOM      5  C4  UNL d   1      -1.325  -0.697   0.840  0.00  0.00     0.162 A 
ATOM      6  C5  UNL d   1      -2.071  -1.535   1.663  0.00  0.00     0.062 A 
ATOM      7  F   UNL d   1      -1.856  -1.536   2.987  0.00  0.00    -0.097 F 
ATOM      8  F1  UNL d   1      -0.398   0.099   1.393  0.00  0.00    -0.096 F 
ATOM      9  I   UNL d   1      -0.428   0.562  -1.773  0.00  0.00    -0.060 I 
ATOM     10  F2  UNL d   1      -2.749  -1.550  -2.400  0.00  0.00    -0.096 F 
ATOM     11  F3  UNL d   1      -4.191  -3.172  -0.780  0.00  0.00    -0.097 F 
ATOM     12  F4  UNL d   1      -3.754  -3.175   1.913  0.00  0.00    -0.092 F 
ENDROOT
TORSDOF 0
ENDMDL
