MODEL 1
REMARK minimizedAffinity 0.294874877
REMARK minimizedRMSD -1
REMARK  0 active torsions:
REMARK  status: ('A' for Active; 'I' for Inactive)
ROOT
ATOM      1  C   UNL d   1      -1.851  -0.202   0.830  0.00  0.00     0.124 A 
ATOM      2  C1  UNL d   1      -2.581  -0.367  -0.339  0.00  0.00     0.062 A 
ATOM      3  C2  UNL d   1      -1.968  -0.196  -1.577  0.00  0.00     0.162 A 
ATOM      4  C3  UNL d   1      -0.616   0.142  -1.652  0.00  0.00    -0.034 A 
ATOM      5  C4  UNL d   1       0.111   0.307  -0.472  0.00  0.00     0.162 A 
ATOM      6  C5  UNL d   1      -0.507   0.135   0.762  0.00  0.00     0.062 A 
ATOM      7  F   UNL d   1       0.200   0.295   1.891  0.00  0.00    -0.097 F 
ATOM      8  F1  UNL d   1       1.412   0.631  -0.508  0.00  0.00    -0.096 F 
ATOM      9  I   UNL d   1       0.304   0.398  -3.501  0.00  0.00    -0.060 I 
ATOM     10  F2  UNL d   1      -2.697  -0.362  -2.691  0.00  0.00    -0.096 F 
ATOM     11  F3  UNL d   1      -3.880  -0.691  -0.277  0.00  0.00    -0.097 F 
ATOM     12  F4  UNL d   1      -2.444  -0.366   2.019  0.00  0.00    -0.092 F 
ENDROOT
TORSDOF 0
ENDMDL
