MODEL 1
REMARK minimizedAffinity 1.52627361
REMARK minimizedRMSD -1
REMARK  0 active torsions:
REMARK  status: ('A' for Active; 'I' for Inactive)
ROOT
ATOM      1  C   UNL d   1      -1.162  -0.752   1.077  0.00  0.00     0.124 A 
ATOM      2  C1  UNL d   1       0.169  -0.414   0.873  0.00  0.00     0.062 A 
ATOM      3  C2  UNL d   1       0.650  -0.211  -0.417  0.00  0.00     0.162 A 
ATOM      4  C3  UNL d   1      -0.200  -0.344  -1.514  0.00  0.00    -0.034 A 
ATOM      5  C4  UNL d   1      -1.537  -0.685  -1.302  0.00  0.00     0.162 A 
ATOM      6  C5  UNL d   1      -2.014  -0.887  -0.011  0.00  0.00     0.062 A 
ATOM      7  F   UNL d   1      -3.300  -1.213   0.183  0.00  0.00    -0.097 F 
ATOM      8  F1  UNL d   1      -2.382  -0.821  -2.335  0.00  0.00    -0.096 F 
ATOM      9  I   UNL d   1       0.516  -0.041  -3.445  0.00  0.00    -0.060 I 
ATOM     10  F2  UNL d   1       1.941   0.114  -0.583  0.00  0.00    -0.096 F 
ATOM     11  F3  UNL d   1       0.994  -0.284   1.922  0.00  0.00    -0.097 F 
ATOM     12  F4  UNL d   1      -1.623  -0.948   2.319  0.00  0.00    -0.092 F 
ENDROOT
TORSDOF 0
ENDMDL
