MODEL 1
REMARK minimizedAffinity 3.09927392
REMARK minimizedRMSD -1
REMARK  0 active torsions:
REMARK  status: ('A' for Active; 'I' for Inactive)
ROOT
ATOM      1  C   UNL d   1      -0.735   0.018  -1.680  0.00  0.00     0.124 A 
ATOM      2  C1  UNL d   1      -1.778  -0.892  -1.578  0.00  0.00     0.062 A 
ATOM      3  C2  UNL d   1      -2.042  -1.521  -0.365  0.00  0.00     0.162 A 
ATOM      4  C3  UNL d   1      -1.261  -1.242   0.757  0.00  0.00    -0.034 A 
ATOM      5  C4  UNL d   1      -0.213  -0.327   0.646  0.00  0.00     0.162 A 
ATOM      6  C5  UNL d   1       0.047   0.299  -0.568  0.00  0.00     0.062 A 
ATOM      7  F   UNL d   1       1.056   1.177  -0.665  0.00  0.00    -0.097 F 
ATOM      8  F1  UNL d   1       0.558  -0.036   1.705  0.00  0.00    -0.096 F 
ATOM      9  I   UNL d   1      -1.653  -2.181   2.573  0.00  0.00    -0.060 I 
ATOM     10  F2  UNL d   1      -3.057  -2.395  -0.295  0.00  0.00    -0.096 F 
ATOM     11  F3  UNL d   1      -2.534  -1.166  -2.651  0.00  0.00    -0.097 F 
ATOM     12  F4  UNL d   1      -0.483   0.621  -2.849  0.00  0.00    -0.092 F 
ENDROOT
TORSDOF 0
ENDMDL
