MODEL 1
REMARK minimizedAffinity 6.25860214
REMARK minimizedRMSD -1
REMARK  0 active torsions:
REMARK  status: ('A' for Active; 'I' for Inactive)
ROOT
ATOM      1  C   UNL d   1      -0.980  -1.953   1.172  0.00  0.00     0.124 A 
ATOM      2  C1  UNL d   1      -2.019  -1.746   0.275  0.00  0.00     0.062 A 
ATOM      3  C2  UNL d   1      -1.877  -0.825  -0.760  0.00  0.00     0.162 A 
ATOM      4  C3  UNL d   1      -0.690  -0.105  -0.903  0.00  0.00    -0.034 A 
ATOM      5  C4  UNL d   1       0.349  -0.319   0.004  0.00  0.00     0.162 A 
ATOM      6  C5  UNL d   1       0.202  -1.240   1.036  0.00  0.00     0.062 A 
ATOM      7  F   UNL d   1       1.207  -1.438   1.902  0.00  0.00    -0.097 F 
ATOM      8  F1  UNL d   1       1.503   0.356  -0.105  0.00  0.00    -0.096 F 
ATOM      9  I   UNL d   1      -0.474   1.272  -2.449  0.00  0.00    -0.060 I 
ATOM     10  F2  UNL d   1      -2.896  -0.645  -1.612  0.00  0.00    -0.096 F 
ATOM     11  F3  UNL d   1      -3.162  -2.433   0.405  0.00  0.00    -0.097 F 
ATOM     12  F4  UNL d   1      -1.120  -2.838   2.167  0.00  0.00    -0.092 F 
ENDROOT
TORSDOF 0
ENDMDL
