MODEL 1
REMARK minimizedAffinity -2.57269645
REMARK minimizedRMSD -1
REMARK  0 active torsions:
REMARK  status: ('A' for Active; 'I' for Inactive)
ROOT
ATOM      1  C   UNL d   1      -0.819  -1.670   1.174  0.00  0.00     0.124 A 
ATOM      2  C1  UNL d   1       0.334  -0.916   1.009  0.00  0.00     0.062 A 
ATOM      3  C2  UNL d   1       0.493  -0.116  -0.119  0.00  0.00     0.162 A 
ATOM      4  C3  UNL d   1      -0.506  -0.065  -1.091  0.00  0.00    -0.034 A 
ATOM      5  C4  UNL d   1      -1.664  -0.826  -0.919  0.00  0.00     0.162 A 
ATOM      6  C5  UNL d   1      -1.817  -1.624   0.210  0.00  0.00     0.062 A 
ATOM      7  F   UNL d   1      -2.932  -2.352   0.368  0.00  0.00    -0.097 F 
ATOM      8  F1  UNL d   1      -2.644  -0.801  -1.834  0.00  0.00    -0.096 F 
ATOM      9  I   UNL d   1      -0.273   1.130  -2.779  0.00  0.00    -0.060 I 
ATOM     10  F2  UNL d   1       1.618   0.602  -0.252  0.00  0.00    -0.096 F 
ATOM     11  F3  UNL d   1       1.300  -0.959   1.938  0.00  0.00    -0.097 F 
ATOM     12  F4  UNL d   1      -0.969  -2.439   2.260  0.00  0.00    -0.092 F 
ENDROOT
TORSDOF 0
ENDMDL
