MODEL 1
REMARK minimizedAffinity -1.33343053
REMARK minimizedRMSD -1
REMARK  0 active torsions:
REMARK  status: ('A' for Active; 'I' for Inactive)
ROOT
ATOM      1  C   UNL d   1      -0.452   0.188  -0.850  0.00  0.00     0.124 A 
ATOM      2  C1  UNL d   1      -1.674  -0.431  -0.626  0.00  0.00     0.062 A 
ATOM      3  C2  UNL d   1      -1.816  -1.343   0.416  0.00  0.00     0.162 A 
ATOM      4  C3  UNL d   1      -0.733  -1.642   1.242  0.00  0.00    -0.034 A 
ATOM      5  C4  UNL d   1       0.493  -1.016   1.010  0.00  0.00     0.162 A 
ATOM      6  C5  UNL d   1       0.630  -0.105  -0.032  0.00  0.00     0.062 A 
ATOM      7  F   UNL d   1       1.812   0.491  -0.247  0.00  0.00    -0.097 F 
ATOM      8  F1  UNL d   1       1.555  -1.280   1.786  0.00  0.00    -0.096 F 
ATOM      9  I   UNL d   1      -0.941  -3.005   2.801  0.00  0.00    -0.060 I 
ATOM     10  F2  UNL d   1      -3.009  -1.926   0.609  0.00  0.00    -0.096 F 
ATOM     11  F3  UNL d   1      -2.721  -0.151  -1.415  0.00  0.00    -0.097 F 
ATOM     12  F4  UNL d   1      -0.318   1.064  -1.854  0.00  0.00    -0.092 F 
ENDROOT
TORSDOF 0
ENDMDL
