MODEL 1
REMARK minimizedAffinity 19.4559059
REMARK minimizedRMSD -1
REMARK  0 active torsions:
REMARK  status: ('A' for Active; 'I' for Inactive)
ROOT
ATOM      1  C2' OXE d   1      -2.949   0.849   3.573  0.00  0.00     0.078 C 
ATOM      2  C1' OXE d   1      -5.424  -0.268   2.862  0.00  0.00     0.078 C 
ATOM      3  C1  OXE d   1      -4.254  -0.506   1.940  0.00  0.00    -0.078 A 
ATOM      4  C2  OXE d   1      -3.058   0.084   2.272  0.00  0.00    -0.078 A 
ATOM      5  C3  OXE d   1      -1.934  -0.148   1.485  0.00  0.00     0.003 A 
ATOM      6  C4  OXE d   1      -2.046  -0.849   0.278  0.00  0.00    -0.002 A 
ATOM      7  C5  OXE d   1      -3.264  -1.424  -0.099  0.00  0.00    -0.002 A 
ATOM      8  C6  OXE d   1      -4.365  -1.298   0.740  0.00  0.00     0.003 A 
ENDROOT
TORSDOF 0
ENDMDL
