MODEL 1
REMARK minimizedAffinity 26.4551773
REMARK minimizedRMSD -1
REMARK  0 active torsions:
REMARK  status: ('A' for Active; 'I' for Inactive)
ROOT
ATOM      1  C2' OXE d   1       0.197  -0.232  -1.885  0.00  0.00     0.078 C 
ATOM      2  C1' OXE d   1      -1.833  -1.665  -0.579  0.00  0.00     0.078 C 
ATOM      3  C1  OXE d   1      -0.932  -2.423  -1.523  0.00  0.00    -0.078 A 
ATOM      4  C2  OXE d   1       0.029  -1.704  -2.193  0.00  0.00    -0.078 A 
ATOM      5  C3  OXE d   1       0.921  -2.363  -3.034  0.00  0.00     0.003 A 
ATOM      6  C4  OXE d   1       0.752  -3.723  -3.321  0.00  0.00    -0.002 A 
ATOM      7  C5  OXE d   1      -0.245  -4.465  -2.680  0.00  0.00    -0.002 A 
ATOM      8  C6  OXE d   1      -1.067  -3.841  -1.748  0.00  0.00     0.003 A 
ENDROOT
TORSDOF 0
ENDMDL
