MODEL 1
REMARK minimizedAffinity 12.8639927
REMARK minimizedRMSD -1
REMARK  0 active torsions:
REMARK  status: ('A' for Active; 'I' for Inactive)
ROOT
ATOM      1  C2' OXE d   1       1.715   1.253  -1.533  0.00  0.00     0.078 C 
ATOM      2  C1' OXE d   1       3.182  -0.949  -0.595  0.00  0.00     0.078 C 
ATOM      3  C1  OXE d   1       2.161  -1.194  -1.678  0.00  0.00    -0.078 A 
ATOM      4  C2  OXE d   1       1.416  -0.119  -2.098  0.00  0.00    -0.078 A 
ATOM      5  C3  OXE d   1       0.499  -0.278  -3.133  0.00  0.00     0.003 A 
ATOM      6  C4  OXE d   1       0.220  -1.552  -3.643  0.00  0.00    -0.002 A 
ATOM      7  C5  OXE d   1       0.940  -2.667  -3.201  0.00  0.00    -0.002 A 
ATOM      8  C6  OXE d   1       1.942  -2.498  -2.252  0.00  0.00     0.003 A 
ENDROOT
TORSDOF 0
ENDMDL
