MODEL 1
REMARK minimizedAffinity 18.6228828
REMARK minimizedRMSD -1
REMARK  0 active torsions:
REMARK  status: ('A' for Active; 'I' for Inactive)
ROOT
ATOM      1  C2' OXE d   1      -4.222   4.947   2.275  0.00  0.00     0.078 C 
ATOM      2  C1' OXE d   1      -1.620   5.996   2.157  0.00  0.00     0.078 C 
ATOM      3  C1  OXE d   1      -2.215   5.741   3.520  0.00  0.00    -0.078 A 
ATOM      4  C2  OXE d   1      -3.506   5.272   3.568  0.00  0.00    -0.078 A 
ATOM      5  C3  OXE d   1      -4.083   4.968   4.798  0.00  0.00     0.003 A 
ATOM      6  C4  OXE d   1      -3.418   5.280   5.990  0.00  0.00    -0.002 A 
ATOM      7  C5  OXE d   1      -2.118   5.796   5.963  0.00  0.00    -0.002 A 
ATOM      8  C6  OXE d   1      -1.487   5.992   4.739  0.00  0.00     0.003 A 
ENDROOT
TORSDOF 0
ENDMDL
