MODEL 1
REMARK minimizedAffinity 19.7728863
REMARK minimizedRMSD -1
REMARK  0 active torsions:
REMARK  status: ('A' for Active; 'I' for Inactive)
ROOT
ATOM      1  C2' OXE d   1       3.837  -0.933  -0.830  0.00  0.00     0.078 C 
ATOM      2  C1' OXE d   1       4.675   0.946  -2.740  0.00  0.00     0.078 C 
ATOM      3  C1  OXE d   1       3.200   0.857  -2.441  0.00  0.00    -0.078 A 
ATOM      4  C2  OXE d   1       2.794  -0.097  -1.539  0.00  0.00    -0.078 A 
ATOM      5  C3  OXE d   1       1.450  -0.184  -1.186  0.00  0.00     0.003 A 
ATOM      6  C4  OXE d   1       0.490   0.586  -1.854  0.00  0.00    -0.002 A 
ATOM      7  C5  OXE d   1       0.878   1.536  -2.804  0.00  0.00    -0.002 A 
ATOM      8  C6  OXE d   1       2.230   1.713  -3.078  0.00  0.00     0.003 A 
ENDROOT
TORSDOF 0
ENDMDL
