MODEL 1
REMARK minimizedAffinity 19.8917694
REMARK minimizedRMSD -1
REMARK  0 active torsions:
REMARK  status: ('A' for Active; 'I' for Inactive)
ROOT
ATOM      1  C2' OXE d   1      -0.962  -1.646  -0.153  0.00  0.00     0.078 C 
ATOM      2  C1' OXE d   1      -3.587  -0.715  -0.506  0.00  0.00     0.078 C 
ATOM      3  C1  OXE d   1      -2.895  -0.392   0.795  0.00  0.00    -0.078 A 
ATOM      4  C2  OXE d   1      -1.628  -0.892   0.978  0.00  0.00    -0.078 A 
ATOM      5  C3  OXE d   1      -0.923  -0.578   2.137  0.00  0.00     0.003 A 
ATOM      6  C4  OXE d   1      -1.550   0.112   3.182  0.00  0.00    -0.002 A 
ATOM      7  C5  OXE d   1      -2.854   0.595   3.032  0.00  0.00    -0.002 A 
ATOM      8  C6  OXE d   1      -3.524   0.389   1.831  0.00  0.00     0.003 A 
ENDROOT
TORSDOF 0
ENDMDL
