MODEL 1
REMARK minimizedAffinity 11.0595398
REMARK minimizedRMSD -1
REMARK  0 active torsions:
REMARK  status: ('A' for Active; 'I' for Inactive)
ROOT
ATOM      1  C2' OXE d   1       3.737   4.795   1.857  0.00  0.00     0.078 C 
ATOM      2  C1' OXE d   1       1.311   5.978   1.087  0.00  0.00     0.078 C 
ATOM      3  C1  OXE d   1       2.331   5.702   0.012  0.00  0.00    -0.078 A 
ATOM      4  C2  OXE d   1       3.534   5.166   0.404  0.00  0.00    -0.078 A 
ATOM      5  C3  OXE d   1       4.490   4.841  -0.555  0.00  0.00     0.003 A 
ATOM      6  C4  OXE d   1       4.298   5.197  -1.895  0.00  0.00    -0.002 A 
ATOM      7  C5  OXE d   1       3.096   5.780  -2.310  0.00  0.00    -0.002 A 
ATOM      8  C6  OXE d   1       2.088   6.000  -1.378  0.00  0.00     0.003 A 
ENDROOT
TORSDOF 0
ENDMDL
