MODEL 1
REMARK minimizedAffinity -0.274989933
REMARK minimizedRMSD -1
REMARK  0 active torsions:
REMARK  status: ('A' for Active; 'I' for Inactive)
ROOT
ATOM      1  C2' OXE d   1       3.809   4.876   1.875  0.00  0.00     0.078 C 
ATOM      2  C1' OXE d   1       1.563   5.630   0.370  0.00  0.00     0.078 C 
ATOM      3  C1  OXE d   1       2.903   5.624  -0.322  0.00  0.00    -0.078 A 
ATOM      4  C2  OXE d   1       4.003   5.298   0.434  0.00  0.00    -0.078 A 
ATOM      5  C3  OXE d   1       5.256   5.224  -0.168  0.00  0.00     0.003 A 
ATOM      6  C4  OXE d   1       5.428   5.626  -1.498  0.00  0.00    -0.002 A 
ATOM      7  C5  OXE d   1       4.326   5.999  -2.275  0.00  0.00    -0.002 A 
ATOM      8  C6  OXE d   1       3.054   5.963  -1.715  0.00  0.00     0.003 A 
ENDROOT
TORSDOF 0
ENDMDL
