MODEL 1
REMARK minimizedAffinity 12.2060747
REMARK minimizedRMSD -1
REMARK  0 active torsions:
REMARK  status: ('A' for Active; 'I' for Inactive)
ROOT
ATOM      1  C2' OXE d   1      -3.166   2.174   4.114  0.00  0.00     0.078 C 
ATOM      2  C1' OXE d   1      -4.890   1.484   2.009  0.00  0.00     0.078 C 
ATOM      3  C1  OXE d   1      -5.010   0.711   3.299  0.00  0.00    -0.078 A 
ATOM      4  C2  OXE d   1      -4.131   1.024   4.307  0.00  0.00    -0.078 A 
ATOM      5  C3  OXE d   1      -4.233   0.379   5.536  0.00  0.00     0.003 A 
ATOM      6  C4  OXE d   1      -5.122  -0.690   5.704  0.00  0.00    -0.002 A 
ATOM      7  C5  OXE d   1      -5.999  -1.051   4.676  0.00  0.00    -0.002 A 
ATOM      8  C6  OXE d   1      -5.986  -0.334   3.485  0.00  0.00     0.003 A 
ENDROOT
TORSDOF 0
ENDMDL
