MODEL 1
REMARK minimizedAffinity 21.8329105
REMARK minimizedRMSD -1
REMARK  0 active torsions:
REMARK  status: ('A' for Active; 'I' for Inactive)
ROOT
ATOM      1  C2' OXE d   1      -5.657   4.773   4.542  0.00  0.00     0.078 C 
ATOM      2  C1' OXE d   1      -4.028   2.527   4.111  0.00  0.00     0.078 C 
ATOM      3  C1  OXE d   1      -3.411   3.723   4.792  0.00  0.00    -0.078 A 
ATOM      4  C2  OXE d   1      -4.202   4.834   4.957  0.00  0.00    -0.078 A 
ATOM      5  C3  OXE d   1      -3.699   5.945   5.629  0.00  0.00     0.003 A 
ATOM      6  C4  OXE d   1      -2.350   5.998   6.000  0.00  0.00    -0.002 A 
ATOM      7  C5  OXE d   1      -1.517   4.892   5.805  0.00  0.00    -0.002 A 
ATOM      8  C6  OXE d   1      -2.041   3.734   5.243  0.00  0.00     0.003 A 
ENDROOT
TORSDOF 0
ENDMDL
