MODEL 1
REMARK minimizedAffinity 23.1310482
REMARK minimizedRMSD -1
REMARK  0 active torsions:
REMARK  status: ('A' for Active; 'I' for Inactive)
ROOT
ATOM      1  C2' OXE d   1      -0.193  -2.182  -3.148  0.00  0.00     0.078 C 
ATOM      2  C1' OXE d   1       1.895  -2.934  -1.428  0.00  0.00     0.078 C 
ATOM      3  C1  OXE d   1       1.663  -1.460  -1.652  0.00  0.00    -0.078 A 
ATOM      4  C2  OXE d   1       0.670  -1.102  -2.531  0.00  0.00    -0.078 A 
ATOM      5  C3  OXE d   1       0.379   0.244  -2.731  0.00  0.00     0.003 A 
ATOM      6  C4  OXE d   1       1.188   1.236  -2.164  0.00  0.00    -0.002 A 
ATOM      7  C5  OXE d   1       2.231   0.892  -1.297  0.00  0.00    -0.002 A 
ATOM      8  C6  OXE d   1       2.454  -0.447  -0.997  0.00  0.00     0.003 A 
ENDROOT
TORSDOF 0
ENDMDL
