MODEL 1
REMARK minimizedAffinity 0.955082953
REMARK minimizedRMSD -1
REMARK  0 active torsions:
REMARK  status: ('A' for Active; 'I' for Inactive)
ROOT
ATOM      1  C2' OXE d   1       6.000  -0.950   5.761  0.00  0.00     0.078 C 
ATOM      2  C1' OXE d   1       3.764  -1.110   4.071  0.00  0.00     0.078 C 
ATOM      3  C1  OXE d   1       4.339  -2.400   4.600  0.00  0.00    -0.078 A 
ATOM      4  C2  OXE d   1       5.461  -2.315   5.389  0.00  0.00    -0.078 A 
ATOM      5  C3  OXE d   1       6.000  -3.470   5.948  0.00  0.00     0.003 A 
ATOM      6  C4  OXE d   1       5.502  -4.729   5.590  0.00  0.00    -0.002 A 
ATOM      7  C5  OXE d   1       4.383  -4.840   4.757  0.00  0.00    -0.002 A 
ATOM      8  C6  OXE d   1       3.766  -3.686   4.289  0.00  0.00     0.003 A 
ENDROOT
TORSDOF 0
ENDMDL
