MODEL 1
REMARK minimizedAffinity 8.31121635
REMARK minimizedRMSD -1
REMARK  0 active torsions:
REMARK  status: ('A' for Active; 'I' for Inactive)
ROOT
ATOM      1  C2' OXE d   1       3.599  -1.576   4.435  0.00  0.00     0.078 C 
ATOM      2  C1' OXE d   1       5.949  -1.528   5.971  0.00  0.00     0.078 C 
ATOM      3  C1  OXE d   1       5.373  -2.874   5.608  0.00  0.00    -0.078 A 
ATOM      4  C2  OXE d   1       4.198  -2.888   4.896  0.00  0.00    -0.078 A 
ATOM      5  C3  OXE d   1       3.653  -4.102   4.489  0.00  0.00     0.003 A 
ATOM      6  C4  OXE d   1       4.207  -5.311   4.928  0.00  0.00    -0.002 A 
ATOM      7  C5  OXE d   1       5.382  -5.318   5.688  0.00  0.00    -0.002 A 
ATOM      8  C6  OXE d   1       5.999  -4.112   6.000  0.00  0.00     0.003 A 
ENDROOT
TORSDOF 0
ENDMDL
