MODEL 1
REMARK minimizedAffinity 6.38650036
REMARK minimizedRMSD -1
REMARK  0 active torsions:
REMARK  status: ('A' for Active; 'I' for Inactive)
ROOT
ATOM      1  C2' OXE d   1       3.608  -0.156  -0.907  0.00  0.00     0.078 C 
ATOM      2  C1' OXE d   1       1.536  -1.593  -2.141  0.00  0.00     0.078 C 
ATOM      3  C1  OXE d   1       1.529  -0.091  -2.278  0.00  0.00    -0.078 A 
ATOM      4  C2  OXE d   1       2.520   0.607  -1.632  0.00  0.00    -0.078 A 
ATOM      5  C3  OXE d   1       2.591   1.991  -1.771  0.00  0.00     0.003 A 
ATOM      6  C4  OXE d   1       1.576   2.690  -2.435  0.00  0.00    -0.002 A 
ATOM      7  C5  OXE d   1       0.536   2.000  -3.066  0.00  0.00    -0.002 A 
ATOM      8  C6  OXE d   1       0.521   0.610  -3.034  0.00  0.00     0.003 A 
ENDROOT
TORSDOF 0
ENDMDL
