MODEL 1
REMARK minimizedAffinity 15.1205845
REMARK minimizedRMSD -1
REMARK  0 active torsions:
REMARK  status: ('A' for Active; 'I' for Inactive)
ROOT
ATOM      1  C2' OXE d   1       5.957  -0.623   5.470  0.00  0.00     0.078 C 
ATOM      2  C1' OXE d   1       3.683  -1.036   3.877  0.00  0.00     0.078 C 
ATOM      3  C1  OXE d   1       4.289  -2.235   4.562  0.00  0.00    -0.078 A 
ATOM      4  C2  OXE d   1       5.429  -2.031   5.302  0.00  0.00    -0.078 A 
ATOM      5  C3  OXE d   1       5.997  -3.093   5.999  0.00  0.00     0.003 A 
ATOM      6  C4  OXE d   1       5.509  -4.395   5.830  0.00  0.00    -0.002 A 
ATOM      7  C5  OXE d   1       4.373  -4.631   5.049  0.00  0.00    -0.002 A 
ATOM      8  C6  OXE d   1       3.727  -3.558   4.444  0.00  0.00     0.003 A 
ENDROOT
TORSDOF 0
ENDMDL
