MODEL 1
REMARK minimizedAffinity 6.76712084
REMARK minimizedRMSD -1
REMARK  0 active torsions:
REMARK  status: ('A' for Active; 'I' for Inactive)
ROOT
ATOM      1  C2' OXE d   1      -1.958   5.999   3.220  0.00  0.00     0.078 C 
ATOM      2  C1' OXE d   1      -1.961   5.592   5.998  0.00  0.00     0.078 C 
ATOM      3  C1  OXE d   1      -3.295   5.673   5.297  0.00  0.00    -0.078 A 
ATOM      4  C2  OXE d   1      -3.284   5.920   3.945  0.00  0.00    -0.078 A 
ATOM      5  C3  OXE d   1      -4.485   5.950   3.241  0.00  0.00     0.003 A 
ATOM      6  C4  OXE d   1      -5.707   5.885   3.920  0.00  0.00    -0.002 A 
ATOM      7  C5  OXE d   1      -5.740   5.674   5.303  0.00  0.00    -0.002 A 
ATOM      8  C6  OXE d   1      -4.546   5.524   5.998  0.00  0.00     0.003 A 
ENDROOT
TORSDOF 0
ENDMDL
