MODEL 1
REMARK minimizedAffinity 0.462940723
REMARK minimizedRMSD -1
REMARK  0 active torsions:
REMARK  status: ('A' for Active; 'I' for Inactive)
ROOT
ATOM      1  C2' OXE d   1      -2.461   0.139  -0.817  0.00  0.00     0.078 C 
ATOM      2  C1' OXE d   1      -5.097   0.622  -1.653  0.00  0.00     0.078 C 
ATOM      3  C1  OXE d   1      -4.894  -0.031  -0.309  0.00  0.00    -0.078 A 
ATOM      4  C2  OXE d   1      -3.602  -0.307   0.071  0.00  0.00    -0.078 A 
ATOM      5  C3  OXE d   1      -3.356  -0.859   1.325  0.00  0.00     0.003 A 
ATOM      6  C4  OXE d   1      -4.418  -1.277   2.136  0.00  0.00    -0.002 A 
ATOM      7  C5  OXE d   1      -5.741  -1.043   1.750  0.00  0.00    -0.002 A 
ATOM      8  C6  OXE d   1      -5.995  -0.384   0.552  0.00  0.00     0.003 A 
ENDROOT
TORSDOF 0
ENDMDL
