MODEL 1
REMARK minimizedAffinity -0.431982189
REMARK minimizedRMSD -1
REMARK  0 active torsions:
REMARK  status: ('A' for Active; 'I' for Inactive)
ROOT
ATOM      1  C   UNL d   1       3.710  -3.335  -5.972  0.00  0.00     0.172 C 
ATOM      2  N   UNL d   1       4.521  -4.359  -5.355  0.00  0.00    -0.070 N 
ATOM      3  C1  UNL d   1       5.435  -5.149  -5.999  0.00  0.00    -0.004 A 
ATOM      4  C2  UNL d   1       5.995  -5.994  -5.065  0.00  0.00    -0.047 A 
ATOM      5  C3  UNL d   1       5.395  -5.702  -3.817  0.00  0.00    -0.047 A 
ATOM      6  C4  UNL d   1       4.486  -4.686  -4.025  0.00  0.00    -0.004 A 
ENDROOT
TORSDOF 0
ENDMDL
