MODEL 1
REMARK minimizedAffinity -0.889389098
REMARK minimizedRMSD -1
REMARK  0 active torsions:
REMARK  status: ('A' for Active; 'I' for Inactive)
ROOT
ATOM      1  C   UNL d   1       4.785  -2.439  -5.987  0.00  0.00     0.172 C 
ATOM      2  N   UNL d   1       5.054  -3.787  -5.545  0.00  0.00    -0.070 N 
ATOM      3  C1  UNL d   1       4.427  -4.917  -6.000  0.00  0.00    -0.004 A 
ATOM      4  C2  UNL d   1       4.965  -5.996  -5.333  0.00  0.00    -0.047 A 
ATOM      5  C3  UNL d   1       5.949  -5.498  -4.446  0.00  0.00    -0.047 A 
ATOM      6  C4  UNL d   1       5.983  -4.128  -4.597  0.00  0.00    -0.004 A 
ENDROOT
TORSDOF 0
ENDMDL
