MODEL 1
REMARK minimizedAffinity 1.14705169
REMARK minimizedRMSD -1
REMARK  0 active torsions:
REMARK  status: ('A' for Active; 'I' for Inactive)
ROOT
ATOM      1  C   UNL d   1       6.000  -5.636  -3.848  0.00  0.00     0.172 C 
ATOM      2  N   UNL d   1       5.048  -4.988  -4.719  0.00  0.00    -0.070 N 
ATOM      3  C1  UNL d   1       5.155  -3.715  -5.212  0.00  0.00    -0.004 A 
ATOM      4  C2  UNL d   1       4.051  -3.473  -6.000  0.00  0.00    -0.047 A 
ATOM      5  C3  UNL d   1       3.252  -4.641  -5.979  0.00  0.00    -0.047 A 
ATOM      6  C4  UNL d   1       3.893  -5.563  -5.179  0.00  0.00    -0.004 A 
ENDROOT
TORSDOF 0
ENDMDL
