MODEL 1
REMARK minimizedAffinity -0.825035512
REMARK minimizedRMSD -1
REMARK  0 active torsions:
REMARK  status: ('A' for Active; 'I' for Inactive)
ROOT
ATOM      1  C   UNL d   1       5.999  -5.102  -4.437  0.00  0.00     0.172 C 
ATOM      2  N   UNL d   1       5.029  -4.242  -5.071  0.00  0.00    -0.070 N 
ATOM      3  C1  UNL d   1       3.750  -4.595  -5.411  0.00  0.00    -0.004 A 
ATOM      4  C2  UNL d   1       3.149  -3.498  -5.991  0.00  0.00    -0.047 A 
ATOM      5  C3  UNL d   1       4.100  -2.450  -6.000  0.00  0.00    -0.047 A 
ATOM      6  C4  UNL d   1       5.254  -2.937  -5.425  0.00  0.00    -0.004 A 
ENDROOT
TORSDOF 0
ENDMDL
