MODEL 1
REMARK minimizedAffinity -1.55903077
REMARK minimizedRMSD -1
REMARK  0 active torsions:
REMARK  status: ('A' for Active; 'I' for Inactive)
ROOT
ATOM      1  C   UNL d   1       4.794  -2.527  -5.999  0.00  0.00     0.172 C 
ATOM      2  N   UNL d   1       5.156  -3.807  -5.437  0.00  0.00    -0.070 N 
ATOM      3  C1  UNL d   1       4.894  -5.029  -5.997  0.00  0.00    -0.004 A 
ATOM      4  C2  UNL d   1       5.399  -5.996  -5.156  0.00  0.00    -0.047 A 
ATOM      5  C3  UNL d   1       5.983  -5.333  -4.051  0.00  0.00    -0.047 A 
ATOM      6  C4  UNL d   1       5.819  -3.979  -4.250  0.00  0.00    -0.004 A 
ENDROOT
TORSDOF 0
ENDMDL
