MODEL 1
REMARK minimizedAffinity -0.490425557
REMARK minimizedRMSD -1
REMARK  0 active torsions:
REMARK  status: ('A' for Active; 'I' for Inactive)
ROOT
ATOM      1  C   UNL d   1       5.999  -4.396  -3.160  0.00  0.00     0.172 C 
ATOM      2  N   UNL d   1       5.218  -4.774  -4.315  0.00  0.00    -0.070 N 
ATOM      3  C1  UNL d   1       5.260  -5.990  -4.943  0.00  0.00    -0.004 A 
ATOM      4  C2  UNL d   1       4.371  -5.952  -5.995  0.00  0.00    -0.047 A 
ATOM      5  C3  UNL d   1       3.775  -4.669  -6.000  0.00  0.00    -0.047 A 
ATOM      6  C4  UNL d   1       4.318  -3.960  -4.949  0.00  0.00    -0.004 A 
ENDROOT
TORSDOF 0
ENDMDL
