MODEL 1
REMARK minimizedAffinity -0.788361073
REMARK minimizedRMSD -1
REMARK  0 active torsions:
REMARK  status: ('A' for Active; 'I' for Inactive)
ROOT
ATOM      1  C   UNL d   1       4.126  -5.625  -2.711  0.00  0.00     0.172 C 
ATOM      2  N   UNL d   1       4.555  -5.128  -3.998  0.00  0.00    -0.070 N 
ATOM      3  C1  UNL d   1       3.765  -4.475  -4.905  0.00  0.00    -0.004 A 
ATOM      4  C2  UNL d   1       4.544  -4.167  -5.999  0.00  0.00    -0.047 A 
ATOM      5  C3  UNL d   1       5.848  -4.654  -5.741  0.00  0.00    -0.047 A 
ATOM      6  C4  UNL d   1       5.826  -5.244  -4.495  0.00  0.00    -0.004 A 
ENDROOT
TORSDOF 0
ENDMDL
