MODEL 1
REMARK minimizedAffinity -0.463460922
REMARK minimizedRMSD -1
REMARK  0 active torsions:
REMARK  status: ('A' for Active; 'I' for Inactive)
ROOT
ATOM      1  C   UNL d   1       5.929  -5.232  -4.070  0.00  0.00     0.172 C 
ATOM      2  N   UNL d   1       4.872  -4.622  -4.841  0.00  0.00    -0.070 N 
ATOM      3  C1  UNL d   1       3.743  -5.254  -5.289  0.00  0.00    -0.004 A 
ATOM      4  C2  UNL d   1       2.988  -4.332  -5.981  0.00  0.00    -0.047 A 
ATOM      5  C3  UNL d   1       3.688  -3.103  -5.949  0.00  0.00    -0.047 A 
ATOM      6  C4  UNL d   1       4.851  -3.310  -5.237  0.00  0.00    -0.004 A 
ENDROOT
TORSDOF 0
ENDMDL
