MODEL 1
REMARK minimizedAffinity -1.65551233
REMARK minimizedRMSD -1
REMARK  0 active torsions:
REMARK  status: ('A' for Active; 'I' for Inactive)
ROOT
ATOM      1  C   UNL d   1       4.704  -2.411  -5.933  0.00  0.00     0.172 C 
ATOM      2  N   UNL d   1       4.963  -3.790  -5.592  0.00  0.00    -0.070 N 
ATOM      3  C1  UNL d   1       4.221  -4.866  -5.999  0.00  0.00    -0.004 A 
ATOM      4  C2  UNL d   1       4.793  -6.000  -5.463  0.00  0.00    -0.047 A 
ATOM      5  C3  UNL d   1       5.918  -5.590  -4.708  0.00  0.00    -0.047 A 
ATOM      6  C4  UNL d   1       6.000  -4.217  -4.804  0.00  0.00    -0.004 A 
ENDROOT
TORSDOF 0
ENDMDL
