MODEL 1
REMARK minimizedAffinity -0.487211466
REMARK minimizedRMSD -1
REMARK  0 active torsions:
REMARK  status: ('A' for Active; 'I' for Inactive)
ROOT
ATOM      1  C   UNL d   1       6.000  -5.980  -4.889  0.00  0.00     0.172 C 
ATOM      2  N   UNL d   1       5.124  -4.899  -5.277  0.00  0.00    -0.070 N 
ATOM      3  C1  UNL d   1       5.439  -3.567  -5.250  0.00  0.00    -0.004 A 
ATOM      4  C2  UNL d   1       4.341  -2.864  -5.696  0.00  0.00    -0.047 A 
ATOM      5  C3  UNL d   1       3.330  -3.806  -6.000  0.00  0.00    -0.047 A 
ATOM      6  C4  UNL d   1       3.841  -5.058  -5.732  0.00  0.00    -0.004 A 
ENDROOT
TORSDOF 0
ENDMDL
