MODEL 1
REMARK minimizedAffinity -1.02601266
REMARK minimizedRMSD -1
REMARK  0 active torsions:
REMARK  status: ('A' for Active; 'I' for Inactive)
ROOT
ATOM      1  C   UNL d   1       3.322  -5.976  -5.999  0.00  0.00     0.172 C 
ATOM      2  N   UNL d   1       4.196  -4.942  -5.499  0.00  0.00    -0.070 N 
ATOM      3  C1  UNL d   1       4.298  -3.671  -6.000  0.00  0.00    -0.004 A 
ATOM      4  C2  UNL d   1       5.237  -2.996  -5.250  0.00  0.00    -0.047 A 
ATOM      5  C3  UNL d   1       5.717  -3.892  -4.266  0.00  0.00    -0.047 A 
ATOM      6  C4  UNL d   1       5.056  -5.089  -4.443  0.00  0.00    -0.004 A 
ENDROOT
TORSDOF 0
ENDMDL
