MODEL 1
REMARK minimizedAffinity 0.137997776
REMARK minimizedRMSD -1
REMARK  0 active torsions:
REMARK  status: ('A' for Active; 'I' for Inactive)
ROOT
ATOM      1  C   UNL d   1       4.361  -2.669  -5.955  0.00  0.00     0.172 C 
ATOM      2  N   UNL d   1       4.942  -3.869  -5.399  0.00  0.00    -0.070 N 
ATOM      3  C1  UNL d   1       5.600  -3.956  -4.201  0.00  0.00    -0.004 A 
ATOM      4  C2  UNL d   1       5.999  -5.264  -4.033  0.00  0.00    -0.047 A 
ATOM      5  C3  UNL d   1       5.566  -5.988  -5.169  0.00  0.00    -0.047 A 
ATOM      6  C4  UNL d   1       4.915  -5.100  -5.998  0.00  0.00    -0.004 A 
ENDROOT
TORSDOF 0
ENDMDL
