MODEL 1
REMARK minimizedAffinity -0.577559233
REMARK minimizedRMSD -1
REMARK  0 active torsions:
REMARK  status: ('A' for Active; 'I' for Inactive)
ROOT
ATOM      1  C   UNL d   1       4.125  -2.996  -5.953  0.00  0.00     0.172 C 
ATOM      2  N   UNL d   1       4.699  -4.211  -5.424  0.00  0.00    -0.070 N 
ATOM      3  C1  UNL d   1       4.302  -4.850  -4.280  0.00  0.00    -0.004 A 
ATOM      4  C2  UNL d   1       5.094  -5.966  -4.122  0.00  0.00    -0.047 A 
ATOM      5  C3  UNL d   1       6.000  -5.999  -5.209  0.00  0.00    -0.047 A 
ATOM      6  C4  UNL d   1       5.733  -4.901  -6.000  0.00  0.00    -0.004 A 
ENDROOT
TORSDOF 0
ENDMDL
