MODEL 1
REMARK minimizedAffinity -1.96502388
REMARK minimizedRMSD -1
REMARK  0 active torsions:
REMARK  status: ('A' for Active; 'I' for Inactive)
ROOT
ATOM      1  C   UNL d   1       4.680  -2.313  -6.000  0.00  0.00     0.172 C 
ATOM      2  N   UNL d   1       5.017  -3.624  -5.496  0.00  0.00    -0.070 N 
ATOM      3  C1  UNL d   1       5.992  -4.444  -5.997  0.00  0.00    -0.004 A 
ATOM      4  C2  UNL d   1       6.000  -5.599  -5.244  0.00  0.00    -0.047 A 
ATOM      5  C3  UNL d   1       4.994  -5.467  -4.257  0.00  0.00    -0.047 A 
ATOM      6  C4  UNL d   1       4.402  -4.235  -4.436  0.00  0.00    -0.004 A 
ENDROOT
TORSDOF 0
ENDMDL
