MODEL 1
REMARK minimizedAffinity 2.50423551
REMARK minimizedRMSD -1
REMARK  0 active torsions:
REMARK  status: ('A' for Active; 'I' for Inactive)
ROOT
ATOM      1  C   UNL d   1      -2.142  -0.428   3.281  0.00  0.00     0.172 C 
ATOM      2  N   UNL d   1      -1.181  -0.302   2.210  0.00  0.00    -0.070 N 
ATOM      3  C1  UNL d   1       0.181  -0.285   2.357  0.00  0.00    -0.004 A 
ATOM      4  C2  UNL d   1       0.739  -0.152   1.104  0.00  0.00    -0.047 A 
ATOM      5  C3  UNL d   1      -0.323  -0.086   0.172  0.00  0.00    -0.047 A 
ATOM      6  C4  UNL d   1      -1.501  -0.181   0.884  0.00  0.00    -0.004 A 
ENDROOT
TORSDOF 0
ENDMDL
