MODEL 1
REMARK minimizedAffinity -1.78274059
REMARK minimizedRMSD -1
REMARK  0 active torsions:
REMARK  status: ('A' for Active; 'I' for Inactive)
ROOT
ATOM      1  C   UNL d   1       5.996  -5.973  -3.300  0.00  0.00     0.172 C 
ATOM      2  N   UNL d   1       5.168  -5.335  -4.296  0.00  0.00    -0.070 N 
ATOM      3  C1  UNL d   1       5.011  -3.984  -4.458  0.00  0.00    -0.004 A 
ATOM      4  C2  UNL d   1       4.146  -3.783  -5.512  0.00  0.00    -0.047 A 
ATOM      5  C3  UNL d   1       3.769  -5.057  -5.999  0.00  0.00    -0.047 A 
ATOM      6  C4  UNL d   1       4.416  -6.000  -5.229  0.00  0.00    -0.004 A 
ENDROOT
TORSDOF 0
ENDMDL
