MODEL 1
REMARK minimizedAffinity 1.57505119
REMARK minimizedRMSD -1
REMARK  0 active torsions:
REMARK  status: ('A' for Active; 'I' for Inactive)
ROOT
ATOM      1  C   UNL d   1      -1.081  -3.054  -2.133  0.00  0.00     0.172 C 
ATOM      2  N   UNL d   1      -2.265  -3.686  -1.600  0.00  0.00    -0.070 N 
ATOM      3  C1  UNL d   1      -2.518  -5.031  -1.594  0.00  0.00    -0.004 A 
ATOM      4  C2  UNL d   1      -3.746  -5.227  -0.999  0.00  0.00    -0.047 A 
ATOM      5  C3  UNL d   1      -4.249  -3.955  -0.637  0.00  0.00    -0.047 A 
ATOM      6  C4  UNL d   1      -3.312  -3.019  -1.020  0.00  0.00    -0.004 A 
ENDROOT
TORSDOF 0
ENDMDL
