MODEL 1
REMARK minimizedAffinity 0.325412989
REMARK minimizedRMSD -1
REMARK  1 active torsions:
REMARK  status: ('A' for Active; 'I' for Inactive)
REMARK    1  A    between atoms: C3_4  and  O_7 
ROOT
ATOM      1  C   UNL d   1       5.998  -5.932   4.361  0.00  0.00    -0.033 A 
ATOM      2  C1  UNL d   1       4.791  -5.976   5.061  0.00  0.00     0.039 A 
ATOM      3  C2  UNL d   1       3.580  -5.999   4.366  0.00  0.00    -0.080 A 
ATOM      4  C3  UNL d   1       3.590  -5.979   2.974  0.00  0.00     0.150 A 
ATOM      5  C4  UNL d   1       4.790  -5.939   2.270  0.00  0.00    -0.007 A 
ATOM      6  C5  UNL d   1       5.998  -5.915   2.966  0.00  0.00     0.039 A 
ENDROOT
BRANCH   4   7
ATOM      7  O   UNL d   1       2.434  -5.996   2.252  0.00  0.00    -0.526 OA
ATOM      8  H5  UNL d   1       1.685  -5.994   2.871  0.00  0.00     0.418 HD
ENDBRANCH   4   7
TORSDOF 1
ENDMDL
