MODEL 1
REMARK minimizedAffinity 9.57250309
REMARK minimizedRMSD -1
REMARK  1 active torsions:
REMARK  status: ('A' for Active; 'I' for Inactive)
REMARK    1  A    between atoms: C3_4  and  O_7 
ROOT
ATOM      1  C   UNL d   1      -4.617   1.871   5.989  0.00  0.00    -0.033 A 
ATOM      2  C1  UNL d   1      -3.468   2.664   5.989  0.00  0.00     0.039 A 
ATOM      3  C2  UNL d   1      -3.578   4.056   5.977  0.00  0.00    -0.080 A 
ATOM      4  C3  UNL d   1      -4.841   4.642   5.966  0.00  0.00     0.150 A 
ATOM      5  C4  UNL d   1      -5.990   3.858   5.970  0.00  0.00    -0.007 A 
ATOM      6  C5  UNL d   1      -5.878   2.468   5.981  0.00  0.00     0.039 A 
ENDROOT
BRANCH   4   7
ATOM      7  O   UNL d   1      -4.999   5.996   5.949  0.00  0.00    -0.526 OA
ATOM      8  H5  UNL d   1      -4.119   6.408   5.919  0.00  0.00     0.418 HD
ENDBRANCH   4   7
TORSDOF 1
ENDMDL
