MODEL 1
REMARK minimizedAffinity -0.788083732
REMARK minimizedRMSD -1
REMARK  1 active torsions:
REMARK  status: ('A' for Active; 'I' for Inactive)
REMARK    1  A    between atoms: C3_4  and  O_7 
ROOT
ATOM      1  C   UNL d   1      -2.922   2.110   2.525  0.00  0.00    -0.033 A 
ATOM      2  C1  UNL d   1      -1.884   2.878   3.058  0.00  0.00     0.039 A 
ATOM      3  C2  UNL d   1      -0.683   2.270   3.427  0.00  0.00    -0.080 A 
ATOM      4  C3  UNL d   1      -0.531   0.897   3.257  0.00  0.00     0.150 A 
ATOM      5  C4  UNL d   1      -1.559   0.126   2.723  0.00  0.00    -0.007 A 
ATOM      6  C5  UNL d   1      -2.759   0.735   2.356  0.00  0.00     0.039 A 
ENDROOT
BRANCH   4   7
ATOM      7  O   UNL d   1       0.621   0.258   3.607  0.00  0.00    -0.526 OA
ATOM      8  H5  UNL d   1       1.232   0.912   3.988  0.00  0.00     0.418 HD
ENDBRANCH   4   7
TORSDOF 1
ENDMDL
