MODEL 1
REMARK minimizedAffinity 0.955232084
REMARK minimizedRMSD -1
REMARK  1 active torsions:
REMARK  status: ('A' for Active; 'I' for Inactive)
REMARK    1  A    between atoms: C3_4  and  O_7 
ROOT
ATOM      1  C   UNL d   1      -1.784  -4.885  -5.992  0.00  0.00    -0.033 A 
ATOM      2  C1  UNL d   1      -2.963  -5.633  -5.995  0.00  0.00     0.039 A 
ATOM      3  C2  UNL d   1      -4.201  -4.988  -5.995  0.00  0.00    -0.080 A 
ATOM      4  C3  UNL d   1      -4.246  -3.596  -5.993  0.00  0.00     0.150 A 
ATOM      5  C4  UNL d   1      -3.076  -2.845  -5.994  0.00  0.00    -0.007 A 
ATOM      6  C5  UNL d   1      -1.840  -3.491  -5.993  0.00  0.00     0.039 A 
ENDROOT
BRANCH   4   7
ATOM      7  O   UNL d   1      -5.431  -2.922  -5.988  0.00  0.00    -0.526 OA
ATOM      8  H5  UNL d   1      -6.154  -3.570  -5.959  0.00  0.00     0.418 HD
ENDBRANCH   4   7
TORSDOF 1
ENDMDL
