MODEL 1
REMARK minimizedAffinity 7.56197309
REMARK minimizedRMSD -1
REMARK  1 active torsions:
REMARK  status: ('A' for Active; 'I' for Inactive)
REMARK    1  A    between atoms: C3_4  and  O_7 
ROOT
ATOM      1  C   UNL d   1      -2.009   1.292   2.127  0.00  0.00    -0.033 A 
ATOM      2  C1  UNL d   1      -1.357   0.164   1.628  0.00  0.00     0.039 A 
ATOM      3  C2  UNL d   1      -2.082  -0.826   0.960  0.00  0.00    -0.080 A 
ATOM      4  C3  UNL d   1      -3.456  -0.674   0.799  0.00  0.00     0.150 A 
ATOM      5  C4  UNL d   1      -4.112   0.450   1.291  0.00  0.00    -0.007 A 
ATOM      6  C5  UNL d   1      -3.386   1.436   1.958  0.00  0.00     0.039 A 
ENDROOT
BRANCH   4   7
ATOM      7  O   UNL d   1      -4.207  -1.615   0.159  0.00  0.00    -0.526 OA
ATOM      8  H5  UNL d   1      -3.625  -2.348  -0.101  0.00  0.00     0.418 HD
ENDBRANCH   4   7
TORSDOF 1
ENDMDL
