MODEL 1
REMARK minimizedAffinity -3.48150492
REMARK minimizedRMSD -1
REMARK  1 active torsions:
REMARK  status: ('A' for Active; 'I' for Inactive)
REMARK    1  A    between atoms: C3_4  and  O_7 
ROOT
ATOM      1  C   UNL d   1      -2.145   0.768   1.775  0.00  0.00    -0.033 A 
ATOM      2  C1  UNL d   1      -1.380   1.782   2.356  0.00  0.00     0.039 A 
ATOM      3  C2  UNL d   1      -0.147   1.483   2.938  0.00  0.00    -0.080 A 
ATOM      4  C3  UNL d   1       0.310   0.168   2.931  0.00  0.00     0.150 A 
ATOM      5  C4  UNL d   1      -0.444  -0.846   2.351  0.00  0.00    -0.007 A 
ATOM      6  C5  UNL d   1      -1.676  -0.546   1.771  0.00  0.00     0.039 A 
ENDROOT
BRANCH   4   7
ATOM      7  O   UNL d   1       1.505  -0.174   3.492  0.00  0.00    -0.526 OA
ATOM      8  H5  UNL d   1       1.902   0.624   3.879  0.00  0.00     0.418 HD
ENDBRANCH   4   7
TORSDOF 1
ENDMDL
