MODEL 1
REMARK minimizedAffinity 7.89803219
REMARK minimizedRMSD -1
REMARK  1 active torsions:
REMARK  status: ('A' for Active; 'I' for Inactive)
REMARK    1  A    between atoms: C3_4  and  O_7 
ROOT
ATOM      1  C   UNL d   1      -3.680  -1.844   0.300  0.00  0.00    -0.033 A 
ATOM      2  C1  UNL d   1      -2.614  -1.553   1.152  0.00  0.00     0.039 A 
ATOM      3  C2  UNL d   1      -2.309  -0.227   1.465  0.00  0.00    -0.080 A 
ATOM      4  C3  UNL d   1      -3.078   0.798   0.919  0.00  0.00     0.150 A 
ATOM      5  C4  UNL d   1      -4.145   0.515   0.072  0.00  0.00    -0.007 A 
ATOM      6  C5  UNL d   1      -4.447  -0.810  -0.240  0.00  0.00     0.039 A 
ENDROOT
BRANCH   4   7
ATOM      7  O   UNL d   1      -2.816   2.108   1.191  0.00  0.00    -0.526 OA
ATOM      8  H5  UNL d   1      -2.035   2.152   1.767  0.00  0.00     0.418 HD
ENDBRANCH   4   7
TORSDOF 1
ENDMDL
