MODEL 1
REMARK minimizedAffinity 3.66787481
REMARK minimizedRMSD -1
REMARK  1 active torsions:
REMARK  status: ('A' for Active; 'I' for Inactive)
REMARK    1  A    between atoms: C3_4  and  O_7 
ROOT
ATOM      1  C   UNL d   1      -4.901   0.709   1.844  0.00  0.00    -0.033 A 
ATOM      2  C1  UNL d   1      -4.415   0.669   3.152  0.00  0.00     0.039 A 
ATOM      3  C2  UNL d   1      -3.046   0.527   3.385  0.00  0.00    -0.080 A 
ATOM      4  C3  UNL d   1      -2.175   0.426   2.304  0.00  0.00     0.150 A 
ATOM      5  C4  UNL d   1      -2.652   0.469   0.998  0.00  0.00    -0.007 A 
ATOM      6  C5  UNL d   1      -4.020   0.610   0.767  0.00  0.00     0.039 A 
ENDROOT
BRANCH   4   7
ATOM      7  O   UNL d   1      -0.831   0.281   2.482  0.00  0.00    -0.526 OA
ATOM      8  H5  UNL d   1      -0.650   0.239   3.436  0.00  0.00     0.418 HD
ENDBRANCH   4   7
TORSDOF 1
ENDMDL
