MODEL 1
REMARK minimizedAffinity 1.0999105
REMARK minimizedRMSD -1
REMARK  1 active torsions:
REMARK  status: ('A' for Active; 'I' for Inactive)
REMARK    1  A    between atoms: C3_4  and  O_7 
ROOT
ATOM      1  C   UNL d   1      -2.385  -4.818   0.008  0.00  0.00    -0.033 A 
ATOM      2  C1  UNL d   1      -1.066  -4.486  -0.309  0.00  0.00     0.039 A 
ATOM      3  C2  UNL d   1      -0.025  -4.872   0.538  0.00  0.00    -0.080 A 
ATOM      4  C3  UNL d   1      -0.316  -5.588   1.696  0.00  0.00     0.150 A 
ATOM      5  C4  UNL d   1      -1.628  -5.925   2.016  0.00  0.00    -0.007 A 
ATOM      6  C5  UNL d   1      -2.666  -5.538   1.169  0.00  0.00     0.039 A 
ENDROOT
BRANCH   4   7
ATOM      7  O   UNL d   1       0.666  -5.982   2.556  0.00  0.00    -0.526 OA
ATOM      8  H5  UNL d   1       1.517  -5.654   2.221  0.00  0.00     0.418 HD
ENDBRANCH   4   7
TORSDOF 1
ENDMDL
