MODEL 1
REMARK minimizedAffinity 1.128479
REMARK minimizedRMSD -1
REMARK  1 active torsions:
REMARK  status: ('A' for Active; 'I' for Inactive)
REMARK    1  A    between atoms: C3_4  and  O_7 
ROOT
ATOM      1  C   UNL d   1      -4.053   0.335   1.857  0.00  0.00    -0.033 A 
ATOM      2  C1  UNL d   1      -3.731   0.102   3.195  0.00  0.00     0.039 A 
ATOM      3  C2  UNL d   1      -2.396   0.102   3.604  0.00  0.00    -0.080 A 
ATOM      4  C3  UNL d   1      -1.394   0.337   2.667  0.00  0.00     0.150 A 
ATOM      5  C4  UNL d   1      -1.708   0.574   1.333  0.00  0.00    -0.007 A 
ATOM      6  C5  UNL d   1      -3.041   0.573   0.926  0.00  0.00     0.039 A 
ENDROOT
BRANCH   4   7
ATOM      7  O   UNL d   1      -0.077   0.342   3.018  0.00  0.00    -0.526 OA
ATOM      8  H5  UNL d   1      -0.010   0.135   3.965  0.00  0.00     0.418 HD
ENDBRANCH   4   7
TORSDOF 1
ENDMDL
