MODEL 1
REMARK minimizedAffinity 3.30872655
REMARK minimizedRMSD -1
REMARK  1 active torsions:
REMARK  status: ('A' for Active; 'I' for Inactive)
REMARK    1  A    between atoms: C3_4  and  O_7 
ROOT
ATOM      1  C   UNL d   1      -4.872   0.451   4.864  0.00  0.00    -0.033 A 
ATOM      2  C1  UNL d   1      -5.353  -0.249   3.756  0.00  0.00     0.039 A 
ATOM      3  C2  UNL d   1      -5.373  -1.646   3.765  0.00  0.00    -0.080 A 
ATOM      4  C3  UNL d   1      -4.910  -2.328   4.887  0.00  0.00     0.150 A 
ATOM      5  C4  UNL d   1      -4.434  -1.636   5.996  0.00  0.00    -0.007 A 
ATOM      6  C5  UNL d   1      -4.414  -0.242   5.984  0.00  0.00     0.039 A 
ENDROOT
BRANCH   4   7
ATOM      7  O   UNL d   1      -4.905  -3.690   4.941  0.00  0.00    -0.526 OA
ATOM      8  H5  UNL d   1      -5.235  -4.033   4.094  0.00  0.00     0.418 HD
ENDBRANCH   4   7
TORSDOF 1
ENDMDL
