MODEL 1
REMARK minimizedAffinity 4.55569506
REMARK minimizedRMSD -1
REMARK  1 active torsions:
REMARK  status: ('A' for Active; 'I' for Inactive)
REMARK    1  A    between atoms: C3_4  and  O_7 
ROOT
ATOM      1  C   UNL d   1      -4.400   0.466   1.264  0.00  0.00    -0.033 A 
ATOM      2  C1  UNL d   1      -3.632  -0.387   0.469  0.00  0.00     0.039 A 
ATOM      3  C2  UNL d   1      -2.240  -0.375   0.572  0.00  0.00    -0.080 A 
ATOM      4  C3  UNL d   1      -1.629   0.494   1.472  0.00  0.00     0.150 A 
ATOM      5  C4  UNL d   1      -2.388   1.344   2.269  0.00  0.00    -0.007 A 
ATOM      6  C5  UNL d   1      -3.778   1.330   2.165  0.00  0.00     0.039 A 
ENDROOT
BRANCH   4   7
ATOM      7  O   UNL d   1      -0.273   0.546   1.604  0.00  0.00    -0.526 OA
ATOM      8  H5  UNL d   1       0.122  -0.076   0.969  0.00  0.00     0.418 HD
ENDBRANCH   4   7
TORSDOF 1
ENDMDL
