MODEL 1
REMARK minimizedAffinity 3.32467151
REMARK minimizedRMSD -1
REMARK  1 active torsions:
REMARK  status: ('A' for Active; 'I' for Inactive)
REMARK    1  A    between atoms: C3_4  and  O_7 
ROOT
ATOM      1  C   UNL d   1       0.285  -4.876   2.602  0.00  0.00    -0.033 A 
ATOM      2  C1  UNL d   1       0.635  -4.460   1.316  0.00  0.00     0.039 A 
ATOM      3  C2  UNL d   1       1.876  -4.811   0.781  0.00  0.00    -0.080 A 
ATOM      4  C3  UNL d   1       2.755  -5.579   1.540  0.00  0.00     0.150 A 
ATOM      5  C4  UNL d   1       2.411  -6.000   2.820  0.00  0.00    -0.007 A 
ATOM      6  C5  UNL d   1       1.172  -5.648   3.353  0.00  0.00     0.039 A 
ENDROOT
BRANCH   4   7
ATOM      7  O   UNL d   1       3.979  -5.942   1.061  0.00  0.00    -0.526 OA
ATOM      8  H5  UNL d   1       4.091  -5.556   0.177  0.00  0.00     0.418 HD
ENDBRANCH   4   7
TORSDOF 1
ENDMDL
