MODEL 1
REMARK minimizedAffinity 1.09968495
REMARK minimizedRMSD -1
REMARK  1 active torsions:
REMARK  status: ('A' for Active; 'I' for Inactive)
REMARK    1  A    between atoms: C3_4  and  O_7 
ROOT
ATOM      1  C   UNL d   1      -3.790   0.269   1.753  0.00  0.00    -0.033 A 
ATOM      2  C1  UNL d   1      -2.644   0.421   0.970  0.00  0.00     0.039 A 
ATOM      3  C2  UNL d   1      -1.416   0.694   1.574  0.00  0.00    -0.080 A 
ATOM      4  C3  UNL d   1      -1.346   0.813   2.959  0.00  0.00     0.150 A 
ATOM      5  C4  UNL d   1      -2.483   0.659   3.746  0.00  0.00    -0.007 A 
ATOM      6  C5  UNL d   1      -3.710   0.387   3.141  0.00  0.00     0.039 A 
ENDROOT
BRANCH   4   7
ATOM      7  O   UNL d   1      -0.170   1.084   3.593  0.00  0.00    -0.526 OA
ATOM      8  H5  UNL d   1       0.524   1.193   2.922  0.00  0.00     0.418 HD
ENDBRANCH   4   7
TORSDOF 1
ENDMDL
