MODEL 1
REMARK minimizedAffinity 4.25614738
REMARK minimizedRMSD -1
REMARK  1 active torsions:
REMARK  status: ('A' for Active; 'I' for Inactive)
REMARK    1  A    between atoms: C3_4  and  O_7 
ROOT
ATOM      1  C   UNL d   1       3.658  -5.652   4.073  0.00  0.00    -0.033 A 
ATOM      2  C1  UNL d   1       3.061  -5.379   2.841  0.00  0.00     0.039 A 
ATOM      3  C2  UNL d   1       3.824  -5.405   1.672  0.00  0.00    -0.080 A 
ATOM      4  C3  UNL d   1       5.180  -5.707   1.748  0.00  0.00     0.150 A 
ATOM      5  C4  UNL d   1       5.781  -5.984   2.972  0.00  0.00    -0.007 A 
ATOM      6  C5  UNL d   1       5.018  -5.956   4.138  0.00  0.00     0.039 A 
ENDROOT
BRANCH   4   7
ATOM      7  O   UNL d   1       5.967  -5.740   0.635  0.00  0.00    -0.526 OA
ATOM      8  H5  UNL d   1       5.422  -5.501  -0.134  0.00  0.00     0.418 HD
ENDBRANCH   4   7
TORSDOF 1
ENDMDL
