MODEL 1
REMARK minimizedAffinity -1.50052166
REMARK minimizedRMSD -1
REMARK  0 active torsions:
REMARK  status: ('A' for Active; 'I' for Inactive)
ROOT
ATOM      1  C   UNL d   1      -0.848  -0.104   2.100  0.00  0.00     0.124 A 
ATOM      2  C1  UNL d   1      -1.651   0.026   0.975  0.00  0.00     0.062 A 
ATOM      3  C2  UNL d   1      -1.077   0.080  -0.292  0.00  0.00     0.162 A 
ATOM      4  C3  UNL d   1       0.308   0.003  -0.441  0.00  0.00    -0.034 A 
ATOM      5  C4  UNL d   1       1.109  -0.127   0.695  0.00  0.00     0.162 A 
ATOM      6  C5  UNL d   1       0.530  -0.180   1.959  0.00  0.00     0.062 A 
ATOM      7  F   UNL d   1       1.307  -0.306   3.045  0.00  0.00    -0.097 F 
ATOM      8  F1  UNL d   1       2.443  -0.203   0.588  0.00  0.00    -0.096 F 
ATOM      9  I   UNL d   1       1.170   0.083  -2.334  0.00  0.00    -0.060 I 
ATOM     10  F2  UNL d   1      -1.877   0.205  -1.362  0.00  0.00    -0.096 F 
ATOM     11  F3  UNL d   1      -2.983   0.100   1.108  0.00  0.00    -0.097 F 
ATOM     12  F4  UNL d   1      -1.403  -0.155   3.317  0.00  0.00    -0.092 F 
ENDROOT
TORSDOF 0
ENDMDL
