MODEL 1
REMARK minimizedAffinity -1.76218247
REMARK minimizedRMSD -1
REMARK  0 active torsions:
REMARK  status: ('A' for Active; 'I' for Inactive)
ROOT
ATOM      1  C   UNL d   1       1.503   0.220   2.212  0.00  0.00     0.124 A 
ATOM      2  C1  UNL d   1       0.284  -0.441   2.162  0.00  0.00     0.062 A 
ATOM      3  C2  UNL d   1      -0.519  -0.344   1.029  0.00  0.00     0.162 A 
ATOM      4  C3  UNL d   1      -0.104   0.416  -0.064  0.00  0.00    -0.034 A 
ATOM      5  C4  UNL d   1       1.123   1.079  -0.006  0.00  0.00     0.162 A 
ATOM      6  C5  UNL d   1       1.922   0.979   1.129  0.00  0.00     0.062 A 
ATOM      7  F   UNL d   1       3.100   1.618   1.175  0.00  0.00    -0.097 F 
ATOM      8  F1  UNL d   1       1.553   1.818  -1.039  0.00  0.00    -0.096 F 
ATOM      9  I   UNL d   1      -1.301   0.563  -1.760  0.00  0.00    -0.060 I 
ATOM     10  F2  UNL d   1      -1.692  -0.994   1.009  0.00  0.00    -0.096 F 
ATOM     11  F3  UNL d   1      -0.123  -1.174   3.209  0.00  0.00    -0.097 F 
ATOM     12  F4  UNL d   1       2.273   0.126   3.304  0.00  0.00    -0.092 F 
ENDROOT
TORSDOF 0
ENDMDL
