MODEL 1
REMARK minimizedAffinity -2.99095488
REMARK minimizedRMSD -1
REMARK  0 active torsions:
REMARK  status: ('A' for Active; 'I' for Inactive)
ROOT
ATOM      1  C   UNL d   1      -1.311  -0.204   2.318  0.00  0.00     0.124 A 
ATOM      2  C1  UNL d   1      -1.868   0.314   1.157  0.00  0.00     0.062 A 
ATOM      3  C2  UNL d   1      -1.185   0.218  -0.051  0.00  0.00     0.162 A 
ATOM      4  C3  UNL d   1       0.064  -0.401  -0.106  0.00  0.00    -0.034 A 
ATOM      5  C4  UNL d   1       0.619  -0.919   1.066  0.00  0.00     0.162 A 
ATOM      6  C5  UNL d   1      -0.068  -0.820   2.271  0.00  0.00     0.062 A 
ATOM      7  F   UNL d   1       0.472  -1.321   3.391  0.00  0.00    -0.097 F 
ATOM      8  F1  UNL d   1       1.818  -1.520   1.049  0.00  0.00    -0.096 F 
ATOM      9  I   UNL d   1       1.090  -0.547  -1.911  0.00  0.00    -0.060 I 
ATOM     10  F2  UNL d   1      -1.748   0.727  -1.157  0.00  0.00    -0.096 F 
ATOM     11  F3  UNL d   1      -3.069   0.910   1.200  0.00  0.00    -0.097 F 
ATOM     12  F4  UNL d   1      -1.970  -0.109   3.480  0.00  0.00    -0.092 F 
ENDROOT
TORSDOF 0
ENDMDL
