MODEL 1
REMARK minimizedAffinity -4.81344461
REMARK minimizedRMSD -1
REMARK  0 active torsions:
REMARK  status: ('A' for Active; 'I' for Inactive)
ROOT
ATOM      1  C   UNL d   1      -1.892  -0.088   2.179  0.00  0.00     0.124 A 
ATOM      2  C1  UNL d   1      -0.593  -0.574   2.226  0.00  0.00     0.062 A 
ATOM      3  C2  UNL d   1       0.223  -0.501   1.101  0.00  0.00     0.162 A 
ATOM      4  C3  UNL d   1      -0.258   0.062  -0.082  0.00  0.00    -0.034 A 
ATOM      5  C4  UNL d   1      -1.566   0.548  -0.122  0.00  0.00     0.162 A 
ATOM      6  C5  UNL d   1      -2.377   0.473   1.006  0.00  0.00     0.062 A 
ATOM      7  F   UNL d   1      -3.632   0.943   0.958  0.00  0.00    -0.097 F 
ATOM      8  F1  UNL d   1      -2.059   1.096  -1.242  0.00  0.00    -0.096 F 
ATOM      9  I   UNL d   1       0.959   0.173  -1.766  0.00  0.00    -0.060 I 
ATOM     10  F2  UNL d   1       1.474  -0.979   1.175  0.00  0.00    -0.096 F 
ATOM     11  F3  UNL d   1      -0.123  -1.117   3.358  0.00  0.00    -0.097 F 
ATOM     12  F4  UNL d   1      -2.676  -0.161   3.263  0.00  0.00    -0.092 F 
ENDROOT
TORSDOF 0
ENDMDL
