MODEL 1
REMARK minimizedAffinity -2.18847084
REMARK minimizedRMSD -1
REMARK  0 active torsions:
REMARK  status: ('A' for Active; 'I' for Inactive)
ROOT
ATOM      1  C   UNL d   1       0.587   1.210  -0.154  0.00  0.00     0.124 A 
ATOM      2  C1  UNL d   1      -0.581   0.474  -0.298  0.00  0.00     0.062 A 
ATOM      3  C2  UNL d   1      -1.183  -0.108   0.813  0.00  0.00     0.162 A 
ATOM      4  C3  UNL d   1      -0.619   0.044   2.080  0.00  0.00    -0.034 A 
ATOM      5  C4  UNL d   1       0.556   0.784   2.217  0.00  0.00     0.162 A 
ATOM      6  C5  UNL d   1       1.154   1.365   1.103  0.00  0.00     0.062 A 
ATOM      7  F   UNL d   1       2.283   2.075   1.244  0.00  0.00    -0.097 F 
ATOM      8  F1  UNL d   1       1.126   0.950   3.420  0.00  0.00    -0.096 F 
ATOM      9  I   UNL d   1      -1.516  -0.826   3.744  0.00  0.00    -0.060 I 
ATOM     10  F2  UNL d   1      -2.311  -0.814   0.644  0.00  0.00    -0.096 F 
ATOM     11  F3  UNL d   1      -1.131   0.323  -1.512  0.00  0.00    -0.097 F 
ATOM     12  F4  UNL d   1       1.165   1.769  -1.225  0.00  0.00    -0.092 F 
ENDROOT
TORSDOF 0
ENDMDL
