MODEL 1
REMARK minimizedAffinity -4.13887882
REMARK minimizedRMSD -1
REMARK  0 active torsions:
REMARK  status: ('A' for Active; 'I' for Inactive)
ROOT
ATOM      1  C   UNL d   1      -1.775   0.209   2.046  0.00  0.00     0.124 A 
ATOM      2  C1  UNL d   1      -0.478  -0.284   1.999  0.00  0.00     0.062 A 
ATOM      3  C2  UNL d   1       0.249  -0.229   0.813  0.00  0.00     0.162 A 
ATOM      4  C3  UNL d   1      -0.320   0.323  -0.336  0.00  0.00    -0.034 A 
ATOM      5  C4  UNL d   1      -1.625   0.815  -0.280  0.00  0.00     0.162 A 
ATOM      6  C5  UNL d   1      -2.347   0.757   0.907  0.00  0.00     0.062 A 
ATOM      7  F   UNL d   1      -3.599   1.234   0.951  0.00  0.00    -0.097 F 
ATOM      8  F1  UNL d   1      -2.201   1.352  -1.366  0.00  0.00    -0.096 F 
ATOM      9  I   UNL d   1       0.764   0.407  -2.111  0.00  0.00    -0.060 I 
ATOM     10  F2  UNL d   1       1.500  -0.712   0.796  0.00  0.00    -0.096 F 
ATOM     11  F3  UNL d   1       0.077  -0.816   3.098  0.00  0.00    -0.097 F 
ATOM     12  F4  UNL d   1      -2.472   0.153   3.188  0.00  0.00    -0.092 F 
ENDROOT
TORSDOF 0
ENDMDL
