MODEL 1
REMARK minimizedAffinity -2.41630173
REMARK minimizedRMSD -1
REMARK  0 active torsions:
REMARK  status: ('A' for Active; 'I' for Inactive)
ROOT
ATOM      1  C   UNL d   1       0.423   0.617   1.756  0.00  0.00     0.124 A 
ATOM      2  C1  UNL d   1       1.093   1.382   0.812  0.00  0.00     0.062 A 
ATOM      3  C2  UNL d   1       1.112   0.987  -0.523  0.00  0.00     0.162 A 
ATOM      4  C3  UNL d   1       0.458  -0.178  -0.921  0.00  0.00    -0.034 A 
ATOM      5  C4  UNL d   1      -0.213  -0.943   0.035  0.00  0.00     0.162 A 
ATOM      6  C5  UNL d   1      -0.229  -0.544   1.367  0.00  0.00     0.062 A 
ATOM      7  F   UNL d   1      -0.877  -1.285   2.278  0.00  0.00    -0.097 F 
ATOM      8  F1  UNL d   1      -0.853  -2.069  -0.314  0.00  0.00    -0.096 F 
ATOM      9  I   UNL d   1       0.483  -0.771  -2.916  0.00  0.00    -0.060 I 
ATOM     10  F2  UNL d   1       1.767   1.746  -1.414  0.00  0.00    -0.096 F 
ATOM     11  F3  UNL d   1       1.725   2.504   1.186  0.00  0.00    -0.097 F 
ATOM     12  F4  UNL d   1       0.408   0.998   3.040  0.00  0.00    -0.092 F 
ENDROOT
TORSDOF 0
ENDMDL
