MODEL 1
REMARK minimizedAffinity 0.271896631
REMARK minimizedRMSD -1
REMARK  0 active torsions:
REMARK  status: ('A' for Active; 'I' for Inactive)
ROOT
ATOM      1  C   UNL d   1       0.113  -0.289   3.102  0.00  0.00     0.124 A 
ATOM      2  C1  UNL d   1      -0.681  -0.957   2.181  0.00  0.00     0.062 A 
ATOM      3  C2  UNL d   1      -0.529  -0.716   0.819  0.00  0.00     0.162 A 
ATOM      4  C3  UNL d   1       0.423   0.198   0.368  0.00  0.00    -0.034 A 
ATOM      5  C4  UNL d   1       1.218   0.868   1.300  0.00  0.00     0.162 A 
ATOM      6  C5  UNL d   1       1.062   0.623   2.661  0.00  0.00     0.062 A 
ATOM      7  F   UNL d   1       1.831   1.270   3.549  0.00  0.00    -0.097 F 
ATOM      8  F1  UNL d   1       2.144   1.753   0.901  0.00  0.00    -0.096 F 
ATOM      9  I   UNL d   1       0.655   0.562  -1.668  0.00  0.00    -0.060 I 
ATOM     10  F2  UNL d   1      -1.311  -1.377  -0.048  0.00  0.00    -0.096 F 
ATOM     11  F3  UNL d   1      -1.600  -1.838   2.605  0.00  0.00    -0.097 F 
ATOM     12  F4  UNL d   1      -0.036  -0.522   4.412  0.00  0.00    -0.092 F 
ENDROOT
TORSDOF 0
ENDMDL
