MODEL 1
REMARK minimizedAffinity -0.588173568
REMARK minimizedRMSD -1
REMARK  0 active torsions:
REMARK  status: ('A' for Active; 'I' for Inactive)
ROOT
ATOM      1  C   UNL d   1      -1.900  -0.265   0.894  0.00  0.00     0.124 A 
ATOM      2  C1  UNL d   1      -1.197  -0.669   2.021  0.00  0.00     0.062 A 
ATOM      3  C2  UNL d   1       0.079  -0.171   2.266  0.00  0.00     0.162 A 
ATOM      4  C3  UNL d   1       0.662   0.738   1.382  0.00  0.00    -0.034 A 
ATOM      5  C4  UNL d   1      -0.050   1.139   0.250  0.00  0.00     0.162 A 
ATOM      6  C5  UNL d   1      -1.326   0.638   0.010  0.00  0.00     0.062 A 
ATOM      7  F   UNL d   1      -2.003   1.029  -1.080  0.00  0.00    -0.097 F 
ATOM      8  F1  UNL d   1       0.480   2.011  -0.620  0.00  0.00    -0.096 F 
ATOM      9  I   UNL d   1       2.570   1.485   1.745  0.00  0.00    -0.060 I 
ATOM     10  F2  UNL d   1       0.735  -0.578   3.363  0.00  0.00    -0.096 F 
ATOM     11  F3  UNL d   1      -1.749  -1.542   2.876  0.00  0.00    -0.097 F 
ATOM     12  F4  UNL d   1      -3.127  -0.746   0.660  0.00  0.00    -0.092 F 
ENDROOT
TORSDOF 0
ENDMDL
