MODEL 1
REMARK minimizedAffinity -4.21919775
REMARK minimizedRMSD -1
REMARK  0 active torsions:
REMARK  status: ('A' for Active; 'I' for Inactive)
ROOT
ATOM      1  C   UNL d   1       0.915  -0.250   2.711  0.00  0.00     0.124 A 
ATOM      2  C1  UNL d   1      -0.385  -0.524   2.309  0.00  0.00     0.062 A 
ATOM      3  C2  UNL d   1      -0.729  -0.462   0.962  0.00  0.00     0.162 A 
ATOM      4  C3  UNL d   1       0.229  -0.125   0.006  0.00  0.00    -0.034 A 
ATOM      5  C4  UNL d   1       1.534   0.150   0.417  0.00  0.00     0.162 A 
ATOM      6  C5  UNL d   1       1.873   0.087   1.765  0.00  0.00     0.062 A 
ATOM      7  F   UNL d   1       3.130   0.352   2.151  0.00  0.00    -0.097 F 
ATOM      8  F1  UNL d   1       2.480   0.477  -0.476  0.00  0.00    -0.096 F 
ATOM      9  I   UNL d   1      -0.282  -0.031  -2.010  0.00  0.00    -0.060 I 
ATOM     10  F2  UNL d   1      -1.993  -0.731   0.603  0.00  0.00    -0.096 F 
ATOM     11  F3  UNL d   1      -1.312  -0.848   3.222  0.00  0.00    -0.097 F 
ATOM     12  F4  UNL d   1       1.243  -0.309   4.008  0.00  0.00    -0.092 F 
ENDROOT
TORSDOF 0
ENDMDL
