MODEL 1
REMARK minimizedAffinity -1.10675943
REMARK minimizedRMSD -1
REMARK  0 active torsions:
REMARK  status: ('A' for Active; 'I' for Inactive)
ROOT
ATOM      1  C   UNL d   1      -0.480   1.014  -1.410  0.00  0.00     0.124 A 
ATOM      2  C1  UNL d   1       0.677   0.758  -0.687  0.00  0.00     0.062 A 
ATOM      3  C2  UNL d   1       0.596   0.301   0.625  0.00  0.00     0.162 A 
ATOM      4  C3  UNL d   1      -0.648   0.096   1.223  0.00  0.00    -0.034 A 
ATOM      5  C4  UNL d   1      -1.807   0.358   0.490  0.00  0.00     0.162 A 
ATOM      6  C5  UNL d   1      -1.720   0.814  -0.821  0.00  0.00     0.062 A 
ATOM      7  F   UNL d   1      -2.839   1.062  -1.517  0.00  0.00    -0.097 F 
ATOM      8  F1  UNL d   1      -3.018   0.172   1.035  0.00  0.00    -0.096 F 
ATOM      9  I   UNL d   1      -0.773  -0.587   3.185  0.00  0.00    -0.060 I 
ATOM     10  F2  UNL d   1       1.730   0.061   1.300  0.00  0.00    -0.096 F 
ATOM     11  F3  UNL d   1       1.877   0.951  -1.254  0.00  0.00    -0.097 F 
ATOM     12  F4  UNL d   1      -0.399   1.455  -2.672  0.00  0.00    -0.092 F 
ENDROOT
TORSDOF 0
ENDMDL
