MODEL 1
REMARK minimizedAffinity -2.03577375
REMARK minimizedRMSD -1
REMARK  0 active torsions:
REMARK  status: ('A' for Active; 'I' for Inactive)
ROOT
ATOM      1  C   UNL d   1      -1.023  -0.215   1.935  0.00  0.00     0.124 A 
ATOM      2  C1  UNL d   1       0.351  -0.021   1.912  0.00  0.00     0.062 A 
ATOM      3  C2  UNL d   1       1.016   0.135   0.700  0.00  0.00     0.162 A 
ATOM      4  C3  UNL d   1       0.307   0.098  -0.501  0.00  0.00    -0.034 A 
ATOM      5  C4  UNL d   1      -1.075  -0.099  -0.470  0.00  0.00     0.162 A 
ATOM      6  C5  UNL d   1      -1.735  -0.254   0.744  0.00  0.00     0.062 A 
ATOM      7  F   UNL d   1      -3.062  -0.441   0.765  0.00  0.00    -0.097 F 
ATOM      8  F1  UNL d   1      -1.787  -0.140  -1.606  0.00  0.00    -0.096 F 
ATOM      9  I   UNL d   1       1.298   0.330  -2.317  0.00  0.00    -0.060 I 
ATOM     10  F2  UNL d   1       2.344   0.321   0.707  0.00  0.00    -0.096 F 
ATOM     11  F3  UNL d   1       1.041   0.016   3.062  0.00  0.00    -0.097 F 
ATOM     12  F4  UNL d   1      -1.660  -0.365   3.104  0.00  0.00    -0.092 F 
ENDROOT
TORSDOF 0
ENDMDL
