MODEL 1
REMARK minimizedAffinity -0.400988549
REMARK minimizedRMSD -1
REMARK  0 active torsions:
REMARK  status: ('A' for Active; 'I' for Inactive)
ROOT
ATOM      1  C   UNL d   1      -1.491  -0.485   1.587  0.00  0.00     0.124 A 
ATOM      2  C1  UNL d   1      -0.333  -1.238   1.454  0.00  0.00     0.062 A 
ATOM      3  C2  UNL d   1       0.481  -1.080   0.337  0.00  0.00     0.162 A 
ATOM      4  C3  UNL d   1       0.141  -0.162  -0.658  0.00  0.00    -0.034 A 
ATOM      5  C4  UNL d   1      -1.026   0.591  -0.517  0.00  0.00     0.162 A 
ATOM      6  C5  UNL d   1      -1.836   0.429   0.602  0.00  0.00     0.062 A 
ATOM      7  F   UNL d   1      -2.954   1.158   0.728  0.00  0.00    -0.097 F 
ATOM      8  F1  UNL d   1      -1.383   1.482  -1.454  0.00  0.00    -0.096 F 
ATOM      9  I   UNL d   1       1.356   0.078  -2.330  0.00  0.00    -0.060 I 
ATOM     10  F2  UNL d   1       1.594  -1.821   0.234  0.00  0.00    -0.096 F 
ATOM     11  F3  UNL d   1       0.003  -2.123   2.405  0.00  0.00    -0.097 F 
ATOM     12  F4  UNL d   1      -2.273  -0.640   2.663  0.00  0.00    -0.092 F 
ENDROOT
TORSDOF 0
ENDMDL
