MODEL 1
REMARK minimizedAffinity -1.38449645
REMARK minimizedRMSD -1
REMARK  0 active torsions:
REMARK  status: ('A' for Active; 'I' for Inactive)
ROOT
ATOM      1  C   UNL d   1      -0.513   0.139   2.198  0.00  0.00     0.124 A 
ATOM      2  C1  UNL d   1      -1.266   0.076   1.035  0.00  0.00     0.062 A 
ATOM      3  C2  UNL d   1      -0.638   0.072  -0.207  0.00  0.00     0.162 A 
ATOM      4  C3  UNL d   1       0.753   0.130  -0.292  0.00  0.00    -0.034 A 
ATOM      5  C4  UNL d   1       1.505   0.194   0.883  0.00  0.00     0.162 A 
ATOM      6  C5  UNL d   1       0.872   0.198   2.122  0.00  0.00     0.062 A 
ATOM      7  F   UNL d   1       1.602   0.258   3.245  0.00  0.00    -0.097 F 
ATOM      8  F1  UNL d   1       2.844   0.251   0.838  0.00  0.00    -0.096 F 
ATOM      9  I   UNL d   1       1.697   0.124  -2.147  0.00  0.00    -0.060 I 
ATOM     10  F2  UNL d   1      -1.391   0.011  -1.315  0.00  0.00    -0.096 F 
ATOM     11  F3  UNL d   1      -2.604   0.020   1.106  0.00  0.00    -0.097 F 
ATOM     12  F4  UNL d   1      -1.120   0.143   3.392  0.00  0.00    -0.092 F 
ENDROOT
TORSDOF 0
ENDMDL
