MODEL 1
REMARK minimizedAffinity -4.10912466
REMARK minimizedRMSD -1
REMARK  0 active torsions:
REMARK  status: ('A' for Active; 'I' for Inactive)
ROOT
ATOM      1  C   UNL d   1      -1.867  -0.518   0.721  0.00  0.00     0.124 A 
ATOM      2  C1  UNL d   1      -1.078   0.133  -0.217  0.00  0.00     0.062 A 
ATOM      3  C2  UNL d   1       0.235   0.477   0.091  0.00  0.00     0.162 A 
ATOM      4  C3  UNL d   1       0.769   0.169   1.342  0.00  0.00    -0.034 A 
ATOM      5  C4  UNL d   1      -0.031  -0.485   2.281  0.00  0.00     0.162 A 
ATOM      6  C5  UNL d   1      -1.343  -0.827   1.969  0.00  0.00     0.062 A 
ATOM      7  F   UNL d   1      -2.103  -1.457   2.876  0.00  0.00    -0.097 F 
ATOM      8  F1  UNL d   1       0.450  -0.797   3.493  0.00  0.00    -0.096 F 
ATOM      9  I   UNL d   1       2.732   0.682   1.805  0.00  0.00    -0.060 I 
ATOM     10  F2  UNL d   1       0.974   1.106  -0.835  0.00  0.00    -0.096 F 
ATOM     11  F3  UNL d   1      -1.583   0.434  -1.422  0.00  0.00    -0.097 F 
ATOM     12  F4  UNL d   1      -3.131  -0.847   0.423  0.00  0.00    -0.092 F 
ENDROOT
TORSDOF 0
ENDMDL
