MODEL 1
REMARK minimizedAffinity -2.89726281
REMARK minimizedRMSD -1
REMARK  0 active torsions:
REMARK  status: ('A' for Active; 'I' for Inactive)
ROOT
ATOM      1  C   UNL d   1      -0.506  -0.231   2.613  0.00  0.00     0.124 A 
ATOM      2  C1  UNL d   1       0.748   0.274   2.295  0.00  0.00     0.062 A 
ATOM      3  C2  UNL d   1       1.130   0.411   0.964  0.00  0.00     0.162 A 
ATOM      4  C3  UNL d   1       0.257   0.044  -0.061  0.00  0.00    -0.034 A 
ATOM      5  C4  UNL d   1      -1.001  -0.464   0.267  0.00  0.00     0.162 A 
ATOM      6  C5  UNL d   1      -1.379  -0.599   1.599  0.00  0.00     0.062 A 
ATOM      7  F   UNL d   1      -2.590  -1.087   1.904  0.00  0.00    -0.097 F 
ATOM      8  F1  UNL d   1      -1.865  -0.826  -0.693  0.00  0.00    -0.096 F 
ATOM      9  I   UNL d   1       0.825   0.248  -2.052  0.00  0.00    -0.060 I 
ATOM     10  F2  UNL d   1       2.347   0.902   0.686  0.00  0.00    -0.096 F 
ATOM     11  F3  UNL d   1       1.593   0.630   3.273  0.00  0.00    -0.097 F 
ATOM     12  F4  UNL d   1      -0.871  -0.363   3.895  0.00  0.00    -0.092 F 
ENDROOT
TORSDOF 0
ENDMDL
