MODEL 1
REMARK minimizedAffinity -1.25905204
REMARK minimizedRMSD -1
REMARK  0 active torsions:
REMARK  status: ('A' for Active; 'I' for Inactive)
ROOT
ATOM      1  C   UNL d   1      -1.067   0.208  -1.910  0.00  0.00     0.124 A 
ATOM      2  C1  UNL d   1       0.193  -0.049  -1.387  0.00  0.00     0.062 A 
ATOM      3  C2  UNL d   1       0.345  -0.323  -0.031  0.00  0.00     0.162 A 
ATOM      4  C3  UNL d   1      -0.766  -0.343   0.812  0.00  0.00    -0.034 A 
ATOM      5  C4  UNL d   1      -2.030  -0.082   0.279  0.00  0.00     0.162 A 
ATOM      6  C5  UNL d   1      -2.177   0.191  -1.077  0.00  0.00     0.062 A 
ATOM      7  F   UNL d   1      -3.394   0.440  -1.580  0.00  0.00    -0.097 F 
ATOM      8  F1  UNL d   1      -3.119  -0.093   1.062  0.00  0.00    -0.096 F 
ATOM      9  I   UNL d   1      -0.542  -0.752   2.840  0.00  0.00    -0.060 I 
ATOM     10  F2  UNL d   1       1.574  -0.568   0.447  0.00  0.00    -0.096 F 
ATOM     11  F3  UNL d   1       1.266  -0.033  -2.190  0.00  0.00    -0.097 F 
ATOM     12  F4  UNL d   1      -1.211   0.472  -3.215  0.00  0.00    -0.092 F 
ENDROOT
TORSDOF 0
ENDMDL
