MODEL 1
REMARK minimizedAffinity 15.5591125
REMARK minimizedRMSD -1
REMARK  1 active torsions:
REMARK  status: ('A' for Active; 'I' for Inactive)
REMARK    1  A    between atoms: C1_2  and  C2_3 
ROOT
ATOM      1  C2  UNL d   1       2.086  -1.199   1.949  0.00  0.00    -0.081 A 
ATOM      2  C3  UNL d   1       1.333  -0.323   2.740  0.00  0.00     0.006 A 
ATOM      3  C4  UNL d   1       0.985  -0.671   4.047  0.00  0.00     0.002 A 
ATOM      4  C5  UNL d   1       1.390  -1.896   4.588  0.00  0.00    -0.080 A 
ATOM      5  C6  UNL d   1       1.049  -2.268   6.000  0.00  0.00     0.076 C 
ATOM      6  C7  UNL d   1       2.128  -2.778   3.792  0.00  0.00     0.002 A 
ATOM      7  C8  UNL d   1       2.476  -2.431   2.484  0.00  0.00     0.006 A 
ENDROOT
BRANCH   1   8
ATOM      8  C1  UNL d   1       2.519  -0.799   0.561  0.00  0.00     0.054 C 
ATOM      9  C   UNL d   1       3.468  -1.825  -0.040  0.00  0.00     0.018 C 
ENDBRANCH   1   8
TORSDOF 1
ENDMDL
