MODEL 1
REMARK minimizedAffinity 8.1501627
REMARK minimizedRMSD -1
REMARK  1 active torsions:
REMARK  status: ('A' for Active; 'I' for Inactive)
REMARK    1  A    between atoms: C1_2  and  C2_3 
ROOT
ATOM      1  C2  UNL d   1       0.674  -2.377   1.609  0.00  0.00    -0.081 A 
ATOM      2  C3  UNL d   1      -0.615  -1.844   1.483  0.00  0.00     0.006 A 
ATOM      3  C4  UNL d   1      -1.609  -2.548   0.800  0.00  0.00     0.002 A 
ATOM      4  C5  UNL d   1      -1.334  -3.800   0.238  0.00  0.00    -0.080 A 
ATOM      5  C6  UNL d   1      -2.401  -4.580  -0.472  0.00  0.00     0.076 C 
ATOM      6  C7  UNL d   1      -0.042  -4.325   0.348  0.00  0.00     0.002 A 
ATOM      7  C8  UNL d   1       0.953  -3.621   1.031  0.00  0.00     0.006 A 
ENDROOT
BRANCH   1   8
ATOM      8  C1  UNL d   1       1.730  -1.650   2.401  0.00  0.00     0.054 C 
ATOM      9  C   UNL d   1       1.475  -1.761   3.897  0.00  0.00     0.018 C 
ENDBRANCH   1   8
TORSDOF 1
ENDMDL
