MODEL 1
REMARK minimizedAffinity 8.49652767
REMARK minimizedRMSD -1
REMARK  1 active torsions:
REMARK  status: ('A' for Active; 'I' for Inactive)
REMARK    1  A    between atoms: C1_2  and  C2_3 
ROOT
ATOM      1  C2  UNL d   1       1.606  -1.646   3.629  0.00  0.00    -0.081 A 
ATOM      2  C3  UNL d   1       2.216  -2.827   3.188  0.00  0.00     0.006 A 
ATOM      3  C4  UNL d   1       2.783  -2.899   1.914  0.00  0.00     0.002 A 
ATOM      4  C5  UNL d   1       2.757  -1.789   1.062  0.00  0.00    -0.080 A 
ATOM      5  C6  UNL d   1       3.389  -1.843  -0.297  0.00  0.00     0.076 C 
ATOM      6  C7  UNL d   1       2.133  -0.614   1.496  0.00  0.00     0.002 A 
ATOM      7  C8  UNL d   1       1.566  -0.542   2.770  0.00  0.00     0.006 A 
ENDROOT
BRANCH   1   8
ATOM      8  C1  UNL d   1       1.051  -1.545   5.027  0.00  0.00     0.054 C 
ATOM      9  C   UNL d   1       1.839  -2.412   5.999  0.00  0.00     0.018 C 
ENDBRANCH   1   8
TORSDOF 1
ENDMDL
