MODEL 1
REMARK minimizedAffinity 14.8539762
REMARK minimizedRMSD -1
REMARK  1 active torsions:
REMARK  status: ('A' for Active; 'I' for Inactive)
REMARK    1  A    between atoms: C1_2  and  C2_3 
ROOT
ATOM      1  C2  UNL d   1       1.535  -1.676   3.613  0.00  0.00    -0.081 A 
ATOM      2  C3  UNL d   1       2.094  -2.872   3.145  0.00  0.00     0.006 A 
ATOM      3  C4  UNL d   1       2.723  -2.919   1.899  0.00  0.00     0.002 A 
ATOM      4  C5  UNL d   1       2.810  -1.771   1.104  0.00  0.00    -0.080 A 
ATOM      5  C6  UNL d   1       3.510  -1.801  -0.223  0.00  0.00     0.076 C 
ATOM      6  C7  UNL d   1       2.236  -0.581   1.563  0.00  0.00     0.002 A 
ATOM      7  C8  UNL d   1       1.607  -0.533   2.809  0.00  0.00     0.006 A 
ENDROOT
BRANCH   1   8
ATOM      8  C1  UNL d   1       0.913  -1.606   4.984  0.00  0.00     0.054 C 
ATOM      9  C   UNL d   1       1.721  -2.401   6.000  0.00  0.00     0.018 C 
ENDBRANCH   1   8
TORSDOF 1
ENDMDL
