MODEL 1
REMARK minimizedAffinity 9.26583862
REMARK minimizedRMSD -1
REMARK  1 active torsions:
REMARK  status: ('A' for Active; 'I' for Inactive)
REMARK    1  A    between atoms: C1_2  and  C2_3 
ROOT
ATOM      1  C2  UNL d   1       2.524  -2.751   4.100  0.00  0.00    -0.081 A 
ATOM      2  C3  UNL d   1       2.223  -1.662   3.272  0.00  0.00     0.006 A 
ATOM      3  C4  UNL d   1       2.258  -1.799   1.882  0.00  0.00     0.002 A 
ATOM      4  C5  UNL d   1       2.586  -3.027   1.298  0.00  0.00    -0.080 A 
ATOM      5  C6  UNL d   1       2.598  -3.196  -0.192  0.00  0.00     0.076 C 
ATOM      6  C7  UNL d   1       2.904  -4.110   2.125  0.00  0.00     0.002 A 
ATOM      7  C8  UNL d   1       2.870  -3.973   3.515  0.00  0.00     0.006 A 
ENDROOT
BRANCH   1   8
ATOM      8  C1  UNL d   1       2.424  -2.624   5.599  0.00  0.00     0.054 C 
ATOM      9  C   UNL d   1       1.521  -1.464   5.997  0.00  0.00     0.018 C 
ENDBRANCH   1   8
TORSDOF 1
ENDMDL
