MODEL 1
REMARK minimizedAffinity 4.45165491
REMARK minimizedRMSD -1
REMARK  1 active torsions:
REMARK  status: ('A' for Active; 'I' for Inactive)
REMARK    1  A    between atoms: C1_2  and  C2_3 
ROOT
ATOM      1  C2  UNL d   1      -3.355   2.526  -3.005  0.00  0.00    -0.081 A 
ATOM      2  C3  UNL d   1      -4.062   3.307  -2.083  0.00  0.00     0.006 A 
ATOM      3  C4  UNL d   1      -4.764   4.439  -2.504  0.00  0.00     0.002 A 
ATOM      4  C5  UNL d   1      -4.778   4.803  -3.855  0.00  0.00    -0.080 A 
ATOM      5  C6  UNL d   1      -5.552   5.998  -4.325  0.00  0.00     0.076 C 
ATOM      6  C7  UNL d   1      -4.057   4.032  -4.774  0.00  0.00     0.002 A 
ATOM      7  C8  UNL d   1      -3.355   2.901  -4.353  0.00  0.00     0.006 A 
ENDROOT
BRANCH   1   8
ATOM      8  C1  UNL d   1      -2.651   1.268  -2.563  0.00  0.00     0.054 C 
ATOM      9  C   UNL d   1      -3.256   0.035  -3.219  0.00  0.00     0.018 C 
ENDBRANCH   1   8
TORSDOF 1
ENDMDL
