MODEL 1
REMARK minimizedAffinity 2.60766459
REMARK minimizedRMSD -1
REMARK  1 active torsions:
REMARK  status: ('A' for Active; 'I' for Inactive)
REMARK    1  A    between atoms: C1_2  and  C2_3 
ROOT
ATOM      1  C2  UNL d   1       1.636  -1.998   3.713  0.00  0.00    -0.081 A 
ATOM      2  C3  UNL d   1       2.257  -3.127   3.165  0.00  0.00     0.006 A 
ATOM      3  C4  UNL d   1       2.793  -3.085   1.875  0.00  0.00     0.002 A 
ATOM      4  C5  UNL d   1       2.725  -1.911   1.117  0.00  0.00    -0.080 A 
ATOM      5  C6  UNL d   1       3.324  -1.843  -0.257  0.00  0.00     0.076 C 
ATOM      6  C7  UNL d   1       2.089  -0.789   1.658  0.00  0.00     0.002 A 
ATOM      7  C8  UNL d   1       1.552  -0.831   2.946  0.00  0.00     0.006 A 
ENDROOT
BRANCH   1   8
ATOM      8  C1  UNL d   1       1.114  -2.022   5.127  0.00  0.00     0.054 C 
ATOM      9  C   UNL d   1       1.919  -2.975   5.998  0.00  0.00     0.018 C 
ENDBRANCH   1   8
TORSDOF 1
ENDMDL
