MODEL 1
REMARK minimizedAffinity 6.22450638
REMARK minimizedRMSD -1
REMARK  1 active torsions:
REMARK  status: ('A' for Active; 'I' for Inactive)
REMARK    1  A    between atoms: C1_2  and  C2_3 
ROOT
ATOM      1  C2  UNL d   1      -1.592  -4.032  -0.185  0.00  0.00    -0.081 A 
ATOM      2  C3  UNL d   1      -0.304  -4.577  -0.113  0.00  0.00     0.006 A 
ATOM      3  C4  UNL d   1       0.680  -3.969   0.670  0.00  0.00     0.002 A 
ATOM      4  C5  UNL d   1       0.391  -2.811   1.400  0.00  0.00    -0.080 A 
ATOM      5  C6  UNL d   1       1.430  -2.165   2.268  0.00  0.00     0.076 C 
ATOM      6  C7  UNL d   1      -0.890  -2.256   1.314  0.00  0.00     0.002 A 
ATOM      7  C8  UNL d   1      -1.874  -2.863   0.531  0.00  0.00     0.006 A 
ENDROOT
BRANCH   1   8
ATOM      8  C1  UNL d   1      -2.673  -4.721  -0.977  0.00  0.00     0.054 C 
ATOM      9  C   UNL d   1      -3.576  -5.551  -0.075  0.00  0.00     0.018 C 
ENDBRANCH   1   8
TORSDOF 1
ENDMDL
