MODEL 1
REMARK minimizedAffinity 12.0989742
REMARK minimizedRMSD -1
REMARK  1 active torsions:
REMARK  status: ('A' for Active; 'I' for Inactive)
REMARK    1  A    between atoms: C1_2  and  C2_3 
ROOT
ATOM      1  C2  UNL d   1       0.544  -2.293   1.548  0.00  0.00    -0.081 A 
ATOM      2  C3  UNL d   1      -0.790  -1.880   1.442  0.00  0.00     0.006 A 
ATOM      3  C4  UNL d   1      -1.760  -2.745   0.930  0.00  0.00     0.002 A 
ATOM      4  C5  UNL d   1      -1.415  -4.038   0.523  0.00  0.00    -0.080 A 
ATOM      5  C6  UNL d   1      -2.452  -4.987   0.000  0.00  0.00     0.076 C 
ATOM      6  C7  UNL d   1      -0.079  -4.444   0.612  0.00  0.00     0.002 A 
ATOM      7  C8  UNL d   1       0.892  -3.580   1.124  0.00  0.00     0.006 A 
ENDROOT
BRANCH   1   8
ATOM      8  C1  UNL d   1       1.581  -1.385   2.160  0.00  0.00     0.054 C 
ATOM      9  C   UNL d   1       1.194  -0.977   3.574  0.00  0.00     0.018 C 
ENDBRANCH   1   8
TORSDOF 1
ENDMDL
