MODEL 1
REMARK minimizedAffinity 15.3276978
REMARK minimizedRMSD -1
REMARK  1 active torsions:
REMARK  status: ('A' for Active; 'I' for Inactive)
REMARK    1  A    between atoms: C1_2  and  C2_3 
ROOT
ATOM      1  C2  UNL d   1       0.793  -3.243   1.057  0.00  0.00    -0.081 A 
ATOM      2  C3  UNL d   1      -0.505  -2.719   1.076  0.00  0.00     0.006 A 
ATOM      3  C4  UNL d   1      -1.587  -3.491   0.645  0.00  0.00     0.002 A 
ATOM      4  C5  UNL d   1      -1.390  -4.801   0.195  0.00  0.00    -0.080 A 
ATOM      5  C6  UNL d   1      -2.546  -5.650  -0.242  0.00  0.00     0.076 C 
ATOM      6  C7  UNL d   1      -0.091  -5.318   0.159  0.00  0.00     0.002 A 
ATOM      7  C8  UNL d   1       0.991  -4.547   0.589  0.00  0.00     0.006 A 
ENDROOT
BRANCH   1   8
ATOM      8  C1  UNL d   1       1.953  -2.437   1.582  0.00  0.00     0.054 C 
ATOM      9  C   UNL d   1       1.475  -1.182   2.299  0.00  0.00     0.018 C 
ENDBRANCH   1   8
TORSDOF 1
ENDMDL
