MODEL 1
REMARK minimizedAffinity 10.7728729
REMARK minimizedRMSD -1
REMARK  1 active torsions:
REMARK  status: ('A' for Active; 'I' for Inactive)
REMARK    1  A    between atoms: C1_2  and  C2_3 
ROOT
ATOM      1  C2  UNL d   1       1.395  -0.920   3.491  0.00  0.00    -0.081 A 
ATOM      2  C3  UNL d   1       1.065  -0.952   4.851  0.00  0.00     0.006 A 
ATOM      3  C4  UNL d   1       1.511  -1.997   5.664  0.00  0.00     0.002 A 
ATOM      4  C5  UNL d   1       2.300  -3.022   5.132  0.00  0.00    -0.080 A 
ATOM      5  C6  UNL d   1       2.811  -4.134   5.999  0.00  0.00     0.076 C 
ATOM      6  C7  UNL d   1       2.615  -3.000   3.769  0.00  0.00     0.002 A 
ATOM      7  C8  UNL d   1       2.169  -1.955   2.956  0.00  0.00     0.006 A 
ENDROOT
BRANCH   1   8
ATOM      8  C1  UNL d   1       0.970   0.240   2.626  0.00  0.00     0.054 C 
ATOM      9  C   UNL d   1       0.132  -0.229   1.445  0.00  0.00     0.018 C 
ENDBRANCH   1   8
TORSDOF 1
ENDMDL
