MODEL 1
REMARK minimizedAffinity -3.56404686
REMARK minimizedRMSD -1
REMARK  0 active torsions:
REMARK  status: ('A' for Active; 'I' for Inactive)
ROOT
ATOM      1  C   UNL d   1      -0.199  -1.739  -0.073  0.00  0.00     0.077 C 
ATOM      2  C1  UNL d   1       0.115  -0.326   0.319  0.00  0.00    -0.074 A 
ATOM      3  C2  UNL d   1       1.439   0.103   0.461  0.00  0.00    -0.005 A 
ATOM      4  C3  UNL d   1       1.716   1.423   0.817  0.00  0.00     0.006 A 
ATOM      5  C4  UNL d   1       0.674   2.326   1.033  0.00  0.00    -0.005 A 
ATOM      6  C5  UNL d   1      -0.655   1.916   0.894  0.00  0.00    -0.074 A 
ATOM      7  C6  UNL d   1      -1.787   2.876   1.113  0.00  0.00     0.077 C 
ATOM      8  C7  UNL d   1      -0.926   0.589   0.530  0.00  0.00    -0.001 A 
ENDROOT
TORSDOF 0
ENDMDL
