MODEL 1
REMARK minimizedAffinity -3.01325774
REMARK minimizedRMSD -1
REMARK  0 active torsions:
REMARK  status: ('A' for Active; 'I' for Inactive)
ROOT
ATOM      1  C   UNL d   1       0.240   3.319  -0.094  0.00  0.00     0.077 C 
ATOM      2  C1  UNL d   1      -0.249   1.963   0.318  0.00  0.00    -0.074 A 
ATOM      3  C2  UNL d   1      -1.299   1.825   1.232  0.00  0.00    -0.005 A 
ATOM      4  C3  UNL d   1      -1.750   0.557   1.598  0.00  0.00     0.006 A 
ATOM      5  C4  UNL d   1      -1.157  -0.584   1.056  0.00  0.00    -0.005 A 
ATOM      6  C5  UNL d   1      -0.107  -0.465   0.140  0.00  0.00    -0.074 A 
ATOM      7  C6  UNL d   1       0.536  -1.681  -0.459  0.00  0.00     0.077 C 
ATOM      8  C7  UNL d   1       0.336   0.812  -0.228  0.00  0.00    -0.001 A 
ENDROOT
TORSDOF 0
ENDMDL
