MODEL 1
REMARK minimizedAffinity -0.784881651
REMARK minimizedRMSD -1
REMARK  0 active torsions:
REMARK  status: ('A' for Active; 'I' for Inactive)
ROOT
ATOM      1  C   UNL d   1      -0.507  -0.637   0.679  0.00  0.00     0.077 C 
ATOM      2  C1  UNL d   1      -0.434   0.860   0.708  0.00  0.00    -0.074 A 
ATOM      3  C2  UNL d   1       0.176   1.570  -0.332  0.00  0.00    -0.005 A 
ATOM      4  C3  UNL d   1       0.229   2.964  -0.295  0.00  0.00     0.006 A 
ATOM      5  C4  UNL d   1      -0.328   3.660   0.778  0.00  0.00    -0.005 A 
ATOM      6  C5  UNL d   1      -0.942   2.967   1.826  0.00  0.00    -0.074 A 
ATOM      7  C6  UNL d   1      -1.554   3.701   2.983  0.00  0.00     0.077 C 
ATOM      8  C7  UNL d   1      -0.997   1.568   1.779  0.00  0.00    -0.001 A 
ENDROOT
TORSDOF 0
ENDMDL
