MODEL 1
REMARK minimizedAffinity -4.61820412
REMARK minimizedRMSD -1
REMARK  0 active torsions:
REMARK  status: ('A' for Active; 'I' for Inactive)
ROOT
ATOM      1  C   UNL d   1       0.028   2.895   0.001  0.00  0.00     0.077 C 
ATOM      2  C1  UNL d   1       0.495   1.489   0.237  0.00  0.00    -0.074 A 
ATOM      3  C2  UNL d   1       1.803   1.227   0.655  0.00  0.00    -0.005 A 
ATOM      4  C3  UNL d   1       2.220  -0.085   0.880  0.00  0.00     0.006 A 
ATOM      5  C4  UNL d   1       1.334  -1.146   0.690  0.00  0.00    -0.005 A 
ATOM      6  C5  UNL d   1       0.021  -0.903   0.273  0.00  0.00    -0.074 A 
ATOM      7  C6  UNL d   1      -0.947  -2.031   0.074  0.00  0.00     0.077 C 
ATOM      8  C7  UNL d   1      -0.392   0.419   0.056  0.00  0.00    -0.001 A 
ENDROOT
TORSDOF 0
ENDMDL
