MODEL 1
REMARK minimizedAffinity -5.27985859
REMARK minimizedRMSD -1
REMARK  0 active torsions:
REMARK  status: ('A' for Active; 'I' for Inactive)
ROOT
ATOM      1  C   UNL d   1       0.523  -1.310  -0.203  0.00  0.00     0.077 C 
ATOM      2  C1  UNL d   1       0.377   0.161   0.050  0.00  0.00    -0.074 A 
ATOM      3  C2  UNL d   1       1.378   1.060  -0.333  0.00  0.00    -0.005 A 
ATOM      4  C3  UNL d   1       1.223   2.426  -0.099  0.00  0.00     0.006 A 
ATOM      5  C4  UNL d   1       0.068   2.907   0.519  0.00  0.00    -0.005 A 
ATOM      6  C5  UNL d   1      -0.944   2.024   0.908  0.00  0.00    -0.074 A 
ATOM      7  C6  UNL d   1      -2.196   2.525   1.564  0.00  0.00     0.077 C 
ATOM      8  C7  UNL d   1      -0.784   0.653   0.663  0.00  0.00    -0.001 A 
ENDROOT
TORSDOF 0
ENDMDL
