MODEL 1
REMARK minimizedAffinity -4.90895128
REMARK minimizedRMSD -1
REMARK  0 active torsions:
REMARK  status: ('A' for Active; 'I' for Inactive)
ROOT
ATOM      1  C   UNL d   1      -0.621  -1.999   0.387  0.00  0.00     0.077 C 
ATOM      2  C1  UNL d   1       0.324  -0.835   0.358  0.00  0.00    -0.074 A 
ATOM      3  C2  UNL d   1       1.689  -1.011   0.607  0.00  0.00    -0.005 A 
ATOM      4  C3  UNL d   1       2.558   0.079   0.566  0.00  0.00     0.006 A 
ATOM      5  C4  UNL d   1       2.071   1.355   0.277  0.00  0.00    -0.005 A 
ATOM      6  C5  UNL d   1       0.710   1.550   0.025  0.00  0.00    -0.074 A 
ATOM      7  C6  UNL d   1       0.172   2.913  -0.297  0.00  0.00     0.077 C 
ATOM      8  C7  UNL d   1      -0.156   0.449   0.061  0.00  0.00    -0.001 A 
ENDROOT
TORSDOF 0
ENDMDL
