MODEL 1
REMARK minimizedAffinity -5.52440214
REMARK minimizedRMSD -1
REMARK  0 active torsions:
REMARK  status: ('A' for Active; 'I' for Inactive)
ROOT
ATOM      1  C   UNL d   1       0.904   3.720  -0.316  0.00  0.00     0.077 C 
ATOM      2  C1  UNL d   1      -0.001   2.546  -0.086  0.00  0.00    -0.074 A 
ATOM      3  C2  UNL d   1      -1.098   2.642   0.776  0.00  0.00    -0.005 A 
ATOM      4  C3  UNL d   1      -1.936   1.545   0.972  0.00  0.00     0.006 A 
ATOM      5  C4  UNL d   1      -1.687   0.342   0.310  0.00  0.00    -0.005 A 
ATOM      6  C5  UNL d   1      -0.595   0.228  -0.557  0.00  0.00    -0.074 A 
ATOM      7  C6  UNL d   1      -0.318  -1.054  -1.284  0.00  0.00     0.077 C 
ATOM      8  C7  UNL d   1       0.239   1.337  -0.754  0.00  0.00    -0.001 A 
ENDROOT
TORSDOF 0
ENDMDL
