MODEL 1
REMARK minimizedAffinity -3.22937059
REMARK minimizedRMSD -1
REMARK  0 active torsions:
REMARK  status: ('A' for Active; 'I' for Inactive)
ROOT
ATOM      1  C   UNL d   1      -1.289   2.714   2.536  0.00  0.00     0.077 C 
ATOM      2  C1  UNL d   1      -0.762   2.029   1.309  0.00  0.00    -0.074 A 
ATOM      3  C2  UNL d   1       0.007   2.725   0.372  0.00  0.00    -0.005 A 
ATOM      4  C3  UNL d   1       0.498   2.072  -0.759  0.00  0.00     0.006 A 
ATOM      5  C4  UNL d   1       0.224   0.719  -0.963  0.00  0.00    -0.005 A 
ATOM      6  C5  UNL d   1      -0.543   0.006  -0.036  0.00  0.00    -0.074 A 
ATOM      7  C6  UNL d   1      -0.838  -1.451  -0.235  0.00  0.00     0.077 C 
ATOM      8  C7  UNL d   1      -1.026   0.668   1.101  0.00  0.00    -0.001 A 
ENDROOT
TORSDOF 0
ENDMDL
