MODEL 1
REMARK minimizedAffinity -5.02413559
REMARK minimizedRMSD -1
REMARK  0 active torsions:
REMARK  status: ('A' for Active; 'I' for Inactive)
ROOT
ATOM      1  C   UNL d   1      -1.728  -0.047   1.616  0.00  0.00     0.077 C 
ATOM      2  C1  UNL d   1      -0.745   0.866   0.947  0.00  0.00    -0.074 A 
ATOM      3  C2  UNL d   1      -1.040   2.219   0.748  0.00  0.00    -0.005 A 
ATOM      4  C3  UNL d   1      -0.112   3.058   0.133  0.00  0.00     0.006 A 
ATOM      5  C4  UNL d   1       1.120   2.555  -0.288  0.00  0.00    -0.005 A 
ATOM      6  C5  UNL d   1       1.433   1.206  -0.097  0.00  0.00    -0.074 A 
ATOM      7  C6  UNL d   1       2.756   0.651  -0.535  0.00  0.00     0.077 C 
ATOM      8  C7  UNL d   1       0.498   0.370   0.528  0.00  0.00    -0.001 A 
ENDROOT
TORSDOF 0
ENDMDL
