MODEL 1
REMARK minimizedAffinity -2.94766474
REMARK minimizedRMSD -1
REMARK  0 active torsions:
REMARK  status: ('A' for Active; 'I' for Inactive)
ROOT
ATOM      1  C   UNL d   1       2.877  -0.636   0.534  0.00  0.00     0.077 C 
ATOM      2  C1  UNL d   1       1.487  -0.134   0.277  0.00  0.00    -0.074 A 
ATOM      3  C2  UNL d   1       0.445  -1.020  -0.013  0.00  0.00    -0.005 A 
ATOM      4  C3  UNL d   1      -0.845  -0.539  -0.241  0.00  0.00     0.006 A 
ATOM      5  C4  UNL d   1      -1.105   0.830  -0.180  0.00  0.00    -0.005 A 
ATOM      6  C5  UNL d   1      -0.075   1.732   0.109  0.00  0.00    -0.074 A 
ATOM      7  C6  UNL d   1      -0.339   3.206   0.187  0.00  0.00     0.077 C 
ATOM      8  C7  UNL d   1       1.216   1.240   0.343  0.00  0.00    -0.001 A 
ENDROOT
TORSDOF 0
ENDMDL
