MODEL 1
REMARK minimizedAffinity -3.94236326
REMARK minimizedRMSD -1
REMARK  0 active torsions:
REMARK  status: ('A' for Active; 'I' for Inactive)
ROOT
ATOM      1  C   UNL d   1      -0.124  -1.063  -1.167  0.00  0.00     0.077 C 
ATOM      2  C1  UNL d   1      -0.503   0.127  -0.337  0.00  0.00    -0.074 A 
ATOM      3  C2  UNL d   1      -1.614   0.087   0.511  0.00  0.00    -0.005 A 
ATOM      4  C3  UNL d   1      -1.949   1.199   1.284  0.00  0.00     0.006 A 
ATOM      5  C4  UNL d   1      -1.177   2.360   1.217  0.00  0.00    -0.005 A 
ATOM      6  C5  UNL d   1      -0.062   2.418   0.375  0.00  0.00    -0.074 A 
ATOM      7  C6  UNL d   1       0.784   3.654   0.299  0.00  0.00     0.077 C 
ATOM      8  C7  UNL d   1       0.272   1.294  -0.393  0.00  0.00    -0.001 A 
ENDROOT
TORSDOF 0
ENDMDL
