MODEL 1
REMARK minimizedAffinity -5.20196962
REMARK minimizedRMSD -1
REMARK  0 active torsions:
REMARK  status: ('A' for Active; 'I' for Inactive)
ROOT
ATOM      1  C   UNL d   1      -0.203  -1.052  -0.720  0.00  0.00     0.077 C 
ATOM      2  C1  UNL d   1      -0.509   0.241  -0.023  0.00  0.00    -0.074 A 
ATOM      3  C2  UNL d   1      -1.768   0.472   0.542  0.00  0.00    -0.005 A 
ATOM      4  C3  UNL d   1      -2.035   1.676   1.194  0.00  0.00     0.006 A 
ATOM      5  C4  UNL d   1      -1.048   2.658   1.289  0.00  0.00    -0.005 A 
ATOM      6  C5  UNL d   1       0.216   2.444   0.731  0.00  0.00    -0.074 A 
ATOM      7  C6  UNL d   1       1.291   3.485   0.832  0.00  0.00     0.077 C 
ATOM      8  C7  UNL d   1       0.479   1.229   0.083  0.00  0.00    -0.001 A 
ENDROOT
TORSDOF 0
ENDMDL
