MODEL 1
REMARK minimizedAffinity -3.96128869
REMARK minimizedRMSD -1
REMARK  0 active torsions:
REMARK  status: ('A' for Active; 'I' for Inactive)
ROOT
ATOM      1  C   UNL d   1       2.696   0.204   0.781  0.00  0.00     0.077 C 
ATOM      2  C1  UNL d   1       1.211  -0.009   0.787  0.00  0.00    -0.074 A 
ATOM      3  C2  UNL d   1       0.334   1.046   1.061  0.00  0.00    -0.005 A 
ATOM      4  C3  UNL d   1      -1.044   0.835   1.053  0.00  0.00     0.006 A 
ATOM      5  C4  UNL d   1      -1.560  -0.431   0.772  0.00  0.00    -0.005 A 
ATOM      6  C5  UNL d   1      -0.699  -1.498   0.495  0.00  0.00    -0.074 A 
ATOM      7  C6  UNL d   1      -1.236  -2.862   0.181  0.00  0.00     0.077 C 
ATOM      8  C7  UNL d   1       0.685  -1.276   0.498  0.00  0.00    -0.001 A 
ENDROOT
TORSDOF 0
ENDMDL
