MODEL 1
REMARK minimizedAffinity -2.61869621
REMARK minimizedRMSD -1
REMARK  0 active torsions:
REMARK  status: ('A' for Active; 'I' for Inactive)
ROOT
ATOM      1  C   UNL d   1      -0.542  -1.130  -0.097  0.00  0.00     0.077 C 
ATOM      2  C1  UNL d   1      -0.305   0.341   0.080  0.00  0.00    -0.074 A 
ATOM      3  C2  UNL d   1       0.509   1.050  -0.809  0.00  0.00    -0.005 A 
ATOM      4  C3  UNL d   1       0.713   2.419  -0.636  0.00  0.00     0.006 A 
ATOM      5  C4  UNL d   1       0.105   3.091   0.425  0.00  0.00    -0.005 A 
ATOM      6  C5  UNL d   1      -0.713   2.399   1.323  0.00  0.00    -0.074 A 
ATOM      7  C6  UNL d   1      -1.381   3.109   2.463  0.00  0.00     0.077 C 
ATOM      8  C7  UNL d   1      -0.918   1.025   1.139  0.00  0.00    -0.001 A 
ENDROOT
TORSDOF 0
ENDMDL
