MODEL 1
REMARK minimizedAffinity 6.97133827
REMARK minimizedRMSD -1
REMARK  0 active torsions:
REMARK  status: ('A' for Active; 'I' for Inactive)
ROOT
ATOM      1  C   UNL d   1      -5.039   2.970   5.332  0.00  0.00     0.077 C 
ATOM      2  C1  UNL d   1      -4.545   1.954   4.346  0.00  0.00    -0.074 A 
ATOM      3  C2  UNL d   1      -3.304   2.106   3.718  0.00  0.00    -0.005 A 
ATOM      4  C3  UNL d   1      -2.854   1.148   2.810  0.00  0.00     0.006 A 
ATOM      5  C4  UNL d   1      -3.637   0.030   2.522  0.00  0.00    -0.005 A 
ATOM      6  C5  UNL d   1      -4.880  -0.139   3.141  0.00  0.00    -0.074 A 
ATOM      7  C6  UNL d   1      -5.730  -1.340   2.849  0.00  0.00     0.077 C 
ATOM      8  C7  UNL d   1      -5.323   0.825   4.057  0.00  0.00    -0.001 A 
ENDROOT
TORSDOF 0
ENDMDL
