MODEL 1
REMARK minimizedAffinity 8.57812595
REMARK minimizedRMSD -1
REMARK  0 active torsions:
REMARK  status: ('A' for Active; 'I' for Inactive)
ROOT
ATOM      1  C   UNL d   1      -0.904   1.198   2.562  0.00  0.00     0.077 C 
ATOM      2  C1  UNL d   1      -2.113   0.324   2.713  0.00  0.00    -0.074 A 
ATOM      3  C2  UNL d   1      -3.001   0.135   1.648  0.00  0.00    -0.005 A 
ATOM      4  C3  UNL d   1      -4.116  -0.689   1.800  0.00  0.00     0.006 A 
ATOM      5  C4  UNL d   1      -4.355  -1.331   3.016  0.00  0.00    -0.005 A 
ATOM      6  C5  UNL d   1      -3.478  -1.155   4.091  0.00  0.00    -0.074 A 
ATOM      7  C6  UNL d   1      -3.715  -1.846   5.401  0.00  0.00     0.077 C 
ATOM      8  C7  UNL d   1      -2.356  -0.331   3.928  0.00  0.00    -0.001 A 
ENDROOT
TORSDOF 0
ENDMDL
