MODEL 1
REMARK minimizedAffinity 12.2472372
REMARK minimizedRMSD -1
REMARK  0 active torsions:
REMARK  status: ('A' for Active; 'I' for Inactive)
ROOT
ATOM      1  C   UNL d   1      -2.384  -5.702  -1.492  0.00  0.00     0.077 C 
ATOM      2  C1  UNL d   1      -2.214  -4.783  -2.665  0.00  0.00    -0.074 A 
ATOM      3  C2  UNL d   1      -0.943  -4.370  -3.077  0.00  0.00    -0.005 A 
ATOM      4  C3  UNL d   1      -0.800  -3.522  -4.175  0.00  0.00     0.006 A 
ATOM      5  C4  UNL d   1      -1.925  -3.080  -4.872  0.00  0.00    -0.005 A 
ATOM      6  C5  UNL d   1      -3.204  -3.483  -4.476  0.00  0.00    -0.074 A 
ATOM      7  C6  UNL d   1      -4.423  -3.025  -5.220  0.00  0.00     0.077 C 
ATOM      8  C7  UNL d   1      -3.339  -4.341  -3.375  0.00  0.00    -0.001 A 
ENDROOT
TORSDOF 0
ENDMDL
