MODEL 1
REMARK minimizedAffinity 15.2723246
REMARK minimizedRMSD -1
REMARK  0 active torsions:
REMARK  status: ('A' for Active; 'I' for Inactive)
ROOT
ATOM      1  C   UNL d   1      -0.581  -3.663  -2.919  0.00  0.00     0.077 C 
ATOM      2  C1  UNL d   1       0.522  -3.147  -2.043  0.00  0.00    -0.074 A 
ATOM      3  C2  UNL d   1       1.122  -3.969  -1.084  0.00  0.00    -0.005 A 
ATOM      4  C3  UNL d   1       2.153  -3.479  -0.283  0.00  0.00     0.006 A 
ATOM      5  C4  UNL d   1       2.594  -2.163  -0.432  0.00  0.00    -0.005 A 
ATOM      6  C5  UNL d   1       2.006  -1.327  -1.387  0.00  0.00    -0.074 A 
ATOM      7  C6  UNL d   1       2.475   0.086  -1.567  0.00  0.00     0.077 C 
ATOM      8  C7  UNL d   1       0.976  -1.829  -2.193  0.00  0.00    -0.001 A 
ENDROOT
TORSDOF 0
ENDMDL
