MODEL 1
REMARK minimizedAffinity 16.7310677
REMARK minimizedRMSD -1
REMARK  0 active torsions:
REMARK  status: ('A' for Active; 'I' for Inactive)
ROOT
ATOM      1  C   UNL d   1       4.411   2.096   0.331  0.00  0.00     0.077 C 
ATOM      2  C1  UNL d   1       3.705   0.952  -0.334  0.00  0.00    -0.074 A 
ATOM      3  C2  UNL d   1       2.755   1.178  -1.335  0.00  0.00    -0.005 A 
ATOM      4  C3  UNL d   1       2.113   0.104  -1.952  0.00  0.00     0.006 A 
ATOM      5  C4  UNL d   1       2.415  -1.205  -1.574  0.00  0.00    -0.005 A 
ATOM      6  C5  UNL d   1       3.363  -1.451  -0.576  0.00  0.00    -0.074 A 
ATOM      7  C6  UNL d   1       3.706  -2.852  -0.165  0.00  0.00     0.077 C 
ATOM      8  C7  UNL d   1       4.009  -0.366   0.034  0.00  0.00    -0.001 A 
ENDROOT
TORSDOF 0
ENDMDL
