MODEL 1
REMARK minimizedAffinity 13.2705631
REMARK minimizedRMSD -1
REMARK  0 active torsions:
REMARK  status: ('A' for Active; 'I' for Inactive)
ROOT
ATOM      1  C   UNL d   1       3.403  -2.350  -0.417  0.00  0.00     0.077 C 
ATOM      2  C1  UNL d   1       2.875  -3.592  -1.073  0.00  0.00    -0.074 A 
ATOM      3  C2  UNL d   1       3.366  -4.854  -0.724  0.00  0.00    -0.005 A 
ATOM      4  C3  UNL d   1       2.858  -6.000  -1.335  0.00  0.00     0.006 A 
ATOM      5  C4  UNL d   1       1.856  -5.896  -2.301  0.00  0.00    -0.005 A 
ATOM      6  C5  UNL d   1       1.352  -4.642  -2.662  0.00  0.00    -0.074 A 
ATOM      7  C6  UNL d   1       0.268  -4.514  -3.691  0.00  0.00     0.077 C 
ATOM      8  C7  UNL d   1       1.862  -3.496  -2.038  0.00  0.00    -0.001 A 
ENDROOT
TORSDOF 0
ENDMDL
