MODEL 1
REMARK minimizedAffinity 6.64231968
REMARK minimizedRMSD -1
REMARK  0 active torsions:
REMARK  status: ('A' for Active; 'I' for Inactive)
ROOT
ATOM      1  C   UNL d   1      -5.908  -5.843  -5.995  0.00  0.00     0.077 C 
ATOM      2  C1  UNL d   1      -4.728  -5.140  -5.393  0.00  0.00    -0.074 A 
ATOM      3  C2  UNL d   1      -4.039  -5.692  -4.308  0.00  0.00    -0.005 A 
ATOM      4  C3  UNL d   1      -2.937  -5.031  -3.765  0.00  0.00     0.006 A 
ATOM      5  C4  UNL d   1      -2.514  -3.814  -4.301  0.00  0.00    -0.005 A 
ATOM      6  C5  UNL d   1      -3.190  -3.247  -5.386  0.00  0.00    -0.074 A 
ATOM      7  C6  UNL d   1      -2.742  -1.945  -5.980  0.00  0.00     0.077 C 
ATOM      8  C7  UNL d   1      -4.292  -3.921  -5.931  0.00  0.00    -0.001 A 
ENDROOT
TORSDOF 0
ENDMDL
