MODEL 1
REMARK minimizedAffinity 11.6665564
REMARK minimizedRMSD -1
REMARK  0 active torsions:
REMARK  status: ('A' for Active; 'I' for Inactive)
ROOT
ATOM      1  C   UNL d   1      -4.317  -0.553   2.137  0.00  0.00     0.077 C 
ATOM      2  C1  UNL d   1      -2.859  -0.290   2.369  0.00  0.00    -0.074 A 
ATOM      3  C2  UNL d   1      -1.982  -1.333   2.685  0.00  0.00    -0.005 A 
ATOM      4  C3  UNL d   1      -0.626  -1.074   2.888  0.00  0.00     0.006 A 
ATOM      5  C4  UNL d   1      -0.135   0.227   2.778  0.00  0.00    -0.005 A 
ATOM      6  C5  UNL d   1      -0.997   1.282   2.462  0.00  0.00    -0.074 A 
ATOM      7  C6  UNL d   1      -0.483   2.685   2.330  0.00  0.00     0.077 C 
ATOM      8  C7  UNL d   1      -2.356   1.013   2.252  0.00  0.00    -0.001 A 
ENDROOT
TORSDOF 0
ENDMDL
