MODEL 1
REMARK minimizedAffinity 19.2192516
REMARK minimizedRMSD -1
REMARK  0 active torsions:
REMARK  status: ('A' for Active; 'I' for Inactive)
ROOT
ATOM      1  C   UNL d   1      -6.000  -1.848   1.397  0.00  0.00     0.077 C 
ATOM      2  C1  UNL d   1      -4.927  -1.266   2.268  0.00  0.00    -0.074 A 
ATOM      3  C2  UNL d   1      -4.726  -1.734   3.571  0.00  0.00    -0.005 A 
ATOM      4  C3  UNL d   1      -3.718  -1.189   4.366  0.00  0.00     0.006 A 
ATOM      5  C4  UNL d   1      -2.901  -0.174   3.867  0.00  0.00    -0.005 A 
ATOM      6  C5  UNL d   1      -3.086   0.306   2.567  0.00  0.00    -0.074 A 
ATOM      7  C6  UNL d   1      -2.211   1.390   2.012  0.00  0.00     0.077 C 
ATOM      8  C7  UNL d   1      -4.097  -0.251   1.771  0.00  0.00    -0.001 A 
ENDROOT
TORSDOF 0
ENDMDL
