MODEL 1
REMARK minimizedAffinity -0.287350059
REMARK minimizedRMSD -1
REMARK  0 active torsions:
REMARK  status: ('A' for Active; 'I' for Inactive)
ROOT
ATOM      1  C   UNL d   1      -4.282  -3.443  -5.457  0.00  0.00     0.077 C 
ATOM      2  C1  UNL d   1      -3.404  -4.135  -4.457  0.00  0.00    -0.074 A 
ATOM      3  C2  UNL d   1      -3.947  -5.001  -3.502  0.00  0.00    -0.005 A 
ATOM      4  C3  UNL d   1      -3.117  -5.645  -2.584  0.00  0.00     0.006 A 
ATOM      5  C4  UNL d   1      -1.739  -5.428  -2.611  0.00  0.00    -0.005 A 
ATOM      6  C5  UNL d   1      -1.178  -4.566  -3.559  0.00  0.00    -0.074 A 
ATOM      7  C6  UNL d   1       0.302  -4.330  -3.608  0.00  0.00     0.077 C 
ATOM      8  C7  UNL d   1      -2.018  -3.929  -4.482  0.00  0.00    -0.001 A 
ENDROOT
TORSDOF 0
ENDMDL
