MODEL 1
REMARK minimizedAffinity 1.539904
REMARK minimizedRMSD -1
REMARK  0 active torsions:
REMARK  status: ('A' for Active; 'I' for Inactive)
ROOT
ATOM      1  C   UNL d   1      -2.622  -5.619  -1.872  0.00  0.00     0.077 C 
ATOM      2  C1  UNL d   1      -2.579  -4.952  -3.215  0.00  0.00    -0.074 A 
ATOM      3  C2  UNL d   1      -1.373  -4.485  -3.747  0.00  0.00    -0.005 A 
ATOM      4  C3  UNL d   1      -1.346  -3.875  -5.001  0.00  0.00     0.006 A 
ATOM      5  C4  UNL d   1      -2.524  -3.726  -5.735  0.00  0.00    -0.005 A 
ATOM      6  C5  UNL d   1      -3.739  -4.188  -5.220  0.00  0.00    -0.074 A 
ATOM      7  C6  UNL d   1      -5.012  -4.045  -6.000  0.00  0.00     0.077 C 
ATOM      8  C7  UNL d   1      -3.756  -4.806  -3.962  0.00  0.00    -0.001 A 
ENDROOT
TORSDOF 0
ENDMDL
