MODEL 1
REMARK minimizedAffinity 3.04317784
REMARK minimizedRMSD -1
REMARK  0 active torsions:
REMARK  status: ('A' for Active; 'I' for Inactive)
ROOT
ATOM      1  C   UNL d   1      -2.589  -5.999  -1.353  0.00  0.00     0.077 C 
ATOM      2  C1  UNL d   1      -2.213  -5.150  -2.531  0.00  0.00    -0.074 A 
ATOM      3  C2  UNL d   1      -0.874  -4.862  -2.811  0.00  0.00    -0.005 A 
ATOM      4  C3  UNL d   1      -0.539  -4.078  -3.916  0.00  0.00     0.006 A 
ATOM      5  C4  UNL d   1      -1.539  -3.576  -4.750  0.00  0.00    -0.005 A 
ATOM      6  C5  UNL d   1      -2.884  -3.854  -4.486  0.00  0.00    -0.074 A 
ATOM      7  C6  UNL d   1      -3.970  -3.331  -5.377  0.00  0.00     0.077 C 
ATOM      8  C7  UNL d   1      -3.211  -4.648  -3.378  0.00  0.00    -0.001 A 
ENDROOT
TORSDOF 0
ENDMDL
