MODEL 1
REMARK minimizedAffinity 14.5699644
REMARK minimizedRMSD -1
REMARK  0 active torsions:
REMARK  status: ('A' for Active; 'I' for Inactive)
ROOT
ATOM      1  C   UNL d   1      -0.404   3.291   6.000  0.00  0.00     0.077 C 
ATOM      2  C1  UNL d   1      -0.026   2.027   5.287  0.00  0.00    -0.074 A 
ATOM      3  C2  UNL d   1       0.314   0.873   6.000  0.00  0.00    -0.005 A 
ATOM      4  C3  UNL d   1       0.655  -0.298   5.323  0.00  0.00     0.006 A 
ATOM      5  C4  UNL d   1       0.659  -0.327   3.928  0.00  0.00    -0.005 A 
ATOM      6  C5  UNL d   1       0.321   0.817   3.197  0.00  0.00    -0.074 A 
ATOM      7  C6  UNL d   1       0.311   0.800   1.698  0.00  0.00     0.077 C 
ATOM      8  C7  UNL d   1      -0.027   1.988   3.885  0.00  0.00    -0.001 A 
ENDROOT
TORSDOF 0
ENDMDL
