MODEL 1
REMARK minimizedAffinity 5.70203114
REMARK minimizedRMSD -1
REMARK  0 active torsions:
REMARK  status: ('A' for Active; 'I' for Inactive)
ROOT
ATOM      1  C   UNL d   1       0.246   0.331   1.565  0.00  0.00     0.077 C 
ATOM      2  C1  UNL d   1      -1.108   0.560   2.167  0.00  0.00    -0.074 A 
ATOM      3  C2  UNL d   1      -1.346   1.654   3.007  0.00  0.00    -0.005 A 
ATOM      4  C3  UNL d   1      -2.614   1.859   3.552  0.00  0.00     0.006 A 
ATOM      5  C4  UNL d   1      -3.654   0.975   3.264  0.00  0.00    -0.005 A 
ATOM      6  C5  UNL d   1      -3.435  -0.123   2.426  0.00  0.00    -0.074 A 
ATOM      7  C6  UNL d   1      -4.545  -1.078   2.099  0.00  0.00     0.077 C 
ATOM      8  C7  UNL d   1      -2.161  -0.319   1.877  0.00  0.00    -0.001 A 
ENDROOT
TORSDOF 0
ENDMDL
