MODEL 1
REMARK minimizedAffinity 11.3694792
REMARK minimizedRMSD -1
REMARK  0 active torsions:
REMARK  status: ('A' for Active; 'I' for Inactive)
ROOT
ATOM      1  C   UNL d   1      -3.349  -1.869   4.175  0.00  0.00     0.077 C 
ATOM      2  C1  UNL d   1      -2.654  -0.683   3.575  0.00  0.00    -0.074 A 
ATOM      3  C2  UNL d   1      -3.384   0.382   3.036  0.00  0.00    -0.005 A 
ATOM      4  C3  UNL d   1      -2.724   1.482   2.490  0.00  0.00     0.006 A 
ATOM      5  C4  UNL d   1      -1.329   1.529   2.477  0.00  0.00    -0.005 A 
ATOM      6  C5  UNL d   1      -0.582   0.475   3.012  0.00  0.00    -0.074 A 
ATOM      7  C6  UNL d   1       0.917   0.514   3.015  0.00  0.00     0.077 C 
ATOM      8  C7  UNL d   1      -1.253  -0.624   3.565  0.00  0.00    -0.001 A 
ENDROOT
TORSDOF 0
ENDMDL
