MODEL 1
REMARK minimizedAffinity 0.228441864
REMARK minimizedRMSD -1
REMARK  0 active torsions:
REMARK  status: ('A' for Active; 'I' for Inactive)
ROOT
ATOM      1  C   UNL d   1       2.243  -1.373  -0.453  0.00  0.00     0.077 C 
ATOM      2  C1  UNL d   1       2.374  -2.692  -1.155  0.00  0.00    -0.074 A 
ATOM      3  C2  UNL d   1       3.501  -3.498  -0.966  0.00  0.00    -0.005 A 
ATOM      4  C3  UNL d   1       3.604  -4.727  -1.619  0.00  0.00     0.006 A 
ATOM      5  C4  UNL d   1       2.584  -5.160  -2.467  0.00  0.00    -0.005 A 
ATOM      6  C5  UNL d   1       1.449  -4.367  -2.667  0.00  0.00    -0.074 A 
ATOM      7  C6  UNL d   1       0.339  -4.823  -3.567  0.00  0.00     0.077 C 
ATOM      8  C7  UNL d   1       1.349  -3.138  -2.002  0.00  0.00    -0.001 A 
ENDROOT
TORSDOF 0
ENDMDL
