MODEL 1
REMARK minimizedAffinity -0.554715097
REMARK minimizedRMSD -1
REMARK  0 active torsions:
REMARK  status: ('A' for Active; 'I' for Inactive)
ROOT
ATOM      1  C   UNL d   1       0.110   1.659  -0.898  0.00  0.00     0.124 A 
ATOM      2  C1  UNL d   1       0.126   0.727  -1.926  0.00  0.00     0.062 A 
ATOM      3  C2  UNL d   1       0.004  -0.630  -1.643  0.00  0.00     0.162 A 
ATOM      4  C3  UNL d   1      -0.137  -1.064  -0.325  0.00  0.00    -0.034 A 
ATOM      5  C4  UNL d   1      -0.152  -0.121   0.704  0.00  0.00     0.162 A 
ATOM      6  C5  UNL d   1      -0.029   1.234   0.416  0.00  0.00     0.062 A 
ATOM      7  F   UNL d   1      -0.045   2.133   1.411  0.00  0.00    -0.097 F 
ATOM      8  F1  UNL d   1      -0.286  -0.504   1.983  0.00  0.00    -0.096 F 
ATOM      9  I   UNL d   1      -0.320  -3.093   0.103  0.00  0.00    -0.060 I 
ATOM     10  F2  UNL d   1       0.023  -1.509  -2.657  0.00  0.00    -0.096 F 
ATOM     11  F3  UNL d   1       0.261   1.135  -3.196  0.00  0.00    -0.097 F 
ATOM     12  F4  UNL d   1       0.228   2.964  -1.173  0.00  0.00    -0.092 F 
ENDROOT
TORSDOF 0
ENDMDL
