MODEL 1
REMARK minimizedAffinity -0.268979013
REMARK minimizedRMSD -1
REMARK  0 active torsions:
REMARK  status: ('A' for Active; 'I' for Inactive)
ROOT
ATOM      1  C   UNL d   1       0.103  -1.706  -0.253  0.00  0.00     0.124 A 
ATOM      2  C1  UNL d   1       0.280  -0.775  -1.267  0.00  0.00     0.062 A 
ATOM      3  C2  UNL d   1       0.436   0.573  -0.960  0.00  0.00     0.162 A 
ATOM      4  C3  UNL d   1       0.418   0.999   0.368  0.00  0.00    -0.034 A 
ATOM      5  C4  UNL d   1       0.240   0.057   1.383  0.00  0.00     0.162 A 
ATOM      6  C5  UNL d   1       0.083  -1.289   1.070  0.00  0.00     0.062 A 
ATOM      7  F   UNL d   1      -0.087  -2.188   2.051  0.00  0.00    -0.097 F 
ATOM      8  F1  UNL d   1       0.217   0.432   2.670  0.00  0.00    -0.096 F 
ATOM      9  I   UNL d   1       0.653   3.015   0.832  0.00  0.00    -0.060 I 
ATOM     10  F2  UNL d   1       0.605   1.451  -1.960  0.00  0.00    -0.096 F 
ATOM     11  F3  UNL d   1       0.298  -1.175  -2.547  0.00  0.00    -0.097 F 
ATOM     12  F4  UNL d   1      -0.049  -3.003  -0.552  0.00  0.00    -0.092 F 
ENDROOT
TORSDOF 0
ENDMDL
