MODEL 1
REMARK minimizedAffinity -2.15254855
REMARK minimizedRMSD -1
REMARK  0 active torsions:
REMARK  status: ('A' for Active; 'I' for Inactive)
ROOT
ATOM      1  C   UNL d   1       0.070  -2.234   0.131  0.00  0.00     0.124 A 
ATOM      2  C1  UNL d   1      -0.727  -1.644   1.102  0.00  0.00     0.062 A 
ATOM      3  C2  UNL d   1      -0.812  -0.258   1.191  0.00  0.00     0.162 A 
ATOM      4  C3  UNL d   1      -0.098   0.549   0.305  0.00  0.00    -0.034 A 
ATOM      5  C4  UNL d   1       0.702  -0.051  -0.668  0.00  0.00     0.162 A 
ATOM      6  C5  UNL d   1       0.784  -1.437  -0.753  0.00  0.00     0.062 A 
ATOM      7  F   UNL d   1       1.554  -2.006  -1.692  0.00  0.00    -0.097 F 
ATOM      8  F1  UNL d   1       1.402   0.695  -1.536  0.00  0.00    -0.096 F 
ATOM      9  I   UNL d   1      -0.222   2.623   0.435  0.00  0.00    -0.060 I 
ATOM     10  F2  UNL d   1      -1.590   0.285   2.139  0.00  0.00    -0.096 F 
ATOM     11  F3  UNL d   1      -1.417  -2.412   1.958  0.00  0.00    -0.097 F 
ATOM     12  F4  UNL d   1       0.150  -3.568   0.048  0.00  0.00    -0.092 F 
ENDROOT
TORSDOF 0
ENDMDL
