MODEL 1
REMARK minimizedAffinity -2.07817435
REMARK minimizedRMSD -1
REMARK  0 active torsions:
REMARK  status: ('A' for Active; 'I' for Inactive)
ROOT
ATOM      1  C   UNL d   1      -0.020  -2.438   0.140  0.00  0.00     0.124 A 
ATOM      2  C1  UNL d   1       0.687  -1.645  -0.753  0.00  0.00     0.062 A 
ATOM      3  C2  UNL d   1       0.648  -0.258  -0.640  0.00  0.00     0.162 A 
ATOM      4  C3  UNL d   1      -0.101   0.345   0.372  0.00  0.00    -0.034 A 
ATOM      5  C4  UNL d   1      -0.809  -0.460   1.266  0.00  0.00     0.162 A 
ATOM      6  C5  UNL d   1      -0.767  -1.846   1.148  0.00  0.00     0.062 A 
ATOM      7  F   UNL d   1      -1.450  -2.611   2.012  0.00  0.00    -0.097 F 
ATOM      8  F1  UNL d   1      -1.539   0.086   2.250  0.00  0.00    -0.096 F 
ATOM      9  I   UNL d   1      -0.162   2.418   0.544  0.00  0.00    -0.060 I 
ATOM     10  F2  UNL d   1       1.340   0.484  -1.517  0.00  0.00    -0.096 F 
ATOM     11  F3  UNL d   1       1.409  -2.215  -1.728  0.00  0.00    -0.097 F 
ATOM     12  F4  UNL d   1       0.019  -3.772   0.028  0.00  0.00    -0.092 F 
ENDROOT
TORSDOF 0
ENDMDL
