MODEL 1
REMARK minimizedAffinity -1.55005002
REMARK minimizedRMSD -1
REMARK  0 active torsions:
REMARK  status: ('A' for Active; 'I' for Inactive)
ROOT
ATOM      1  C   UNL d   1      -0.802  -1.751   1.206  0.00  0.00     0.124 A 
ATOM      2  C1  UNL d   1       0.225  -2.088   0.335  0.00  0.00     0.062 A 
ATOM      3  C2  UNL d   1       0.925  -1.093  -0.341  0.00  0.00     0.162 A 
ATOM      4  C3  UNL d   1       0.601   0.250  -0.148  0.00  0.00    -0.034 A 
ATOM      5  C4  UNL d   1      -0.434   0.582   0.728  0.00  0.00     0.162 A 
ATOM      6  C5  UNL d   1      -1.131  -0.417   1.401  0.00  0.00     0.062 A 
ATOM      7  F   UNL d   1      -2.123  -0.089   2.242  0.00  0.00    -0.097 F 
ATOM      8  F1  UNL d   1      -0.771   1.863   0.936  0.00  0.00    -0.096 F 
ATOM      9  I   UNL d   1       1.645   1.741  -1.157  0.00  0.00    -0.060 I 
ATOM     10  F2  UNL d   1       1.913  -1.448  -1.176  0.00  0.00    -0.096 F 
ATOM     11  F3  UNL d   1       0.544  -3.376   0.144  0.00  0.00    -0.097 F 
ATOM     12  F4  UNL d   1      -1.475  -2.710   1.854  0.00  0.00    -0.092 F 
ENDROOT
TORSDOF 0
ENDMDL
