MODEL 1
REMARK minimizedAffinity -1.37989342
REMARK minimizedRMSD -1
REMARK  0 active torsions:
REMARK  status: ('A' for Active; 'I' for Inactive)
ROOT
ATOM      1  C   UNL d   1       0.378  -2.189  -1.015  0.00  0.00     0.124 A 
ATOM      2  C1  UNL d   1       0.249  -1.740   0.292  0.00  0.00     0.062 A 
ATOM      3  C2  UNL d   1       0.177  -0.376   0.560  0.00  0.00     0.162 A 
ATOM      4  C3  UNL d   1       0.233   0.550  -0.483  0.00  0.00    -0.034 A 
ATOM      5  C4  UNL d   1       0.364   0.091  -1.794  0.00  0.00     0.162 A 
ATOM      6  C5  UNL d   1       0.435  -1.274  -2.057  0.00  0.00     0.062 A 
ATOM      7  F   UNL d   1       0.560  -1.706  -3.320  0.00  0.00    -0.097 F 
ATOM      8  F1  UNL d   1       0.421   0.953  -2.820  0.00  0.00    -0.096 F 
ATOM      9  I   UNL d   1       0.126   2.590  -0.086  0.00  0.00    -0.060 I 
ATOM     10  F2  UNL d   1       0.053   0.030   1.832  0.00  0.00    -0.096 F 
ATOM     11  F3  UNL d   1       0.195  -2.622   1.300  0.00  0.00    -0.097 F 
ATOM     12  F4  UNL d   1       0.448  -3.502  -1.270  0.00  0.00    -0.092 F 
ENDROOT
TORSDOF 0
ENDMDL
