MODEL 1
REMARK minimizedAffinity 1.37244129
REMARK minimizedRMSD -1
REMARK  0 active torsions:
REMARK  status: ('A' for Active; 'I' for Inactive)
ROOT
ATOM      1  C   UNL d   1      -0.989  -0.471   0.995  0.00  0.00     0.124 A 
ATOM      2  C1  UNL d   1      -1.122  -1.841   0.815  0.00  0.00     0.062 A 
ATOM      3  C2  UNL d   1      -0.813  -2.420  -0.412  0.00  0.00     0.162 A 
ATOM      4  C3  UNL d   1      -0.366  -1.628  -1.470  0.00  0.00    -0.034 A 
ATOM      5  C4  UNL d   1      -0.235  -0.251  -1.283  0.00  0.00     0.162 A 
ATOM      6  C5  UNL d   1      -0.546   0.322  -0.054  0.00  0.00     0.062 A 
ATOM      7  F   UNL d   1      -0.417   1.646   0.118  0.00  0.00    -0.097 F 
ATOM      8  F1  UNL d   1       0.191   0.539  -2.279  0.00  0.00    -0.096 F 
ATOM      9  I   UNL d   1       0.098  -2.489  -3.307  0.00  0.00    -0.060 I 
ATOM     10  F2  UNL d   1      -0.950  -3.746  -0.557  0.00  0.00    -0.096 F 
ATOM     11  F3  UNL d   1      -1.551  -2.610   1.827  0.00  0.00    -0.097 F 
ATOM     12  F4  UNL d   1      -1.289   0.083   2.177  0.00  0.00    -0.092 F 
ENDROOT
TORSDOF 0
ENDMDL
