MODEL 1
REMARK minimizedAffinity -2.04502487
REMARK minimizedRMSD -1
REMARK  0 active torsions:
REMARK  status: ('A' for Active; 'I' for Inactive)
ROOT
ATOM      1  C   UNL d   1      -0.091  -3.278  -0.401  0.00  0.00     0.124 A 
ATOM      2  C1  UNL d   1       0.158  -2.553  -1.558  0.00  0.00     0.062 A 
ATOM      3  C2  UNL d   1       0.138  -1.162  -1.530  0.00  0.00     0.162 A 
ATOM      4  C3  UNL d   1      -0.131  -0.486  -0.340  0.00  0.00    -0.034 A 
ATOM      5  C4  UNL d   1      -0.380  -1.222   0.820  0.00  0.00     0.162 A 
ATOM      6  C5  UNL d   1      -0.359  -2.612   0.786  0.00  0.00     0.062 A 
ATOM      7  F   UNL d   1      -0.600  -3.311   1.905  0.00  0.00    -0.097 F 
ATOM      8  F1  UNL d   1      -0.642  -0.604   1.981  0.00  0.00    -0.096 F 
ATOM      9  I   UNL d   1      -0.161   1.595  -0.294  0.00  0.00    -0.060 I 
ATOM     10  F2  UNL d   1       0.381  -0.487  -2.663  0.00  0.00    -0.096 F 
ATOM     11  F3  UNL d   1       0.417  -3.194  -2.707  0.00  0.00    -0.097 F 
ATOM     12  F4  UNL d   1      -0.072  -4.617  -0.431  0.00  0.00    -0.092 F 
ENDROOT
TORSDOF 0
ENDMDL
