MODEL 1
REMARK minimizedAffinity -2.23220515
REMARK minimizedRMSD -1
REMARK  0 active torsions:
REMARK  status: ('A' for Active; 'I' for Inactive)
ROOT
ATOM      1  C   UNL d   1      -0.531  -2.484  -0.376  0.00  0.00     0.124 A 
ATOM      2  C1  UNL d   1      -0.612  -1.911   0.886  0.00  0.00     0.062 A 
ATOM      3  C2  UNL d   1      -0.470  -0.535   1.041  0.00  0.00     0.162 A 
ATOM      4  C3  UNL d   1      -0.245   0.278  -0.070  0.00  0.00    -0.034 A 
ATOM      5  C4  UNL d   1      -0.164  -0.305  -1.335  0.00  0.00     0.162 A 
ATOM      6  C5  UNL d   1      -0.307  -1.680  -1.485  0.00  0.00     0.062 A 
ATOM      7  F   UNL d   1      -0.227  -2.232  -2.705  0.00  0.00    -0.097 F 
ATOM      8  F1  UNL d   1       0.051   0.448  -2.424  0.00  0.00    -0.096 F 
ATOM      9  I   UNL d   1      -0.032   2.336   0.158  0.00  0.00    -0.060 I 
ATOM     10  F2  UNL d   1      -0.553  -0.009   2.272  0.00  0.00    -0.096 F 
ATOM     11  F3  UNL d   1      -0.828  -2.686   1.959  0.00  0.00    -0.097 F 
ATOM     12  F4  UNL d   1      -0.667  -3.808  -0.522  0.00  0.00    -0.092 F 
ENDROOT
TORSDOF 0
ENDMDL
