MODEL 1
REMARK minimizedAffinity -2.30384707
REMARK minimizedRMSD -1
REMARK  0 active torsions:
REMARK  status: ('A' for Active; 'I' for Inactive)
ROOT
ATOM      1  C   UNL d   1      -0.488  -1.962  -0.321  0.00  0.00     0.124 A 
ATOM      2  C1  UNL d   1      -1.079  -1.374   0.789  0.00  0.00     0.062 A 
ATOM      3  C2  UNL d   1      -0.981  -0.001   0.990  0.00  0.00     0.162 A 
ATOM      4  C3  UNL d   1      -0.289   0.796   0.078  0.00  0.00    -0.034 A 
ATOM      5  C4  UNL d   1       0.305   0.198  -1.035  0.00  0.00     0.162 A 
ATOM      6  C5  UNL d   1       0.204  -1.175  -1.231  0.00  0.00     0.062 A 
ATOM      7  F   UNL d   1       0.776  -1.740  -2.304  0.00  0.00    -0.097 F 
ATOM      8  F1  UNL d   1       0.978   0.935  -1.931  0.00  0.00    -0.096 F 
ATOM      9  I   UNL d   1      -0.140   2.851   0.375  0.00  0.00    -0.060 I 
ATOM     10  F2  UNL d   1      -1.563   0.540   2.071  0.00  0.00    -0.096 F 
ATOM     11  F3  UNL d   1      -1.747  -2.132   1.671  0.00  0.00    -0.097 F 
ATOM     12  F4  UNL d   1      -0.583  -3.284  -0.511  0.00  0.00    -0.092 F 
ENDROOT
TORSDOF 0
ENDMDL
