MODEL 1
REMARK minimizedAffinity -6.21261358
REMARK minimizedRMSD -1
REMARK  0 active torsions:
REMARK  status: ('A' for Active; 'I' for Inactive)
ROOT
ATOM      1  C   UNL d   1      -0.023  -2.542  -1.025  0.00  0.00     0.124 A 
ATOM      2  C1  UNL d   1      -0.126  -1.597  -2.037  0.00  0.00     0.062 A 
ATOM      3  C2  UNL d   1      -0.104  -0.239  -1.732  0.00  0.00     0.162 A 
ATOM      4  C3  UNL d   1       0.022   0.183  -0.409  0.00  0.00    -0.034 A 
ATOM      5  C4  UNL d   1       0.124  -0.773   0.604  0.00  0.00     0.162 A 
ATOM      6  C5  UNL d   1       0.102  -2.129   0.294  0.00  0.00     0.062 A 
ATOM      7  F   UNL d   1       0.201  -3.040   1.273  0.00  0.00    -0.097 F 
ATOM      8  F1  UNL d   1       0.246  -0.401   1.887  0.00  0.00    -0.096 F 
ATOM      9  I   UNL d   1       0.055   2.212   0.051  0.00  0.00    -0.060 I 
ATOM     10  F2  UNL d   1      -0.205   0.651  -2.730  0.00  0.00    -0.096 F 
ATOM     11  F3  UNL d   1      -0.247  -1.994  -3.312  0.00  0.00    -0.097 F 
ATOM     12  F4  UNL d   1      -0.045  -3.848  -1.321  0.00  0.00    -0.092 F 
ENDROOT
TORSDOF 0
ENDMDL
