MODEL 1
REMARK minimizedAffinity 0.581991971
REMARK minimizedRMSD -1
REMARK  0 active torsions:
REMARK  status: ('A' for Active; 'I' for Inactive)
ROOT
ATOM      1  C   UNL d   1      -0.584  -2.628   0.194  0.00  0.00     0.124 A 
ATOM      2  C1  UNL d   1      -1.384  -1.794   0.964  0.00  0.00     0.062 A 
ATOM      3  C2  UNL d   1      -1.114  -0.431   1.030  0.00  0.00     0.162 A 
ATOM      4  C3  UNL d   1      -0.039   0.109   0.324  0.00  0.00    -0.034 A 
ATOM      5  C4  UNL d   1       0.761  -0.735  -0.447  0.00  0.00     0.162 A 
ATOM      6  C5  UNL d   1       0.488  -2.097  -0.511  0.00  0.00     0.062 A 
ATOM      7  F   UNL d   1       1.262  -2.901  -1.255  0.00  0.00    -0.097 F 
ATOM      8  F1  UNL d   1       1.803  -0.249  -1.139  0.00  0.00    -0.096 F 
ATOM      9  I   UNL d   1       0.367   2.148   0.421  0.00  0.00    -0.060 I 
ATOM     10  F2  UNL d   1      -1.904   0.351   1.782  0.00  0.00    -0.096 F 
ATOM     11  F3  UNL d   1      -2.419  -2.305   1.646  0.00  0.00    -0.097 F 
ATOM     12  F4  UNL d   1      -0.845  -3.940   0.133  0.00  0.00    -0.092 F 
ENDROOT
TORSDOF 0
ENDMDL
