MODEL 1
REMARK minimizedAffinity -1.3111701
REMARK minimizedRMSD -1
REMARK  0 active torsions:
REMARK  status: ('A' for Active; 'I' for Inactive)
ROOT
ATOM      1  C   UNL d   1       0.518  -1.264  -1.509  0.00  0.00     0.124 A 
ATOM      2  C1  UNL d   1       0.088   0.036  -1.286  0.00  0.00     0.062 A 
ATOM      3  C2  UNL d   1      -0.492   0.382  -0.068  0.00  0.00     0.162 A 
ATOM      4  C3  UNL d   1      -0.643  -0.574   0.936  0.00  0.00    -0.034 A 
ATOM      5  C4  UNL d   1      -0.209  -1.880   0.703  0.00  0.00     0.162 A 
ATOM      6  C5  UNL d   1       0.369  -2.221  -0.515  0.00  0.00     0.062 A 
ATOM      7  F   UNL d   1       0.784  -3.478  -0.730  0.00  0.00    -0.097 F 
ATOM      8  F1  UNL d   1      -0.340  -2.825   1.647  0.00  0.00    -0.096 F 
ATOM      9  I   UNL d   1      -1.509  -0.061   2.758  0.00  0.00    -0.060 I 
ATOM     10  F2  UNL d   1      -0.898   1.646   0.120  0.00  0.00    -0.096 F 
ATOM     11  F3  UNL d   1       0.230   0.962  -2.245  0.00  0.00    -0.097 F 
ATOM     12  F4  UNL d   1       1.074  -1.595  -2.682  0.00  0.00    -0.092 F 
ENDROOT
TORSDOF 0
ENDMDL
