MODEL 1
REMARK minimizedAffinity -3.33992934
REMARK minimizedRMSD -1
REMARK  0 active torsions:
REMARK  status: ('A' for Active; 'I' for Inactive)
ROOT
ATOM      1  C   UNL d   1       0.059  -2.236  -0.873  0.00  0.00     0.124 A 
ATOM      2  C1  UNL d   1       0.174  -1.830   0.449  0.00  0.00     0.062 A 
ATOM      3  C2  UNL d   1       0.344  -0.483   0.756  0.00  0.00     0.162 A 
ATOM      4  C3  UNL d   1       0.398   0.469  -0.262  0.00  0.00    -0.034 A 
ATOM      5  C4  UNL d   1       0.282   0.053  -1.590  0.00  0.00     0.162 A 
ATOM      6  C5  UNL d   1       0.113  -1.294  -1.891  0.00  0.00     0.062 A 
ATOM      7  F   UNL d   1       0.001  -1.684  -3.169  0.00  0.00    -0.097 F 
ATOM      8  F1  UNL d   1       0.329   0.942  -2.593  0.00  0.00    -0.096 F 
ATOM      9  I   UNL d   1       0.650   2.484   0.192  0.00  0.00    -0.060 I 
ATOM     10  F2  UNL d   1       0.452  -0.119   2.042  0.00  0.00    -0.096 F 
ATOM     11  F3  UNL d   1       0.124  -2.738   1.435  0.00  0.00    -0.097 F 
ATOM     12  F4  UNL d   1      -0.103  -3.533  -1.165  0.00  0.00    -0.092 F 
ENDROOT
TORSDOF 0
ENDMDL
