MODEL 1
REMARK minimizedAffinity 6.18195152
REMARK minimizedRMSD -1
REMARK  0 active torsions:
REMARK  status: ('A' for Active; 'I' for Inactive)
ROOT
ATOM      1  N1  IND d   1       1.276   3.594  -2.528  0.00  0.00    -0.196 N 
ATOM      2  C2  IND d   1       0.383   3.517  -3.560  0.00  0.00     0.054 A 
ATOM      3  C3  IND d   1       0.298   2.246  -4.014  0.00  0.00    -0.031 A 
ATOM      4  C4  IND d   1       1.456   0.118  -3.144  0.00  0.00     0.051 A 
ATOM      5  C5  IND d   1       2.390  -0.308  -2.242  0.00  0.00    -0.031 A 
ATOM      6  C6  IND d   1       3.011   0.562  -1.369  0.00  0.00     0.015 A 
ATOM      7  C7  IND d   1       2.711   1.895  -1.358  0.00  0.00    -0.016 A 
ATOM      8  C8  IND d   1       1.768   2.332  -2.278  0.00  0.00    -0.047 A 
ATOM      9  C9  IND d   1       1.167   1.461  -3.195  0.00  0.00    -0.096 A 
ATOM     10  HN1 IND d   1       1.493   4.311  -2.105  0.00  0.00     0.298 HD
ENDROOT
TORSDOF 0
ENDMDL
