MODEL 1
REMARK minimizedAffinity 2.44998717
REMARK minimizedRMSD -1
REMARK  0 active torsions:
REMARK  status: ('A' for Active; 'I' for Inactive)
ROOT
ATOM      1  N1  IND d   1      -3.070   3.003  -5.016  0.00  0.00    -0.196 N 
ATOM      2  C2  IND d   1      -3.939   3.872  -4.417  0.00  0.00     0.054 A 
ATOM      3  C3  IND d   1      -5.160   3.304  -4.294  0.00  0.00    -0.031 A 
ATOM      4  C4  IND d   1      -5.929   0.926  -4.912  0.00  0.00     0.051 A 
ATOM      5  C5  IND d   1      -5.500  -0.220  -5.520  0.00  0.00    -0.031 A 
ATOM      6  C6  IND d   1      -4.213  -0.354  -5.999  0.00  0.00     0.015 A 
ATOM      7  C7  IND d   1      -3.298   0.653  -5.876  0.00  0.00    -0.016 A 
ATOM      8  C8  IND d   1      -3.732   1.822  -5.265  0.00  0.00    -0.047 A 
ATOM      9  C9  IND d   1      -5.050   1.979  -4.816  0.00  0.00    -0.096 A 
ATOM     10  HN1 IND d   1      -2.247   3.168  -5.205  0.00  0.00     0.298 HD
ENDROOT
TORSDOF 0
ENDMDL
