MODEL 1
REMARK minimizedAffinity 9.15057373
REMARK minimizedRMSD -1
REMARK  0 active torsions:
REMARK  status: ('A' for Active; 'I' for Inactive)
ROOT
ATOM      1  N1  IND d   1       0.922  -0.898  -1.577  0.00  0.00    -0.196 N 
ATOM      2  C2  IND d   1       1.427  -1.349  -0.390  0.00  0.00     0.054 A 
ATOM      3  C3  IND d   1       2.243  -0.420   0.158  0.00  0.00    -0.031 A 
ATOM      4  C4  IND d   1       2.812   1.950  -0.671  0.00  0.00     0.051 A 
ATOM      5  C5  IND d   1       2.619   2.797  -1.727  0.00  0.00    -0.031 A 
ATOM      6  C6  IND d   1       1.833   2.449  -2.807  0.00  0.00     0.015 A 
ATOM      7  C7  IND d   1       1.199   1.241  -2.866  0.00  0.00    -0.016 A 
ATOM      8  C8  IND d   1       1.397   0.376  -1.800  0.00  0.00    -0.047 A 
ATOM      9  C9  IND d   1       2.228   0.706  -0.721  0.00  0.00    -0.096 A 
ATOM     10  HN1 IND d   1       0.396  -1.336  -2.097  0.00  0.00     0.298 HD
ENDROOT
TORSDOF 0
ENDMDL
