MODEL 1
REMARK minimizedAffinity 1.57225764
REMARK minimizedRMSD -1
REMARK  0 active torsions:
REMARK  status: ('A' for Active; 'I' for Inactive)
ROOT
ATOM      1  N1  IND d   1       1.326  -1.762  -0.578  0.00  0.00    -0.196 N 
ATOM      2  C2  IND d   1       2.665  -1.550  -0.761  0.00  0.00     0.054 A 
ATOM      3  C3  IND d   1       3.253  -1.225   0.412  0.00  0.00    -0.031 A 
ATOM      4  C4  IND d   1       2.232  -1.084   2.771  0.00  0.00     0.051 A 
ATOM      5  C5  IND d   1       1.040  -1.158   3.435  0.00  0.00    -0.031 A 
ATOM      6  C6  IND d   1      -0.142  -1.445   2.782  0.00  0.00     0.015 A 
ATOM      7  C7  IND d   1      -0.173  -1.682   1.437  0.00  0.00    -0.016 A 
ATOM      8  C8  IND d   1       1.035  -1.601   0.758  0.00  0.00    -0.047 A 
ATOM      9  C9  IND d   1       2.230  -1.268   1.409  0.00  0.00    -0.096 A 
ATOM     10  HN1 IND d   1       0.762  -1.963  -1.195  0.00  0.00     0.298 HD
ENDROOT
TORSDOF 0
ENDMDL
