MODEL 1
REMARK minimizedAffinity 8.93869781
REMARK minimizedRMSD -1
REMARK  0 active torsions:
REMARK  status: ('A' for Active; 'I' for Inactive)
ROOT
ATOM      1  N1  IND d   1       1.089  -1.462  -0.559  0.00  0.00    -0.196 N 
ATOM      2  C2  IND d   1       2.334  -1.306  -1.102  0.00  0.00     0.054 A 
ATOM      3  C3  IND d   1       3.240  -1.043  -0.134  0.00  0.00    -0.031 A 
ATOM      4  C4  IND d   1       2.919  -0.920   2.417  0.00  0.00     0.051 A 
ATOM      5  C5  IND d   1       1.954  -0.957   3.385  0.00  0.00    -0.031 A 
ATOM      6  C6  IND d   1       0.625  -1.172   3.081  0.00  0.00     0.015 A 
ATOM      7  C7  IND d   1       0.211  -1.369   1.794  0.00  0.00    -0.016 A 
ATOM      8  C8  IND d   1       1.187  -1.325   0.809  0.00  0.00    -0.047 A 
ATOM      9  C9  IND d   1       2.531  -1.065   1.106  0.00  0.00    -0.096 A 
ATOM     10  HN1 IND d   1       0.366  -1.618  -0.997  0.00  0.00     0.298 HD
ENDROOT
TORSDOF 0
ENDMDL
