MODEL 1
REMARK minimizedAffinity 8.17164898
REMARK minimizedRMSD -1
REMARK  0 active torsions:
REMARK  status: ('A' for Active; 'I' for Inactive)
ROOT
ATOM      1  N1  IND d   1       1.647  -1.196  -2.230  0.00  0.00    -0.196 N 
ATOM      2  C2  IND d   1       2.040  -1.804  -1.070  0.00  0.00     0.054 A 
ATOM      3  C3  IND d   1       2.429  -0.879  -0.163  0.00  0.00    -0.031 A 
ATOM      4  C4  IND d   1       2.407   1.689  -0.334  0.00  0.00     0.051 A 
ATOM      5  C5  IND d   1       2.167   2.709  -1.212  0.00  0.00    -0.031 A 
ATOM      6  C6  IND d   1       1.729   2.474  -2.500  0.00  0.00     0.015 A 
ATOM      7  C7  IND d   1       1.504   1.205  -2.955  0.00  0.00    -0.016 A 
ATOM      8  C8  IND d   1       1.754   0.168  -2.068  0.00  0.00    -0.047 A 
ATOM      9  C9  IND d   1       2.239   0.398  -0.775  0.00  0.00    -0.096 A 
ATOM     10  HN1 IND d   1       1.379  -1.599  -2.941  0.00  0.00     0.298 HD
ENDROOT
TORSDOF 0
ENDMDL
