MODEL 1
REMARK minimizedAffinity 6.8918829
REMARK minimizedRMSD -1
REMARK  0 active torsions:
REMARK  status: ('A' for Active; 'I' for Inactive)
ROOT
ATOM      1  N1  IND d   1       1.516  -0.074   3.884  0.00  0.00    -0.196 N 
ATOM      2  C2  IND d   1       2.406  -0.941   3.314  0.00  0.00     0.054 A 
ATOM      3  C3  IND d   1       1.826  -1.605   2.289  0.00  0.00    -0.031 A 
ATOM      4  C4  IND d   1      -0.542  -1.352   1.309  0.00  0.00     0.051 A 
ATOM      5  C5  IND d   1      -1.731  -0.711   1.517  0.00  0.00    -0.031 A 
ATOM      6  C6  IND d   1      -1.901   0.194   2.544  0.00  0.00     0.015 A 
ATOM      7  C7  IND d   1      -0.880   0.503   3.398  0.00  0.00    -0.016 A 
ATOM      8  C8  IND d   1       0.326  -0.150   3.194  0.00  0.00    -0.047 A 
ATOM      9  C9  IND d   1       0.493  -1.102   2.179  0.00  0.00    -0.096 A 
ATOM     10  HN1 IND d   1       1.673   0.433   4.560  0.00  0.00     0.298 HD
ENDROOT
TORSDOF 0
ENDMDL
