MODEL 1
REMARK minimizedAffinity 6.31157684
REMARK minimizedRMSD -1
REMARK  0 active torsions:
REMARK  status: ('A' for Active; 'I' for Inactive)
ROOT
ATOM      1  N1  IND d   1      -3.171   0.341   2.194  0.00  0.00    -0.196 N 
ATOM      2  C2  IND d   1      -3.371   1.115   3.302  0.00  0.00     0.054 A 
ATOM      3  C3  IND d   1      -2.256   1.143   4.065  0.00  0.00    -0.031 A 
ATOM      4  C4  IND d   1       0.046   0.073   3.635  0.00  0.00     0.051 A 
ATOM      5  C5  IND d   1       0.703  -0.760   2.773  0.00  0.00    -0.031 A 
ATOM      6  C6  IND d   1       0.090  -1.276   1.649  0.00  0.00     0.015 A 
ATOM      7  C7  IND d   1      -1.204  -0.969   1.339  0.00  0.00    -0.016 A 
ATOM      8  C8  IND d   1      -1.876  -0.130   2.216  0.00  0.00    -0.047 A 
ATOM      9  C9  IND d   1      -1.273   0.364   3.380  0.00  0.00    -0.096 A 
ATOM     10  HN1 IND d   1      -3.755   0.175   1.585  0.00  0.00     0.298 HD
ENDROOT
TORSDOF 0
ENDMDL
