MODEL 1
REMARK minimizedAffinity 2.8598752
REMARK minimizedRMSD -1
REMARK  0 active torsions:
REMARK  status: ('A' for Active; 'I' for Inactive)
ROOT
ATOM      1  N1  IND d   1       0.163   1.874  -1.070  0.00  0.00    -0.196 N 
ATOM      2  C2  IND d   1       1.183   2.607  -1.610  0.00  0.00     0.054 A 
ATOM      3  C3  IND d   1       2.328   1.888  -1.612  0.00  0.00    -0.031 A 
ATOM      4  C4  IND d   1       2.735  -0.544  -0.873  0.00  0.00     0.051 A 
ATOM      5  C5  IND d   1       2.115  -1.607  -0.279  0.00  0.00    -0.031 A 
ATOM      6  C6  IND d   1       0.785  -1.565   0.087  0.00  0.00     0.015 A 
ATOM      7  C7  IND d   1       0.019  -0.456  -0.139  0.00  0.00    -0.016 A 
ATOM      8  C8  IND d   1       0.647   0.628  -0.736  0.00  0.00    -0.047 A 
ATOM      9  C9  IND d   1       2.007   0.606  -1.071  0.00  0.00    -0.096 A 
ATOM     10  HN1 IND d   1      -0.645   2.145  -0.958  0.00  0.00     0.298 HD
ENDROOT
TORSDOF 0
ENDMDL
