MODEL 1
REMARK minimizedAffinity -0.379236668
REMARK minimizedRMSD -1
REMARK  0 active torsions:
REMARK  status: ('A' for Active; 'I' for Inactive)
ROOT
ATOM      1  N1  IND d   1       2.550  -0.613  -2.141  0.00  0.00    -0.196 N 
ATOM      2  C2  IND d   1       1.487   0.231  -2.307  0.00  0.00     0.054 A 
ATOM      3  C3  IND d   1       0.584   0.051  -1.316  0.00  0.00    -0.031 A 
ATOM      4  C4  IND d   1       0.694  -1.501   0.735  0.00  0.00     0.051 A 
ATOM      5  C5  IND d   1       1.452  -2.489   1.299  0.00  0.00    -0.031 A 
ATOM      6  C6  IND d   1       2.640  -2.908   0.736  0.00  0.00     0.015 A 
ATOM      7  C7  IND d   1       3.122  -2.345  -0.412  0.00  0.00    -0.016 A 
ATOM      8  C8  IND d   1       2.352  -1.347  -0.992  0.00  0.00    -0.047 A 
ATOM      9  C9  IND d   1       1.124  -0.947  -0.448  0.00  0.00    -0.096 A 
ATOM     10  HN1 IND d   1       3.228  -0.675  -2.666  0.00  0.00     0.298 HD
ENDROOT
TORSDOF 0
ENDMDL
