MODEL 1
REMARK minimizedAffinity -1.03907037
REMARK minimizedRMSD -1
REMARK  0 active torsions:
REMARK  status: ('A' for Active; 'I' for Inactive)
ROOT
ATOM      1  C   UNL d   1       4.678   5.073   1.283  0.00  0.00     0.023 A 
ATOM      2  C1  UNL d   1       4.110   5.994   2.163  0.00  0.00     0.003 A 
ATOM      3  C2  UNL d   1       4.484   6.000   3.508  0.00  0.00     0.048 A 
ATOM      4  C3  UNL d   1       5.428   5.081   3.967  0.00  0.00     0.023 A 
ATOM      5  C4  UNL d   1       6.000   4.158   3.090  0.00  0.00     0.048 A 
ATOM      6  C5  UNL d   1       5.622   4.156   1.746  0.00  0.00     0.003 A 
ATOM      7  I   UNL d   1       5.987   5.087   5.969  0.00  0.00    -0.146 I 
ENDROOT
TORSDOF 0
ENDMDL
