MODEL 1
REMARK minimizedAffinity -0.784163475
REMARK minimizedRMSD -1
REMARK  0 active torsions:
REMARK  status: ('A' for Active; 'I' for Inactive)
ROOT
ATOM      1  C   UNL d   1       4.104   5.783   0.876  0.00  0.00     0.023 A 
ATOM      2  C1  UNL d   1       3.271   6.000   1.974  0.00  0.00     0.003 A 
ATOM      3  C2  UNL d   1       3.800   5.986   3.267  0.00  0.00     0.048 A 
ATOM      4  C3  UNL d   1       5.163   5.757   3.453  0.00  0.00     0.023 A 
ATOM      5  C4  UNL d   1       6.000   5.540   2.357  0.00  0.00     0.048 A 
ATOM      6  C5  UNL d   1       5.466   5.554   1.067  0.00  0.00     0.003 A 
ATOM      7  I   UNL d   1       5.953   5.736   5.376  0.00  0.00    -0.146 I 
ENDROOT
TORSDOF 0
ENDMDL
