MODEL 1
REMARK minimizedAffinity 0.713537574
REMARK minimizedRMSD -1
REMARK  0 active torsions:
REMARK  status: ('A' for Active; 'I' for Inactive)
ROOT
ATOM      1  C   UNL d   1       1.215   0.140  -1.589  0.00  0.00     0.023 A 
ATOM      2  C1  UNL d   1       0.372   0.533  -2.630  0.00  0.00     0.003 A 
ATOM      3  C2  UNL d   1       0.884   1.258  -3.708  0.00  0.00     0.048 A 
ATOM      4  C3  UNL d   1       2.239   1.585  -3.740  0.00  0.00     0.023 A 
ATOM      5  C4  UNL d   1       3.086   1.193  -2.702  0.00  0.00     0.048 A 
ATOM      6  C5  UNL d   1       2.570   0.469  -1.626  0.00  0.00     0.003 A 
ATOM      7  I   UNL d   1       3.004   2.663  -5.344  0.00  0.00    -0.146 I 
ENDROOT
TORSDOF 0
ENDMDL
