MODEL 1
REMARK minimizedAffinity -0.512873471
REMARK minimizedRMSD -1
REMARK  0 active torsions:
REMARK  status: ('A' for Active; 'I' for Inactive)
ROOT
ATOM      1  C   UNL d   1       1.989   2.396  -5.918  0.00  0.00     0.023 A 
ATOM      2  C1  UNL d   1       0.790   1.876  -5.431  0.00  0.00     0.003 A 
ATOM      3  C2  UNL d   1       0.760   1.224  -4.197  0.00  0.00     0.048 A 
ATOM      4  C3  UNL d   1       1.933   1.096  -3.454  0.00  0.00     0.023 A 
ATOM      5  C4  UNL d   1       3.135   1.615  -3.937  0.00  0.00     0.048 A 
ATOM      6  C5  UNL d   1       3.161   2.266  -5.172  0.00  0.00     0.003 A 
ATOM      7  I   UNL d   1       1.891   0.126  -1.617  0.00  0.00    -0.146 I 
ENDROOT
TORSDOF 0
ENDMDL
