MODEL 1
REMARK minimizedAffinity 4.03920174
REMARK minimizedRMSD -1
REMARK  0 active torsions:
REMARK  status: ('A' for Active; 'I' for Inactive)
ROOT
ATOM      1  C   UNL d   1       4.162   5.999   1.140  0.00  0.00     0.023 A 
ATOM      2  C1  UNL d   1       3.231   5.999   2.178  0.00  0.00     0.003 A 
ATOM      3  C2  UNL d   1       3.663   5.998   3.506  0.00  0.00     0.048 A 
ATOM      4  C3  UNL d   1       5.028   5.998   3.788  0.00  0.00     0.023 A 
ATOM      5  C4  UNL d   1       5.964   5.999   2.753  0.00  0.00     0.048 A 
ATOM      6  C5  UNL d   1       5.527   5.999   1.427  0.00  0.00     0.003 A 
ATOM      7  I   UNL d   1       5.674   5.997   5.764  0.00  0.00    -0.146 I 
ENDROOT
TORSDOF 0
ENDMDL
