MODEL 1
REMARK minimizedAffinity 0.914495766
REMARK minimizedRMSD -1
REMARK  0 active torsions:
REMARK  status: ('A' for Active; 'I' for Inactive)
ROOT
ATOM      1  C   UNL d   1       3.344   1.094  -3.873  0.00  0.00     0.023 A 
ATOM      2  C1  UNL d   1       2.460   1.714  -4.756  0.00  0.00     0.003 A 
ATOM      3  C2  UNL d   1       1.228   2.185  -4.297  0.00  0.00     0.048 A 
ATOM      4  C3  UNL d   1       0.888   2.035  -2.954  0.00  0.00     0.023 A 
ATOM      5  C4  UNL d   1       1.769   1.417  -2.066  0.00  0.00     0.048 A 
ATOM      6  C5  UNL d   1       2.999   0.946  -2.529  0.00  0.00     0.003 A 
ATOM      7  I   UNL d   1      -0.945   2.736  -2.268  0.00  0.00    -0.146 I 
ENDROOT
TORSDOF 0
ENDMDL
