MODEL 1
REMARK minimizedAffinity -2.68231201
REMARK minimizedRMSD -1
REMARK  0 active torsions:
REMARK  status: ('A' for Active; 'I' for Inactive)
ROOT
ATOM      1  C   UNL d   1       2.483  -0.908  -1.474  0.00  0.00     0.023 A 
ATOM      2  C1  UNL d   1       3.182   0.225  -1.892  0.00  0.00     0.003 A 
ATOM      3  C2  UNL d   1       2.488   1.346  -2.349  0.00  0.00     0.048 A 
ATOM      4  C3  UNL d   1       1.094   1.329  -2.385  0.00  0.00     0.023 A 
ATOM      5  C4  UNL d   1       0.390   0.199  -1.968  0.00  0.00     0.048 A 
ATOM      6  C5  UNL d   1       1.088  -0.921  -1.512  0.00  0.00     0.003 A 
ATOM      7  I   UNL d   1       0.058   2.998  -3.066  0.00  0.00    -0.146 I 
ENDROOT
TORSDOF 0
ENDMDL
