MODEL 1
REMARK minimizedAffinity 0.158426881
REMARK minimizedRMSD -1
REMARK  0 active torsions:
REMARK  status: ('A' for Active; 'I' for Inactive)
ROOT
ATOM      1  C   UNL d   1       2.651   2.014  -5.323  0.00  0.00     0.023 A 
ATOM      2  C1  UNL d   1       3.274   1.950  -4.076  0.00  0.00     0.003 A 
ATOM      3  C2  UNL d   1       2.596   1.405  -2.983  0.00  0.00     0.048 A 
ATOM      4  C3  UNL d   1       1.296   0.926  -3.144  0.00  0.00     0.023 A 
ATOM      5  C4  UNL d   1       0.670   0.988  -4.390  0.00  0.00     0.048 A 
ATOM      6  C5  UNL d   1       1.351   1.534  -5.480  0.00  0.00     0.003 A 
ATOM      7  I   UNL d   1       0.286   0.115  -1.519  0.00  0.00    -0.146 I 
ENDROOT
TORSDOF 0
ENDMDL
