MODEL 1
REMARK minimizedAffinity 0.109310202
REMARK minimizedRMSD -1
REMARK  0 active torsions:
REMARK  status: ('A' for Active; 'I' for Inactive)
ROOT
ATOM      1  C   UNL d   1       3.047  -0.721  -2.017  0.00  0.00     0.023 A 
ATOM      2  C1  UNL d   1       1.678  -0.677  -1.754  0.00  0.00     0.003 A 
ATOM      3  C2  UNL d   1       0.925   0.432  -2.146  0.00  0.00     0.048 A 
ATOM      4  C3  UNL d   1       1.548   1.493  -2.802  0.00  0.00     0.023 A 
ATOM      5  C4  UNL d   1       2.917   1.454  -3.068  0.00  0.00     0.048 A 
ATOM      6  C5  UNL d   1       3.666   0.343  -2.673  0.00  0.00     0.003 A 
ATOM      7  I   UNL d   1       0.429   3.144  -3.387  0.00  0.00    -0.146 I 
ENDROOT
TORSDOF 0
ENDMDL
