MODEL 1
REMARK minimizedAffinity -2.01231408
REMARK minimizedRMSD -1
REMARK  0 active torsions:
REMARK  status: ('A' for Active; 'I' for Inactive)
ROOT
ATOM      1  C   UNL d   1       3.721   2.206  -5.554  0.00  0.00     0.023 A 
ATOM      2  C1  UNL d   1       2.403   2.080  -5.996  0.00  0.00     0.003 A 
ATOM      3  C2  UNL d   1       1.403   1.683  -5.107  0.00  0.00     0.048 A 
ATOM      4  C3  UNL d   1       1.726   1.414  -3.777  0.00  0.00     0.023 A 
ATOM      5  C4  UNL d   1       3.042   1.540  -3.331  0.00  0.00     0.048 A 
ATOM      6  C5  UNL d   1       4.040   1.936  -4.224  0.00  0.00     0.003 A 
ATOM      7  I   UNL d   1       0.238   0.823  -2.452  0.00  0.00    -0.146 I 
ENDROOT
TORSDOF 0
ENDMDL
