MODEL 1
REMARK minimizedAffinity 6.29569149
REMARK minimizedRMSD -1
REMARK  0 active torsions:
REMARK  status: ('A' for Active; 'I' for Inactive)
ROOT
ATOM      1  C   UNL d   1       3.920   1.887  -2.999  0.00  0.00     0.023 A 
ATOM      2  C1  UNL d   1       4.117   1.922  -4.379  0.00  0.00     0.003 A 
ATOM      3  C2  UNL d   1       3.019   1.974  -5.241  0.00  0.00     0.048 A 
ATOM      4  C3  UNL d   1       1.728   1.992  -4.716  0.00  0.00     0.023 A 
ATOM      5  C4  UNL d   1       1.526   1.958  -3.335  0.00  0.00     0.048 A 
ATOM      6  C5  UNL d   1       2.626   1.906  -2.478  0.00  0.00     0.003 A 
ATOM      7  I   UNL d   1       0.093   2.070  -5.997  0.00  0.00    -0.146 I 
ENDROOT
TORSDOF 0
ENDMDL
