MODEL 1
REMARK minimizedAffinity 0.418512464
REMARK minimizedRMSD -1
REMARK  0 active torsions:
REMARK  status: ('A' for Active; 'I' for Inactive)
ROOT
ATOM      1  C   UNL d   1       3.962   2.191  -5.023  0.00  0.00     0.023 A 
ATOM      2  C1  UNL d   1       2.668   2.346  -5.520  0.00  0.00     0.003 A 
ATOM      3  C2  UNL d   1       1.568   2.030  -4.720  0.00  0.00     0.048 A 
ATOM      4  C3  UNL d   1       1.770   1.560  -3.423  0.00  0.00     0.023 A 
ATOM      5  C4  UNL d   1       3.063   1.403  -2.920  0.00  0.00     0.048 A 
ATOM      6  C5  UNL d   1       4.159   1.720  -3.725  0.00  0.00     0.003 A 
ATOM      7  I   UNL d   1       0.135   1.088  -2.229  0.00  0.00    -0.146 I 
ENDROOT
TORSDOF 0
ENDMDL
