MODEL 1
REMARK minimizedAffinity -5.00076962
REMARK minimizedRMSD -1
REMARK  0 active torsions:
REMARK  status: ('A' for Active; 'I' for Inactive)
ROOT
ATOM      1  C   UNL d   1       2.250   2.513  -5.764  0.00  0.00     0.023 A 
ATOM      2  C1  UNL d   1       0.986   1.998  -5.476  0.00  0.00     0.003 A 
ATOM      3  C2  UNL d   1       0.773   1.288  -4.293  0.00  0.00     0.048 A 
ATOM      4  C3  UNL d   1       1.828   1.098  -3.401  0.00  0.00     0.023 A 
ATOM      5  C4  UNL d   1       3.094   1.613  -3.684  0.00  0.00     0.048 A 
ATOM      6  C5  UNL d   1       3.303   2.321  -4.869  0.00  0.00     0.003 A 
ATOM      7  I   UNL d   1       1.513   0.042  -1.638  0.00  0.00    -0.146 I 
ENDROOT
TORSDOF 0
ENDMDL
