MODEL 1
REMARK minimizedAffinity 0.398291409
REMARK minimizedRMSD -1
REMARK  0 active torsions:
REMARK  status: ('A' for Active; 'I' for Inactive)
ROOT
ATOM      1  C   UNL d   1       4.509   5.184   1.044  0.00  0.00     0.023 A 
ATOM      2  C1  UNL d   1       5.572   4.370   1.436  0.00  0.00     0.003 A 
ATOM      3  C2  UNL d   1       5.998   4.369   2.766  0.00  0.00     0.048 A 
ATOM      4  C3  UNL d   1       5.356   5.183   3.699  0.00  0.00     0.023 A 
ATOM      5  C4  UNL d   1       4.291   5.998   3.311  0.00  0.00     0.048 A 
ATOM      6  C5  UNL d   1       3.870   5.997   1.980  0.00  0.00     0.003 A 
ATOM      7  I   UNL d   1       5.988   5.183   5.679  0.00  0.00    -0.146 I 
ENDROOT
TORSDOF 0
ENDMDL
