MODEL 1
REMARK minimizedAffinity 3.19922209
REMARK minimizedRMSD -1
REMARK  0 active torsions:
REMARK  status: ('A' for Active; 'I' for Inactive)
ROOT
ATOM      1  C   UNL d   1       1.406   0.371  -1.841  0.00  0.00     0.023 A 
ATOM      2  C1  UNL d   1       2.670   0.951  -1.948  0.00  0.00     0.003 A 
ATOM      3  C2  UNL d   1       3.060   1.562  -3.141  0.00  0.00     0.048 A 
ATOM      4  C3  UNL d   1       2.181   1.591  -4.223  0.00  0.00     0.023 A 
ATOM      5  C4  UNL d   1       0.915   1.013  -4.120  0.00  0.00     0.048 A 
ATOM      6  C5  UNL d   1       0.530   0.402  -2.926  0.00  0.00     0.003 A 
ATOM      7  I   UNL d   1       2.760   2.501  -6.000  0.00  0.00    -0.146 I 
ENDROOT
TORSDOF 0
ENDMDL
