MODEL 1
REMARK minimizedAffinity -1.59230483
REMARK minimizedRMSD -1
REMARK  0 active torsions:
REMARK  status: ('A' for Active; 'I' for Inactive)
ROOT
ATOM      1  C   UNL d   1       4.554   5.293   1.278  0.00  0.00     0.023 A 
ATOM      2  C1  UNL d   1       5.626   4.479   1.643  0.00  0.00     0.003 A 
ATOM      3  C2  UNL d   1       5.996   4.370   2.985  0.00  0.00     0.048 A 
ATOM      4  C3  UNL d   1       5.289   5.077   3.957  0.00  0.00     0.023 A 
ATOM      5  C4  UNL d   1       4.214   5.892   3.596  0.00  0.00     0.048 A 
ATOM      6  C5  UNL d   1       3.848   5.998   2.253  0.00  0.00     0.003 A 
ATOM      7  I   UNL d   1       5.838   4.917   5.955  0.00  0.00    -0.146 I 
ENDROOT
TORSDOF 0
ENDMDL
