MODEL 1
REMARK minimizedAffinity 2.13744354
REMARK minimizedRMSD -1
REMARK  0 active torsions:
REMARK  status: ('A' for Active; 'I' for Inactive)
ROOT
ATOM      1  C   UNL d   1       4.579   5.736   6.000  0.00  0.00     0.023 A 
ATOM      2  C1  UNL d   1       5.844   5.588   5.431  0.00  0.00     0.003 A 
ATOM      3  C2  UNL d   1       5.997   5.635   4.043  0.00  0.00     0.048 A 
ATOM      4  C3  UNL d   1       4.881   5.832   3.231  0.00  0.00     0.023 A 
ATOM      5  C4  UNL d   1       3.613   5.981   3.796  0.00  0.00     0.048 A 
ATOM      6  C5  UNL d   1       3.465   5.933   5.184  0.00  0.00     0.003 A 
ATOM      7  I   UNL d   1       5.106   5.902   1.166  0.00  0.00    -0.146 I 
ENDROOT
TORSDOF 0
ENDMDL
