MODEL 1
REMARK minimizedAffinity -4.32880974
REMARK minimizedRMSD -1
REMARK  0 active torsions:
REMARK  status: ('A' for Active; 'I' for Inactive)
ROOT
ATOM      1  C   UNL d   1       0.547  -1.970  -0.136  0.00  0.00     0.023 A 
ATOM      2  C1  UNL d   1      -0.639  -1.376   0.296  0.00  0.00     0.003 A 
ATOM      3  C2  UNL d   1      -0.808   0.006   0.191  0.00  0.00     0.048 A 
ATOM      4  C3  UNL d   1       0.213   0.788  -0.347  0.00  0.00     0.023 A 
ATOM      5  C4  UNL d   1       1.401   0.199  -0.782  0.00  0.00     0.048 A 
ATOM      6  C5  UNL d   1       1.566  -1.184  -0.674  0.00  0.00     0.003 A 
ATOM      7  I   UNL d   1      -0.036   2.846  -0.504  0.00  0.00    -0.146 I 
ENDROOT
TORSDOF 0
ENDMDL
