MODEL 1
REMARK minimizedAffinity -1.5473578
REMARK minimizedRMSD -1
REMARK  1 active torsions:
REMARK  status: ('A' for Active; 'I' for Inactive)
REMARK    1  A    between atoms: N_2  and  C1_3 
ROOT
ATOM      1  C1  UNL d   1      -1.490   1.771   2.360  0.00  0.00     0.143 A 
ATOM      2  C2  UNL d   1      -1.258   0.411   2.592  0.00  0.00    -0.057 A 
ATOM      3  C3  UNL d   1      -0.247  -0.280   1.913  0.00  0.00     0.033 A 
ATOM      4  C4  UNL d   1       0.534   0.373   0.965  0.00  0.00    -0.042 A 
ATOM      5  C5  UNL d   1       0.305   1.719   0.699  0.00  0.00     0.033 A 
ATOM      6  C6  UNL d   1      -0.702   2.405   1.386  0.00  0.00    -0.057 A 
ENDROOT
BRANCH   1   7
ATOM      7  N   UNL d   1      -2.543   2.489   2.931  0.00  0.00    -0.732 N 
ATOM      8  C   UNL d   1      -3.459   1.849   3.850  0.00  0.00     0.284 C 
ATOM      9  H3  UNL d   1      -2.269   3.430   3.205  0.00  0.00     0.395 HD
ENDBRANCH   1   7
TORSDOF 1
ENDMDL
