MODEL 1
REMARK minimizedAffinity -5.18639708
REMARK minimizedRMSD -1
REMARK  1 active torsions:
REMARK  status: ('A' for Active; 'I' for Inactive)
REMARK    1  A    between atoms: N_2  and  C1_3 
ROOT
ATOM      1  C1  UNL d   1      -1.994   1.387   2.547  0.00  0.00     0.143 A 
ATOM      2  C2  UNL d   1      -2.120   0.038   2.197  0.00  0.00    -0.057 A 
ATOM      3  C3  UNL d   1      -1.090  -0.640   1.536  0.00  0.00     0.033 A 
ATOM      4  C4  UNL d   1       0.078   0.029   1.185  0.00  0.00    -0.042 A 
ATOM      5  C5  UNL d   1       0.216   1.376   1.500  0.00  0.00     0.033 A 
ATOM      6  C6  UNL d   1      -0.815   2.046   2.167  0.00  0.00    -0.057 A 
ENDROOT
BRANCH   1   7
ATOM      7  N   UNL d   1      -3.022   2.142   3.117  0.00  0.00    -0.732 N 
ATOM      8  C   UNL d   1      -3.837   1.594   4.180  0.00  0.00     0.284 C 
ATOM      9  H3  UNL d   1      -2.758   3.115   3.255  0.00  0.00     0.395 HD
ENDBRANCH   1   7
TORSDOF 1
ENDMDL
