MODEL 1
REMARK minimizedAffinity -0.879429936
REMARK minimizedRMSD -1
REMARK  1 active torsions:
REMARK  status: ('A' for Active; 'I' for Inactive)
REMARK    1  A    between atoms: N_2  and  C1_3 
ROOT
ATOM      1  C1  UNL d   1      -1.543   1.702   2.512  0.00  0.00     0.143 A 
ATOM      2  C2  UNL d   1      -1.834   0.337   2.415  0.00  0.00    -0.057 A 
ATOM      3  C3  UNL d   1      -1.067  -0.514   1.611  0.00  0.00     0.033 A 
ATOM      4  C4  UNL d   1      -0.007  -0.008   0.865  0.00  0.00    -0.042 A 
ATOM      5  C5  UNL d   1       0.285   1.350   0.926  0.00  0.00     0.033 A 
ATOM      6  C6  UNL d   1      -0.481   2.194   1.736  0.00  0.00    -0.057 A 
ENDROOT
BRANCH   1   7
ATOM      7  N   UNL d   1      -2.329   2.617   3.216  0.00  0.00    -0.732 N 
ATOM      8  C   UNL d   1      -3.486   2.173   3.964  0.00  0.00     0.284 C 
ATOM      9  H3  UNL d   1      -1.771   3.322   3.693  0.00  0.00     0.395 HD
ENDBRANCH   1   7
TORSDOF 1
ENDMDL
