MODEL 1
REMARK minimizedAffinity -0.781536579
REMARK minimizedRMSD -1
REMARK  1 active torsions:
REMARK  status: ('A' for Active; 'I' for Inactive)
REMARK    1  A    between atoms: N_2  and  C1_3 
ROOT
ATOM      1  C1  UNL d   1      -2.444   1.356   2.642  0.00  0.00     0.143 A 
ATOM      2  C2  UNL d   1      -2.042   2.637   2.250  0.00  0.00    -0.057 A 
ATOM      3  C3  UNL d   1      -0.847   2.841   1.551  0.00  0.00     0.033 A 
ATOM      4  C4  UNL d   1      -0.014   1.766   1.256  0.00  0.00    -0.042 A 
ATOM      5  C5  UNL d   1      -0.381   0.486   1.659  0.00  0.00     0.033 A 
ATOM      6  C6  UNL d   1      -1.580   0.289   2.351  0.00  0.00    -0.057 A 
ENDROOT
BRANCH   1   7
ATOM      7  N   UNL d   1      -3.572   1.100   3.425  0.00  0.00    -0.732 N 
ATOM      8  C   UNL d   1      -4.101   2.116   4.310  0.00  0.00     0.284 C 
ATOM      9  H3  UNL d   1      -4.284   0.576   2.921  0.00  0.00     0.395 HD
ENDBRANCH   1   7
TORSDOF 1
ENDMDL
