MODEL 1
REMARK minimizedAffinity 1.2027055
REMARK minimizedRMSD -1
REMARK  1 active torsions:
REMARK  status: ('A' for Active; 'I' for Inactive)
REMARK    1  A    between atoms: N_2  and  C1_3 
ROOT
ATOM      1  C1  UNL d   1      -1.620   1.659   2.803  0.00  0.00     0.143 A 
ATOM      2  C2  UNL d   1      -1.683   0.271   2.638  0.00  0.00    -0.057 A 
ATOM      3  C3  UNL d   1      -0.756  -0.408   1.838  0.00  0.00     0.033 A 
ATOM      4  C4  UNL d   1       0.236   0.296   1.163  0.00  0.00    -0.042 A 
ATOM      5  C5  UNL d   1       0.302   1.678   1.292  0.00  0.00     0.033 A 
ATOM      6  C6  UNL d   1      -0.623   2.350   2.098  0.00  0.00    -0.057 A 
ENDROOT
BRANCH   1   7
ATOM      7  N   UNL d   1      -2.572   2.403   3.505  0.00  0.00    -0.732 N 
ATOM      8  C   UNL d   1      -3.766   1.770   4.024  0.00  0.00     0.284 C 
ATOM      9  H3  UNL d   1      -2.148   3.074   4.141  0.00  0.00     0.395 HD
ENDBRANCH   1   7
TORSDOF 1
ENDMDL
