MODEL 1
REMARK minimizedAffinity -0.272924781
REMARK minimizedRMSD -1
REMARK  1 active torsions:
REMARK  status: ('A' for Active; 'I' for Inactive)
REMARK    1  A    between atoms: N_2  and  C1_3 
ROOT
ATOM      1  C1  UNL d   1      -2.022   0.863   2.203  0.00  0.00     0.143 A 
ATOM      2  C2  UNL d   1      -1.305   2.061   2.293  0.00  0.00    -0.057 A 
ATOM      3  C3  UNL d   1      -0.050   2.203   1.688  0.00  0.00     0.033 A 
ATOM      4  C4  UNL d   1       0.525   1.136   1.006  0.00  0.00    -0.042 A 
ATOM      5  C5  UNL d   1      -0.159  -0.072   0.925  0.00  0.00     0.033 A 
ATOM      6  C6  UNL d   1      -1.415  -0.205   1.525  0.00  0.00    -0.057 A 
ENDROOT
BRANCH   1   7
ATOM      7  N   UNL d   1      -3.229   0.628   2.865  0.00  0.00    -0.732 N 
ATOM      8  C   UNL d   1      -3.852   1.669   3.654  0.00  0.00     0.284 C 
ATOM      9  H3  UNL d   1      -3.882   0.086   2.303  0.00  0.00     0.395 HD
ENDBRANCH   1   7
TORSDOF 1
ENDMDL
