MODEL 1
REMARK minimizedAffinity -0.320696473
REMARK minimizedRMSD -1
REMARK  1 active torsions:
REMARK  status: ('A' for Active; 'I' for Inactive)
REMARK    1  A    between atoms: N_2  and  C1_3 
ROOT
ATOM      1  C1  UNL d   1       2.018   0.282   0.356  0.00  0.00     0.143 A 
ATOM      2  C2  UNL d   1       1.899   1.628   0.716  0.00  0.00    -0.057 A 
ATOM      3  C3  UNL d   1       0.790   2.093   1.433  0.00  0.00     0.033 A 
ATOM      4  C4  UNL d   1      -0.238   1.221   1.778  0.00  0.00    -0.042 A 
ATOM      5  C5  UNL d   1      -0.153  -0.116   1.409  0.00  0.00     0.033 A 
ATOM      6  C6  UNL d   1       0.961  -0.576   0.699  0.00  0.00    -0.057 A 
ENDROOT
BRANCH   1   7
ATOM      7  N   UNL d   1       3.048  -0.222  -0.442  0.00  0.00    -0.732 N 
ATOM      8  C   UNL d   1       3.366   0.395  -1.712  0.00  0.00     0.284 C 
ATOM      9  H3  UNL d   1       3.863  -0.496   0.103  0.00  0.00     0.395 HD
ENDBRANCH   1   7
TORSDOF 1
ENDMDL
