MODEL 1
REMARK minimizedAffinity -0.101335533
REMARK minimizedRMSD -1
REMARK  1 active torsions:
REMARK  status: ('A' for Active; 'I' for Inactive)
REMARK    1  A    between atoms: N_2  and  C1_3 
ROOT
ATOM      1  C1  UNL d   1      -3.753   1.266   3.983  0.00  0.00     0.143 A 
ATOM      2  C2  UNL d   1      -3.180   2.029   5.006  0.00  0.00    -0.057 A 
ATOM      3  C3  UNL d   1      -3.970   2.620   6.000  0.00  0.00     0.033 A 
ATOM      4  C4  UNL d   1      -5.353   2.483   5.971  0.00  0.00    -0.042 A 
ATOM      5  C5  UNL d   1      -5.947   1.750   4.949  0.00  0.00     0.033 A 
ATOM      6  C6  UNL d   1      -5.153   1.156   3.963  0.00  0.00    -0.057 A 
ENDROOT
BRANCH   1   7
ATOM      7  N   UNL d   1      -3.032   0.735   2.911  0.00  0.00    -0.732 N 
ATOM      8  C   UNL d   1      -2.653  -0.662   2.897  0.00  0.00     0.284 C 
ATOM      9  H3  UNL d   1      -3.355   1.087   2.013  0.00  0.00     0.395 HD
ENDBRANCH   1   7
TORSDOF 1
ENDMDL
