MODEL 1
REMARK minimizedAffinity -4.87893772
REMARK minimizedRMSD -1
REMARK  1 active torsions:
REMARK  status: ('A' for Active; 'I' for Inactive)
REMARK    1  A    between atoms: N_2  and  C1_3 
ROOT
ATOM      1  C1  UNL d   1      -1.493   1.334   2.181  0.00  0.00     0.143 A 
ATOM      2  C2  UNL d   1      -1.550   0.050   1.629  0.00  0.00    -0.057 A 
ATOM      3  C3  UNL d   1      -0.601  -0.381   0.694  0.00  0.00     0.033 A 
ATOM      4  C4  UNL d   1       0.408   0.478   0.271  0.00  0.00    -0.042 A 
ATOM      5  C5  UNL d   1       0.469   1.768   0.787  0.00  0.00     0.033 A 
ATOM      6  C6  UNL d   1      -0.478   2.190   1.726  0.00  0.00    -0.057 A 
ENDROOT
BRANCH   1   7
ATOM      7  N   UNL d   1      -2.464   1.855   3.041  0.00  0.00    -0.732 N 
ATOM      8  C   UNL d   1      -3.601   1.054   3.439  0.00  0.00     0.284 C 
ATOM      9  H3  UNL d   1      -2.059   2.407   3.794  0.00  0.00     0.395 HD
ENDBRANCH   1   7
TORSDOF 1
ENDMDL
