MODEL 1
REMARK minimizedAffinity -3.27310014
REMARK minimizedRMSD -1
REMARK  1 active torsions:
REMARK  status: ('A' for Active; 'I' for Inactive)
REMARK    1  A    between atoms: N_2  and  C1_3 
ROOT
ATOM      1  C1  UNL d   1      -1.132   1.795   1.894  0.00  0.00     0.143 A 
ATOM      2  C2  UNL d   1      -0.024   2.279   1.191  0.00  0.00    -0.057 A 
ATOM      3  C3  UNL d   1       0.795   1.422   0.447  0.00  0.00     0.033 A 
ATOM      4  C4  UNL d   1       0.536   0.055   0.415  0.00  0.00    -0.042 A 
ATOM      5  C5  UNL d   1      -0.546  -0.452   1.126  0.00  0.00     0.033 A 
ATOM      6  C6  UNL d   1      -1.364   0.410   1.862  0.00  0.00    -0.057 A 
ENDROOT
BRANCH   1   7
ATOM      7  N   UNL d   1      -1.927   2.581   2.731  0.00  0.00    -0.732 N 
ATOM      8  C   UNL d   1      -3.093   2.022   3.380  0.00  0.00     0.284 C 
ATOM      9  H3  UNL d   1      -1.375   3.195   3.326  0.00  0.00     0.395 HD
ENDBRANCH   1   7
TORSDOF 1
ENDMDL
