MODEL 1
REMARK minimizedAffinity 1.36900985
REMARK minimizedRMSD -1
REMARK  1 active torsions:
REMARK  status: ('A' for Active; 'I' for Inactive)
REMARK    1  A    between atoms: N_2  and  C1_3 
ROOT
ATOM      1  C1  UNL d   1      -3.703   1.387   3.922  0.00  0.00     0.143 A 
ATOM      2  C2  UNL d   1      -5.026   0.946   3.813  0.00  0.00    -0.057 A 
ATOM      3  C3  UNL d   1      -5.990   1.303   4.764  0.00  0.00     0.033 A 
ATOM      4  C4  UNL d   1      -5.640   2.086   5.859  0.00  0.00    -0.042 A 
ATOM      5  C5  UNL d   1      -4.325   2.515   6.000  0.00  0.00     0.033 A 
ATOM      6  C6  UNL d   1      -3.368   2.161   5.044  0.00  0.00    -0.057 A 
ENDROOT
BRANCH   1   7
ATOM      7  N   UNL d   1      -2.677   0.986   3.063  0.00  0.00    -0.732 N 
ATOM      8  C   UNL d   1      -1.564   1.867   2.781  0.00  0.00     0.284 C 
ATOM      9  H3  UNL d   1      -2.411   0.013   3.203  0.00  0.00     0.395 HD
ENDBRANCH   1   7
TORSDOF 1
ENDMDL
