MODEL 1
REMARK minimizedAffinity -3.57690692
REMARK minimizedRMSD -1
REMARK  0 active torsions:
REMARK  status: ('A' for Active; 'I' for Inactive)
ROOT
ATOM      1  C1  DEN d   1       5.965  -0.397   6.000  0.00  0.00     0.130 A 
ATOM      2  C2  DEN d   1       5.993  -1.493   5.035  0.00  0.00    -0.031 A 
ATOM      3  C3  DEN d   1       6.000  -0.907   3.679  0.00  0.00     0.027 A 
ATOM      4  C4  DEN d   1       5.975   1.577   2.985  0.00  0.00     0.027 A 
ATOM      5  C5  DEN d   1       5.939   2.873   3.451  0.00  0.00    -0.003 A 
ATOM      6  C6  DEN d   1       5.875   3.166   4.787  0.00  0.00     0.001 A 
ATOM      7  C7  DEN d   1       5.891   2.151   5.707  0.00  0.00     0.017 A 
ATOM      8  C8  DEN d   1       5.920   0.842   5.244  0.00  0.00    -0.094 A 
ATOM      9  C9  DEN d   1       5.997   0.566   3.890  0.00  0.00    -0.072 A 
ENDROOT
TORSDOF 0
ENDMDL
