MODEL 1
REMARK minimizedAffinity -2.12357759
REMARK minimizedRMSD -1
REMARK  0 active torsions:
REMARK  status: ('A' for Active; 'I' for Inactive)
ROOT
ATOM      1  C1  DEN d   1       5.933   3.432   5.127  0.00  0.00     0.130 A 
ATOM      2  C2  DEN d   1       5.966   4.024   3.792  0.00  0.00    -0.031 A 
ATOM      3  C3  DEN d   1       5.999   2.924   2.806  0.00  0.00     0.027 A 
ATOM      4  C4  DEN d   1       5.996   0.378   3.215  0.00  0.00     0.027 A 
ATOM      5  C5  DEN d   1       5.986  -0.604   4.182  0.00  0.00    -0.003 A 
ATOM      6  C6  DEN d   1       5.991  -0.312   5.520  0.00  0.00     0.001 A 
ATOM      7  C7  DEN d   1       5.962   0.995   5.929  0.00  0.00     0.017 A 
ATOM      8  C8  DEN d   1       5.980   1.991   4.961  0.00  0.00    -0.094 A 
ATOM      9  C9  DEN d   1       5.962   1.675   3.613  0.00  0.00    -0.072 A 
ENDROOT
TORSDOF 0
ENDMDL
