MODEL 1
REMARK minimizedAffinity -1.64410222
REMARK minimizedRMSD -1
REMARK  0 active torsions:
REMARK  status: ('A' for Active; 'I' for Inactive)
ROOT
ATOM      1  C1  DEN d   1       4.866   0.033   6.000  0.00  0.00     0.130 A 
ATOM      2  C2  DEN d   1       5.272  -1.279   5.506  0.00  0.00    -0.031 A 
ATOM      3  C3  DEN d   1       5.788  -1.111   4.133  0.00  0.00     0.027 A 
ATOM      4  C4  DEN d   1       6.000   1.045   2.732  0.00  0.00     0.027 A 
ATOM      5  C5  DEN d   1       5.773   2.403   2.722  0.00  0.00    -0.003 A 
ATOM      6  C6  DEN d   1       5.202   3.057   3.781  0.00  0.00     0.001 A 
ATOM      7  C7  DEN d   1       4.879   2.358   4.915  0.00  0.00     0.017 A 
ATOM      8  C8  DEN d   1       5.097   0.987   4.930  0.00  0.00    -0.094 A 
ATOM      9  C9  DEN d   1       5.687   0.347   3.853  0.00  0.00    -0.072 A 
ENDROOT
TORSDOF 0
ENDMDL
