MODEL 1
REMARK minimizedAffinity -4.53621769
REMARK minimizedRMSD -1
REMARK  0 active torsions:
REMARK  status: ('A' for Active; 'I' for Inactive)
ROOT
ATOM      1  C1  DEN d   1       5.769   2.512   3.381  0.00  0.00     0.130 A 
ATOM      2  C2  DEN d   1       5.999   3.232   4.631  0.00  0.00    -0.031 A 
ATOM      3  C3  DEN d   1       6.000   2.248   5.732  0.00  0.00     0.027 A 
ATOM      4  C4  DEN d   1       5.674  -0.308   5.622  0.00  0.00     0.027 A 
ATOM      5  C5  DEN d   1       5.436  -1.375   4.784  0.00  0.00    -0.003 A 
ATOM      6  C6  DEN d   1       5.260  -1.218   3.434  0.00  0.00     0.001 A 
ATOM      7  C7  DEN d   1       5.364   0.029   2.877  0.00  0.00     0.017 A 
ATOM      8  C8  DEN d   1       5.597   1.111   3.717  0.00  0.00    -0.094 A 
ATOM      9  C9  DEN d   1       5.784   0.929   5.077  0.00  0.00    -0.072 A 
ENDROOT
TORSDOF 0
ENDMDL
