MODEL 1
REMARK minimizedAffinity -1.79442179
REMARK minimizedRMSD -1
REMARK  0 active torsions:
REMARK  status: ('A' for Active; 'I' for Inactive)
ROOT
ATOM      1  C1  DEN d   1       5.875   2.817   4.477  0.00  0.00     0.130 A 
ATOM      2  C2  DEN d   1       5.909   2.970   3.025  0.00  0.00    -0.031 A 
ATOM      3  C3  DEN d   1       5.966   1.623   2.424  0.00  0.00     0.027 A 
ATOM      4  C4  DEN d   1       6.000  -0.675   3.595  0.00  0.00     0.027 A 
ATOM      5  C5  DEN d   1       5.998  -1.313   4.816  0.00  0.00    -0.003 A 
ATOM      6  C6  DEN d   1       5.989  -0.624   6.000  0.00  0.00     0.001 A 
ATOM      7  C7  DEN d   1       5.937   0.744   5.988  0.00  0.00     0.017 A 
ATOM      8  C8  DEN d   1       5.946   1.395   4.761  0.00  0.00    -0.094 A 
ATOM      9  C9  DEN d   1       5.943   0.680   3.576  0.00  0.00    -0.072 A 
ENDROOT
TORSDOF 0
ENDMDL
