MODEL 1
REMARK minimizedAffinity -1.1683892
REMARK minimizedRMSD -1
REMARK  0 active torsions:
REMARK  status: ('A' for Active; 'I' for Inactive)
ROOT
ATOM      1  C1  DEN d   1       6.000   0.705   5.980  0.00  0.00     0.130 A 
ATOM      2  C2  DEN d   1       5.962  -0.728   5.699  0.00  0.00    -0.031 A 
ATOM      3  C3  DEN d   1       5.946  -0.905   4.233  0.00  0.00     0.027 A 
ATOM      4  C4  DEN d   1       5.979   0.890   2.381  0.00  0.00     0.027 A 
ATOM      5  C5  DEN d   1       5.999   2.244   2.131  0.00  0.00    -0.003 A 
ATOM      6  C6  DEN d   1       5.987   3.173   3.137  0.00  0.00     0.001 A 
ATOM      7  C7  DEN d   1       5.999   2.759   4.443  0.00  0.00     0.017 A 
ATOM      8  C8  DEN d   1       5.971   1.395   4.704  0.00  0.00    -0.094 A 
ATOM      9  C9  DEN d   1       5.996   0.472   3.672  0.00  0.00    -0.072 A 
ENDROOT
TORSDOF 0
ENDMDL
