MODEL 1
REMARK minimizedAffinity -2.62888837
REMARK minimizedRMSD -1
REMARK  0 active torsions:
REMARK  status: ('A' for Active; 'I' for Inactive)
ROOT
ATOM      1  C1  DEN d   1       5.293   2.410   2.734  0.00  0.00     0.130 A 
ATOM      2  C2  DEN d   1       5.659   3.657   3.400  0.00  0.00    -0.031 A 
ATOM      3  C3  DEN d   1       6.000   3.343   4.802  0.00  0.00     0.027 A 
ATOM      4  C4  DEN d   1       5.999   1.058   6.000  0.00  0.00     0.027 A 
ATOM      5  C5  DEN d   1       5.749  -0.288   5.849  0.00  0.00    -0.003 A 
ATOM      6  C6  DEN d   1       5.300  -0.820   4.670  0.00  0.00     0.001 A 
ATOM      7  C7  DEN d   1       5.131  -0.007   3.580  0.00  0.00     0.017 A 
ATOM      8  C8  DEN d   1       5.374   1.352   3.726  0.00  0.00    -0.094 A 
ATOM      9  C9  DEN d   1       5.839   1.869   4.923  0.00  0.00    -0.072 A 
ENDROOT
TORSDOF 0
ENDMDL
