MODEL 1
REMARK minimizedAffinity -2.67874932
REMARK minimizedRMSD -1
REMARK  0 active torsions:
REMARK  status: ('A' for Active; 'I' for Inactive)
ROOT
ATOM      1  C1  DEN d   1       4.853  -0.734   3.822  0.00  0.00     0.130 A 
ATOM      2  C2  DEN d   1       5.275  -1.563   4.948  0.00  0.00    -0.031 A 
ATOM      3  C3  DEN d   1       5.802  -0.670   6.000  0.00  0.00     0.027 A 
ATOM      4  C4  DEN d   1       5.999   1.902   5.996  0.00  0.00     0.027 A 
ATOM      5  C5  DEN d   1       5.781   3.043   5.257  0.00  0.00    -0.003 A 
ATOM      6  C6  DEN d   1       5.275   3.004   3.985  0.00  0.00     0.001 A 
ATOM      7  C7  DEN d   1       4.926   1.801   3.430  0.00  0.00     0.017 A 
ATOM      8  C8  DEN d   1       5.150   0.645   4.167  0.00  0.00    -0.094 A 
ATOM      9  C9  DEN d   1       5.652   0.707   5.456  0.00  0.00    -0.072 A 
ENDROOT
TORSDOF 0
ENDMDL
