MODEL 1
REMARK minimizedAffinity -2.96786046
REMARK minimizedRMSD -1
REMARK  0 active torsions:
REMARK  status: ('A' for Active; 'I' for Inactive)
ROOT
ATOM      1  C1  DEN d   1       5.973  -0.092   6.000  0.00  0.00     0.130 A 
ATOM      2  C2  DEN d   1       5.947  -1.265   5.130  0.00  0.00    -0.031 A 
ATOM      3  C3  DEN d   1       5.942  -0.795   3.730  0.00  0.00     0.027 A 
ATOM      4  C4  DEN d   1       5.977   1.622   2.829  0.00  0.00     0.027 A 
ATOM      5  C5  DEN d   1       5.990   2.952   3.185  0.00  0.00    -0.003 A 
ATOM      6  C6  DEN d   1       5.964   3.358   4.493  0.00  0.00     0.001 A 
ATOM      7  C7  DEN d   1       5.969   2.424   5.494  0.00  0.00     0.017 A 
ATOM      8  C8  DEN d   1       5.949   1.080   5.143  0.00  0.00    -0.094 A 
ATOM      9  C9  DEN d   1       5.988   0.690   3.816  0.00  0.00    -0.072 A 
ENDROOT
TORSDOF 0
ENDMDL
