MODEL 1
REMARK minimizedAffinity 1.4101373
REMARK minimizedRMSD -1
REMARK  0 active torsions:
REMARK  status: ('A' for Active; 'I' for Inactive)
ROOT
ATOM      1  C1  DEN d   1       5.922   2.019   4.488  0.00  0.00     0.130 A 
ATOM      2  C2  DEN d   1       5.954   2.179   3.036  0.00  0.00    -0.031 A 
ATOM      3  C3  DEN d   1       5.992   0.833   2.430  0.00  0.00     0.027 A 
ATOM      4  C4  DEN d   1       6.000  -1.470   3.591  0.00  0.00     0.027 A 
ATOM      5  C5  DEN d   1       5.993  -2.113   4.809  0.00  0.00    -0.003 A 
ATOM      6  C6  DEN d   1       5.996  -1.430   5.996  0.00  0.00     0.001 A 
ATOM      7  C7  DEN d   1       5.961  -0.060   5.990  0.00  0.00     0.017 A 
ATOM      8  C8  DEN d   1       5.975   0.595   4.766  0.00  0.00    -0.094 A 
ATOM      9  C9  DEN d   1       5.960  -0.114   3.577  0.00  0.00    -0.072 A 
ENDROOT
TORSDOF 0
ENDMDL
