MODEL 1
REMARK minimizedAffinity -2.19889045
REMARK minimizedRMSD -1
REMARK  0 active torsions:
REMARK  status: ('A' for Active; 'I' for Inactive)
ROOT
ATOM      1  C1  DEN d   1       5.976   3.435   4.863  0.00  0.00     0.130 A 
ATOM      2  C2  DEN d   1       5.998   3.833   3.458  0.00  0.00    -0.031 A 
ATOM      3  C3  DEN d   1       5.999   2.606   2.636  0.00  0.00     0.027 A 
ATOM      4  C4  DEN d   1       5.964   0.142   3.399  0.00  0.00     0.027 A 
ATOM      5  C5  DEN d   1       5.953  -0.694   4.494  0.00  0.00    -0.003 A 
ATOM      6  C6  DEN d   1       5.983  -0.217   5.777  0.00  0.00     0.001 A 
ATOM      7  C7  DEN d   1       5.980   1.135   5.999  0.00  0.00     0.017 A 
ATOM      8  C8  DEN d   1       5.998   1.984   4.901  0.00  0.00    -0.094 A 
ATOM      9  C9  DEN d   1       5.955   1.483   3.611  0.00  0.00    -0.072 A 
ENDROOT
TORSDOF 0
ENDMDL
