MODEL 1
REMARK minimizedAffinity -1.99654818
REMARK minimizedRMSD -1
REMARK  0 active torsions:
REMARK  status: ('A' for Active; 'I' for Inactive)
ROOT
ATOM      1  C1  DEN d   1       5.967   2.881   4.807  0.00  0.00     0.130 A 
ATOM      2  C2  DEN d   1       5.992   3.571   3.520  0.00  0.00    -0.031 A 
ATOM      3  C3  DEN d   1       6.000   2.549   2.454  0.00  0.00     0.027 A 
ATOM      4  C4  DEN d   1       5.970  -0.021   2.669  0.00  0.00     0.027 A 
ATOM      5  C5  DEN d   1       5.959  -1.073   3.559  0.00  0.00    -0.003 A 
ATOM      6  C6  DEN d   1       5.984  -0.883   4.915  0.00  0.00     0.001 A 
ATOM      7  C7  DEN d   1       5.975   0.390   5.422  0.00  0.00     0.017 A 
ATOM      8  C8  DEN d   1       5.994   1.455   4.532  0.00  0.00    -0.094 A 
ATOM      9  C9  DEN d   1       5.956   1.243   3.164  0.00  0.00    -0.072 A 
ENDROOT
TORSDOF 0
ENDMDL
