MODEL 1
REMARK minimizedAffinity -3.92144752
REMARK minimizedRMSD -1
REMARK  0 active torsions:
REMARK  status: ('A' for Active; 'I' for Inactive)
ROOT
ATOM      1  C1  DEN d   1       5.788   2.465   3.602  0.00  0.00     0.130 A 
ATOM      2  C2  DEN d   1       6.000   3.143   4.878  0.00  0.00    -0.031 A 
ATOM      3  C3  DEN d   1       6.000   2.120   5.944  0.00  0.00     0.027 A 
ATOM      4  C4  DEN d   1       5.697  -0.434   5.741  0.00  0.00     0.027 A 
ATOM      5  C5  DEN d   1       5.476  -1.472   4.863  0.00  0.00    -0.003 A 
ATOM      6  C6  DEN d   1       5.311  -1.268   3.519  0.00  0.00     0.001 A 
ATOM      7  C7  DEN d   1       5.409  -0.002   3.007  0.00  0.00     0.017 A 
ATOM      8  C8  DEN d   1       5.624   1.051   3.887  0.00  0.00    -0.094 A 
ATOM      9  C9  DEN d   1       5.801   0.824   5.241  0.00  0.00    -0.072 A 
ENDROOT
TORSDOF 0
ENDMDL
