MODEL 1
REMARK minimizedAffinity 3.24513316
REMARK minimizedRMSD -1
REMARK  0 active torsions:
REMARK  status: ('A' for Active; 'I' for Inactive)
ROOT
ATOM      1  C1  DEN d   1       5.979   3.181   4.802  0.00  0.00     0.130 A 
ATOM      2  C2  DEN d   1       5.998   3.556   3.391  0.00  0.00    -0.031 A 
ATOM      3  C3  DEN d   1       5.995   2.315   2.589  0.00  0.00     0.027 A 
ATOM      4  C4  DEN d   1       5.958  -0.135   3.393  0.00  0.00     0.027 A 
ATOM      5  C5  DEN d   1       5.949  -0.953   4.501  0.00  0.00    -0.003 A 
ATOM      6  C6  DEN d   1       5.984  -0.455   5.776  0.00  0.00     0.001 A 
ATOM      7  C7  DEN d   1       5.984   0.900   5.976  0.00  0.00     0.017 A 
ATOM      8  C8  DEN d   1       6.000   1.731   4.864  0.00  0.00    -0.094 A 
ATOM      9  C9  DEN d   1       5.952   1.208   3.582  0.00  0.00    -0.072 A 
ENDROOT
TORSDOF 0
ENDMDL
