MODEL 1
REMARK minimizedAffinity -3.9508388
REMARK minimizedRMSD -1
REMARK  0 active torsions:
REMARK  status: ('A' for Active; 'I' for Inactive)
ROOT
ATOM      1  C   UNL d   1      -3.306   4.100  -3.452  0.00  0.00     0.077 C 
ATOM      2  C1  UNL d   1      -2.398   3.757  -2.309  0.00  0.00    -0.074 A 
ATOM      3  C2  UNL d   1      -1.121   3.233  -2.537  0.00  0.00    -0.005 A 
ATOM      4  C3  UNL d   1      -0.284   2.928  -1.464  0.00  0.00     0.006 A 
ATOM      5  C4  UNL d   1      -0.715   3.143  -0.154  0.00  0.00    -0.005 A 
ATOM      6  C5  UNL d   1      -1.987   3.667   0.094  0.00  0.00    -0.074 A 
ATOM      7  C6  UNL d   1      -2.462   3.914   1.495  0.00  0.00     0.077 C 
ATOM      8  C7  UNL d   1      -2.820   3.978  -0.990  0.00  0.00    -0.001 A 
ENDROOT
TORSDOF 0
ENDMDL
