MODEL 1
REMARK minimizedAffinity 0.78014034
REMARK minimizedRMSD -1
REMARK  0 active torsions:
REMARK  status: ('A' for Active; 'I' for Inactive)
ROOT
ATOM      1  C   UNL d   1      -0.871  -3.830  -1.991  0.00  0.00     0.077 C 
ATOM      2  C1  UNL d   1      -1.312  -2.406  -1.826  0.00  0.00    -0.074 A 
ATOM      3  C2  UNL d   1      -2.628  -2.099  -1.468  0.00  0.00    -0.005 A 
ATOM      4  C3  UNL d   1      -3.022  -0.770  -1.309  0.00  0.00     0.006 A 
ATOM      5  C4  UNL d   1      -2.104   0.263  -1.506  0.00  0.00    -0.005 A 
ATOM      6  C5  UNL d   1      -0.783  -0.026  -1.864  0.00  0.00    -0.074 A 
ATOM      7  C6  UNL d   1       0.218   1.072  -2.070  0.00  0.00     0.077 C 
ATOM      8  C7  UNL d   1      -0.394  -1.364  -2.015  0.00  0.00    -0.001 A 
ENDROOT
TORSDOF 0
ENDMDL
