MODEL 1
REMARK minimizedAffinity 5.83670187
REMARK minimizedRMSD -1
REMARK  0 active torsions:
REMARK  status: ('A' for Active; 'I' for Inactive)
ROOT
ATOM      1  C   UNL d   1      -3.945   4.537  -2.753  0.00  0.00     0.077 C 
ATOM      2  C1  UNL d   1      -3.493   3.174  -2.321  0.00  0.00    -0.074 A 
ATOM      3  C2  UNL d   1      -4.408   2.232  -1.840  0.00  0.00    -0.005 A 
ATOM      4  C3  UNL d   1      -3.974   0.965  -1.450  0.00  0.00     0.006 A 
ATOM      5  C4  UNL d   1      -2.623   0.627  -1.538  0.00  0.00    -0.005 A 
ATOM      6  C5  UNL d   1      -1.693   1.556  -2.017  0.00  0.00    -0.074 A 
ATOM      7  C6  UNL d   1      -0.239   1.206  -2.127  0.00  0.00     0.077 C 
ATOM      8  C7  UNL d   1      -2.138   2.824  -2.413  0.00  0.00    -0.001 A 
ENDROOT
TORSDOF 0
ENDMDL
