MODEL 1
REMARK minimizedAffinity 4.82162142
REMARK minimizedRMSD -1
REMARK  0 active torsions:
REMARK  status: ('A' for Active; 'I' for Inactive)
ROOT
ATOM      1  C   UNL d   1      -4.181   0.474  -1.400  0.00  0.00     0.077 C 
ATOM      2  C1  UNL d   1      -3.006   0.012  -2.209  0.00  0.00    -0.074 A 
ATOM      3  C2  UNL d   1      -3.186  -0.607  -3.450  0.00  0.00    -0.005 A 
ATOM      4  C3  UNL d   1      -2.083  -1.022  -4.196  0.00  0.00     0.006 A 
ATOM      5  C4  UNL d   1      -0.791  -0.823  -3.710  0.00  0.00    -0.005 A 
ATOM      6  C5  UNL d   1      -0.591  -0.204  -2.472  0.00  0.00    -0.074 A 
ATOM      7  C6  UNL d   1       0.792   0.027  -1.939  0.00  0.00     0.077 C 
ATOM      8  C7  UNL d   1      -1.704   0.217  -1.731  0.00  0.00    -0.001 A 
ENDROOT
TORSDOF 0
ENDMDL
