MODEL 1
REMARK minimizedAffinity -0.095208928
REMARK minimizedRMSD -1
REMARK  0 active torsions:
REMARK  status: ('A' for Active; 'I' for Inactive)
ROOT
ATOM      1  C   UNL d   1       0.432   4.195  -0.206  0.00  0.00     0.077 C 
ATOM      2  C1  UNL d   1       0.387   2.949   0.626  0.00  0.00    -0.074 A 
ATOM      3  C2  UNL d   1       0.467   3.013   2.021  0.00  0.00    -0.005 A 
ATOM      4  C3  UNL d   1       0.414   1.845   2.783  0.00  0.00     0.006 A 
ATOM      5  C4  UNL d   1       0.282   0.604   2.158  0.00  0.00    -0.005 A 
ATOM      6  C5  UNL d   1       0.200   0.521   0.765  0.00  0.00    -0.074 A 
ATOM      7  C6  UNL d   1       0.048  -0.804   0.078  0.00  0.00     0.077 C 
ATOM      8  C7  UNL d   1       0.246   1.699   0.007  0.00  0.00    -0.001 A 
ENDROOT
TORSDOF 0
ENDMDL
