MODEL 1
REMARK minimizedAffinity -5.66335344
REMARK minimizedRMSD -1
REMARK  0 active torsions:
REMARK  status: ('A' for Active; 'I' for Inactive)
ROOT
ATOM      1  O1  BZF d   1       0.160  -1.097  -2.209  0.00  0.00    -0.204 OA
ATOM      2  C2  BZF d   1       0.065  -2.471  -2.322  0.00  0.00     0.174 A 
ATOM      3  C3  BZF d   1      -0.284  -3.025  -1.143  0.00  0.00    -0.012 A 
ATOM      4  C3A BZF d   1      -0.505  -1.921  -0.260  0.00  0.00    -0.107 A 
ATOM      5  C4  BZF d   1      -0.889  -1.828   1.048  0.00  0.00     0.055 A 
ATOM      6  C5  BZF d   1      -0.940  -0.603   1.635  0.00  0.00    -0.016 A 
ATOM      7  C6  BZF d   1      -0.610   0.546   0.947  0.00  0.00     0.022 A 
ATOM      8  C7  BZF d   1      -0.229   0.504  -0.353  0.00  0.00     0.029 A 
ATOM      9  C7A BZF d   1      -0.207  -0.729  -0.959  0.00  0.00     0.058 A 
ENDROOT
TORSDOF 0
ENDMDL
