MODEL 1
REMARK minimizedAffinity -5.54247856
REMARK minimizedRMSD -1
REMARK  0 active torsions:
REMARK  status: ('A' for Active; 'I' for Inactive)
ROOT
ATOM      1  O1  BZF d   1      -0.089   0.500  -0.869  0.00  0.00    -0.204 OA
ATOM      2  C2  BZF d   1      -0.404   0.968   0.393  0.00  0.00     0.174 A 
ATOM      3  C3  BZF d   1      -0.679  -0.055   1.227  0.00  0.00    -0.012 A 
ATOM      4  C3A BZF d   1      -0.437  -1.240   0.462  0.00  0.00    -0.107 A 
ATOM      5  C4  BZF d   1      -0.519  -2.574   0.746  0.00  0.00     0.055 A 
ATOM      6  C5  BZF d   1      -0.286  -3.475  -0.244  0.00  0.00    -0.016 A 
ATOM      7  C6  BZF d   1       0.025  -3.078  -1.528  0.00  0.00     0.022 A 
ATOM      8  C7  BZF d   1       0.124  -1.767  -1.856  0.00  0.00     0.029 A 
ATOM      9  C7A BZF d   1      -0.078  -0.854  -0.850  0.00  0.00     0.058 A 
ENDROOT
TORSDOF 0
ENDMDL
