MODEL 1
REMARK minimizedAffinity -4.5012455
REMARK minimizedRMSD -1
REMARK  0 active torsions:
REMARK  status: ('A' for Active; 'I' for Inactive)
ROOT
ATOM      1  O1  BZF d   1       0.248  -2.645  -1.007  0.00  0.00    -0.204 OA
ATOM      2  C2  BZF d   1      -0.314  -3.388   0.013  0.00  0.00     0.174 A 
ATOM      3  C3  BZF d   1      -0.829  -2.583   0.964  0.00  0.00    -0.012 A 
ATOM      4  C3A BZF d   1      -0.656  -1.253   0.466  0.00  0.00    -0.107 A 
ATOM      5  C4  BZF d   1      -0.981  -0.019   0.952  0.00  0.00     0.055 A 
ATOM      6  C5  BZF d   1      -0.607   1.085   0.253  0.00  0.00    -0.016 A 
ATOM      7  C6  BZF d   1       0.097   0.992  -0.929  0.00  0.00     0.022 A 
ATOM      8  C7  BZF d   1       0.438  -0.210  -1.453  0.00  0.00     0.029 A 
ATOM      9  C7A BZF d   1       0.032  -1.329  -0.767  0.00  0.00     0.058 A 
ENDROOT
TORSDOF 0
ENDMDL
