MODEL 1
REMARK minimizedAffinity -3.62296939
REMARK minimizedRMSD -1
REMARK  0 active torsions:
REMARK  status: ('A' for Active; 'I' for Inactive)
ROOT
ATOM      1  O1  BZF d   1       0.831   0.672  -0.953  0.00  0.00    -0.204 OA
ATOM      2  C2  BZF d   1       0.590   1.896  -0.359  0.00  0.00     0.174 A 
ATOM      3  C3  BZF d   1      -0.295   1.772   0.651  0.00  0.00    -0.012 A 
ATOM      4  C3A BZF d   1      -0.559   0.370   0.750  0.00  0.00    -0.107 A 
ATOM      5  C4  BZF d   1      -1.346  -0.381   1.576  0.00  0.00     0.055 A 
ATOM      6  C5  BZF d   1      -1.438  -1.720   1.362  0.00  0.00    -0.016 A 
ATOM      7  C6  BZF d   1      -0.762  -2.339   0.331  0.00  0.00     0.022 A 
ATOM      8  C7  BZF d   1       0.035  -1.637  -0.510  0.00  0.00     0.029 A 
ATOM      9  C7A BZF d   1       0.156  -0.289  -0.277  0.00  0.00     0.058 A 
ENDROOT
TORSDOF 0
ENDMDL
