MODEL 1
REMARK minimizedAffinity -2.06678057
REMARK minimizedRMSD -1
REMARK  0 active torsions:
REMARK  status: ('A' for Active; 'I' for Inactive)
ROOT
ATOM      1  O1  BZF d   1       1.046   5.632   2.894  0.00  0.00    -0.204 OA
ATOM      2  C2  BZF d   1      -0.261   5.719   3.333  0.00  0.00     0.174 A 
ATOM      3  C3  BZF d   1      -1.063   4.911   2.610  0.00  0.00    -0.012 A 
ATOM      4  C3A BZF d   1      -0.189   4.210   1.720  0.00  0.00    -0.107 A 
ATOM      5  C4  BZF d   1      -0.390   3.256   0.764  0.00  0.00     0.055 A 
ATOM      6  C5  BZF d   1       0.667   2.833   0.022  0.00  0.00    -0.016 A 
ATOM      7  C6  BZF d   1       1.935   3.344   0.205  0.00  0.00     0.022 A 
ATOM      8  C7  BZF d   1       2.184   4.288   1.145  0.00  0.00     0.029 A 
ATOM      9  C7A BZF d   1       1.125   4.694   1.919  0.00  0.00     0.058 A 
ENDROOT
TORSDOF 0
ENDMDL
