MODEL 1
REMARK minimizedAffinity -3.10809946
REMARK minimizedRMSD -1
REMARK  0 active torsions:
REMARK  status: ('A' for Active; 'I' for Inactive)
ROOT
ATOM      1  O1  BZF d   1       0.213   2.903   0.926  0.00  0.00    -0.204 OA
ATOM      2  C2  BZF d   1       1.104   3.339  -0.035  0.00  0.00     0.174 A 
ATOM      3  C3  BZF d   1       1.512   2.314  -0.810  0.00  0.00    -0.012 A 
ATOM      4  C3A BZF d   1       0.764   1.180  -0.359  0.00  0.00    -0.107 A 
ATOM      5  C4  BZF d   1       0.716  -0.128  -0.748  0.00  0.00     0.055 A 
ATOM      6  C5  BZF d   1      -0.067  -0.995  -0.053  0.00  0.00    -0.016 A 
ATOM      7  C6  BZF d   1      -0.809  -0.590   1.037  0.00  0.00     0.022 A 
ATOM      8  C7  BZF d   1      -0.797   0.699   1.457  0.00  0.00     0.029 A 
ATOM      9  C7A BZF d   1      -0.033   1.584   0.737  0.00  0.00     0.058 A 
ENDROOT
TORSDOF 0
ENDMDL
