MODEL 1
REMARK minimizedAffinity -3.1964519
REMARK minimizedRMSD -1
REMARK  0 active torsions:
REMARK  status: ('A' for Active; 'I' for Inactive)
ROOT
ATOM      1  O1  BZF d   1       0.266   0.435  -0.540  0.00  0.00    -0.204 OA
ATOM      2  C2  BZF d   1      -0.528  -0.106   0.452  0.00  0.00     0.174 A 
ATOM      3  C3  BZF d   1      -0.635   0.742   1.496  0.00  0.00    -0.012 A 
ATOM      4  C3A BZF d   1       0.065   1.923   1.094  0.00  0.00    -0.107 A 
ATOM      5  C4  BZF d   1       0.299   3.126   1.696  0.00  0.00     0.055 A 
ATOM      6  C5  BZF d   1       1.082   4.040   1.065  0.00  0.00    -0.016 A 
ATOM      7  C6  BZF d   1       1.651   3.781  -0.165  0.00  0.00     0.022 A 
ATOM      8  C7  BZF d   1       1.444   2.604  -0.804  0.00  0.00     0.029 A 
ATOM      9  C7A BZF d   1       0.626   1.692  -0.183  0.00  0.00     0.058 A 
ENDROOT
TORSDOF 0
ENDMDL
