MODEL 1
REMARK minimizedAffinity -2.9834621
REMARK minimizedRMSD -1
REMARK  0 active torsions:
REMARK  status: ('A' for Active; 'I' for Inactive)
ROOT
ATOM      1  O1  BZF d   1       0.610  -0.156   1.455  0.00  0.00    -0.204 OA
ATOM      2  C2  BZF d   1      -0.604  -0.613   0.978  0.00  0.00     0.174 A 
ATOM      3  C3  BZF d   1      -1.186   0.312   0.188  0.00  0.00    -0.012 A 
ATOM      4  C3A BZF d   1      -0.237   1.379   0.096  0.00  0.00    -0.107 A 
ATOM      5  C4  BZF d   1      -0.231   2.576  -0.561  0.00  0.00     0.055 A 
ATOM      6  C5  BZF d   1       0.818   3.421  -0.385  0.00  0.00    -0.016 A 
ATOM      7  C6  BZF d   1       1.874   3.104   0.444  0.00  0.00     0.022 A 
ATOM      8  C7  BZF d   1       1.916   1.926   1.113  0.00  0.00     0.029 A 
ATOM      9  C7A BZF d   1       0.873   1.056   0.911  0.00  0.00     0.058 A 
ENDROOT
TORSDOF 0
ENDMDL
