MODEL 1
REMARK minimizedAffinity -4.23031855
REMARK minimizedRMSD -1
REMARK  0 active torsions:
REMARK  status: ('A' for Active; 'I' for Inactive)
ROOT
ATOM      1  O1  BZF d   1      -1.685   0.389   0.810  0.00  0.00    -0.204 OA
ATOM      2  C2  BZF d   1      -1.120   1.325  -0.034  0.00  0.00     0.174 A 
ATOM      3  C3  BZF d   1       0.009   0.845  -0.594  0.00  0.00    -0.012 A 
ATOM      4  C3A BZF d   1       0.109  -0.507  -0.138  0.00  0.00    -0.107 A 
ATOM      5  C4  BZF d   1       1.009  -1.510  -0.364  0.00  0.00     0.055 A 
ATOM      6  C5  BZF d   1       0.859  -2.691   0.291  0.00  0.00    -0.016 A 
ATOM      7  C6  BZF d   1      -0.174  -2.902   1.181  0.00  0.00     0.022 A 
ATOM      8  C7  BZF d   1      -1.094  -1.939   1.433  0.00  0.00     0.029 A 
ATOM      9  C7A BZF d   1      -0.964  -0.756   0.748  0.00  0.00     0.058 A 
ENDROOT
TORSDOF 0
ENDMDL
