MODEL 1
REMARK minimizedAffinity -2.95926452
REMARK minimizedRMSD -1
REMARK  0 active torsions:
REMARK  status: ('A' for Active; 'I' for Inactive)
ROOT
ATOM      1  O1  BZF d   1      -1.267   1.190   0.102  0.00  0.00    -0.204 OA
ATOM      2  C2  BZF d   1      -0.283   1.669  -0.741  0.00  0.00     0.174 A 
ATOM      3  C3  BZF d   1       0.659   0.729  -0.961  0.00  0.00    -0.012 A 
ATOM      4  C3A BZF d   1       0.190  -0.439  -0.282  0.00  0.00    -0.107 A 
ATOM      5  C4  BZF d   1       0.681  -1.706  -0.144  0.00  0.00     0.055 A 
ATOM      6  C5  BZF d   1       0.017  -2.590   0.646  0.00  0.00    -0.016 A 
ATOM      7  C6  BZF d   1      -1.137  -2.240   1.316  0.00  0.00     0.022 A 
ATOM      8  C7  BZF d   1      -1.666  -0.997   1.206  0.00  0.00     0.029 A 
ATOM      9  C7A BZF d   1      -1.015  -0.111   0.383  0.00  0.00     0.058 A 
ENDROOT
TORSDOF 0
ENDMDL
