MODEL 1
REMARK minimizedAffinity -5.76498938
REMARK minimizedRMSD -1
REMARK  0 active torsions:
REMARK  status: ('A' for Active; 'I' for Inactive)
ROOT
ATOM      1  O1  BZF d   1       0.550   0.566  -0.929  0.00  0.00    -0.204 OA
ATOM      2  C2  BZF d   1      -0.037   1.061   0.220  0.00  0.00     0.174 A 
ATOM      3  C3  BZF d   1      -0.579   0.064   0.948  0.00  0.00    -0.012 A 
ATOM      4  C3A BZF d   1      -0.234  -1.139   0.255  0.00  0.00    -0.107 A 
ATOM      5  C4  BZF d   1      -0.473  -2.462   0.494  0.00  0.00     0.055 A 
ATOM      6  C5  BZF d   1      -0.063  -3.383  -0.417  0.00  0.00    -0.016 A 
ATOM      7  C6  BZF d   1       0.585  -3.016  -1.579  0.00  0.00     0.022 A 
ATOM      8  C7  BZF d   1       0.849  -1.716  -1.857  0.00  0.00     0.029 A 
ATOM      9  C7A BZF d   1       0.465  -0.786  -0.923  0.00  0.00     0.058 A 
ENDROOT
TORSDOF 0
ENDMDL
