MODEL 1
REMARK minimizedAffinity -5.58535433
REMARK minimizedRMSD -1
REMARK  0 active torsions:
REMARK  status: ('A' for Active; 'I' for Inactive)
ROOT
ATOM      1  O1  BZF d   1       0.091   0.326  -0.783  0.00  0.00    -0.204 OA
ATOM      2  C2  BZF d   1      -0.232   0.715   0.502  0.00  0.00     0.174 A 
ATOM      3  C3  BZF d   1      -0.523  -0.357   1.268  0.00  0.00    -0.012 A 
ATOM      4  C3A BZF d   1      -0.283  -1.493   0.432  0.00  0.00    -0.107 A 
ATOM      5  C4  BZF d   1      -0.378  -2.841   0.629  0.00  0.00     0.055 A 
ATOM      6  C5  BZF d   1      -0.143  -3.679  -0.414  0.00  0.00    -0.016 A 
ATOM      7  C6  BZF d   1       0.184  -3.205  -1.668  0.00  0.00     0.022 A 
ATOM      8  C7  BZF d   1       0.296  -1.876  -1.911  0.00  0.00     0.029 A 
ATOM      9  C7A BZF d   1       0.091  -1.027  -0.850  0.00  0.00     0.058 A 
ENDROOT
TORSDOF 0
ENDMDL
