MODEL 1
REMARK minimizedAffinity -3.18601608
REMARK minimizedRMSD -1
REMARK  0 active torsions:
REMARK  status: ('A' for Active; 'I' for Inactive)
ROOT
ATOM      1  O1  BZF d   1      -0.289   2.045   0.825  0.00  0.00    -0.204 OA
ATOM      2  C2  BZF d   1       0.544   2.573  -0.142  0.00  0.00     0.174 A 
ATOM      3  C3  BZF d   1       1.109   1.593  -0.875  0.00  0.00    -0.012 A 
ATOM      4  C3A BZF d   1       0.526   0.378  -0.392  0.00  0.00    -0.107 A 
ATOM      5  C4  BZF d   1       0.674  -0.935  -0.735  0.00  0.00     0.055 A 
ATOM      6  C5  BZF d   1       0.015  -1.883  -0.018  0.00  0.00    -0.016 A 
ATOM      7  C6  BZF d   1      -0.795  -1.554   1.049  0.00  0.00     0.022 A 
ATOM      8  C7  BZF d   1      -0.977  -0.264   1.423  0.00  0.00     0.029 A 
ATOM      9  C7A BZF d   1      -0.338   0.699   0.680  0.00  0.00     0.058 A 
ENDROOT
TORSDOF 0
ENDMDL
