MODEL 1
REMARK minimizedAffinity -2.35593677
REMARK minimizedRMSD -1
REMARK  0 active torsions:
REMARK  status: ('A' for Active; 'I' for Inactive)
ROOT
ATOM      1  C4' PXY d   1       1.088  -0.131  -3.074  0.00  0.00     0.077 C 
ATOM      2  C1' PXY d   1      -1.246   0.211   2.203  0.00  0.00     0.077 C 
ATOM      3  C1  PXY d   1      -0.622   0.118   0.825  0.00  0.00    -0.082 A 
ATOM      4  C2  PXY d   1      -1.172   0.771  -0.187  0.00  0.00     0.003 A 
ATOM      5  C3  PXY d   1      -0.639   0.672  -1.447  0.00  0.00     0.003 A 
ATOM      6  C4  PXY d   1       0.498  -0.059  -1.663  0.00  0.00    -0.082 A 
ATOM      7  C5  PXY d   1       1.071  -0.719  -0.634  0.00  0.00     0.003 A 
ATOM      8  C6  PXY d   1       0.491  -0.639   0.629  0.00  0.00     0.003 A 
ENDROOT
TORSDOF 0
ENDMDL
