MODEL 1
REMARK minimizedAffinity -5.48509789
REMARK minimizedRMSD -1
REMARK  0 active torsions:
REMARK  status: ('A' for Active; 'I' for Inactive)
ROOT
ATOM      1  C4' PXY d   1      -1.047  -0.908  -2.762  0.00  0.00     0.077 C 
ATOM      2  C1' PXY d   1      -0.615   1.127   2.631  0.00  0.00     0.077 C 
ATOM      3  C1  PXY d   1      -0.716   0.598   1.214  0.00  0.00    -0.082 A 
ATOM      4  C2  PXY d   1      -1.907   0.422   0.665  0.00  0.00     0.003 A 
ATOM      5  C3  PXY d   1      -2.018  -0.086  -0.603  0.00  0.00     0.003 A 
ATOM      6  C4  PXY d   1      -0.897  -0.367  -1.337  0.00  0.00    -0.082 A 
ATOM      7  C5  PXY d   1       0.322  -0.180  -0.788  0.00  0.00     0.003 A 
ATOM      8  C6  PXY d   1       0.412   0.298   0.516  0.00  0.00     0.003 A 
ENDROOT
TORSDOF 0
ENDMDL
