MODEL 1
REMARK minimizedAffinity -3.3473947
REMARK minimizedRMSD -1
REMARK  0 active torsions:
REMARK  status: ('A' for Active; 'I' for Inactive)
ROOT
ATOM      1  C4' PXY d   1       0.489  -0.199  -2.981  0.00  0.00     0.077 C 
ATOM      2  C1' PXY d   1      -1.116   0.697   2.500  0.00  0.00     0.077 C 
ATOM      3  C1  PXY d   1      -0.683   0.460   1.066  0.00  0.00    -0.082 A 
ATOM      4  C2  PXY d   1      -1.408   0.951   0.074  0.00  0.00     0.003 A 
ATOM      5  C3  PXY d   1      -1.048   0.719  -1.228  0.00  0.00     0.003 A 
ATOM      6  C4  PXY d   1       0.095   0.023  -1.518  0.00  0.00    -0.082 A 
ATOM      7  C5  PXY d   1       0.846  -0.472  -0.511  0.00  0.00     0.003 A 
ATOM      8  C6  PXY d   1       0.441  -0.261   0.804  0.00  0.00     0.003 A 
ENDROOT
TORSDOF 0
ENDMDL
