MODEL 1
REMARK minimizedAffinity -0.88851577
REMARK minimizedRMSD -1
REMARK  0 active torsions:
REMARK  status: ('A' for Active; 'I' for Inactive)
ROOT
ATOM      1  C4' PXY d   1      -1.139  -0.416   0.444  0.00  0.00     0.077 C 
ATOM      2  C1' PXY d   1       4.089   0.469   2.748  0.00  0.00     0.077 C 
ATOM      3  C1  PXY d   1       2.713   0.247   2.151  0.00  0.00    -0.082 A 
ATOM      4  C2  PXY d   1       2.386  -0.948   1.688  0.00  0.00     0.003 A 
ATOM      5  C3  PXY d   1       1.158  -1.159   1.116  0.00  0.00     0.003 A 
ATOM      6  C4  PXY d   1       0.235  -0.148   1.065  0.00  0.00    -0.082 A 
ATOM      7  C5  PXY d   1       0.558   1.072   1.544  0.00  0.00     0.003 A 
ATOM      8  C6  PXY d   1       1.824   1.275   2.084  0.00  0.00     0.003 A 
ENDROOT
TORSDOF 0
ENDMDL
