MODEL 1
REMARK minimizedAffinity -0.552110434
REMARK minimizedRMSD -1
REMARK  0 active torsions:
REMARK  status: ('A' for Active; 'I' for Inactive)
ROOT
ATOM      1  C4' PXY d   1      -3.659   0.959  -0.378  0.00  0.00     0.077 C 
ATOM      2  C1' PXY d   1       1.461  -0.036   2.114  0.00  0.00     0.077 C 
ATOM      3  C1  PXY d   1       0.112   0.221   1.471  0.00  0.00    -0.082 A 
ATOM      4  C2  PXY d   1       0.008   0.236   0.152  0.00  0.00     0.003 A 
ATOM      5  C3  PXY d   1      -1.197   0.498  -0.446  0.00  0.00     0.003 A 
ATOM      6  C4  PXY d   1      -2.319   0.694   0.314  0.00  0.00    -0.082 A 
ATOM      7  C5  PXY d   1      -2.224   0.670   1.661  0.00  0.00     0.003 A 
ATOM      8  C6  PXY d   1      -0.983   0.443   2.248  0.00  0.00     0.003 A 
ENDROOT
TORSDOF 0
ENDMDL
