MODEL 1
REMARK minimizedAffinity -4.48698092
REMARK minimizedRMSD -1
REMARK  0 active torsions:
REMARK  status: ('A' for Active; 'I' for Inactive)
ROOT
ATOM      1  C4' PXY d   1       0.589  -0.534  -2.263  0.00  0.00     0.077 C 
ATOM      2  C1' PXY d   1      -0.841   1.387   2.998  0.00  0.00     0.077 C 
ATOM      3  C1  PXY d   1      -0.455   0.890   1.619  0.00  0.00    -0.082 A 
ATOM      4  C2  PXY d   1      -1.398   0.502   0.775  0.00  0.00     0.003 A 
ATOM      5  C3  PXY d   1      -1.064   0.020  -0.464  0.00  0.00     0.003 A 
ATOM      6  C4  PXY d   1       0.245  -0.017  -0.864  0.00  0.00    -0.082 A 
ATOM      7  C5  PXY d   1       1.212   0.387  -0.013  0.00  0.00     0.003 A 
ATOM      8  C6  PXY d   1       0.855   0.835   1.256  0.00  0.00     0.003 A 
ENDROOT
TORSDOF 0
ENDMDL
