MODEL 1
REMARK minimizedAffinity -3.55808973
REMARK minimizedRMSD -1
REMARK  0 active torsions:
REMARK  status: ('A' for Active; 'I' for Inactive)
ROOT
ATOM      1  C4' PXY d   1       0.516  -0.690  -1.673  0.00  0.00     0.077 C 
ATOM      2  C1' PXY d   1      -1.254   2.155   3.037  0.00  0.00     0.077 C 
ATOM      3  C1  PXY d   1      -0.795   1.398   1.806  0.00  0.00    -0.082 A 
ATOM      4  C2  PXY d   1       0.231   1.852   1.104  0.00  0.00     0.003 A 
ATOM      5  C3  PXY d   1       0.639   1.197  -0.030  0.00  0.00     0.003 A 
ATOM      6  C4  PXY d   1       0.025   0.037  -0.419  0.00  0.00    -0.082 A 
ATOM      7  C5  PXY d   1      -1.015  -0.439   0.299  0.00  0.00     0.003 A 
ATOM      8  C6  PXY d   1      -1.440   0.263   1.423  0.00  0.00     0.003 A 
ENDROOT
TORSDOF 0
ENDMDL
