MODEL 1
REMARK minimizedAffinity -4.72013426
REMARK minimizedRMSD -1
REMARK  0 active torsions:
REMARK  status: ('A' for Active; 'I' for Inactive)
ROOT
ATOM      1  C4' PXY d   1       1.236  -2.248  -0.798  0.00  0.00     0.077 C 
ATOM      2  C1' PXY d   1      -1.040   2.111   2.240  0.00  0.00     0.077 C 
ATOM      3  C1  PXY d   1      -0.455   0.965   1.438  0.00  0.00    -0.082 A 
ATOM      4  C2  PXY d   1       0.674   0.400   1.834  0.00  0.00     0.003 A 
ATOM      5  C3  PXY d   1       1.234  -0.617   1.103  0.00  0.00     0.003 A 
ATOM      6  C4  PXY d   1       0.604  -1.095  -0.015  0.00  0.00    -0.082 A 
ATOM      7  C5  PXY d   1      -0.554  -0.530  -0.419  0.00  0.00     0.003 A 
ATOM      8  C6  PXY d   1      -1.084   0.528   0.314  0.00  0.00     0.003 A 
ENDROOT
TORSDOF 0
ENDMDL
