MODEL 1
REMARK minimizedAffinity 2.03218508
REMARK minimizedRMSD -1
REMARK  3 active torsions:
REMARK  status: ('A' for Active; 'I' for Inactive)
REMARK    1  A    between atoms: C3'_2  and  C2'_3 
REMARK    2  A    between atoms: C2'_3  and  C1'_4 
REMARK    3  A    between atoms: C1'_4  and  C1_5 
ROOT
ATOM      1  C1  N4B d   1       1.862  -5.036  -5.153  0.00  0.00    -0.075 A 
ATOM      2  C2  N4B d   1       0.737  -5.878  -5.287  0.00  0.00     0.002 A 
ATOM      3  C3  N4B d   1      -0.336  -5.729  -4.441  0.00  0.00     0.002 A 
ATOM      4  C4  N4B d   1      -0.297  -4.763  -3.448  0.00  0.00    -0.004 A 
ATOM      5  C5  N4B d   1       0.783  -3.936  -3.342  0.00  0.00     0.002 A 
ATOM      6  C6  N4B d   1       1.866  -4.072  -4.187  0.00  0.00     0.002 A 
ENDROOT
BRANCH   1   7
ATOM      7  C1' N4B d   1       3.094  -5.217  -5.998  0.00  0.00     0.057 C 
BRANCH   7   8
ATOM      8  C2' N4B d   1       3.932  -3.943  -5.941  0.00  0.00     0.009 C 
BRANCH   8   9
ATOM      9  C3' N4B d   1       5.421  -4.240  -5.993  0.00  0.00     0.004 C 
ATOM     10  C4' N4B d   1       5.723  -5.707  -5.925  0.00  0.00     0.003 C 
ENDBRANCH   8   9
ENDBRANCH   7   8
ENDBRANCH   1   7
TORSDOF 3
ENDMDL
