MODEL 1
REMARK minimizedAffinity 15.0239658
REMARK minimizedRMSD -1
REMARK  3 active torsions:
REMARK  status: ('A' for Active; 'I' for Inactive)
REMARK    1  A    between atoms: C3'_2  and  C2'_3 
REMARK    2  A    between atoms: C2'_3  and  C1'_4 
REMARK    3  A    between atoms: C1'_4  and  C1_5 
ROOT
ATOM      1  C1  N4B d   1      -0.749   3.828  -2.980  0.00  0.00    -0.075 A 
ATOM      2  C2  N4B d   1      -0.426   5.202  -3.035  0.00  0.00     0.002 A 
ATOM      3  C3  N4B d   1      -0.985   6.000  -4.003  0.00  0.00     0.002 A 
ATOM      4  C4  N4B d   1      -1.850   5.445  -4.934  0.00  0.00    -0.004 A 
ATOM      5  C5  N4B d   1      -2.176   4.123  -4.859  0.00  0.00     0.002 A 
ATOM      6  C6  N4B d   1      -1.625   3.309  -3.889  0.00  0.00     0.002 A 
ENDROOT
BRANCH   1   7
ATOM      7  C1' N4B d   1      -0.098   2.898  -1.993  0.00  0.00     0.057 C 
BRANCH   7   8
ATOM      8  C2' N4B d   1       1.237   3.491  -1.551  0.00  0.00     0.009 C 
BRANCH   8   9
ATOM      9  C3' N4B d   1       1.451   3.356  -0.054  0.00  0.00     0.004 C 
ATOM     10  C4' N4B d   1       2.696   2.594   0.289  0.00  0.00     0.003 C 
ENDBRANCH   8   9
ENDBRANCH   7   8
ENDBRANCH   1   7
TORSDOF 3
ENDMDL
