MODEL 1
REMARK minimizedAffinity 6.51118803
REMARK minimizedRMSD -1
REMARK  3 active torsions:
REMARK  status: ('A' for Active; 'I' for Inactive)
REMARK    1  A    between atoms: C3'_2  and  C2'_3 
REMARK    2  A    between atoms: C2'_3  and  C1'_4 
REMARK    3  A    between atoms: C1'_4  and  C1_5 
ROOT
ATOM      1  C1  N4B d   1       2.423  -3.754  -4.920  0.00  0.00    -0.075 A 
ATOM      2  C2  N4B d   1       2.387  -4.666  -5.997  0.00  0.00     0.002 A 
ATOM      3  C3  N4B d   1       1.480  -5.697  -5.993  0.00  0.00     0.002 A 
ATOM      4  C4  N4B d   1       0.617  -5.848  -4.918  0.00  0.00    -0.004 A 
ATOM      5  C5  N4B d   1       0.642  -4.947  -3.893  0.00  0.00     0.002 A 
ATOM      6  C6  N4B d   1       1.545  -3.903  -3.886  0.00  0.00     0.002 A 
ENDROOT
BRANCH   1   7
ATOM      7  C1' N4B d   1       3.454  -2.661  -4.839  0.00  0.00     0.057 C 
BRANCH   7   8
ATOM      8  C2' N4B d   1       4.437  -2.813  -5.996  0.00  0.00     0.009 C 
BRANCH   8   9
ATOM      9  C3' N4B d   1       5.754  -3.421  -5.546  0.00  0.00     0.004 C 
ATOM     10  C4' N4B d   1       5.922  -4.841  -5.998  0.00  0.00     0.003 C 
ENDBRANCH   8   9
ENDBRANCH   7   8
ENDBRANCH   1   7
TORSDOF 3
ENDMDL
