MODEL 1
REMARK minimizedAffinity 18.1104431
REMARK minimizedRMSD -1
REMARK  3 active torsions:
REMARK  status: ('A' for Active; 'I' for Inactive)
REMARK    1  A    between atoms: C3'_2  and  C2'_3 
REMARK    2  A    between atoms: C2'_3  and  C1'_4 
REMARK    3  A    between atoms: C1'_4  and  C1_5 
ROOT
ATOM      1  C1  N4B d   1       5.256  -1.288  -2.745  0.00  0.00    -0.075 A 
ATOM      2  C2  N4B d   1       4.785  -1.742  -1.493  0.00  0.00     0.002 A 
ATOM      3  C3  N4B d   1       4.266  -0.848  -0.589  0.00  0.00     0.002 A 
ATOM      4  C4  N4B d   1       4.226   0.502  -0.906  0.00  0.00    -0.004 A 
ATOM      5  C5  N4B d   1       4.659   0.929  -2.127  0.00  0.00     0.002 A 
ATOM      6  C6  N4B d   1       5.179   0.041  -3.047  0.00  0.00     0.002 A 
ENDROOT
BRANCH   1   7
ATOM      7  C1' N4B d   1       5.911  -2.216  -3.731  0.00  0.00     0.057 C 
BRANCH   7   8
ATOM      8  C2' N4B d   1       4.874  -2.673  -4.753  0.00  0.00     0.009 C 
BRANCH   8   9
ATOM      9  C3' N4B d   1       5.521  -3.252  -5.999  0.00  0.00     0.004 C 
ATOM     10  C4' N4B d   1       5.995  -4.661  -5.806  0.00  0.00     0.003 C 
ENDBRANCH   8   9
ENDBRANCH   7   8
ENDBRANCH   1   7
TORSDOF 3
ENDMDL
