MODEL 1
REMARK minimizedAffinity 8.02586174
REMARK minimizedRMSD -1
REMARK  3 active torsions:
REMARK  status: ('A' for Active; 'I' for Inactive)
REMARK    1  A    between atoms: C3'_2  and  C2'_3 
REMARK    2  A    between atoms: C2'_3  and  C1'_4 
REMARK    3  A    between atoms: C1'_4  and  C1_5 
ROOT
ATOM      1  C1  N4B d   1       3.028  -3.671  -5.156  0.00  0.00    -0.075 A 
ATOM      2  C2  N4B d   1       3.466  -4.768  -5.931  0.00  0.00     0.002 A 
ATOM      3  C3  N4B d   1       2.705  -5.910  -5.996  0.00  0.00     0.002 A 
ATOM      4  C4  N4B d   1       1.518  -5.985  -5.282  0.00  0.00    -0.004 A 
ATOM      5  C5  N4B d   1       1.090  -4.912  -4.557  0.00  0.00     0.002 A 
ATOM      6  C6  N4B d   1       1.842  -3.757  -4.485  0.00  0.00     0.002 A 
ENDROOT
BRANCH   1   7
ATOM      7  C1' N4B d   1       3.867  -2.434  -4.985  0.00  0.00     0.057 C 
BRANCH   7   8
ATOM      8  C2' N4B d   1       3.593  -1.829  -3.612  0.00  0.00     0.009 C 
BRANCH   8   9
ATOM      9  C3' N4B d   1       4.844  -1.228  -2.996  0.00  0.00     0.004 C 
ATOM     10  C4' N4B d   1       4.822   0.271  -2.979  0.00  0.00     0.003 C 
ENDBRANCH   8   9
ENDBRANCH   7   8
ENDBRANCH   1   7
TORSDOF 3
ENDMDL
