MODEL 1
REMARK minimizedAffinity 10.4142218
REMARK minimizedRMSD -1
REMARK  3 active torsions:
REMARK  status: ('A' for Active; 'I' for Inactive)
REMARK    1  A    between atoms: C3'_2  and  C2'_3 
REMARK    2  A    between atoms: C2'_3  and  C1'_4 
REMARK    3  A    between atoms: C1'_4  and  C1_5 
ROOT
ATOM      1  C1  N4B d   1      -2.834  -2.209   3.013  0.00  0.00    -0.075 A 
ATOM      2  C2  N4B d   1      -2.229  -2.990   2.004  0.00  0.00     0.002 A 
ATOM      3  C3  N4B d   1      -1.068  -2.562   1.408  0.00  0.00     0.002 A 
ATOM      4  C4  N4B d   1      -0.507  -1.352   1.788  0.00  0.00    -0.004 A 
ATOM      5  C5  N4B d   1      -1.085  -0.615   2.781  0.00  0.00     0.002 A 
ATOM      6  C6  N4B d   1      -2.249  -1.035   3.392  0.00  0.00     0.002 A 
ENDROOT
BRANCH   1   7
ATOM      7  C1' N4B d   1      -4.149  -2.594   3.634  0.00  0.00     0.057 C 
BRANCH   7   8
ATOM      8  C2' N4B d   1      -3.898  -3.162   5.028  0.00  0.00     0.009 C 
BRANCH   8   9
ATOM      9  C3' N4B d   1      -5.193  -3.418   5.779  0.00  0.00     0.004 C 
ATOM     10  C4' N4B d   1      -6.000  -2.171   5.988  0.00  0.00     0.003 C 
ENDBRANCH   8   9
ENDBRANCH   7   8
ENDBRANCH   1   7
TORSDOF 3
ENDMDL
