MODEL 1
REMARK minimizedAffinity 16.914156
REMARK minimizedRMSD -1
REMARK  3 active torsions:
REMARK  status: ('A' for Active; 'I' for Inactive)
REMARK    1  A    between atoms: C3'_2  and  C2'_3 
REMARK    2  A    between atoms: C2'_3  and  C1'_4 
REMARK    3  A    between atoms: C1'_4  and  C1_5 
ROOT
ATOM      1  C1  N4B d   1       1.020  -3.968   1.074  0.00  0.00    -0.075 A 
ATOM      2  C2  N4B d   1       1.694  -3.929  -0.166  0.00  0.00     0.002 A 
ATOM      3  C3  N4B d   1       2.605  -4.906  -0.484  0.00  0.00     0.002 A 
ATOM      4  C4  N4B d   1       2.871  -5.918   0.426  0.00  0.00    -0.004 A 
ATOM      5  C5  N4B d   1       2.198  -5.963   1.612  0.00  0.00     0.002 A 
ATOM      6  C6  N4B d   1       1.277  -4.989   1.943  0.00  0.00     0.002 A 
ENDROOT
BRANCH   1   7
ATOM      7  C1' N4B d   1       0.079  -2.876   1.502  0.00  0.00     0.057 C 
BRANCH   7   8
ATOM      8  C2' N4B d   1      -1.358  -3.364   1.350  0.00  0.00     0.009 C 
BRANCH   8   9
ATOM      9  C3' N4B d   1      -1.674  -3.764  -0.082  0.00  0.00     0.004 C 
ATOM     10  C4' N4B d   1      -2.885  -4.641  -0.186  0.00  0.00     0.003 C 
ENDBRANCH   8   9
ENDBRANCH   7   8
ENDBRANCH   1   7
TORSDOF 3
ENDMDL
