MODEL 1
REMARK minimizedAffinity 13.2514496
REMARK minimizedRMSD -1
REMARK  3 active torsions:
REMARK  status: ('A' for Active; 'I' for Inactive)
REMARK    1  A    between atoms: C3'_2  and  C2'_3 
REMARK    2  A    between atoms: C2'_3  and  C1'_4 
REMARK    3  A    between atoms: C1'_4  and  C1_5 
ROOT
ATOM      1  C1  N4B d   1       2.145  -0.333   1.395  0.00  0.00    -0.075 A 
ATOM      2  C2  N4B d   1       2.103   0.917   0.739  0.00  0.00     0.002 A 
ATOM      3  C3  N4B d   1       3.200   1.743   0.764  0.00  0.00     0.002 A 
ATOM      4  C4  N4B d   1       4.339   1.350   1.451  0.00  0.00    -0.004 A 
ATOM      5  C5  N4B d   1       4.380   0.130   2.060  0.00  0.00     0.002 A 
ATOM      6  C6  N4B d   1       3.287  -0.712   2.040  0.00  0.00     0.002 A 
ENDROOT
BRANCH   1   7
ATOM      7  C1' N4B d   1       0.942  -1.233   1.468  0.00  0.00     0.057 C 
BRANCH   7   8
ATOM      8  C2' N4B d   1       1.377  -2.673   1.213  0.00  0.00     0.009 C 
BRANCH   8   9
ATOM      9  C3' N4B d   1       0.803  -3.631   2.243  0.00  0.00     0.004 C 
ATOM     10  C4' N4B d   1       1.508  -4.954   2.262  0.00  0.00     0.003 C 
ENDBRANCH   8   9
ENDBRANCH   7   8
ENDBRANCH   1   7
TORSDOF 3
ENDMDL
