MODEL 1
REMARK minimizedAffinity 9.67974091
REMARK minimizedRMSD -1
REMARK  3 active torsions:
REMARK  status: ('A' for Active; 'I' for Inactive)
REMARK    1  A    between atoms: C3'_2  and  C2'_3 
REMARK    2  A    between atoms: C2'_3  and  C1'_4 
REMARK    3  A    between atoms: C1'_4  and  C1_5 
ROOT
ATOM      1  C1  N4B d   1       2.525   1.449   0.832  0.00  0.00    -0.075 A 
ATOM      2  C2  N4B d   1       1.917   0.175   0.820  0.00  0.00     0.002 A 
ATOM      3  C3  N4B d   1       2.605  -0.919   1.285  0.00  0.00     0.002 A 
ATOM      4  C4  N4B d   1       3.903  -0.766   1.748  0.00  0.00    -0.004 A 
ATOM      5  C5  N4B d   1       4.474   0.473   1.780  0.00  0.00     0.002 A 
ATOM      6  C6  N4B d   1       3.793   1.581   1.319  0.00  0.00     0.002 A 
ENDROOT
BRANCH   1   7
ATOM      7  C1' N4B d   1       1.844   2.659   0.254  0.00  0.00     0.057 C 
BRANCH   7   8
ATOM      8  C2' N4B d   1       0.514   2.238  -0.365  0.00  0.00     0.009 C 
BRANCH   8   9
ATOM      9  C3' N4B d   1       0.437   2.590  -1.841  0.00  0.00     0.004 C 
ATOM     10  C4' N4B d   1      -0.972   2.758  -2.325  0.00  0.00     0.003 C 
ENDBRANCH   8   9
ENDBRANCH   7   8
ENDBRANCH   1   7
TORSDOF 3
ENDMDL
