MODEL 1
REMARK minimizedAffinity 10.6678076
REMARK minimizedRMSD -1
REMARK  3 active torsions:
REMARK  status: ('A' for Active; 'I' for Inactive)
REMARK    1  A    between atoms: C3'_2  and  C2'_3 
REMARK    2  A    between atoms: C2'_3  and  C1'_4 
REMARK    3  A    between atoms: C1'_4  and  C1_5 
ROOT
ATOM      1  C1  N4B d   1      -4.422  -4.084   1.450  0.00  0.00    -0.075 A 
ATOM      2  C2  N4B d   1      -3.828  -3.900   0.182  0.00  0.00     0.002 A 
ATOM      3  C3  N4B d   1      -4.108  -4.774  -0.841  0.00  0.00     0.002 A 
ATOM      4  C4  N4B d   1      -4.961  -5.844  -0.614  0.00  0.00    -0.004 A 
ATOM      5  C5  N4B d   1      -5.550  -6.000   0.606  0.00  0.00     0.002 A 
ATOM      6  C6  N4B d   1      -5.281  -5.127   1.642  0.00  0.00     0.002 A 
ENDROOT
BRANCH   1   7
ATOM      7  C1' N4B d   1      -4.080  -3.205   2.622  0.00  0.00     0.057 C 
BRANCH   7   8
ATOM      8  C2' N4B d   1      -5.251  -3.196   3.600  0.00  0.00     0.009 C 
BRANCH   8   9
ATOM      9  C3' N4B d   1      -4.839  -2.701   4.975  0.00  0.00     0.004 C 
ATOM     10  C4' N4B d   1      -5.996  -2.586   5.922  0.00  0.00     0.003 C 
ENDBRANCH   8   9
ENDBRANCH   7   8
ENDBRANCH   1   7
TORSDOF 3
ENDMDL
