MODEL 1
REMARK minimizedAffinity 1.33423686
REMARK minimizedRMSD -1
REMARK  3 active torsions:
REMARK  status: ('A' for Active; 'I' for Inactive)
REMARK    1  A    between atoms: C3'_2  and  C2'_3 
REMARK    2  A    between atoms: C2'_3  and  C1'_4 
REMARK    3  A    between atoms: C1'_4  and  C1_5 
ROOT
ATOM      1  C1  N4B d   1      -4.899  -4.921   3.845  0.00  0.00    -0.075 A 
ATOM      2  C2  N4B d   1      -5.485  -5.998   3.145  0.00  0.00     0.002 A 
ATOM      3  C3  N4B d   1      -5.642  -5.927   1.782  0.00  0.00     0.002 A 
ATOM      4  C4  N4B d   1      -5.239  -4.787   1.104  0.00  0.00    -0.004 A 
ATOM      5  C5  N4B d   1      -4.650  -3.762   1.784  0.00  0.00     0.002 A 
ATOM      6  C6  N4B d   1      -4.482  -3.821   3.153  0.00  0.00     0.002 A 
ENDROOT
BRANCH   1   7
ATOM      7  C1' N4B d   1      -4.785  -4.917   5.345  0.00  0.00     0.057 C 
BRANCH   7   8
ATOM      8  C2' N4B d   1      -5.942  -4.116   5.933  0.00  0.00     0.009 C 
BRANCH   8   9
ATOM      9  C3' N4B d   1      -5.653  -2.624   5.945  0.00  0.00     0.004 C 
ATOM     10  C4' N4B d   1      -4.186  -2.318   5.991  0.00  0.00     0.003 C 
ENDBRANCH   8   9
ENDBRANCH   7   8
ENDBRANCH   1   7
TORSDOF 3
ENDMDL
