MODEL 1
REMARK minimizedAffinity 8.19858742
REMARK minimizedRMSD -1
REMARK  0 active torsions:
REMARK  status: ('A' for Active; 'I' for Inactive)
ROOT
ATOM      1  C   UNL d   1      -5.974  -4.801   5.987  0.00  0.00    -0.002 A 
ATOM      2  C1  UNL d   1      -5.986  -3.417   5.882  0.00  0.00     0.010 A 
ATOM      3  C2  UNL d   1      -5.994  -2.800   4.629  0.00  0.00     0.041 A 
ATOM      4  C3  UNL d   1      -5.991  -3.605   3.473  0.00  0.00    -0.075 A 
ATOM      5  S   UNL d   1      -6.000  -3.070   1.834  0.00  0.00     0.015 SA
ATOM      6  C4  UNL d   1      -5.989  -4.666   1.235  0.00  0.00     0.022 A 
ATOM      7  C5  UNL d   1      -5.978  -5.597   2.247  0.00  0.00     0.026 A 
ATOM      8  C6  UNL d   1      -5.980  -5.001   3.553  0.00  0.00    -0.082 A 
ATOM      9  C7  UNL d   1      -5.971  -5.596   4.838  0.00  0.00     0.045 A 
ENDROOT
TORSDOF 0
ENDMDL
