MODEL 1
REMARK minimizedAffinity 11.0791559
REMARK minimizedRMSD -1
REMARK  0 active torsions:
REMARK  status: ('A' for Active; 'I' for Inactive)
ROOT
ATOM      1  C   UNL d   1      -5.912  -4.639   1.485  0.00  0.00    -0.002 A 
ATOM      2  C1  UNL d   1      -5.925  -5.881   2.103  0.00  0.00     0.010 A 
ATOM      3  C2  UNL d   1      -5.950  -5.981   3.496  0.00  0.00     0.041 A 
ATOM      4  C3  UNL d   1      -5.962  -4.801   4.264  0.00  0.00    -0.075 A 
ATOM      5  S   UNL d   1      -5.993  -4.679   5.983  0.00  0.00     0.015 SA
ATOM      6  C4  UNL d   1      -5.990  -2.976   5.938  0.00  0.00     0.022 A 
ATOM      7  C5  UNL d   1      -5.966  -2.494   4.650  0.00  0.00     0.026 A 
ATOM      8  C6  UNL d   1      -5.950  -3.538   3.664  0.00  0.00    -0.082 A 
ATOM      9  C7  UNL d   1      -5.925  -3.470   2.250  0.00  0.00     0.045 A 
ENDROOT
TORSDOF 0
ENDMDL
