MODEL 1
REMARK minimizedAffinity 1.11377895
REMARK minimizedRMSD -1
REMARK  0 active torsions:
REMARK  status: ('A' for Active; 'I' for Inactive)
ROOT
ATOM      1  C   UNL d   1      -2.492   0.493   3.271  0.00  0.00    -0.002 A 
ATOM      2  C1  UNL d   1      -1.478  -0.241   2.673  0.00  0.00     0.010 A 
ATOM      3  C2  UNL d   1      -1.546  -0.576   1.319  0.00  0.00     0.041 A 
ATOM      4  C3  UNL d   1      -2.661  -0.153   0.568  0.00  0.00    -0.075 A 
ATOM      5  S   UNL d   1      -2.958  -0.445  -1.105  0.00  0.00     0.015 SA
ATOM      6  C4  UNL d   1      -4.437   0.400  -1.066  0.00  0.00     0.022 A 
ATOM      7  C5  UNL d   1      -4.714   0.899   0.185  0.00  0.00     0.026 A 
ATOM      8  C6  UNL d   1      -3.694   0.589   1.147  0.00  0.00    -0.082 A 
ATOM      9  C7  UNL d   1      -3.596   0.911   2.522  0.00  0.00     0.045 A 
ENDROOT
TORSDOF 0
ENDMDL
