MODEL 1
REMARK minimizedAffinity 3.36074877
REMARK minimizedRMSD -1
REMARK  0 active torsions:
REMARK  status: ('A' for Active; 'I' for Inactive)
ROOT
ATOM      1  C   UNL d   1      -2.974  -1.185   1.941  0.00  0.00    -0.002 A 
ATOM      2  C1  UNL d   1      -2.195  -0.166   2.469  0.00  0.00     0.010 A 
ATOM      3  C2  UNL d   1      -2.487   0.374   3.723  0.00  0.00     0.041 A 
ATOM      4  C3  UNL d   1      -3.585  -0.134   4.445  0.00  0.00    -0.075 A 
ATOM      5  S   UNL d   1      -4.131   0.373   6.000  0.00  0.00     0.015 SA
ATOM      6  C4  UNL d   1      -5.411  -0.753   6.000  0.00  0.00     0.022 A 
ATOM      7  C5  UNL d   1      -5.436  -1.505   4.849  0.00  0.00     0.026 A 
ATOM      8  C6  UNL d   1      -4.384  -1.161   3.934  0.00  0.00    -0.082 A 
ATOM      9  C7  UNL d   1      -4.062  -1.687   2.660  0.00  0.00     0.045 A 
ENDROOT
TORSDOF 0
ENDMDL
