MODEL 1
REMARK minimizedAffinity 11.8564844
REMARK minimizedRMSD -1
REMARK  0 active torsions:
REMARK  status: ('A' for Active; 'I' for Inactive)
ROOT
ATOM      1  C   UNL d   1      -5.963  -5.983   5.241  0.00  0.00    -0.002 A 
ATOM      2  C1  UNL d   1      -5.984  -4.821   5.999  0.00  0.00     0.010 A 
ATOM      3  C2  UNL d   1      -5.979  -3.569   5.381  0.00  0.00     0.041 A 
ATOM      4  C3  UNL d   1      -5.953  -3.504   3.974  0.00  0.00    -0.075 A 
ATOM      5  S   UNL d   1      -5.943  -2.083   2.999  0.00  0.00     0.015 SA
ATOM      6  C4  UNL d   1      -5.910  -2.984   1.553  0.00  0.00     0.022 A 
ATOM      7  C5  UNL d   1      -5.906  -4.338   1.790  0.00  0.00     0.026 A 
ATOM      8  C6  UNL d   1      -5.932  -4.661   3.189  0.00  0.00    -0.082 A 
ATOM      9  C7  UNL d   1      -5.937  -5.915   3.846  0.00  0.00     0.045 A 
ENDROOT
TORSDOF 0
ENDMDL
