MODEL 1
REMARK minimizedAffinity 12.3866234
REMARK minimizedRMSD -1
REMARK  0 active torsions:
REMARK  status: ('A' for Active; 'I' for Inactive)
ROOT
ATOM      1  C   UNL d   1      -1.528   0.060   3.024  0.00  0.00    -0.002 A 
ATOM      2  C1  UNL d   1      -2.054   0.726   1.926  0.00  0.00     0.010 A 
ATOM      3  C2  UNL d   1      -3.140   1.590   2.072  0.00  0.00     0.041 A 
ATOM      4  C3  UNL d   1      -3.694   1.778   3.354  0.00  0.00    -0.075 A 
ATOM      5  S   UNL d   1      -5.026   2.790   3.774  0.00  0.00     0.015 SA
ATOM      6  C4  UNL d   1      -4.928   2.362   5.421  0.00  0.00     0.022 A 
ATOM      7  C5  UNL d   1      -3.909   1.471   5.662  0.00  0.00     0.026 A 
ATOM      8  C6  UNL d   1      -3.181   1.120   4.476  0.00  0.00    -0.082 A 
ATOM      9  C7  UNL d   1      -2.080   0.249   4.294  0.00  0.00     0.045 A 
ENDROOT
TORSDOF 0
ENDMDL
