MODEL 1
REMARK minimizedAffinity 3.97722888
REMARK minimizedRMSD -1
REMARK  0 active torsions:
REMARK  status: ('A' for Active; 'I' for Inactive)
ROOT
ATOM      1  C   UNL d   1      -3.325   0.204   1.961  0.00  0.00    -0.002 A 
ATOM      2  C1  UNL d   1      -2.813   0.850   3.078  0.00  0.00     0.010 A 
ATOM      3  C2  UNL d   1      -1.677   0.357   3.724  0.00  0.00     0.041 A 
ATOM      4  C3  UNL d   1      -1.058  -0.804   3.223  0.00  0.00    -0.075 A 
ATOM      5  S   UNL d   1       0.344  -1.588   3.851  0.00  0.00     0.015 SA
ATOM      6  C4  UNL d   1       0.296  -2.797   2.651  0.00  0.00     0.022 A 
ATOM      7  C5  UNL d   1      -0.757  -2.623   1.784  0.00  0.00     0.026 A 
ATOM      8  C6  UNL d   1      -1.554  -1.471   2.100  0.00  0.00    -0.082 A 
ATOM      9  C7  UNL d   1      -2.708  -0.948   1.467  0.00  0.00     0.045 A 
ENDROOT
TORSDOF 0
ENDMDL
