MODEL 1
REMARK minimizedAffinity 8.31570148
REMARK minimizedRMSD -1
REMARK  0 active torsions:
REMARK  status: ('A' for Active; 'I' for Inactive)
ROOT
ATOM      1  C   UNL d   1      -5.998  -5.376   5.699  0.00  0.00    -0.002 A 
ATOM      2  C1  UNL d   1      -5.188  -4.290   6.000  0.00  0.00     0.010 A 
ATOM      3  C2  UNL d   1      -4.275  -3.803   5.062  0.00  0.00     0.041 A 
ATOM      4  C3  UNL d   1      -4.191  -4.432   3.804  0.00  0.00    -0.075 A 
ATOM      5  S   UNL d   1      -3.148  -4.008   2.498  0.00  0.00     0.015 SA
ATOM      6  C4  UNL d   1      -3.753  -5.257   1.510  0.00  0.00     0.022 A 
ATOM      7  C5  UNL d   1      -4.728  -5.990   2.145  0.00  0.00     0.026 A 
ATOM      8  C6  UNL d   1      -4.997  -5.526   3.477  0.00  0.00    -0.082 A 
ATOM      9  C7  UNL d   1      -5.911  -5.997   4.450  0.00  0.00     0.045 A 
ENDROOT
TORSDOF 0
ENDMDL
