MODEL 1
REMARK minimizedAffinity 18.3809757
REMARK minimizedRMSD -1
REMARK  0 active torsions:
REMARK  status: ('A' for Active; 'I' for Inactive)
ROOT
ATOM      1  C   UNL d   1       5.865   4.374  -3.732  0.00  0.00    -0.002 A 
ATOM      2  C1  UNL d   1       6.000   4.506  -2.357  0.00  0.00     0.010 A 
ATOM      3  C2  UNL d   1       5.012   4.023  -1.497  0.00  0.00     0.041 A 
ATOM      4  C3  UNL d   1       3.876   3.397  -2.047  0.00  0.00    -0.075 A 
ATOM      5  S   UNL d   1       2.540   2.729  -1.187  0.00  0.00     0.015 SA
ATOM      6  C4  UNL d   1       1.758   2.251  -2.625  0.00  0.00     0.022 A 
ATOM      7  C5  UNL d   1       2.486   2.585  -3.742  0.00  0.00     0.026 A 
ATOM      8  C6  UNL d   1       3.718   3.251  -3.428  0.00  0.00    -0.082 A 
ATOM      9  C7  UNL d   1       4.737   3.752  -4.274  0.00  0.00     0.045 A 
ENDROOT
TORSDOF 0
ENDMDL
