MODEL 1
REMARK minimizedAffinity 19.8381615
REMARK minimizedRMSD -1
REMARK  0 active torsions:
REMARK  status: ('A' for Active; 'I' for Inactive)
ROOT
ATOM      1  C   UNL d   1      -2.688  -6.000  -5.360  0.00  0.00    -0.002 A 
ATOM      2  C1  UNL d   1      -1.457  -5.996  -6.000  0.00  0.00     0.010 A 
ATOM      3  C2  UNL d   1      -0.362  -5.344  -5.429  0.00  0.00     0.041 A 
ATOM      4  C3  UNL d   1      -0.526  -4.692  -4.191  0.00  0.00    -0.075 A 
ATOM      5  S   UNL d   1       0.674  -3.830  -3.302  0.00  0.00     0.015 SA
ATOM      6  C4  UNL d   1      -0.419  -3.448  -2.052  0.00  0.00     0.022 A 
ATOM      7  C5  UNL d   1      -1.674  -3.958  -2.290  0.00  0.00     0.026 A 
ATOM      8  C6  UNL d   1      -1.756  -4.684  -3.526  0.00  0.00    -0.082 A 
ATOM      9  C7  UNL d   1      -2.847  -5.352  -4.132  0.00  0.00     0.045 A 
ENDROOT
TORSDOF 0
ENDMDL
