MODEL 1
REMARK minimizedAffinity -3.51563263
REMARK minimizedRMSD -1
REMARK  0 active torsions:
REMARK  status: ('A' for Active; 'I' for Inactive)
ROOT
ATOM      1  C   UNL d   1       0.420   1.232  -4.258  0.00  0.00     0.172 C 
ATOM      2  N   UNL d   1      -0.101  -0.102  -4.068  0.00  0.00    -0.070 N 
ATOM      3  C1  UNL d   1       0.489  -1.091  -3.327  0.00  0.00    -0.004 A 
ATOM      4  C2  UNL d   1      -0.317  -2.207  -3.395  0.00  0.00    -0.047 A 
ATOM      5  C3  UNL d   1      -1.429  -1.877  -4.206  0.00  0.00    -0.047 A 
ATOM      6  C4  UNL d   1      -1.270  -0.568  -4.609  0.00  0.00    -0.004 A 
ENDROOT
TORSDOF 0
ENDMDL
