MODEL 1
REMARK minimizedAffinity -3.99358869
REMARK minimizedRMSD -1
REMARK  0 active torsions:
REMARK  status: ('A' for Active; 'I' for Inactive)
ROOT
ATOM      1  C   UNL d   1       0.364  -0.893  -0.503  0.00  0.00     0.172 C 
ATOM      2  N   UNL d   1      -0.162  -0.063   0.556  0.00  0.00    -0.070 N 
ATOM      3  C1  UNL d   1       0.581   0.710   1.408  0.00  0.00    -0.004 A 
ATOM      4  C2  UNL d   1      -0.288   1.345   2.268  0.00  0.00    -0.047 A 
ATOM      5  C3  UNL d   1      -1.599   0.939   1.922  0.00  0.00    -0.047 A 
ATOM      6  C4  UNL d   1      -1.491   0.067   0.859  0.00  0.00    -0.004 A 
ENDROOT
TORSDOF 0
ENDMDL
