MODEL 1
REMARK minimizedAffinity -3.27863836
REMARK minimizedRMSD -1
REMARK  0 active torsions:
REMARK  status: ('A' for Active; 'I' for Inactive)
ROOT
ATOM      1  C   UNL d   1       0.218  -0.123  -1.186  0.00  0.00     0.172 C 
ATOM      2  N   UNL d   1      -0.368   0.296   0.065  0.00  0.00    -0.070 N 
ATOM      3  C1  UNL d   1      -1.701   0.248   0.377  0.00  0.00    -0.004 A 
ATOM      4  C2  UNL d   1      -1.851   0.734   1.658  0.00  0.00    -0.047 A 
ATOM      5  C3  UNL d   1      -0.565   1.088   2.131  0.00  0.00    -0.047 A 
ATOM      6  C4  UNL d   1       0.334   0.806   1.124  0.00  0.00    -0.004 A 
ENDROOT
TORSDOF 0
ENDMDL
