MODEL 1
REMARK minimizedAffinity -3.54525685
REMARK minimizedRMSD -1
REMARK  0 active torsions:
REMARK  status: ('A' for Active; 'I' for Inactive)
ROOT
ATOM      1  C   UNL d   1      -0.728   1.408   2.847  0.00  0.00     0.172 C 
ATOM      2  N   UNL d   1      -0.091   0.731   1.743  0.00  0.00    -0.070 N 
ATOM      3  C1  UNL d   1      -0.625   0.565   0.493  0.00  0.00    -0.004 A 
ATOM      4  C2  UNL d   1       0.291  -0.129  -0.269  0.00  0.00    -0.047 A 
ATOM      5  C3  UNL d   1       1.413  -0.390   0.553  0.00  0.00    -0.047 A 
ATOM      6  C4  UNL d   1       1.150   0.153   1.793  0.00  0.00    -0.004 A 
ENDROOT
TORSDOF 0
ENDMDL
