MODEL 1
REMARK minimizedAffinity -1.72804475
REMARK minimizedRMSD -1
REMARK  0 active torsions:
REMARK  status: ('A' for Active; 'I' for Inactive)
ROOT
ATOM      1  C   UNL d   1       0.574   0.439  -0.924  0.00  0.00     0.172 C 
ATOM      2  N   UNL d   1      -0.328   0.500   0.202  0.00  0.00    -0.070 N 
ATOM      3  C1  UNL d   1       0.018   0.306   1.513  0.00  0.00    -0.004 A 
ATOM      4  C2  UNL d   1      -1.121   0.449   2.276  0.00  0.00    -0.047 A 
ATOM      5  C3  UNL d   1      -2.189   0.738   1.392  0.00  0.00    -0.047 A 
ATOM      6  C4  UNL d   1      -1.669   0.764   0.115  0.00  0.00    -0.004 A 
ENDROOT
TORSDOF 0
ENDMDL
