MODEL 1
REMARK minimizedAffinity -1.54394376
REMARK minimizedRMSD -1
REMARK  0 active torsions:
REMARK  status: ('A' for Active; 'I' for Inactive)
ROOT
ATOM      1  C   UNL d   1       1.763  -0.679   1.516  0.00  0.00     0.172 C 
ATOM      2  N   UNL d   1       0.442  -0.152   1.265  0.00  0.00    -0.070 N 
ATOM      3  C1  UNL d   1      -0.470   0.204   2.222  0.00  0.00    -0.004 A 
ATOM      4  C2  UNL d   1      -1.601   0.659   1.578  0.00  0.00    -0.047 A 
ATOM      5  C3  UNL d   1      -1.360   0.572   0.186  0.00  0.00    -0.047 A 
ATOM      6  C4  UNL d   1      -0.087   0.067   0.021  0.00  0.00    -0.004 A 
ENDROOT
TORSDOF 0
ENDMDL
