MODEL 1
REMARK minimizedAffinity -3.88137364
REMARK minimizedRMSD -1
REMARK  0 active torsions:
REMARK  status: ('A' for Active; 'I' for Inactive)
ROOT
ATOM      1  C   UNL d   1       0.312  -0.360  -0.551  0.00  0.00     0.172 C 
ATOM      2  N   UNL d   1      -0.293   0.320   0.570  0.00  0.00    -0.070 N 
ATOM      3  C1  UNL d   1       0.382   0.980   1.562  0.00  0.00    -0.004 A 
ATOM      4  C2  UNL d   1      -0.550   1.491   2.439  0.00  0.00    -0.047 A 
ATOM      5  C3  UNL d   1      -1.830   1.124   1.958  0.00  0.00    -0.047 A 
ATOM      6  C4  UNL d   1      -1.641   0.400   0.800  0.00  0.00    -0.004 A 
ENDROOT
TORSDOF 0
ENDMDL
