MODEL 1
REMARK minimizedAffinity -3.73400092
REMARK minimizedRMSD -1
REMARK  0 active torsions:
REMARK  status: ('A' for Active; 'I' for Inactive)
ROOT
ATOM      1  C   UNL d   1       0.252  -0.256  -0.832  0.00  0.00     0.172 C 
ATOM      2  N   UNL d   1      -0.290   0.239   0.412  0.00  0.00    -0.070 N 
ATOM      3  C1  UNL d   1      -1.535  -0.041   0.908  0.00  0.00    -0.004 A 
ATOM      4  C2  UNL d   1      -1.667   0.618   2.111  0.00  0.00    -0.047 A 
ATOM      5  C3  UNL d   1      -0.461   1.319   2.345  0.00  0.00    -0.047 A 
ATOM      6  C4  UNL d   1       0.375   1.067   1.278  0.00  0.00    -0.004 A 
ENDROOT
TORSDOF 0
ENDMDL
