MODEL 1
REMARK minimizedAffinity -4.27942657
REMARK minimizedRMSD -1
REMARK  0 active torsions:
REMARK  status: ('A' for Active; 'I' for Inactive)
ROOT
ATOM      1  C   UNL d   1       0.644  -0.651  -0.036  0.00  0.00     0.172 C 
ATOM      2  N   UNL d   1      -0.122   0.026   0.984  0.00  0.00    -0.070 N 
ATOM      3  C1  UNL d   1      -1.450   0.351   0.901  0.00  0.00    -0.004 A 
ATOM      4  C2  UNL d   1      -1.803   0.985   2.072  0.00  0.00    -0.047 A 
ATOM      5  C3  UNL d   1      -0.648   1.044   2.887  0.00  0.00    -0.047 A 
ATOM      6  C4  UNL d   1       0.378   0.444   2.189  0.00  0.00    -0.004 A 
ENDROOT
TORSDOF 0
ENDMDL
