MODEL 1
REMARK minimizedAffinity -3.79768109
REMARK minimizedRMSD -1
REMARK  0 active torsions:
REMARK  status: ('A' for Active; 'I' for Inactive)
ROOT
ATOM      1  C   UNL d   1       0.312  -0.476  -0.523  0.00  0.00     0.172 C 
ATOM      2  N   UNL d   1      -0.311   0.309   0.516  0.00  0.00    -0.070 N 
ATOM      3  C1  UNL d   1      -1.488   0.007   1.147  0.00  0.00    -0.004 A 
ATOM      4  C2  UNL d   1      -1.738   0.999   2.071  0.00  0.00    -0.047 A 
ATOM      5  C3  UNL d   1      -0.674   1.929   1.992  0.00  0.00    -0.047 A 
ATOM      6  C4  UNL d   1       0.195   1.477   1.021  0.00  0.00    -0.004 A 
ENDROOT
TORSDOF 0
ENDMDL
