MODEL 1
REMARK minimizedAffinity -3.8248744
REMARK minimizedRMSD -1
REMARK  0 active torsions:
REMARK  status: ('A' for Active; 'I' for Inactive)
ROOT
ATOM      1  C   UNL d   1       0.035  -0.075  -0.779  0.00  0.00     0.172 C 
ATOM      2  N   UNL d   1      -0.217   0.430   0.550  0.00  0.00    -0.070 N 
ATOM      3  C1  UNL d   1       0.594   1.285   1.246  0.00  0.00    -0.004 A 
ATOM      4  C2  UNL d   1       0.004   1.526   2.468  0.00  0.00    -0.047 A 
ATOM      5  C3  UNL d   1      -1.204   0.790   2.507  0.00  0.00    -0.047 A 
ATOM      6  C4  UNL d   1      -1.316   0.121   1.307  0.00  0.00    -0.004 A 
ENDROOT
TORSDOF 0
ENDMDL
