MODEL 1
REMARK minimizedAffinity -5.10615396
REMARK minimizedRMSD -1
REMARK  0 active torsions:
REMARK  status: ('A' for Active; 'I' for Inactive)
ROOT
ATOM      1  C   UNL d   1      -0.817   0.956  -0.742  0.00  0.00     0.077 C 
ATOM      2  C1  UNL d   1      -0.005  -0.084  -0.029  0.00  0.00    -0.074 A 
ATOM      3  C2  UNL d   1       1.342  -0.287  -0.347  0.00  0.00    -0.005 A 
ATOM      4  C3  UNL d   1       2.087  -1.251   0.332  0.00  0.00     0.006 A 
ATOM      5  C4  UNL d   1       1.494  -2.021   1.334  0.00  0.00    -0.005 A 
ATOM      6  C5  UNL d   1       0.149  -1.831   1.666  0.00  0.00    -0.074 A 
ATOM      7  C6  UNL d   1      -0.501  -2.642   2.747  0.00  0.00     0.077 C 
ATOM      8  C7  UNL d   1      -0.591  -0.855   0.985  0.00  0.00    -0.001 A 
ENDROOT
TORSDOF 0
ENDMDL
