MODEL 1
REMARK minimizedAffinity -3.90385628
REMARK minimizedRMSD -1
REMARK  0 active torsions:
REMARK  status: ('A' for Active; 'I' for Inactive)
ROOT
ATOM      1  C   UNL d   1      -1.878   1.456  -3.796  0.00  0.00     0.077 C 
ATOM      2  C1  UNL d   1      -1.129   0.900  -2.622  0.00  0.00    -0.074 A 
ATOM      3  C2  UNL d   1      -0.184  -0.117  -2.788  0.00  0.00    -0.005 A 
ATOM      4  C3  UNL d   1       0.511  -0.618  -1.687  0.00  0.00     0.006 A 
ATOM      5  C4  UNL d   1       0.269  -0.107  -0.411  0.00  0.00    -0.005 A 
ATOM      6  C5  UNL d   1      -0.672   0.910  -0.226  0.00  0.00    -0.074 A 
ATOM      7  C6  UNL d   1      -0.937   1.477   1.137  0.00  0.00     0.077 C 
ATOM      8  C7  UNL d   1      -1.362   1.413  -1.338  0.00  0.00    -0.001 A 
ENDROOT
TORSDOF 0
ENDMDL
