MODEL 1
REMARK minimizedAffinity -4.98868656
REMARK minimizedRMSD -1
REMARK  0 active torsions:
REMARK  status: ('A' for Active; 'I' for Inactive)
ROOT
ATOM      1  C   UNL d   1       0.871  -1.024  -0.049  0.00  0.00     0.077 C 
ATOM      2  C1  UNL d   1      -0.142   0.030  -0.384  0.00  0.00    -0.074 A 
ATOM      3  C2  UNL d   1      -0.532   0.980   0.566  0.00  0.00    -0.005 A 
ATOM      4  C3  UNL d   1      -1.468   1.960   0.237  0.00  0.00     0.006 A 
ATOM      5  C4  UNL d   1      -2.024   1.999  -1.042  0.00  0.00    -0.005 A 
ATOM      6  C5  UNL d   1      -1.647   1.058  -2.005  0.00  0.00    -0.074 A 
ATOM      7  C6  UNL d   1      -2.227   1.092  -3.387  0.00  0.00     0.077 C 
ATOM      8  C7  UNL d   1      -0.700   0.081  -1.669  0.00  0.00    -0.001 A 
ENDROOT
TORSDOF 0
ENDMDL
