MODEL 1
REMARK minimizedAffinity -6.10372257
REMARK minimizedRMSD -1
REMARK  0 active torsions:
REMARK  status: ('A' for Active; 'I' for Inactive)
ROOT
ATOM      1  C   UNL d   1      -0.697  -2.980   2.667  0.00  0.00     0.077 C 
ATOM      2  C1  UNL d   1       0.008  -2.083   1.693  0.00  0.00    -0.074 A 
ATOM      3  C2  UNL d   1       1.300  -2.380   1.247  0.00  0.00    -0.005 A 
ATOM      4  C3  UNL d   1       1.938  -1.541   0.333  0.00  0.00     0.006 A 
ATOM      5  C4  UNL d   1       1.293  -0.399  -0.142  0.00  0.00    -0.005 A 
ATOM      6  C5  UNL d   1       0.001  -0.086   0.292  0.00  0.00    -0.074 A 
ATOM      7  C6  UNL d   1      -0.711   1.132  -0.217  0.00  0.00     0.077 C 
ATOM      8  C7  UNL d   1      -0.637  -0.938   1.204  0.00  0.00    -0.001 A 
ENDROOT
TORSDOF 0
ENDMDL
