MODEL 1
REMARK minimizedAffinity 0.00675188657
REMARK minimizedRMSD -1
REMARK  0 active torsions:
REMARK  status: ('A' for Active; 'I' for Inactive)
ROOT
ATOM      1  C   UNL d   1      -2.401   1.752  -2.802  0.00  0.00     0.077 C 
ATOM      2  C1  UNL d   1      -1.781   1.467  -1.467  0.00  0.00    -0.074 A 
ATOM      3  C2  UNL d   1      -2.194   2.155  -0.321  0.00  0.00    -0.005 A 
ATOM      4  C3  UNL d   1      -1.616   1.872   0.916  0.00  0.00     0.006 A 
ATOM      5  C4  UNL d   1      -0.619   0.901   1.020  0.00  0.00    -0.005 A 
ATOM      6  C5  UNL d   1      -0.194   0.202  -0.114  0.00  0.00    -0.074 A 
ATOM      7  C6  UNL d   1       0.869  -0.852  -0.018  0.00  0.00     0.077 C 
ATOM      8  C7  UNL d   1      -0.785   0.487  -1.352  0.00  0.00    -0.001 A 
ENDROOT
TORSDOF 0
ENDMDL
