MODEL 1
REMARK minimizedAffinity -1.92241001
REMARK minimizedRMSD -1
REMARK  0 active torsions:
REMARK  status: ('A' for Active; 'I' for Inactive)
ROOT
ATOM      1  C   UNL d   1       0.449  -1.622   3.630  0.00  0.00     0.077 C 
ATOM      2  C1  UNL d   1       0.763  -1.197   2.226  0.00  0.00    -0.074 A 
ATOM      3  C2  UNL d   1       1.936  -1.620   1.592  0.00  0.00    -0.005 A 
ATOM      4  C3  UNL d   1       2.209  -1.225   0.283  0.00  0.00     0.006 A 
ATOM      5  C4  UNL d   1       1.314  -0.404  -0.405  0.00  0.00    -0.005 A 
ATOM      6  C5  UNL d   1       0.136   0.028   0.213  0.00  0.00    -0.074 A 
ATOM      7  C6  UNL d   1      -0.841   0.902  -0.515  0.00  0.00     0.077 C 
ATOM      8  C7  UNL d   1      -0.135  -0.380   1.526  0.00  0.00    -0.001 A 
ENDROOT
TORSDOF 0
ENDMDL
