MODEL 1
REMARK minimizedAffinity -4.46217775
REMARK minimizedRMSD -1
REMARK  0 active torsions:
REMARK  status: ('A' for Active; 'I' for Inactive)
ROOT
ATOM      1  C   UNL d   1       1.447  -3.105   1.295  0.00  0.00     0.077 C 
ATOM      2  C1  UNL d   1       1.139  -1.962   0.374  0.00  0.00    -0.074 A 
ATOM      3  C2  UNL d   1       1.765  -1.854  -0.871  0.00  0.00    -0.005 A 
ATOM      4  C3  UNL d   1       1.461  -0.790  -1.721  0.00  0.00     0.006 A 
ATOM      5  C4  UNL d   1       0.530   0.174  -1.334  0.00  0.00    -0.005 A 
ATOM      6  C5  UNL d   1      -0.108   0.081  -0.093  0.00  0.00    -0.074 A 
ATOM      7  C6  UNL d   1      -1.119   1.104   0.334  0.00  0.00     0.077 C 
ATOM      8  C7  UNL d   1       0.198  -0.994   0.752  0.00  0.00    -0.001 A 
ENDROOT
TORSDOF 0
ENDMDL
