MODEL 1
REMARK minimizedAffinity -1.92340195
REMARK minimizedRMSD -1
REMARK  0 active torsions:
REMARK  status: ('A' for Active; 'I' for Inactive)
ROOT
ATOM      1  C   UNL d   1       2.468  -1.995   0.849  0.00  0.00     0.077 C 
ATOM      2  C1  UNL d   1       1.410  -1.027   0.408  0.00  0.00    -0.074 A 
ATOM      3  C2  UNL d   1       1.465  -0.428  -0.855  0.00  0.00    -0.005 A 
ATOM      4  C3  UNL d   1       0.470   0.463  -1.254  0.00  0.00     0.006 A 
ATOM      5  C4  UNL d   1      -0.589   0.764  -0.397  0.00  0.00    -0.005 A 
ATOM      6  C5  UNL d   1      -0.662   0.175   0.869  0.00  0.00    -0.074 A 
ATOM      7  C6  UNL d   1      -1.798   0.480   1.799  0.00  0.00     0.077 C 
ATOM      8  C7  UNL d   1       0.339  -0.725   1.261  0.00  0.00    -0.001 A 
ENDROOT
TORSDOF 0
ENDMDL
