MODEL 1
REMARK minimizedAffinity -4.09996176
REMARK minimizedRMSD -1
REMARK  0 active torsions:
REMARK  status: ('A' for Active; 'I' for Inactive)
ROOT
ATOM      1  C   UNL d   1       1.353  -2.622   1.043  0.00  0.00     0.077 C 
ATOM      2  C1  UNL d   1       0.712  -1.424   0.407  0.00  0.00    -0.074 A 
ATOM      3  C2  UNL d   1       0.810  -1.204  -0.971  0.00  0.00    -0.005 A 
ATOM      4  C3  UNL d   1       0.201  -0.091  -1.550  0.00  0.00     0.006 A 
ATOM      5  C4  UNL d   1      -0.511   0.811  -0.759  0.00  0.00    -0.005 A 
ATOM      6  C5  UNL d   1      -0.621   0.607   0.620  0.00  0.00    -0.074 A 
ATOM      7  C6  UNL d   1      -1.391   1.562   1.483  0.00  0.00     0.077 C 
ATOM      8  C7  UNL d   1      -0.011  -0.518   1.194  0.00  0.00    -0.001 A 
ENDROOT
TORSDOF 0
ENDMDL
