MODEL 1
REMARK minimizedAffinity -2.54316759
REMARK minimizedRMSD -1
REMARK  0 active torsions:
REMARK  status: ('A' for Active; 'I' for Inactive)
ROOT
ATOM      1  C   UNL d   1       1.544  -3.094   1.237  0.00  0.00     0.077 C 
ATOM      2  C1  UNL d   1       1.257  -1.812   0.513  0.00  0.00    -0.074 A 
ATOM      3  C2  UNL d   1      -0.055  -1.436   0.209  0.00  0.00    -0.005 A 
ATOM      4  C3  UNL d   1      -0.307  -0.237  -0.457  0.00  0.00     0.006 A 
ATOM      5  C4  UNL d   1       0.750   0.598  -0.824  0.00  0.00    -0.005 A 
ATOM      6  C5  UNL d   1       2.068   0.239  -0.528  0.00  0.00    -0.074 A 
ATOM      7  C6  UNL d   1       3.214   1.129  -0.907  0.00  0.00     0.077 C 
ATOM      8  C7  UNL d   1       2.313  -0.965   0.147  0.00  0.00    -0.001 A 
ENDROOT
TORSDOF 0
ENDMDL
