MODEL 1
REMARK minimizedAffinity -3.76629472
REMARK minimizedRMSD -1
REMARK  0 active torsions:
REMARK  status: ('A' for Active; 'I' for Inactive)
ROOT
ATOM      1  C   UNL d   1       1.130  -3.102   1.331  0.00  0.00     0.077 C 
ATOM      2  C1  UNL d   1       1.078  -1.795   0.597  0.00  0.00    -0.074 A 
ATOM      3  C2  UNL d   1       2.252  -1.150   0.192  0.00  0.00    -0.005 A 
ATOM      4  C3  UNL d   1       2.187   0.061  -0.498  0.00  0.00     0.006 A 
ATOM      5  C4  UNL d   1       0.951   0.638  -0.790  0.00  0.00    -0.005 A 
ATOM      6  C5  UNL d   1      -0.233   0.007  -0.394  0.00  0.00    -0.074 A 
ATOM      7  C6  UNL d   1      -1.571   0.609  -0.709  0.00  0.00     0.077 C 
ATOM      8  C7  UNL d   1      -0.160  -1.212   0.293  0.00  0.00    -0.001 A 
ENDROOT
TORSDOF 0
ENDMDL
