MODEL 1
REMARK minimizedAffinity -4.4787178
REMARK minimizedRMSD -1
REMARK  0 active torsions:
REMARK  status: ('A' for Active; 'I' for Inactive)
ROOT
ATOM      1  C   UNL d   1       1.113  -3.026   1.000  0.00  0.00     0.077 C 
ATOM      2  C1  UNL d   1       1.091  -1.679   0.340  0.00  0.00    -0.074 A 
ATOM      3  C2  UNL d   1       2.273  -1.072  -0.097  0.00  0.00    -0.005 A 
ATOM      4  C3  UNL d   1       2.235   0.176  -0.717  0.00  0.00     0.006 A 
ATOM      5  C4  UNL d   1       1.016   0.830  -0.906  0.00  0.00    -0.005 A 
ATOM      6  C5  UNL d   1      -0.176   0.239  -0.477  0.00  0.00    -0.074 A 
ATOM      7  C6  UNL d   1      -1.495   0.923  -0.682  0.00  0.00     0.077 C 
ATOM      8  C7  UNL d   1      -0.130  -1.019   0.139  0.00  0.00    -0.001 A 
ENDROOT
TORSDOF 0
ENDMDL
