MODEL 1
REMARK minimizedAffinity -1.5354085
REMARK minimizedRMSD -1
REMARK  0 active torsions:
REMARK  status: ('A' for Active; 'I' for Inactive)
ROOT
ATOM      1  C   UNL d   1       1.083  -2.339   1.153  0.00  0.00     0.077 C 
ATOM      2  C1  UNL d   1       0.736  -1.074   0.425  0.00  0.00    -0.074 A 
ATOM      3  C2  UNL d   1       1.653  -0.022   0.334  0.00  0.00    -0.005 A 
ATOM      4  C3  UNL d   1       1.320   1.144  -0.354  0.00  0.00     0.006 A 
ATOM      5  C4  UNL d   1       0.067   1.271  -0.957  0.00  0.00    -0.005 A 
ATOM      6  C5  UNL d   1      -0.863   0.229  -0.877  0.00  0.00    -0.074 A 
ATOM      7  C6  UNL d   1      -2.209   0.345  -1.527  0.00  0.00     0.077 C 
ATOM      8  C7  UNL d   1      -0.518  -0.942  -0.189  0.00  0.00    -0.001 A 
ENDROOT
TORSDOF 0
ENDMDL
