MODEL 1
REMARK minimizedAffinity -2.72974229
REMARK minimizedRMSD -1
REMARK  0 active torsions:
REMARK  status: ('A' for Active; 'I' for Inactive)
ROOT
ATOM      1  C   UNL d   1       1.394  -2.879   1.116  0.00  0.00     0.077 C 
ATOM      2  C1  UNL d   1       1.439  -1.497   0.536  0.00  0.00    -0.074 A 
ATOM      3  C2  UNL d   1       2.597  -1.015  -0.083  0.00  0.00    -0.005 A 
ATOM      4  C3  UNL d   1       2.621   0.270  -0.627  0.00  0.00     0.006 A 
ATOM      5  C4  UNL d   1       1.490   1.084  -0.557  0.00  0.00    -0.005 A 
ATOM      6  C5  UNL d   1       0.322   0.618   0.057  0.00  0.00    -0.074 A 
ATOM      7  C6  UNL d   1      -0.905   1.476   0.132  0.00  0.00     0.077 C 
ATOM      8  C7  UNL d   1       0.304  -0.676   0.595  0.00  0.00    -0.001 A 
ENDROOT
TORSDOF 0
ENDMDL
