MODEL 1
REMARK minimizedAffinity 0.0260298345
REMARK minimizedRMSD -1
REMARK  0 active torsions:
REMARK  status: ('A' for Active; 'I' for Inactive)
ROOT
ATOM      1  C   UNL d   1       0.348  -1.045   0.375  0.00  0.00     0.077 C 
ATOM      2  C1  UNL d   1      -0.192   0.224  -0.214  0.00  0.00    -0.074 A 
ATOM      3  C2  UNL d   1       0.457   1.446  -0.007  0.00  0.00    -0.005 A 
ATOM      4  C3  UNL d   1      -0.052   2.616  -0.570  0.00  0.00     0.006 A 
ATOM      5  C4  UNL d   1      -1.212   2.577  -1.344  0.00  0.00    -0.005 A 
ATOM      6  C5  UNL d   1      -1.874   1.365  -1.563  0.00  0.00    -0.074 A 
ATOM      7  C6  UNL d   1      -3.117   1.303  -2.400  0.00  0.00     0.077 C 
ATOM      8  C7  UNL d   1      -1.353   0.192  -1.000  0.00  0.00    -0.001 A 
ENDROOT
TORSDOF 0
ENDMDL
