MODEL 1
REMARK minimizedAffinity -2.93877983
REMARK minimizedRMSD -1
REMARK  0 active torsions:
REMARK  status: ('A' for Active; 'I' for Inactive)
ROOT
ATOM      1  C   UNL d   1       2.272  -1.271   0.543  0.00  0.00     0.077 C 
ATOM      2  C1  UNL d   1       1.088  -0.571  -0.054  0.00  0.00    -0.074 A 
ATOM      3  C2  UNL d   1       0.442  -1.087  -1.182  0.00  0.00    -0.005 A 
ATOM      4  C3  UNL d   1      -0.664  -0.430  -1.721  0.00  0.00     0.006 A 
ATOM      5  C4  UNL d   1      -1.135   0.748  -1.138  0.00  0.00    -0.005 A 
ATOM      6  C5  UNL d   1      -0.502   1.278  -0.009  0.00  0.00    -0.074 A 
ATOM      7  C6  UNL d   1      -1.001   2.537   0.636  0.00  0.00     0.077 C 
ATOM      8  C7  UNL d   1       0.605   0.608   0.531  0.00  0.00    -0.001 A 
ENDROOT
TORSDOF 0
ENDMDL
