MODEL 1
REMARK minimizedAffinity -2.65965343
REMARK minimizedRMSD -1
REMARK  0 active torsions:
REMARK  status: ('A' for Active; 'I' for Inactive)
ROOT
ATOM      1  C   UNL d   1      -1.578  -0.482   1.878  0.00  0.00     0.077 C 
ATOM      2  C1  UNL d   1      -0.966  -0.029   0.586  0.00  0.00    -0.074 A 
ATOM      3  C2  UNL d   1       0.233  -0.584   0.125  0.00  0.00    -0.005 A 
ATOM      4  C3  UNL d   1       0.785  -0.159  -1.083  0.00  0.00     0.006 A 
ATOM      5  C4  UNL d   1       0.146   0.823  -1.841  0.00  0.00    -0.005 A 
ATOM      6  C5  UNL d   1      -1.053   1.389  -1.397  0.00  0.00    -0.074 A 
ATOM      7  C6  UNL d   1      -1.757   2.438  -2.204  0.00  0.00     0.077 C 
ATOM      8  C7  UNL d   1      -1.605   0.952  -0.185  0.00  0.00    -0.001 A 
ENDROOT
TORSDOF 0
ENDMDL
