MODEL 1
REMARK minimizedAffinity -1.98958468
REMARK minimizedRMSD -1
REMARK  0 active torsions:
REMARK  status: ('A' for Active; 'I' for Inactive)
ROOT
ATOM      1  C   UNL d   1       0.930  -1.172   0.327  0.00  0.00     0.077 C 
ATOM      2  C1  UNL d   1      -0.030  -0.140  -0.187  0.00  0.00    -0.074 A 
ATOM      3  C2  UNL d   1      -0.458   0.913   0.628  0.00  0.00    -0.005 A 
ATOM      4  C3  UNL d   1      -1.343   1.870   0.134  0.00  0.00     0.006 A 
ATOM      5  C4  UNL d   1      -1.810   1.784  -1.179  0.00  0.00    -0.005 A 
ATOM      6  C5  UNL d   1      -1.393   0.739  -2.009  0.00  0.00    -0.074 A 
ATOM      7  C6  UNL d   1      -1.877   0.638  -3.425  0.00  0.00     0.077 C 
ATOM      8  C7  UNL d   1      -0.497  -0.215  -1.507  0.00  0.00    -0.001 A 
ENDROOT
TORSDOF 0
ENDMDL
