MODEL 1
REMARK minimizedAffinity -3.41702771
REMARK minimizedRMSD -1
REMARK  0 active torsions:
REMARK  status: ('A' for Active; 'I' for Inactive)
ROOT
ATOM      1  O1  BZF d   1      -0.215  -1.158   2.965  0.00  0.00    -0.204 OA
ATOM      2  C2  BZF d   1       1.125  -1.065   3.288  0.00  0.00     0.174 A 
ATOM      3  C3  BZF d   1       1.812  -0.445   2.307  0.00  0.00    -0.012 A 
ATOM      4  C3A BZF d   1       0.825  -0.048   1.350  0.00  0.00    -0.107 A 
ATOM      5  C4  BZF d   1       0.886   0.624   0.162  0.00  0.00     0.055 A 
ATOM      6  C5  BZF d   1      -0.251   0.785  -0.565  0.00  0.00    -0.016 A 
ATOM      7  C6  BZF d   1      -1.463   0.285  -0.137  0.00  0.00     0.022 A 
ATOM      8  C7  BZF d   1      -1.574  -0.384   1.037  0.00  0.00     0.029 A 
ATOM      9  C7A BZF d   1      -0.433  -0.520   1.789  0.00  0.00     0.058 A 
ENDROOT
TORSDOF 0
ENDMDL
