MODEL 1
REMARK minimizedAffinity -2.65784025
REMARK minimizedRMSD -1
REMARK  0 active torsions:
REMARK  status: ('A' for Active; 'I' for Inactive)
ROOT
ATOM      1  O1  BZF d   1      -1.125   0.452  -1.028  0.00  0.00    -0.204 OA
ATOM      2  C2  BZF d   1      -0.793   0.234  -2.351  0.00  0.00     0.174 A 
ATOM      3  C3  BZF d   1       0.488  -0.174  -2.462  0.00  0.00    -0.012 A 
ATOM      4  C3A BZF d   1       0.960  -0.301  -1.118  0.00  0.00    -0.107 A 
ATOM      5  C4  BZF d   1       2.153  -0.685  -0.574  0.00  0.00     0.055 A 
ATOM      6  C5  BZF d   1       2.312  -0.630   0.774  0.00  0.00    -0.016 A 
ATOM      7  C6  BZF d   1       1.304  -0.191   1.607  0.00  0.00     0.022 A 
ATOM      8  C7  BZF d   1       0.102   0.196   1.115  0.00  0.00     0.029 A 
ATOM      9  C7A BZF d   1      -0.074   0.109  -0.245  0.00  0.00     0.058 A 
ENDROOT
TORSDOF 0
ENDMDL
