MODEL 1
REMARK minimizedAffinity -0.154277667
REMARK minimizedRMSD -1
REMARK  0 active torsions:
REMARK  status: ('A' for Active; 'I' for Inactive)
ROOT
ATOM      1  O1  BZF d   1      -1.077  -1.077   2.313  0.00  0.00    -0.204 OA
ATOM      2  C2  BZF d   1       0.188  -1.377   2.781  0.00  0.00     0.174 A 
ATOM      3  C3  BZF d   1       1.115  -1.165   1.824  0.00  0.00    -0.012 A 
ATOM      4  C3A BZF d   1       0.393  -0.617   0.717  0.00  0.00    -0.107 A 
ATOM      5  C4  BZF d   1       0.765  -0.187  -0.525  0.00  0.00     0.055 A 
ATOM      6  C5  BZF d   1      -0.195   0.224  -1.396  0.00  0.00    -0.016 A 
ATOM      7  C6  BZF d   1      -1.533   0.213  -1.060  0.00  0.00     0.022 A 
ATOM      8  C7  BZF d   1      -1.949  -0.201   0.161  0.00  0.00     0.029 A 
ATOM      9  C7A BZF d   1      -0.979  -0.586   1.055  0.00  0.00     0.058 A 
ENDROOT
TORSDOF 0
ENDMDL
