MODEL 1
REMARK minimizedAffinity -3.1439836
REMARK minimizedRMSD -1
REMARK  0 active torsions:
REMARK  status: ('A' for Active; 'I' for Inactive)
ROOT
ATOM      1  O1  BZF d   1       0.614  -1.312   2.712  0.00  0.00    -0.204 OA
ATOM      2  C2  BZF d   1       1.944  -1.138   2.379  0.00  0.00     0.174 A 
ATOM      3  C3  BZF d   1       2.062  -0.546   1.174  0.00  0.00    -0.012 A 
ATOM      4  C3A BZF d   1       0.722  -0.252   0.766  0.00  0.00    -0.107 A 
ATOM      5  C4  BZF d   1       0.187   0.350  -0.337  0.00  0.00     0.055 A 
ATOM      6  C5  BZF d   1      -1.164   0.415  -0.464  0.00  0.00    -0.016 A 
ATOM      7  C6  BZF d   1      -2.009  -0.115   0.489  0.00  0.00     0.022 A 
ATOM      8  C7  BZF d   1      -1.525  -0.717   1.603  0.00  0.00     0.029 A 
ATOM      9  C7A BZF d   1      -0.160  -0.755   1.749  0.00  0.00     0.058 A 
ENDROOT
TORSDOF 0
ENDMDL
