MODEL 1
REMARK minimizedAffinity -3.2757206
REMARK minimizedRMSD -1
REMARK  0 active torsions:
REMARK  status: ('A' for Active; 'I' for Inactive)
ROOT
ATOM      1  O1  BZF d   1       0.739   0.171  -1.500  0.00  0.00    -0.204 OA
ATOM      2  C2  BZF d   1      -0.275   1.051  -1.826  0.00  0.00     0.174 A 
ATOM      3  C3  BZF d   1      -1.125   1.207  -0.791  0.00  0.00    -0.012 A 
ATOM      4  C3A BZF d   1      -0.559   0.444   0.279  0.00  0.00    -0.107 A 
ATOM      5  C4  BZF d   1      -0.934   0.219   1.573  0.00  0.00     0.055 A 
ATOM      6  C5  BZF d   1      -0.201  -0.635   2.334  0.00  0.00    -0.016 A 
ATOM      7  C6  BZF d   1       0.909  -1.283   1.833  0.00  0.00     0.022 A 
ATOM      8  C7  BZF d   1       1.324  -1.088   0.558  0.00  0.00     0.029 A 
ATOM      9  C7A BZF d   1       0.603  -0.200  -0.204  0.00  0.00     0.058 A 
ENDROOT
TORSDOF 0
ENDMDL
