MODEL 1
REMARK minimizedAffinity -2.13974166
REMARK minimizedRMSD -1
REMARK  0 active torsions:
REMARK  status: ('A' for Active; 'I' for Inactive)
ROOT
ATOM      1  O1  BZF d   1      -0.422   1.935  -2.848  0.00  0.00    -0.204 OA
ATOM      2  C2  BZF d   1       0.326   2.952  -2.289  0.00  0.00     0.174 A 
ATOM      3  C3  BZF d   1       0.470   2.766  -0.961  0.00  0.00    -0.012 A 
ATOM      4  C3A BZF d   1      -0.155   1.508  -0.687  0.00  0.00    -0.107 A 
ATOM      5  C4  BZF d   1      -0.324   0.772   0.450  0.00  0.00     0.055 A 
ATOM      6  C5  BZF d   1      -1.043  -0.379   0.391  0.00  0.00    -0.016 A 
ATOM      7  C6  BZF d   1      -1.611  -0.821  -0.786  0.00  0.00     0.022 A 
ATOM      8  C7  BZF d   1      -1.466  -0.127  -1.942  0.00  0.00     0.029 A 
ATOM      9  C7A BZF d   1      -0.712   1.020  -1.892  0.00  0.00     0.058 A 
ENDROOT
TORSDOF 0
ENDMDL
