MODEL 1
REMARK minimizedAffinity -2.10694695
REMARK minimizedRMSD -1
REMARK  0 active torsions:
REMARK  status: ('A' for Active; 'I' for Inactive)
ROOT
ATOM      1  O1  BZF d   1      -0.755  -0.242   1.666  0.00  0.00    -0.204 OA
ATOM      2  C2  BZF d   1      -0.098  -0.787   2.752  0.00  0.00     0.174 A 
ATOM      3  C3  BZF d   1       1.025  -1.424   2.362  0.00  0.00    -0.012 A 
ATOM      4  C3A BZF d   1       1.120  -1.190   0.954  0.00  0.00    -0.107 A 
ATOM      5  C4  BZF d   1       2.028  -1.554   0.001  0.00  0.00     0.055 A 
ATOM      6  C5  BZF d   1       1.792  -1.226  -1.296  0.00  0.00    -0.016 A 
ATOM      7  C6  BZF d   1       0.657  -0.539  -1.677  0.00  0.00     0.022 A 
ATOM      8  C7  BZF d   1      -0.269  -0.152  -0.767  0.00  0.00     0.029 A 
ATOM      9  C7A BZF d   1      -0.017  -0.454   0.549  0.00  0.00     0.058 A 
ENDROOT
TORSDOF 0
ENDMDL
