MODEL 1
REMARK minimizedAffinity -4.54649305
REMARK minimizedRMSD -1
REMARK  0 active torsions:
REMARK  status: ('A' for Active; 'I' for Inactive)
ROOT
ATOM      1  O1  BZF d   1      -4.164   4.134  -3.182  0.00  0.00    -0.204 OA
ATOM      2  C2  BZF d   1      -2.795   4.121  -2.997  0.00  0.00     0.174 A 
ATOM      3  C3  BZF d   1      -2.330   2.855  -2.955  0.00  0.00    -0.012 A 
ATOM      4  C3A BZF d   1      -3.468   2.028  -3.217  0.00  0.00    -0.107 A 
ATOM      5  C4  BZF d   1      -3.643   0.677  -3.321  0.00  0.00     0.055 A 
ATOM      6  C5  BZF d   1      -4.895   0.186  -3.511  0.00  0.00    -0.016 A 
ATOM      7  C6  BZF d   1      -5.995   1.015  -3.595  0.00  0.00     0.022 A 
ATOM      8  C7  BZF d   1      -5.871   2.361  -3.502  0.00  0.00     0.029 A 
ATOM      9  C7A BZF d   1      -4.602   2.863  -3.344  0.00  0.00     0.058 A 
ENDROOT
TORSDOF 0
ENDMDL
