MODEL 1
REMARK minimizedAffinity 0.391308367
REMARK minimizedRMSD -1
REMARK  0 active torsions:
REMARK  status: ('A' for Active; 'I' for Inactive)
ROOT
ATOM      1  O1  BZF d   1      -1.153   0.950  -1.203  0.00  0.00    -0.204 OA
ATOM      2  C2  BZF d   1       0.093   1.417  -1.575  0.00  0.00     0.174 A 
ATOM      3  C3  BZF d   1       1.056   0.884  -0.796  0.00  0.00    -0.012 A 
ATOM      4  C3A BZF d   1       0.378  -0.041   0.061  0.00  0.00    -0.107 A 
ATOM      5  C4  BZF d   1       0.797  -0.890   1.045  0.00  0.00     0.055 A 
ATOM      6  C5  BZF d   1      -0.127  -1.603   1.739  0.00  0.00    -0.016 A 
ATOM      7  C6  BZF d   1      -1.477  -1.489   1.480  0.00  0.00     0.022 A 
ATOM      8  C7  BZF d   1      -1.941  -0.664   0.510  0.00  0.00     0.029 A 
ATOM      9  C7A BZF d   1      -1.007   0.034  -0.216  0.00  0.00     0.058 A 
ENDROOT
TORSDOF 0
ENDMDL
