MODEL 1
REMARK minimizedAffinity -0.914184153
REMARK minimizedRMSD -1
REMARK  0 active torsions:
REMARK  status: ('A' for Active; 'I' for Inactive)
ROOT
ATOM      1  O1  BZF d   1      -0.515   1.628  -3.146  0.00  0.00    -0.204 OA
ATOM      2  C2  BZF d   1      -0.725   2.952  -2.815  0.00  0.00     0.174 A 
ATOM      3  C3  BZF d   1      -0.578   3.143  -1.488  0.00  0.00    -0.012 A 
ATOM      4  C3A BZF d   1      -0.166   1.876  -0.969  0.00  0.00    -0.107 A 
ATOM      5  C4  BZF d   1       0.153   1.433   0.283  0.00  0.00     0.055 A 
ATOM      6  C5  BZF d   1       0.445   0.118   0.464  0.00  0.00    -0.016 A 
ATOM      7  C6  BZF d   1       0.422  -0.782  -0.582  0.00  0.00     0.022 A 
ATOM      8  C7  BZF d   1       0.117  -0.388  -1.843  0.00  0.00     0.029 A 
ATOM      9  C7A BZF d   1      -0.146   0.946  -2.034  0.00  0.00     0.058 A 
ENDROOT
TORSDOF 0
ENDMDL
