MODEL 1
REMARK minimizedAffinity 6.37934828
REMARK minimizedRMSD -1
REMARK  0 active torsions:
REMARK  status: ('A' for Active; 'I' for Inactive)
ROOT
ATOM      1  O1  BZF d   1       3.136  -1.494   2.254  0.00  0.00    -0.204 OA
ATOM      2  C2  BZF d   1       2.244  -2.308   2.925  0.00  0.00     0.174 A 
ATOM      3  C3  BZF d   1       1.043  -2.308   2.312  0.00  0.00    -0.012 A 
ATOM      4  C3A BZF d   1       1.220  -1.513   1.136  0.00  0.00    -0.107 A 
ATOM      5  C4  BZF d   1       0.392  -1.153   0.112  0.00  0.00     0.055 A 
ATOM      6  C5  BZF d   1       0.854  -0.307  -0.845  0.00  0.00    -0.016 A 
ATOM      7  C6  BZF d   1       2.135   0.203  -0.807  0.00  0.00     0.022 A 
ATOM      8  C7  BZF d   1       2.995  -0.129   0.186  0.00  0.00     0.029 A 
ATOM      9  C7A BZF d   1       2.542  -1.010   1.137  0.00  0.00     0.058 A 
ENDROOT
TORSDOF 0
ENDMDL
