MODEL 1
REMARK minimizedAffinity -4.25049067
REMARK minimizedRMSD -1
REMARK  0 active torsions:
REMARK  status: ('A' for Active; 'I' for Inactive)
ROOT
ATOM      1  O1  BZF d   1       0.390   0.868   1.147  0.00  0.00    -0.204 OA
ATOM      2  C2  BZF d   1       1.536   0.493   0.473  0.00  0.00     0.174 A 
ATOM      3  C3  BZF d   1       1.240  -0.337  -0.549  0.00  0.00    -0.012 A 
ATOM      4  C3A BZF d   1      -0.188  -0.416  -0.567  0.00  0.00    -0.107 A 
ATOM      5  C4  BZF d   1      -1.082  -1.073  -1.364  0.00  0.00     0.055 A 
ATOM      6  C5  BZF d   1      -2.407  -1.000  -1.070  0.00  0.00    -0.016 A 
ATOM      7  C6  BZF d   1      -2.872  -0.284   0.013  0.00  0.00     0.022 A 
ATOM      8  C7  BZF d   1      -2.024   0.389   0.829  0.00  0.00     0.029 A 
ATOM      9  C7A BZF d   1      -0.688   0.344   0.516  0.00  0.00     0.058 A 
ENDROOT
TORSDOF 0
ENDMDL
