MODEL 1
REMARK minimizedAffinity -4.01694202
REMARK minimizedRMSD -1
REMARK  0 active torsions:
REMARK  status: ('A' for Active; 'I' for Inactive)
ROOT
ATOM      1  O1  BZF d   1       1.358   1.348  -0.702  0.00  0.00    -0.204 OA
ATOM      2  C2  BZF d   1       1.844   1.404   0.590  0.00  0.00     0.174 A 
ATOM      3  C3  BZF d   1       0.945   0.904   1.462  0.00  0.00    -0.012 A 
ATOM      4  C3A BZF d   1      -0.135   0.425   0.655  0.00  0.00    -0.107 A 
ATOM      5  C4  BZF d   1      -1.319  -0.193   0.942  0.00  0.00     0.055 A 
ATOM      6  C5  BZF d   1      -2.185  -0.463  -0.070  0.00  0.00    -0.016 A 
ATOM      7  C6  BZF d   1      -1.902  -0.125  -1.377  0.00  0.00     0.022 A 
ATOM      8  C7  BZF d   1      -0.739   0.485  -1.711  0.00  0.00     0.029 A 
ATOM      9  C7A BZF d   1       0.153   0.730  -0.695  0.00  0.00     0.058 A 
ENDROOT
TORSDOF 0
ENDMDL
