MODEL 1
REMARK minimizedAffinity -1.1814034
REMARK minimizedRMSD -1
REMARK  0 active torsions:
REMARK  status: ('A' for Active; 'I' for Inactive)
ROOT
ATOM      1  O1  BZF d   1      -2.188  -0.666  -1.732  0.00  0.00    -0.204 OA
ATOM      2  C2  BZF d   1      -2.921  -1.224  -0.703  0.00  0.00     0.174 A 
ATOM      3  C3  BZF d   1      -2.206  -1.236   0.441  0.00  0.00    -0.012 A 
ATOM      4  C3A BZF d   1      -0.982  -0.566   0.127  0.00  0.00    -0.107 A 
ATOM      5  C4  BZF d   1       0.129  -0.249   0.856  0.00  0.00     0.055 A 
ATOM      6  C5  BZF d   1       1.181   0.343   0.232  0.00  0.00    -0.016 A 
ATOM      7  C6  BZF d   1       1.158   0.629  -1.117  0.00  0.00     0.022 A 
ATOM      8  C7  BZF d   1       0.077   0.338  -1.881  0.00  0.00     0.029 A 
ATOM      9  C7A BZF d   1      -1.001  -0.231  -1.247  0.00  0.00     0.058 A 
ENDROOT
TORSDOF 0
ENDMDL
