MODEL 1
REMARK minimizedAffinity -1.11993575
REMARK minimizedRMSD -1
REMARK  0 active torsions:
REMARK  status: ('A' for Active; 'I' for Inactive)
ROOT
ATOM      1  O1  BZF d   1      -1.365   0.505  -1.665  0.00  0.00    -0.204 OA
ATOM      2  C2  BZF d   1      -2.559  -0.140  -1.406  0.00  0.00     0.174 A 
ATOM      3  C3  BZF d   1      -2.434  -0.970  -0.350  0.00  0.00    -0.012 A 
ATOM      4  C3A BZF d   1      -1.104  -0.766   0.135  0.00  0.00    -0.107 A 
ATOM      5  C4  BZF d   1      -0.392  -1.292   1.175  0.00  0.00     0.055 A 
ATOM      6  C5  BZF d   1       0.909  -0.935   1.332  0.00  0.00    -0.016 A 
ATOM      7  C6  BZF d   1       1.532  -0.060   0.466  0.00  0.00     0.022 A 
ATOM      8  C7  BZF d   1       0.866   0.492  -0.577  0.00  0.00     0.029 A 
ATOM      9  C7A BZF d   1      -0.459   0.159  -0.719  0.00  0.00     0.058 A 
ENDROOT
TORSDOF 0
ENDMDL
