MODEL 1
REMARK minimizedAffinity 1.78202844
REMARK minimizedRMSD -1
REMARK  0 active torsions:
REMARK  status: ('A' for Active; 'I' for Inactive)
ROOT
ATOM      1  O1  BZF d   1      -0.635  -0.743  -0.586  0.00  0.00    -0.204 OA
ATOM      2  C2  BZF d   1      -1.256  -0.630   0.643  0.00  0.00     0.174 A 
ATOM      3  C3  BZF d   1      -0.590   0.232   1.438  0.00  0.00    -0.012 A 
ATOM      4  C3A BZF d   1       0.465   0.755   0.626  0.00  0.00    -0.107 A 
ATOM      5  C4  BZF d   1       1.458   1.666   0.848  0.00  0.00     0.055 A 
ATOM      6  C5  BZF d   1       2.371   1.900  -0.130  0.00  0.00    -0.016 A 
ATOM      7  C6  BZF d   1       2.326   1.237  -1.340  0.00  0.00     0.022 A 
ATOM      8  C7  BZF d   1       1.357   0.328  -1.608  0.00  0.00     0.029 A 
ATOM      9  C7A BZF d   1       0.413   0.114  -0.634  0.00  0.00     0.058 A 
ENDROOT
TORSDOF 0
ENDMDL
