MODEL 1
REMARK minimizedAffinity -3.21136737
REMARK minimizedRMSD -1
REMARK  0 active torsions:
REMARK  status: ('A' for Active; 'I' for Inactive)
ROOT
ATOM      1  O1  BZF d   1       0.377   0.746   1.204  0.00  0.00    -0.204 OA
ATOM      2  C2  BZF d   1       1.518   0.787   0.426  0.00  0.00     0.174 A 
ATOM      3  C3  BZF d   1       1.278   0.284  -0.802  0.00  0.00    -0.012 A 
ATOM      4  C3A BZF d   1      -0.122  -0.010  -0.822  0.00  0.00    -0.107 A 
ATOM      5  C4  BZF d   1      -0.961  -0.517  -1.772  0.00  0.00     0.055 A 
ATOM      6  C5  BZF d   1      -2.260  -0.751  -1.449  0.00  0.00    -0.016 A 
ATOM      7  C6  BZF d   1      -2.752  -0.494  -0.186  0.00  0.00     0.022 A 
ATOM      8  C7  BZF d   1      -1.958   0.014   0.789  0.00  0.00     0.029 A 
ATOM      9  C7A BZF d   1      -0.653   0.282   0.456  0.00  0.00     0.058 A 
ENDROOT
TORSDOF 0
ENDMDL
