MODEL 1
REMARK minimizedAffinity -3.30209565
REMARK minimizedRMSD -1
REMARK  0 active torsions:
REMARK  status: ('A' for Active; 'I' for Inactive)
ROOT
ATOM      1  O1  BZF d   1      -2.356  -0.282  -1.498  0.00  0.00    -0.204 OA
ATOM      2  C2  BZF d   1      -3.203  -0.679  -0.481  0.00  0.00     0.174 A 
ATOM      3  C3  BZF d   1      -2.521  -0.853   0.669  0.00  0.00    -0.012 A 
ATOM      4  C3A BZF d   1      -1.178  -0.457   0.374  0.00  0.00    -0.107 A 
ATOM      5  C4  BZF d   1      -0.034  -0.390   1.117  0.00  0.00     0.055 A 
ATOM      6  C5  BZF d   1       1.127  -0.030   0.511  0.00  0.00    -0.016 A 
ATOM      7  C6  BZF d   1       1.182   0.264  -0.836  0.00  0.00     0.022 A 
ATOM      8  C7  BZF d   1       0.073   0.217  -1.613  0.00  0.00     0.029 A 
ATOM      9  C7A BZF d   1      -1.109  -0.114  -0.996  0.00  0.00     0.058 A 
ENDROOT
TORSDOF 0
ENDMDL
