MODEL 1
REMARK minimizedAffinity -4.58654356
REMARK minimizedRMSD -1
REMARK  0 active torsions:
REMARK  status: ('A' for Active; 'I' for Inactive)
ROOT
ATOM      1  O1  BZF d   1       1.012   0.196  -1.126  0.00  0.00    -0.204 OA
ATOM      2  C2  BZF d   1       1.961  -0.080  -0.161  0.00  0.00     0.174 A 
ATOM      3  C3  BZF d   1       1.375  -0.470   0.989  0.00  0.00    -0.012 A 
ATOM      4  C3A BZF d   1      -0.025  -0.524   0.698  0.00  0.00    -0.107 A 
ATOM      5  C4  BZF d   1      -1.125  -0.860   1.435  0.00  0.00     0.055 A 
ATOM      6  C5  BZF d   1      -2.357  -0.737   0.876  0.00  0.00    -0.016 A 
ATOM      7  C6  BZF d   1      -2.527  -0.276  -0.414  0.00  0.00     0.022 A 
ATOM      8  C7  BZF d   1      -1.466   0.065  -1.185  0.00  0.00     0.029 A 
ATOM      9  C7A BZF d   1      -0.217  -0.090  -0.634  0.00  0.00     0.058 A 
ENDROOT
TORSDOF 0
ENDMDL
