MODEL 1
REMARK minimizedAffinity -3.93636394
REMARK minimizedRMSD -1
REMARK  0 active torsions:
REMARK  status: ('A' for Active; 'I' for Inactive)
ROOT
ATOM      1  O1  BZF d   1      -3.477  -1.412  -0.768  0.00  0.00    -0.204 OA
ATOM      2  C2  BZF d   1      -3.684  -1.594   0.586  0.00  0.00     0.174 A 
ATOM      3  C3  BZF d   1      -2.636  -1.129   1.296  0.00  0.00    -0.012 A 
ATOM      4  C3A BZF d   1      -1.758  -0.542   0.331  0.00  0.00    -0.107 A 
ATOM      5  C4  BZF d   1      -0.556   0.099   0.422  0.00  0.00     0.055 A 
ATOM      6  C5  BZF d   1       0.075   0.487  -0.717  0.00  0.00    -0.016 A 
ATOM      7  C6  BZF d   1      -0.464   0.245  -1.964  0.00  0.00     0.022 A 
ATOM      8  C7  BZF d   1      -1.657  -0.384  -2.105  0.00  0.00     0.029 A 
ATOM      9  C7A BZF d   1      -2.312  -0.747  -0.954  0.00  0.00     0.058 A 
ENDROOT
TORSDOF 0
ENDMDL
