MODEL 1
REMARK minimizedAffinity -4.8233819
REMARK minimizedRMSD -1
REMARK  0 active torsions:
REMARK  status: ('A' for Active; 'I' for Inactive)
ROOT
ATOM      1  O1  BZF d   1      -1.655   0.615  -1.085  0.00  0.00    -0.204 OA
ATOM      2  C2  BZF d   1      -2.920   0.146  -0.787  0.00  0.00     0.174 A 
ATOM      3  C3  BZF d   1      -2.858  -0.868   0.100  0.00  0.00    -0.012 A 
ATOM      4  C3A BZF d   1      -1.474  -0.982   0.444  0.00  0.00    -0.107 A 
ATOM      5  C4  BZF d   1      -0.781  -1.798   1.292  0.00  0.00     0.055 A 
ATOM      6  C5  BZF d   1       0.573  -1.701   1.343  0.00  0.00    -0.016 A 
ATOM      7  C6  BZF d   1       1.267  -0.804   0.557  0.00  0.00     0.022 A 
ATOM      8  C7  BZF d   1       0.624   0.030  -0.295  0.00  0.00     0.029 A 
ATOM      9  C7A BZF d   1      -0.748  -0.043  -0.325  0.00  0.00     0.058 A 
ENDROOT
TORSDOF 0
ENDMDL
