MODEL 1
REMARK minimizedAffinity -3.50338054
REMARK minimizedRMSD -1
REMARK  0 active torsions:
REMARK  status: ('A' for Active; 'I' for Inactive)
ROOT
ATOM      1  O1  BZF d   1      -0.522  -1.812   1.440  0.00  0.00    -0.204 OA
ATOM      2  C2  BZF d   1       0.822  -1.642   1.709  0.00  0.00     0.174 A 
ATOM      3  C3  BZF d   1       1.426  -0.960   0.715  0.00  0.00    -0.012 A 
ATOM      4  C3A BZF d   1       0.377  -0.606  -0.191  0.00  0.00    -0.107 A 
ATOM      5  C4  BZF d   1       0.345   0.091  -1.365  0.00  0.00     0.055 A 
ATOM      6  C5  BZF d   1      -0.830   0.195  -2.040  0.00  0.00    -0.016 A 
ATOM      7  C6  BZF d   1      -1.990  -0.389  -1.573  0.00  0.00     0.022 A 
ATOM      8  C7  BZF d   1      -2.008  -1.086  -0.411  0.00  0.00     0.029 A 
ATOM      9  C7A BZF d   1      -0.830  -1.165   0.290  0.00  0.00     0.058 A 
ENDROOT
TORSDOF 0
ENDMDL
