MODEL 1
REMARK minimizedAffinity -1.84500408
REMARK minimizedRMSD -1
REMARK  0 active torsions:
REMARK  status: ('A' for Active; 'I' for Inactive)
ROOT
ATOM      1  O1  BZF d   1       1.507  -0.760   1.184  0.00  0.00    -0.204 OA
ATOM      2  C2  BZF d   1       1.581   0.314   0.318  0.00  0.00     0.174 A 
ATOM      3  C3  BZF d   1       0.363   0.615  -0.177  0.00  0.00    -0.012 A 
ATOM      4  C3A BZF d   1      -0.542  -0.272   0.488  0.00  0.00    -0.107 A 
ATOM      5  C4  BZF d   1      -1.896  -0.447   0.432  0.00  0.00     0.055 A 
ATOM      6  C5  BZF d   1      -2.462  -1.449   1.155  0.00  0.00    -0.016 A 
ATOM      7  C6  BZF d   1      -1.706  -2.296   1.938  0.00  0.00     0.022 A 
ATOM      8  C7  BZF d   1      -0.361  -2.158   2.029  0.00  0.00     0.029 A 
ATOM      9  C7A BZF d   1       0.211  -1.126   1.326  0.00  0.00     0.058 A 
ENDROOT
TORSDOF 0
ENDMDL
