MODEL 1
REMARK minimizedAffinity -5.37452745
REMARK minimizedRMSD -1
REMARK  0 active torsions:
REMARK  status: ('A' for Active; 'I' for Inactive)
ROOT
ATOM      1  O1  BZF d   1       0.458  -1.545   1.251  0.00  0.00    -0.204 OA
ATOM      2  C2  BZF d   1       1.425  -0.739   0.683  0.00  0.00     0.174 A 
ATOM      3  C3  BZF d   1       0.873   0.124  -0.194  0.00  0.00    -0.012 A 
ATOM      4  C3A BZF d   1      -0.538  -0.098  -0.104  0.00  0.00    -0.107 A 
ATOM      5  C4  BZF d   1      -1.618   0.466  -0.720  0.00  0.00     0.055 A 
ATOM      6  C5  BZF d   1      -2.857  -0.029  -0.463  0.00  0.00    -0.016 A 
ATOM      7  C6  BZF d   1      -3.052  -1.089   0.398  0.00  0.00     0.022 A 
ATOM      8  C7  BZF d   1      -2.012  -1.678   1.036  0.00  0.00     0.029 A 
ATOM      9  C7A BZF d   1      -0.761  -1.158   0.804  0.00  0.00     0.058 A 
ENDROOT
TORSDOF 0
ENDMDL
