MODEL 1
REMARK minimizedAffinity -0.726139545
REMARK minimizedRMSD -1
REMARK  0 active torsions:
REMARK  status: ('A' for Active; 'I' for Inactive)
ROOT
ATOM      1  O1  BZF d   1       1.536  -0.055  -0.239  0.00  0.00    -0.204 OA
ATOM      2  C2  BZF d   1       1.019   0.659  -1.302  0.00  0.00     0.174 A 
ATOM      3  C3  BZF d   1      -0.327   0.573  -1.326  0.00  0.00    -0.012 A 
ATOM      4  C3A BZF d   1      -0.678  -0.170  -0.155  0.00  0.00    -0.107 A 
ATOM      5  C4  BZF d   1      -1.868  -0.570   0.381  0.00  0.00     0.055 A 
ATOM      6  C5  BZF d   1      -1.863  -1.346   1.497  0.00  0.00    -0.016 A 
ATOM      7  C6  BZF d   1      -0.687  -1.744   2.098  0.00  0.00     0.022 A 
ATOM      8  C7  BZF d   1       0.519  -1.368   1.606  0.00  0.00     0.029 A 
ATOM      9  C7A BZF d   1       0.515  -0.556   0.498  0.00  0.00     0.058 A 
ENDROOT
TORSDOF 0
ENDMDL
