MODEL 1
REMARK minimizedAffinity -6.255023
REMARK minimizedRMSD -1
REMARK  0 active torsions:
REMARK  status: ('A' for Active; 'I' for Inactive)
ROOT
ATOM      1  O1  BZF d   1      -2.526  -1.645   0.603  0.00  0.00    -0.204 OA
ATOM      2  C2  BZF d   1      -3.278  -1.396  -0.528  0.00  0.00     0.174 A 
ATOM      3  C3  BZF d   1      -2.574  -0.668  -1.419  0.00  0.00    -0.012 A 
ATOM      4  C3A BZF d   1      -1.271  -0.527  -0.845  0.00  0.00    -0.107 A 
ATOM      5  C4  BZF d   1      -0.122   0.081  -1.263  0.00  0.00     0.055 A 
ATOM      6  C5  BZF d   1       0.954   0.100  -0.433  0.00  0.00    -0.016 A 
ATOM      7  C6  BZF d   1       0.915  -0.475   0.820  0.00  0.00     0.022 A 
ATOM      8  C7  BZF d   1      -0.201  -1.094   1.276  0.00  0.00     0.029 A 
ATOM      9  C7A BZF d   1      -1.280  -1.143   0.428  0.00  0.00     0.058 A 
ENDROOT
TORSDOF 0
ENDMDL
