MODEL 1
REMARK minimizedAffinity 3.10448933
REMARK minimizedRMSD -1
REMARK  0 active torsions:
REMARK  status: ('A' for Active; 'I' for Inactive)
ROOT
ATOM      1  O1  BZF d   1       1.643  -0.438  -0.314  0.00  0.00    -0.204 OA
ATOM      2  C2  BZF d   1       1.171   0.571  -1.131  0.00  0.00     0.174 A 
ATOM      3  C3  BZF d   1      -0.141   0.791  -0.911  0.00  0.00    -0.012 A 
ATOM      4  C3A BZF d   1      -0.491  -0.075   0.173  0.00  0.00    -0.107 A 
ATOM      5  C4  BZF d   1      -1.651  -0.301   0.857  0.00  0.00     0.055 A 
ATOM      6  C5  BZF d   1      -1.676  -1.266   1.814  0.00  0.00    -0.016 A 
ATOM      7  C6  BZF d   1      -0.563  -2.026   2.108  0.00  0.00     0.022 A 
ATOM      8  C7  BZF d   1       0.612  -1.835   1.460  0.00  0.00     0.029 A 
ATOM      9  C7A BZF d   1       0.650  -0.838   0.515  0.00  0.00     0.058 A 
ENDROOT
TORSDOF 0
ENDMDL
