MODEL 1
REMARK minimizedAffinity -0.846783578
REMARK minimizedRMSD -1
REMARK  0 active torsions:
REMARK  status: ('A' for Active; 'I' for Inactive)
ROOT
ATOM      1  O1  BZF d   1       0.545  -0.379  -1.456  0.00  0.00    -0.204 OA
ATOM      2  C2  BZF d   1       1.313   0.239  -0.488  0.00  0.00     0.174 A 
ATOM      3  C3  BZF d   1       0.596   0.436   0.637  0.00  0.00    -0.012 A 
ATOM      4  C3A BZF d   1      -0.673  -0.175   0.387  0.00  0.00    -0.107 A 
ATOM      5  C4  BZF d   1      -1.807  -0.323   1.133  0.00  0.00     0.055 A 
ATOM      6  C5  BZF d   1      -2.898  -0.906   0.569  0.00  0.00    -0.016 A 
ATOM      7  C6  BZF d   1      -2.891  -1.346  -0.738  0.00  0.00     0.022 A 
ATOM      8  C7  BZF d   1      -1.788  -1.226  -1.516  0.00  0.00     0.029 A 
ATOM      9  C7A BZF d   1      -0.674  -0.667  -0.939  0.00  0.00     0.058 A 
ENDROOT
TORSDOF 0
ENDMDL
