MODEL 1
REMARK minimizedAffinity 4.20799685
REMARK minimizedRMSD -1
REMARK  0 active torsions:
REMARK  status: ('A' for Active; 'I' for Inactive)
ROOT
ATOM      1  C   UNL d   1       1.814  -1.658  -4.308  0.00  0.00     0.020 A 
ATOM      2  C1  UNL d   1       1.110  -2.782  -3.880  0.00  0.00     0.020 A 
ATOM      3  C2  UNL d   1      -0.273  -2.850  -4.061  0.00  0.00     0.034 A 
ATOM      4  C3  UNL d   1      -0.956  -1.793  -4.672  0.00  0.00     0.017 A 
ATOM      5  C4  UNL d   1      -0.248  -0.664  -5.102  0.00  0.00     0.017 A 
ATOM      6  C5  UNL d   1       1.137  -0.601  -4.918  0.00  0.00     0.034 A 
ATOM      7 Cl   UNL d   1      -1.021   0.680  -5.864  0.00  0.00    -0.070 Cl
ATOM      8 Cl1  UNL d   1      -2.666  -1.945  -4.864  0.00  0.00    -0.070 Cl
ENDROOT
TORSDOF 0
ENDMDL
