MODEL 1
REMARK minimizedAffinity 0.293657959
REMARK minimizedRMSD -1
REMARK  0 active torsions:
REMARK  status: ('A' for Active; 'I' for Inactive)
ROOT
ATOM      1  C   UNL d   1       4.746   2.729  -3.603  0.00  0.00     0.020 A 
ATOM      2  C1  UNL d   1       3.358   2.728  -3.743  0.00  0.00     0.020 A 
ATOM      3  C2  UNL d   1       2.729   3.747  -4.460  0.00  0.00     0.034 A 
ATOM      4  C3  UNL d   1       3.486   4.771  -5.041  0.00  0.00     0.017 A 
ATOM      5  C4  UNL d   1       4.879   4.770  -4.900  0.00  0.00     0.017 A 
ATOM      6  C5  UNL d   1       5.504   3.747  -4.181  0.00  0.00     0.034 A 
ATOM      7 Cl   UNL d   1       5.881   5.999  -5.588  0.00  0.00    -0.070 Cl
ATOM      8 Cl1  UNL d   1       2.642   5.999  -5.915  0.00  0.00    -0.070 Cl
ENDROOT
TORSDOF 0
ENDMDL
