MODEL 1
REMARK minimizedAffinity 0.0223547462
REMARK minimizedRMSD -1
REMARK  0 active torsions:
REMARK  status: ('A' for Active; 'I' for Inactive)
ROOT
ATOM      1  C   UNL d   1       0.145   5.789  -3.696  0.00  0.00     0.020 A 
ATOM      2  C1  UNL d   1      -0.304   5.927  -5.009  0.00  0.00     0.020 A 
ATOM      3  C2  UNL d   1      -1.674   5.990  -5.275  0.00  0.00     0.034 A 
ATOM      4  C3  UNL d   1      -2.599   5.915  -4.228  0.00  0.00     0.017 A 
ATOM      5  C4  UNL d   1      -2.147   5.777  -2.910  0.00  0.00     0.017 A 
ATOM      6  C5  UNL d   1      -0.775   5.715  -2.649  0.00  0.00     0.034 A 
ATOM      7 Cl   UNL d   1      -3.228   5.679  -1.565  0.00  0.00    -0.070 Cl
ATOM      8 Cl1  UNL d   1      -4.277   6.000  -4.630  0.00  0.00    -0.070 Cl
ENDROOT
TORSDOF 0
ENDMDL
