MODEL 1
REMARK minimizedAffinity -0.602093995
REMARK minimizedRMSD -1
REMARK  0 active torsions:
REMARK  status: ('A' for Active; 'I' for Inactive)
ROOT
ATOM      1  C   UNL d   1       2.172   5.928  -5.967  0.00  0.00     0.020 A 
ATOM      2  C1  UNL d   1       2.844   5.951  -4.746  0.00  0.00     0.020 A 
ATOM      3  C2  UNL d   1       2.121   5.972  -3.551  0.00  0.00     0.034 A 
ATOM      4  C3  UNL d   1       0.721   5.971  -3.576  0.00  0.00     0.017 A 
ATOM      5  C4  UNL d   1       0.048   5.948  -4.802  0.00  0.00     0.017 A 
ATOM      6  C5  UNL d   1       0.777   5.927  -5.995  0.00  0.00     0.034 A 
ATOM      7 Cl   UNL d   1      -1.677   5.945  -4.913  0.00  0.00    -0.070 Cl
ATOM      8 Cl1  UNL d   1      -0.109   5.998  -2.060  0.00  0.00    -0.070 Cl
ENDROOT
TORSDOF 0
ENDMDL
