MODEL 1
REMARK minimizedAffinity 3.11045361
REMARK minimizedRMSD -1
REMARK  0 active torsions:
REMARK  status: ('A' for Active; 'I' for Inactive)
ROOT
ATOM      1  C   UNL d   1       2.796   5.999  -4.496  0.00  0.00     0.020 A 
ATOM      2  C1  UNL d   1       2.264   6.000  -5.785  0.00  0.00     0.020 A 
ATOM      3  C2  UNL d   1       0.879   6.000  -5.969  0.00  0.00     0.034 A 
ATOM      4  C3  UNL d   1       0.022   5.999  -4.862  0.00  0.00     0.017 A 
ATOM      5  C4  UNL d   1       0.558   5.999  -3.569  0.00  0.00     0.017 A 
ATOM      6  C5  UNL d   1       1.945   5.999  -3.391  0.00  0.00     0.034 A 
ATOM      7 Cl   UNL d   1      -0.436   5.998  -2.154  0.00  0.00    -0.070 Cl
ATOM      8 Cl1  UNL d   1      -1.679   5.999  -5.163  0.00  0.00    -0.070 Cl
ENDROOT
TORSDOF 0
ENDMDL
