MODEL 1
REMARK minimizedAffinity -0.725975394
REMARK minimizedRMSD -1
REMARK  0 active torsions:
REMARK  status: ('A' for Active; 'I' for Inactive)
ROOT
ATOM      1  C   UNL d   1       1.457  -3.172  -3.881  0.00  0.00     0.020 A 
ATOM      2  C1  UNL d   1       2.260  -2.211  -4.495  0.00  0.00     0.020 A 
ATOM      3  C2  UNL d   1       1.673  -1.122  -5.143  0.00  0.00     0.034 A 
ATOM      4  C3  UNL d   1       0.280  -0.992  -5.180  0.00  0.00     0.017 A 
ATOM      5  C4  UNL d   1      -0.525  -1.958  -4.564  0.00  0.00     0.017 A 
ATOM      6  C5  UNL d   1       0.068  -3.045  -3.916  0.00  0.00     0.034 A 
ATOM      7 Cl   UNL d   1      -2.251  -1.865  -4.567  0.00  0.00    -0.070 Cl
ATOM      8 Cl1  UNL d   1      -0.378   0.379  -6.000  0.00  0.00    -0.070 Cl
ENDROOT
TORSDOF 0
ENDMDL
