MODEL 1
REMARK minimizedAffinity 5.29608822
REMARK minimizedRMSD -1
REMARK  0 active torsions:
REMARK  status: ('A' for Active; 'I' for Inactive)
ROOT
ATOM      1  C   UNL d   1      -2.503   5.860  -1.659  0.00  0.00     0.020 A 
ATOM      2  C1  UNL d   1      -1.114   5.871  -1.775  0.00  0.00     0.020 A 
ATOM      3  C2  UNL d   1      -0.519   5.913  -3.038  0.00  0.00     0.034 A 
ATOM      4  C3  UNL d   1      -1.314   5.945  -4.190  0.00  0.00     0.017 A 
ATOM      5  C4  UNL d   1      -2.708   5.934  -4.072  0.00  0.00     0.017 A 
ATOM      6  C5  UNL d   1      -3.299   5.892  -2.805  0.00  0.00     0.034 A 
ATOM      7 Cl   UNL d   1      -3.755   5.972  -5.447  0.00  0.00    -0.070 Cl
ATOM      8 Cl1  UNL d   1      -0.511   5.997  -5.719  0.00  0.00    -0.070 Cl
ENDROOT
TORSDOF 0
ENDMDL
