MODEL 1
REMARK minimizedAffinity 0.729252219
REMARK minimizedRMSD -1
REMARK  0 active torsions:
REMARK  status: ('A' for Active; 'I' for Inactive)
ROOT
ATOM      1  C   UNL d   1       0.633   5.989  -2.997  0.00  0.00     0.020 A 
ATOM      2  C1  UNL d   1       0.286   5.989  -4.347  0.00  0.00     0.020 A 
ATOM      3  C2  UNL d   1      -1.059   5.992  -4.723  0.00  0.00     0.034 A 
ATOM      4  C3  UNL d   1      -2.062   5.994  -3.747  0.00  0.00     0.017 A 
ATOM      5  C4  UNL d   1      -1.713   5.995  -2.391  0.00  0.00     0.017 A 
ATOM      6  C5  UNL d   1      -0.365   5.992  -2.021  0.00  0.00     0.034 A 
ATOM      7 Cl   UNL d   1      -2.895   5.998  -1.130  0.00  0.00    -0.070 Cl
ATOM      8 Cl1  UNL d   1      -3.705   5.998  -4.283  0.00  0.00    -0.070 Cl
ENDROOT
TORSDOF 0
ENDMDL
