MODEL 1
REMARK minimizedAffinity 1.96386564
REMARK minimizedRMSD -1
REMARK  0 active torsions:
REMARK  status: ('A' for Active; 'I' for Inactive)
ROOT
ATOM      1  C   UNL d   1       0.901   5.947  -4.793  0.00  0.00     0.020 A 
ATOM      2  C1  UNL d   1      -0.221   5.961  -5.620  0.00  0.00     0.020 A 
ATOM      3  C2  UNL d   1      -1.501   5.971  -5.060  0.00  0.00     0.034 A 
ATOM      4  C3  UNL d   1      -1.661   5.966  -3.670  0.00  0.00     0.017 A 
ATOM      5  C4  UNL d   1      -0.534   5.952  -2.840  0.00  0.00     0.017 A 
ATOM      6  C5  UNL d   1       0.745   5.943  -3.406  0.00  0.00     0.034 A 
ATOM      7 Cl   UNL d   1      -0.651   5.945  -1.116  0.00  0.00    -0.070 Cl
ATOM      8 Cl1  UNL d   1      -3.272   5.978  -3.047  0.00  0.00    -0.070 Cl
ENDROOT
TORSDOF 0
ENDMDL
