MODEL 1
REMARK minimizedAffinity -0.224441081
REMARK minimizedRMSD -1
REMARK  0 active torsions:
REMARK  status: ('A' for Active; 'I' for Inactive)
ROOT
ATOM      1  C   UNL d   1      -3.273   6.000  -4.694  0.00  0.00     0.020 A 
ATOM      2  C1  UNL d   1      -3.731   6.000  -3.377  0.00  0.00     0.020 A 
ATOM      3  C2  UNL d   1      -2.817   6.000  -2.320  0.00  0.00     0.034 A 
ATOM      4  C3  UNL d   1      -1.442   5.999  -2.579  0.00  0.00     0.017 A 
ATOM      5  C4  UNL d   1      -0.984   5.999  -3.902  0.00  0.00     0.017 A 
ATOM      6  C5  UNL d   1      -1.903   6.000  -4.956  0.00  0.00     0.034 A 
ATOM      7 Cl   UNL d   1       0.698   5.999  -4.300  0.00  0.00    -0.070 Cl
ATOM      8 Cl1  UNL d   1      -0.369   5.999  -1.225  0.00  0.00    -0.070 Cl
ENDROOT
TORSDOF 0
ENDMDL
