MODEL 1
REMARK minimizedAffinity 4.76594782
REMARK minimizedRMSD -1
REMARK  0 active torsions:
REMARK  status: ('A' for Active; 'I' for Inactive)
ROOT
ATOM      1  C   UNL d   1       2.094   5.994  -5.908  0.00  0.00     0.020 A 
ATOM      2  C1  UNL d   1       2.742   5.998  -4.674  0.00  0.00     0.020 A 
ATOM      3  C2  UNL d   1       1.995   5.998  -3.493  0.00  0.00     0.034 A 
ATOM      4  C3  UNL d   1       0.596   5.994  -3.545  0.00  0.00     0.017 A 
ATOM      5  C4  UNL d   1      -0.053   5.990  -4.785  0.00  0.00     0.017 A 
ATOM      6  C5  UNL d   1       0.700   5.990  -5.964  0.00  0.00     0.034 A 
ATOM      7 Cl   UNL d   1      -1.775   5.985  -4.930  0.00  0.00    -0.070 Cl
ATOM      8 Cl1  UNL d   1      -0.263   5.994  -2.047  0.00  0.00    -0.070 Cl
ENDROOT
TORSDOF 0
ENDMDL
