MODEL 1
REMARK minimizedAffinity 4.19723797
REMARK minimizedRMSD -1
REMARK  0 active torsions:
REMARK  status: ('A' for Active; 'I' for Inactive)
ROOT
ATOM      1  C   UNL d   1       5.272   5.201  -4.930  0.00  0.00     0.020 A 
ATOM      2  C1  UNL d   1       4.649   6.000  -5.888  0.00  0.00     0.020 A 
ATOM      3  C2  UNL d   1       3.257   5.998  -6.000  0.00  0.00     0.034 A 
ATOM      4  C3  UNL d   1       2.484   5.196  -5.153  0.00  0.00     0.017 A 
ATOM      5  C4  UNL d   1       3.110   4.395  -4.191  0.00  0.00     0.017 A 
ATOM      6  C5  UNL d   1       4.505   4.400  -4.084  0.00  0.00     0.034 A 
ATOM      7 Cl   UNL d   1       2.224   3.378  -3.111  0.00  0.00    -0.070 Cl
ATOM      8 Cl1  UNL d   1       0.767   5.243  -5.347  0.00  0.00    -0.070 Cl
ENDROOT
TORSDOF 0
ENDMDL
