MODEL 1
REMARK minimizedAffinity 2.77202868
REMARK minimizedRMSD -1
REMARK  0 active torsions:
REMARK  status: ('A' for Active; 'I' for Inactive)
ROOT
ATOM      1  C   UNL d   1       2.889   5.999  -4.831  0.00  0.00     0.020 A 
ATOM      2  C1  UNL d   1       2.087   5.981  -5.971  0.00  0.00     0.020 A 
ATOM      3  C2  UNL d   1       0.696   5.960  -5.847  0.00  0.00     0.034 A 
ATOM      4  C3  UNL d   1       0.103   5.959  -4.579  0.00  0.00     0.017 A 
ATOM      5  C4  UNL d   1       0.909   5.978  -3.435  0.00  0.00     0.017 A 
ATOM      6  C5  UNL d   1       2.301   5.998  -3.565  0.00  0.00     0.034 A 
ATOM      7 Cl   UNL d   1       0.249   5.977  -1.837  0.00  0.00    -0.070 Cl
ATOM      8 Cl1  UNL d   1      -1.623   5.933  -4.500  0.00  0.00    -0.070 Cl
ENDROOT
TORSDOF 0
ENDMDL
