MODEL 1
REMARK minimizedAffinity 6.00764179
REMARK minimizedRMSD -1
REMARK  0 active torsions:
REMARK  status: ('A' for Active; 'I' for Inactive)
ROOT
ATOM      1  C   UNL d   1      -1.074   5.988  -0.666  0.00  0.00     0.020 A 
ATOM      2  C1  UNL d   1      -2.457   5.988  -0.484  0.00  0.00     0.020 A 
ATOM      3  C2  UNL d   1      -3.306   5.991  -1.592  0.00  0.00     0.034 A 
ATOM      4  C3  UNL d   1      -2.775   5.995  -2.887  0.00  0.00     0.017 A 
ATOM      5  C4  UNL d   1      -1.387   5.995  -3.068  0.00  0.00     0.017 A 
ATOM      6  C5  UNL d   1      -0.541   5.992  -1.955  0.00  0.00     0.034 A 
ATOM      7 Cl   UNL d   1      -0.657   6.000  -4.635  0.00  0.00    -0.070 Cl
ATOM      8 Cl1  UNL d   1      -3.885   5.998  -4.211  0.00  0.00    -0.070 Cl
ENDROOT
TORSDOF 0
ENDMDL
