MODEL 1
REMARK minimizedAffinity 0.709616601
REMARK minimizedRMSD -1
REMARK  0 active torsions:
REMARK  status: ('A' for Active; 'I' for Inactive)
ROOT
ATOM      1  C   UNL d   1       0.502   5.832  -5.988  0.00  0.00     0.020 A 
ATOM      2  C1  UNL d   1       1.334   5.808  -4.870  0.00  0.00     0.020 A 
ATOM      3  C2  UNL d   1       0.781   5.820  -3.587  0.00  0.00     0.034 A 
ATOM      4  C3  UNL d   1      -0.608   5.857  -3.421  0.00  0.00     0.017 A 
ATOM      5  C4  UNL d   1      -1.442   5.881  -4.544  0.00  0.00     0.017 A 
ATOM      6  C5  UNL d   1      -0.883   5.868  -5.826  0.00  0.00     0.034 A 
ATOM      7 Cl   UNL d   1      -3.166   5.926  -4.418  0.00  0.00    -0.070 Cl
ATOM      8 Cl1  UNL d   1      -1.223   5.870  -1.806  0.00  0.00    -0.070 Cl
ENDROOT
TORSDOF 0
ENDMDL
