MODEL 1
REMARK minimizedAffinity 3.14935255
REMARK minimizedRMSD -1
REMARK  0 active torsions:
REMARK  status: ('A' for Active; 'I' for Inactive)
ROOT
ATOM      1  C   UNL d   1       1.095   0.294   1.698  0.00  0.00     0.020 A 
ATOM      2  C1  UNL d   1       0.178   0.182   0.654  0.00  0.00     0.020 A 
ATOM      3  C2  UNL d   1       0.305   0.992  -0.476  0.00  0.00     0.034 A 
ATOM      4  C3  UNL d   1       1.350   1.918  -0.564  0.00  0.00     0.017 A 
ATOM      5  C4  UNL d   1       2.270   2.030   0.484  0.00  0.00     0.017 A 
ATOM      6  C5  UNL d   1       2.139   1.216   1.614  0.00  0.00     0.034 A 
ATOM      7 Cl   UNL d   1       3.586   3.150   0.448  0.00  0.00    -0.070 Cl
ATOM      8 Cl1  UNL d   1       1.446   2.888  -1.991  0.00  0.00    -0.070 Cl
ENDROOT
TORSDOF 0
ENDMDL
