MODEL 1
REMARK minimizedAffinity 0.797874629
REMARK minimizedRMSD -1
REMARK  0 active torsions:
REMARK  status: ('A' for Active; 'I' for Inactive)
ROOT
ATOM      1  C   UNL d   1       0.000   5.998  -5.890  0.00  0.00     0.020 A 
ATOM      2  C1  UNL d   1       0.786   5.993  -4.738  0.00  0.00     0.020 A 
ATOM      3  C2  UNL d   1       0.180   5.991  -3.480  0.00  0.00     0.034 A 
ATOM      4  C3  UNL d   1      -1.215   5.993  -3.371  0.00  0.00     0.017 A 
ATOM      5  C4  UNL d   1      -2.003   5.997  -4.527  0.00  0.00     0.017 A 
ATOM      6  C5  UNL d   1      -1.391   5.999  -5.785  0.00  0.00     0.034 A 
ATOM      7 Cl   UNL d   1      -3.730   6.000  -4.472  0.00  0.00    -0.070 Cl
ATOM      8 Cl1  UNL d   1      -1.896   5.990  -1.783  0.00  0.00    -0.070 Cl
ENDROOT
TORSDOF 0
ENDMDL
