MODEL 1
REMARK minimizedAffinity 5.72187996
REMARK minimizedRMSD -1
REMARK  0 active torsions:
REMARK  status: ('A' for Active; 'I' for Inactive)
ROOT
ATOM      1  C   UNL d   1       1.227   2.893   0.622  0.00  0.00     0.020 A 
ATOM      2  C1  UNL d   1       1.109   2.282   1.869  0.00  0.00     0.020 A 
ATOM      3  C2  UNL d   1       0.598   0.986   1.967  0.00  0.00     0.034 A 
ATOM      4  C3  UNL d   1       0.202   0.297   0.814  0.00  0.00     0.017 A 
ATOM      5  C4  UNL d   1       0.321   0.912  -0.438  0.00  0.00     0.017 A 
ATOM      6  C5  UNL d   1       0.834   2.209  -0.529  0.00  0.00     0.034 A 
ATOM      7 Cl   UNL d   1      -0.146   0.125  -1.904  0.00  0.00    -0.070 Cl
ATOM      8 Cl1  UNL d   1      -0.421  -1.302   1.008  0.00  0.00    -0.070 Cl
ENDROOT
TORSDOF 0
ENDMDL
