MODEL 1
REMARK minimizedAffinity 0.58615917
REMARK minimizedRMSD -1
REMARK  0 active torsions:
REMARK  status: ('A' for Active; 'I' for Inactive)
ROOT
ATOM      1  C   UNL d   1      -1.872   5.600  -4.817  0.00  0.00     0.020 A 
ATOM      2  C1  UNL d   1      -3.079   6.000  -4.245  0.00  0.00     0.020 A 
ATOM      3  C2  UNL d   1      -3.299   5.814  -2.879  0.00  0.00     0.034 A 
ATOM      4  C3  UNL d   1      -2.311   5.227  -2.080  0.00  0.00     0.017 A 
ATOM      5  C4  UNL d   1      -1.100   4.827  -2.655  0.00  0.00     0.017 A 
ATOM      6  C5  UNL d   1      -0.885   5.015  -4.024  0.00  0.00     0.034 A 
ATOM      7 Cl   UNL d   1       0.167   4.096  -1.734  0.00  0.00    -0.070 Cl
ATOM      8 Cl1  UNL d   1      -2.651   5.029  -0.397  0.00  0.00    -0.070 Cl
ENDROOT
TORSDOF 0
ENDMDL
