MODEL 1
REMARK minimizedAffinity -2.29078627
REMARK minimizedRMSD -1
REMARK  0 active torsions:
REMARK  status: ('A' for Active; 'I' for Inactive)
ROOT
ATOM      1  C   UNL d   1      -0.404   0.246  -1.459  0.00  0.00     0.172 C 
ATOM      2  N   UNL d   1      -0.144   0.041  -0.053  0.00  0.00    -0.070 N 
ATOM      3  C1  UNL d   1       1.090  -0.128   0.515  0.00  0.00    -0.004 A 
ATOM      4  C2  UNL d   1       0.912  -0.292   1.871  0.00  0.00    -0.047 A 
ATOM      5  C3  UNL d   1      -0.477  -0.219   2.128  0.00  0.00    -0.047 A 
ATOM      6  C4  UNL d   1      -1.108  -0.013   0.919  0.00  0.00    -0.004 A 
ENDROOT
TORSDOF 0
ENDMDL
