MODEL 1
REMARK minimizedAffinity -3.94095135
REMARK minimizedRMSD -1
REMARK  0 active torsions:
REMARK  status: ('A' for Active; 'I' for Inactive)
ROOT
ATOM      1  C   UNL d   1      -0.033  -0.066  -0.762  0.00  0.00     0.172 C 
ATOM      2  N   UNL d   1       0.227  -0.382   0.623  0.00  0.00    -0.070 N 
ATOM      3  C1  UNL d   1      -0.721  -0.521   1.601  0.00  0.00    -0.004 A 
ATOM      4  C2  UNL d   1      -0.071  -0.822   2.779  0.00  0.00    -0.047 A 
ATOM      5  C3  UNL d   1       1.316  -0.864   2.498  0.00  0.00    -0.047 A 
ATOM      6  C4  UNL d   1       1.472  -0.588   1.156  0.00  0.00    -0.004 A 
ENDROOT
TORSDOF 0
ENDMDL
