MODEL 1
REMARK minimizedAffinity -3.32107806
REMARK minimizedRMSD -1
REMARK  0 active torsions:
REMARK  status: ('A' for Active; 'I' for Inactive)
ROOT
ATOM      1  C   UNL d   1      -0.622   0.205  -1.499  0.00  0.00     0.172 C 
ATOM      2  N   UNL d   1      -0.017  -0.031  -0.209  0.00  0.00    -0.070 N 
ATOM      3  C1  UNL d   1      -0.678  -0.050   0.990  0.00  0.00    -0.004 A 
ATOM      4  C2  UNL d   1       0.249  -0.307   1.978  0.00  0.00    -0.047 A 
ATOM      5  C3  UNL d   1       1.509  -0.446   1.350  0.00  0.00    -0.047 A 
ATOM      6  C4  UNL d   1       1.316  -0.270  -0.004  0.00  0.00    -0.004 A 
ENDROOT
TORSDOF 0
ENDMDL
