MODEL 1
REMARK minimizedAffinity -3.41200233
REMARK minimizedRMSD -1
REMARK  0 active torsions:
REMARK  status: ('A' for Active; 'I' for Inactive)
ROOT
ATOM      1  C   UNL d   1      -0.094   0.336  -1.002  0.00  0.00     0.172 C 
ATOM      2  N   UNL d   1       0.460  -0.032   0.280  0.00  0.00    -0.070 N 
ATOM      3  C1  UNL d   1       1.734  -0.485   0.499  0.00  0.00    -0.004 A 
ATOM      4  C2  UNL d   1       1.871  -0.723   1.850  0.00  0.00    -0.047 A 
ATOM      5  C3  UNL d   1       0.636  -0.403   2.463  0.00  0.00    -0.047 A 
ATOM      6  C4  UNL d   1      -0.219   0.022   1.469  0.00  0.00    -0.004 A 
ENDROOT
TORSDOF 0
ENDMDL
