MODEL 1
REMARK minimizedAffinity -4.0030117
REMARK minimizedRMSD -1
REMARK  0 active torsions:
REMARK  status: ('A' for Active; 'I' for Inactive)
ROOT
ATOM      1  C   UNL d   1       1.834  -0.405   2.544  0.00  0.00     0.172 C 
ATOM      2  N   UNL d   1       0.624  -0.475   1.760  0.00  0.00    -0.070 N 
ATOM      3  C1  UNL d   1      -0.600  -0.887   2.215  0.00  0.00    -0.004 A 
ATOM      4  C2  UNL d   1      -1.489  -0.808   1.165  0.00  0.00    -0.047 A 
ATOM      5  C3  UNL d   1      -0.775  -0.333   0.040  0.00  0.00    -0.047 A 
ATOM      6  C4  UNL d   1       0.531  -0.135   0.436  0.00  0.00    -0.004 A 
ENDROOT
TORSDOF 0
ENDMDL
