MODEL 1
REMARK minimizedAffinity -2.30911112
REMARK minimizedRMSD -1
REMARK  0 active torsions:
REMARK  status: ('A' for Active; 'I' for Inactive)
ROOT
ATOM      1  C   UNL d   1       1.505  -0.895   2.496  0.00  0.00     0.172 C 
ATOM      2  N   UNL d   1       0.947  -0.596   1.198  0.00  0.00    -0.070 N 
ATOM      3  C1  UNL d   1      -0.319  -0.130   0.961  0.00  0.00    -0.004 A 
ATOM      4  C2  UNL d   1      -0.463   0.027  -0.400  0.00  0.00    -0.047 A 
ATOM      5  C3  UNL d   1       0.758  -0.358  -1.003  0.00  0.00    -0.047 A 
ATOM      6  C4  UNL d   1       1.613  -0.740   0.009  0.00  0.00    -0.004 A 
ENDROOT
TORSDOF 0
ENDMDL
