MODEL 1
REMARK minimizedAffinity -3.46986842
REMARK minimizedRMSD -1
REMARK  0 active torsions:
REMARK  status: ('A' for Active; 'I' for Inactive)
ROOT
ATOM      1  C   UNL d   1       0.008   1.031  -0.109  0.00  0.00     0.172 C 
ATOM      2  N   UNL d   1       0.520   0.284   1.016  0.00  0.00    -0.070 N 
ATOM      3  C1  UNL d   1       1.843   0.088   1.309  0.00  0.00    -0.004 A 
ATOM      4  C2  UNL d   1       1.913  -0.673   2.455  0.00  0.00    -0.047 A 
ATOM      5  C3  UNL d   1       0.586  -0.946   2.864  0.00  0.00    -0.047 A 
ATOM      6  C4  UNL d   1      -0.256  -0.342   1.956  0.00  0.00    -0.004 A 
ENDROOT
TORSDOF 0
ENDMDL
