MODEL 1
REMARK minimizedAffinity -2.07128263
REMARK minimizedRMSD -1
REMARK  0 active torsions:
REMARK  status: ('A' for Active; 'I' for Inactive)
ROOT
ATOM      1  C   UNL d   1       0.595   0.266  -1.599  0.00  0.00     0.172 C 
ATOM      2  N   UNL d   1       0.013   1.414  -2.255  0.00  0.00    -0.070 N 
ATOM      3  C1  UNL d   1       0.705   2.388  -2.924  0.00  0.00    -0.004 A 
ATOM      4  C2  UNL d   1      -0.208   3.302  -3.403  0.00  0.00    -0.047 A 
ATOM      5  C3  UNL d   1      -1.494   2.863  -3.007  0.00  0.00    -0.047 A 
ATOM      6  C4  UNL d   1      -1.328   1.692  -2.298  0.00  0.00    -0.004 A 
ENDROOT
TORSDOF 0
ENDMDL
