MODEL 1
REMARK minimizedAffinity -3.56765771
REMARK minimizedRMSD -1
REMARK  2 active torsions:
REMARK  status: ('A' for Active; 'I' for Inactive)
REMARK    1  A    between atoms: C1_2  and  C2_3 
REMARK    2  A    between atoms: C2_3  and  C3_4 
ROOT
ATOM      1  C3  UNL d   1       0.154   0.054   0.025  0.00  0.00    -0.075 A 
ATOM      2  C4  UNL d   1       0.797   1.083   0.728  0.00  0.00     0.002 A 
ATOM      3  C5  UNL d   1       0.223   1.620   1.881  0.00  0.00     0.002 A 
ATOM      4  C6  UNL d   1      -1.003   1.143   2.339  0.00  0.00    -0.004 A 
ATOM      5  C7  UNL d   1      -1.659   0.133   1.639  0.00  0.00     0.002 A 
ATOM      6  C8  UNL d   1      -1.085  -0.409   0.488  0.00  0.00     0.002 A 
ENDROOT
BRANCH   1   7
ATOM      7  C2  UNL d   1       0.784  -0.552  -1.207  0.00  0.00     0.056 C 
BRANCH   7   8
ATOM      8  C1  UNL d   1       0.290   0.057  -2.523  0.00  0.00     0.007 C 
ATOM      9  C   UNL d   1       1.416   0.602  -3.392  0.00  0.00     0.009 C 
ENDBRANCH   7   8
ENDBRANCH   1   7
TORSDOF 2
ENDMDL
