MODEL 1
REMARK minimizedAffinity -5.77629614
REMARK minimizedRMSD -1
REMARK  2 active torsions:
REMARK  status: ('A' for Active; 'I' for Inactive)
REMARK    1  A    between atoms: C1_2  and  C2_3 
REMARK    2  A    between atoms: C2_3  and  C3_4 
ROOT
ATOM      1  C3  UNL d   1      -0.874  -0.113  -0.447  0.00  0.00    -0.075 A 
ATOM      2  C4  UNL d   1      -1.977   0.072   0.399  0.00  0.00     0.002 A 
ATOM      3  C5  UNL d   1      -1.794   0.474   1.722  0.00  0.00     0.002 A 
ATOM      4  C6  UNL d   1      -0.510   0.686   2.219  0.00  0.00    -0.004 A 
ATOM      5  C7  UNL d   1       0.594   0.488   1.392  0.00  0.00     0.002 A 
ATOM      6  C8  UNL d   1       0.414   0.090   0.066  0.00  0.00     0.002 A 
ENDROOT
BRANCH   1   7
ATOM      7  C2  UNL d   1      -1.066  -0.520  -1.889  0.00  0.00     0.056 C 
BRANCH   7   8
ATOM      8  C1  UNL d   1      -0.261  -1.757  -2.301  0.00  0.00     0.007 C 
ATOM      9  C   UNL d   1      -0.691  -2.334  -3.643  0.00  0.00     0.009 C 
ENDBRANCH   7   8
ENDBRANCH   1   7
TORSDOF 2
ENDMDL
