MODEL 1
REMARK minimizedAffinity -4.56838703
REMARK minimizedRMSD -1
REMARK  2 active torsions:
REMARK  status: ('A' for Active; 'I' for Inactive)
REMARK    1  A    between atoms: C1_2  and  C2_3 
REMARK    2  A    between atoms: C2_3  and  C3_4 
ROOT
ATOM      1  C3  UNL d   1      -0.319  -0.053   0.326  0.00  0.00    -0.075 A 
ATOM      2  C4  UNL d   1      -1.625   0.338   0.656  0.00  0.00     0.002 A 
ATOM      3  C5  UNL d   1      -1.908   0.873   1.913  0.00  0.00     0.002 A 
ATOM      4  C6  UNL d   1      -0.894   1.014   2.858  0.00  0.00    -0.004 A 
ATOM      5  C7  UNL d   1       0.404   0.613   2.547  0.00  0.00     0.002 A 
ATOM      6  C8  UNL d   1       0.691   0.082   1.288  0.00  0.00     0.002 A 
ENDROOT
BRANCH   1   7
ATOM      7  C2  UNL d   1      -0.000  -0.606  -1.043  0.00  0.00     0.056 C 
BRANCH   7   8
ATOM      8  C1  UNL d   1       0.986   0.249  -1.846  0.00  0.00     0.007 C 
ATOM      9  C   UNL d   1       0.670   0.289  -3.335  0.00  0.00     0.009 C 
ENDBRANCH   7   8
ENDBRANCH   1   7
TORSDOF 2
ENDMDL
