MODEL 1
REMARK minimizedAffinity -4.76703405
REMARK minimizedRMSD -1
REMARK  2 active torsions:
REMARK  status: ('A' for Active; 'I' for Inactive)
REMARK    1  A    between atoms: C1_2  and  C2_3 
REMARK    2  A    between atoms: C2_3  and  C3_4 
ROOT
ATOM      1  C3  UNL d   1       0.245  -0.476   0.590  0.00  0.00    -0.075 A 
ATOM      2  C4  UNL d   1       0.771  -0.748   1.861  0.00  0.00     0.002 A 
ATOM      3  C5  UNL d   1       0.051  -0.423   3.011  0.00  0.00     0.002 A 
ATOM      4  C6  UNL d   1      -1.198   0.186   2.905  0.00  0.00    -0.004 A 
ATOM      5  C7  UNL d   1      -1.723   0.476   1.648  0.00  0.00     0.002 A 
ATOM      6  C8  UNL d   1      -1.006   0.147   0.496  0.00  0.00     0.002 A 
ENDROOT
BRANCH   1   7
ATOM      7  C2  UNL d   1       1.007  -0.852  -0.658  0.00  0.00     0.056 C 
BRANCH   7   8
ATOM      8  C1  UNL d   1       0.368  -0.344  -1.955  0.00  0.00     0.007 C 
ATOM      9  C   UNL d   1       1.387  -0.033  -3.044  0.00  0.00     0.009 C 
ENDBRANCH   7   8
ENDBRANCH   1   7
TORSDOF 2
ENDMDL
