MODEL 1
REMARK minimizedAffinity -6.05437326
REMARK minimizedRMSD -1
REMARK  2 active torsions:
REMARK  status: ('A' for Active; 'I' for Inactive)
REMARK    1  A    between atoms: C1_2  and  C2_3 
REMARK    2  A    between atoms: C2_3  and  C3_4 
ROOT
ATOM      1  C3  UNL d   1      -0.551   0.575   0.444  0.00  0.00    -0.075 A 
ATOM      2  C4  UNL d   1      -1.542   0.024   1.270  0.00  0.00     0.002 A 
ATOM      3  C5  UNL d   1      -1.629   0.391   2.613  0.00  0.00     0.002 A 
ATOM      4  C6  UNL d   1      -0.723   1.303   3.149  0.00  0.00    -0.004 A 
ATOM      5  C7  UNL d   1       0.275   1.845   2.342  0.00  0.00     0.002 A 
ATOM      6  C8  UNL d   1       0.362   1.483   0.997  0.00  0.00     0.002 A 
ENDROOT
BRANCH   1   7
ATOM      7  C2  UNL d   1      -0.470   0.204  -1.017  0.00  0.00     0.056 C 
BRANCH   7   8
ATOM      8  C1  UNL d   1       0.681  -0.749  -1.356  0.00  0.00     0.007 C 
ATOM      9  C   UNL d   1       1.069  -0.723  -2.828  0.00  0.00     0.009 C 
ENDBRANCH   7   8
ENDBRANCH   1   7
TORSDOF 2
ENDMDL
