MODEL 1
REMARK minimizedAffinity 2.2510457
REMARK minimizedRMSD -1
REMARK  1 active torsions:
REMARK  status: ('A' for Active; 'I' for Inactive)
REMARK    1  A    between atoms: N_2  and  C1_3 
ROOT
ATOM      1  C1  UNL d   1      -0.194   0.562   3.464  0.00  0.00     0.143 A 
ATOM      2  C2  UNL d   1       0.955   1.213   3.003  0.00  0.00    -0.057 A 
ATOM      3  C3  UNL d   1       0.875   2.440   2.333  0.00  0.00     0.033 A 
ATOM      4  C4  UNL d   1      -0.362   3.026   2.087  0.00  0.00    -0.042 A 
ATOM      5  C5  UNL d   1      -1.520   2.385   2.514  0.00  0.00     0.033 A 
ATOM      6  C6  UNL d   1      -1.433   1.163   3.189  0.00  0.00    -0.057 A 
ENDROOT
BRANCH   1   7
ATOM      7  N   UNL d   1      -0.188  -0.706   4.050  0.00  0.00    -0.732 N 
ATOM      8  C   UNL d   1       1.056  -1.417   4.256  0.00  0.00     0.284 C 
ATOM      9  H3  UNL d   1      -0.842  -0.779   4.826  0.00  0.00     0.395 HD
ENDBRANCH   1   7
TORSDOF 1
ENDMDL
