MODEL 1
REMARK minimizedAffinity 9.69798183
REMARK minimizedRMSD -1
REMARK  1 active torsions:
REMARK  status: ('A' for Active; 'I' for Inactive)
REMARK    1  A    between atoms: N_2  and  C1_3 
ROOT
ATOM      1  C1  UNL d   1      -0.342   3.215  -0.399  0.00  0.00     0.143 A 
ATOM      2  C2  UNL d   1      -1.360   3.749  -1.197  0.00  0.00    -0.057 A 
ATOM      3  C3  UNL d   1      -1.083   4.697  -2.190  0.00  0.00     0.033 A 
ATOM      4  C4  UNL d   1       0.217   5.150  -2.384  0.00  0.00    -0.042 A 
ATOM      5  C5  UNL d   1       1.241   4.652  -1.586  0.00  0.00     0.033 A 
ATOM      6  C6  UNL d   1       0.959   3.701  -0.600  0.00  0.00    -0.057 A 
ENDROOT
BRANCH   1   7
ATOM      7  N   UNL d   1      -0.568   2.344   0.669  0.00  0.00    -0.732 N 
ATOM      8  C   UNL d   1       0.542   1.791   1.416  0.00  0.00     0.284 C 
ATOM      9  H3  UNL d   1      -1.354   2.633   1.247  0.00  0.00     0.395 HD
ENDBRANCH   1   7
TORSDOF 1
ENDMDL
