MODEL 1
REMARK minimizedAffinity 4.46719027
REMARK minimizedRMSD -1
REMARK  1 active torsions:
REMARK  status: ('A' for Active; 'I' for Inactive)
REMARK    1  A    between atoms: N_2  and  C1_3 
ROOT
ATOM      1  C1  UNL d   1      -0.008   3.760  -0.498  0.00  0.00     0.143 A 
ATOM      2  C2  UNL d   1       0.992   4.706  -0.746  0.00  0.00    -0.057 A 
ATOM      3  C3  UNL d   1       0.750   5.824  -1.554  0.00  0.00     0.033 A 
ATOM      4  C4  UNL d   1      -0.493   6.000  -2.153  0.00  0.00    -0.042 A 
ATOM      5  C5  UNL d   1      -1.494   5.059  -1.941  0.00  0.00     0.033 A 
ATOM      6  C6  UNL d   1      -1.248   3.948  -1.128  0.00  0.00    -0.057 A 
ENDROOT
BRANCH   1   7
ATOM      7  N   UNL d   1       0.201   2.577   0.215  0.00  0.00    -0.732 N 
ATOM      8  C   UNL d   1       0.359   2.601   1.653  0.00  0.00     0.284 C 
ATOM      9  H3  UNL d   1      -0.375   1.810  -0.127  0.00  0.00     0.395 HD
ENDBRANCH   1   7
TORSDOF 1
ENDMDL
