MODEL 1
REMARK minimizedAffinity 4.20111036
REMARK minimizedRMSD -1
REMARK  1 active torsions:
REMARK  status: ('A' for Active; 'I' for Inactive)
REMARK    1  A    between atoms: N_2  and  C1_3 
ROOT
ATOM      1  C1  UNL d   1      -3.336  -5.105  -5.678  0.00  0.00     0.143 A 
ATOM      2  C2  UNL d   1      -3.349  -3.716  -5.845  0.00  0.00    -0.057 A 
ATOM      3  C3  UNL d   1      -4.551  -3.013  -5.990  0.00  0.00     0.033 A 
ATOM      4  C4  UNL d   1      -5.764  -3.693  -5.999  0.00  0.00    -0.042 A 
ATOM      5  C5  UNL d   1      -5.774  -5.077  -5.859  0.00  0.00     0.033 A 
ATOM      6  C6  UNL d   1      -4.570  -5.772  -5.708  0.00  0.00    -0.057 A 
ENDROOT
BRANCH   1   7
ATOM      7  N   UNL d   1      -2.169  -5.871  -5.627  0.00  0.00    -0.732 N 
ATOM      8  C   UNL d   1      -1.385  -5.941  -4.413  0.00  0.00     0.284 C 
ATOM      9  H3  UNL d   1      -2.267  -6.761  -6.110  0.00  0.00     0.395 HD
ENDBRANCH   1   7
TORSDOF 1
ENDMDL
