MODEL 1
REMARK minimizedAffinity 2.59831977
REMARK minimizedRMSD -1
REMARK  1 active torsions:
REMARK  status: ('A' for Active; 'I' for Inactive)
REMARK    1  A    between atoms: N_2  and  C1_3 
ROOT
ATOM      1  C1  UNL d   1      -2.056   5.672  -0.261  0.00  0.00     0.143 A 
ATOM      2  C2  UNL d   1      -1.078   4.908   0.385  0.00  0.00    -0.057 A 
ATOM      3  C3  UNL d   1       0.097   4.526  -0.275  0.00  0.00     0.033 A 
ATOM      4  C4  UNL d   1       0.301   4.877  -1.605  0.00  0.00    -0.042 A 
ATOM      5  C5  UNL d   1      -0.670   5.614  -2.274  0.00  0.00     0.033 A 
ATOM      6  C6  UNL d   1      -1.837   5.999  -1.608  0.00  0.00    -0.057 A 
ENDROOT
BRANCH   1   7
ATOM      7  N   UNL d   1      -3.289   6.000   0.310  0.00  0.00    -0.732 N 
ATOM      8  C   UNL d   1      -3.459   6.000   1.747  0.00  0.00     0.284 C 
ATOM      9  H3  UNL d   1      -3.740   6.780  -0.163  0.00  0.00     0.395 HD
ENDBRANCH   1   7
TORSDOF 1
ENDMDL
