MODEL 1
REMARK minimizedAffinity 5.47247982
REMARK minimizedRMSD -1
REMARK  1 active torsions:
REMARK  status: ('A' for Active; 'I' for Inactive)
REMARK    1  A    between atoms: N_2  and  C1_3 
ROOT
ATOM      1  C1  UNL d   1      -0.995   4.967   0.226  0.00  0.00     0.143 A 
ATOM      2  C2  UNL d   1      -0.017   5.152  -0.757  0.00  0.00    -0.057 A 
ATOM      3  C3  UNL d   1       0.801   4.097  -1.176  0.00  0.00     0.033 A 
ATOM      4  C4  UNL d   1       0.676   2.839  -0.595  0.00  0.00    -0.042 A 
ATOM      5  C5  UNL d   1      -0.272   2.637   0.402  0.00  0.00     0.033 A 
ATOM      6  C6  UNL d   1      -1.092   3.694   0.811  0.00  0.00    -0.057 A 
ENDROOT
BRANCH   1   7
ATOM      7  N   UNL d   1      -1.773   6.000   0.755  0.00  0.00    -0.732 N 
ATOM      8  C   UNL d   1      -2.408   5.857   2.048  0.00  0.00     0.284 C 
ATOM      9  H3  UNL d   1      -1.363   6.917   0.592  0.00  0.00     0.395 HD
ENDBRANCH   1   7
TORSDOF 1
ENDMDL
