MODEL 1
REMARK minimizedAffinity 0.255039901
REMARK minimizedRMSD -1
REMARK  3 active torsions:
REMARK  status: ('A' for Active; 'I' for Inactive)
REMARK    1  A    between atoms: C3'_2  and  C2'_3 
REMARK    2  A    between atoms: C2'_3  and  C1'_4 
REMARK    3  A    between atoms: C1'_4  and  C1_5 
ROOT
ATOM      1  C1  N4B d   1       2.342  -0.836   2.730  0.00  0.00    -0.075 A 
ATOM      2  C2  N4B d   1       3.084  -1.075   3.907  0.00  0.00     0.002 A 
ATOM      3  C3  N4B d   1       4.451  -0.946   3.895  0.00  0.00     0.002 A 
ATOM      4  C4  N4B d   1       5.097  -0.598   2.718  0.00  0.00    -0.004 A 
ATOM      5  C5  N4B d   1       4.371  -0.344   1.592  0.00  0.00     0.002 A 
ATOM      6  C6  N4B d   1       2.996  -0.466   1.590  0.00  0.00     0.002 A 
ENDROOT
BRANCH   1   7
ATOM      7  C1' N4B d   1       0.854  -1.048   2.672  0.00  0.00     0.057 C 
BRANCH   7   8
ATOM      8  C2' N4B d   1       0.569  -2.473   2.208  0.00  0.00     0.009 C 
BRANCH   8   9
ATOM      9  C3' N4B d   1       1.845  -3.233   1.888  0.00  0.00     0.004 C 
ATOM     10  C4' N4B d   1       2.116  -4.346   2.856  0.00  0.00     0.003 C 
ENDBRANCH   8   9
ENDBRANCH   7   8
ENDBRANCH   1   7
TORSDOF 3
ENDMDL
