MODEL 1
REMARK minimizedAffinity 0.715398014
REMARK minimizedRMSD -1
REMARK  3 active torsions:
REMARK  status: ('A' for Active; 'I' for Inactive)
REMARK    1  A    between atoms: C3'_2  and  C2'_3 
REMARK    2  A    between atoms: C2'_3  and  C1'_4 
REMARK    3  A    between atoms: C1'_4  and  C1_5 
ROOT
ATOM      1  C1  N4B d   1       2.084  -1.373   2.303  0.00  0.00    -0.075 A 
ATOM      2  C2  N4B d   1       3.407  -1.052   1.929  0.00  0.00     0.002 A 
ATOM      3  C3  N4B d   1       4.381  -0.930   2.889  0.00  0.00     0.002 A 
ATOM      4  C4  N4B d   1       4.053  -1.105   4.225  0.00  0.00    -0.004 A 
ATOM      5  C5  N4B d   1       2.778  -1.440   4.576  0.00  0.00     0.002 A 
ATOM      6  C6  N4B d   1       1.790  -1.570   3.621  0.00  0.00     0.002 A 
ENDROOT
BRANCH   1   7
ATOM      7  C1' N4B d   1       0.967  -1.433   1.297  0.00  0.00     0.057 C 
BRANCH   7   8
ATOM      8  C2' N4B d   1       0.515  -0.014   0.966  0.00  0.00     0.009 C 
BRANCH   8   9
ATOM      9  C3' N4B d   1       0.918   0.397  -0.440  0.00  0.00     0.004 C 
ATOM     10  C4' N4B d   1       2.185   1.198  -0.470  0.00  0.00     0.003 C 
ENDBRANCH   8   9
ENDBRANCH   7   8
ENDBRANCH   1   7
TORSDOF 3
ENDMDL
