MODEL 1
REMARK minimizedAffinity -1.68849003
REMARK minimizedRMSD -1
REMARK  3 active torsions:
REMARK  status: ('A' for Active; 'I' for Inactive)
REMARK    1  A    between atoms: C3'_2  and  C2'_3 
REMARK    2  A    between atoms: C2'_3  and  C1'_4 
REMARK    3  A    between atoms: C1'_4  and  C1_5 
ROOT
ATOM      1  C1  N4B d   1       2.402  -1.456   2.559  0.00  0.00    -0.075 A 
ATOM      2  C2  N4B d   1       2.580  -1.193   3.935  0.00  0.00     0.002 A 
ATOM      3  C3  N4B d   1       3.672  -0.477   4.361  0.00  0.00     0.002 A 
ATOM      4  C4  N4B d   1       4.605  -0.033   3.436  0.00  0.00    -0.004 A 
ATOM      5  C5  N4B d   1       4.413  -0.270   2.106  0.00  0.00     0.002 A 
ATOM      6  C6  N4B d   1       3.318  -0.985   1.663  0.00  0.00     0.002 A 
ENDROOT
BRANCH   1   7
ATOM      7  C1' N4B d   1       1.270  -2.308   2.054  0.00  0.00     0.057 C 
BRANCH   7   8
ATOM      8  C2' N4B d   1       0.764  -1.735   0.733  0.00  0.00     0.009 C 
BRANCH   8   9
ATOM      9  C3' N4B d   1       0.192  -0.338   0.900  0.00  0.00     0.004 C 
ATOM     10  C4' N4B d   1       0.616   0.598  -0.192  0.00  0.00     0.003 C 
ENDBRANCH   8   9
ENDBRANCH   7   8
ENDBRANCH   1   7
TORSDOF 3
ENDMDL
