MODEL 1
REMARK minimizedAffinity 6.19115591
REMARK minimizedRMSD -1
REMARK  3 active torsions:
REMARK  status: ('A' for Active; 'I' for Inactive)
REMARK    1  A    between atoms: C3'_2  and  C2'_3 
REMARK    2  A    between atoms: C2'_3  and  C1'_4 
REMARK    3  A    between atoms: C1'_4  and  C1_5 
ROOT
ATOM      1  C1  N4B d   1       3.196  -0.915   1.911  0.00  0.00    -0.075 A 
ATOM      2  C2  N4B d   1       4.584  -0.668   1.826  0.00  0.00     0.002 A 
ATOM      3  C3  N4B d   1       5.380  -0.833   2.934  0.00  0.00     0.002 A 
ATOM      4  C4  N4B d   1       4.809  -1.224   4.136  0.00  0.00    -0.004 A 
ATOM      5  C5  N4B d   1       3.472  -1.485   4.203  0.00  0.00     0.002 A 
ATOM      6  C6  N4B d   1       2.661  -1.328   3.097  0.00  0.00     0.002 A 
ENDROOT
BRANCH   1   7
ATOM      7  C1' N4B d   1       2.273  -0.667   0.750  0.00  0.00     0.057 C 
BRANCH   7   8
ATOM      8  C2' N4B d   1       0.856  -1.074   1.140  0.00  0.00     0.009 C 
BRANCH   8   9
ATOM      9  C3' N4B d   1       0.169  -1.867   0.041  0.00  0.00     0.004 C 
ATOM     10  C4' N4B d   1      -1.092  -2.532   0.505  0.00  0.00     0.003 C 
ENDBRANCH   8   9
ENDBRANCH   7   8
ENDBRANCH   1   7
TORSDOF 3
ENDMDL
