MODEL 1
REMARK minimizedAffinity 6.1830759
REMARK minimizedRMSD -1
REMARK  3 active torsions:
REMARK  status: ('A' for Active; 'I' for Inactive)
REMARK    1  A    between atoms: C3'_2  and  C2'_3 
REMARK    2  A    between atoms: C2'_3  and  C1'_4 
REMARK    3  A    between atoms: C1'_4  and  C1_5 
ROOT
ATOM      1  C1  N4B d   1       2.521  -1.074   1.572  0.00  0.00    -0.075 A 
ATOM      2  C2  N4B d   1       3.721  -0.569   1.026  0.00  0.00     0.002 A 
ATOM      3  C3  N4B d   1       4.850  -0.490   1.805  0.00  0.00     0.002 A 
ATOM      4  C4  N4B d   1       4.797  -0.891   3.131  0.00  0.00    -0.004 A 
ATOM      5  C5  N4B d   1       3.640  -1.402   3.643  0.00  0.00     0.002 A 
ATOM      6  C6  N4B d   1       2.499  -1.490   2.871  0.00  0.00     0.002 A 
ENDROOT
BRANCH   1   7
ATOM      7  C1' N4B d   1       1.239  -1.099   0.784  0.00  0.00     0.057 C 
BRANCH   7   8
ATOM      8  C2' N4B d   1       1.123   0.190  -0.025  0.00  0.00     0.009 C 
BRANCH   8   9
ATOM      9  C3' N4B d   1       0.700  -0.076  -1.459  0.00  0.00     0.004 C 
ATOM     10  C4' N4B d   1      -0.489   0.739  -1.875  0.00  0.00     0.003 C 
ENDBRANCH   8   9
ENDBRANCH   7   8
ENDBRANCH   1   7
TORSDOF 3
ENDMDL
