MODEL 1
REMARK minimizedAffinity -2.09959006
REMARK minimizedRMSD -1
REMARK  3 active torsions:
REMARK  status: ('A' for Active; 'I' for Inactive)
REMARK    1  A    between atoms: C3'_2  and  C2'_3 
REMARK    2  A    between atoms: C2'_3  and  C1'_4 
REMARK    3  A    between atoms: C1'_4  and  C1_5 
ROOT
ATOM      1  C1  N4B d   1       2.466   0.839  -0.294  0.00  0.00    -0.075 A 
ATOM      2  C2  N4B d   1       2.640  -0.558  -0.176  0.00  0.00     0.002 A 
ATOM      3  C3  N4B d   1       1.610  -1.342   0.282  0.00  0.00     0.002 A 
ATOM      4  C4  N4B d   1       0.407  -0.752   0.644  0.00  0.00    -0.004 A 
ATOM      5  C5  N4B d   1       0.239   0.594   0.502  0.00  0.00     0.002 A 
ATOM      6  C6  N4B d   1       1.264   1.394   0.040  0.00  0.00     0.002 A 
ENDROOT
BRANCH   1   7
ATOM      7  C1' N4B d   1       3.591   1.747  -0.708  0.00  0.00     0.057 C 
BRANCH   7   8
ATOM      8  C2' N4B d   1       3.359   3.134  -0.116  0.00  0.00     0.009 C 
BRANCH   8   9
ATOM      9  C3' N4B d   1       4.663   3.877   0.119  0.00  0.00     0.004 C 
ATOM     10  C4' N4B d   1       5.581   3.828  -1.066  0.00  0.00     0.003 C 
ENDBRANCH   8   9
ENDBRANCH   7   8
ENDBRANCH   1   7
TORSDOF 3
ENDMDL
