MODEL 1
REMARK minimizedAffinity 6.20653105
REMARK minimizedRMSD -1
REMARK  3 active torsions:
REMARK  status: ('A' for Active; 'I' for Inactive)
REMARK    1  A    between atoms: C3'_2  and  C2'_3 
REMARK    2  A    between atoms: C2'_3  and  C1'_4 
REMARK    3  A    between atoms: C1'_4  and  C1_5 
ROOT
ATOM      1  C1  N4B d   1       2.358   1.262  -0.409  0.00  0.00    -0.075 A 
ATOM      2  C2  N4B d   1       1.283   2.093  -0.022  0.00  0.00     0.002 A 
ATOM      3  C3  N4B d   1       1.493   3.434   0.187  0.00  0.00     0.002 A 
ATOM      4  C4  N4B d   1       2.766   3.961   0.034  0.00  0.00    -0.004 A 
ATOM      5  C5  N4B d   1       3.794   3.157  -0.364  0.00  0.00     0.002 A 
ATOM      6  C6  N4B d   1       3.597   1.808  -0.582  0.00  0.00     0.002 A 
ENDROOT
BRANCH   1   7
ATOM      7  C1' N4B d   1       2.195  -0.225  -0.565  0.00  0.00     0.057 C 
BRANCH   7   8
ATOM      8  C2' N4B d   1       2.032  -0.859   0.813  0.00  0.00     0.009 C 
BRANCH   8   9
ATOM      9  C3' N4B d   1       3.356  -1.346   1.376  0.00  0.00     0.004 C 
ATOM     10  C4' N4B d   1       3.387  -1.342   2.875  0.00  0.00     0.003 C 
ENDBRANCH   8   9
ENDBRANCH   7   8
ENDBRANCH   1   7
TORSDOF 3
ENDMDL
