MODEL 1
REMARK minimizedAffinity 4.58951044
REMARK minimizedRMSD -1
REMARK  3 active torsions:
REMARK  status: ('A' for Active; 'I' for Inactive)
REMARK    1  A    between atoms: C3'_2  and  C2'_3 
REMARK    2  A    between atoms: C2'_3  and  C1'_4 
REMARK    3  A    between atoms: C1'_4  and  C1_5 
ROOT
ATOM      1  C1  N4B d   1      -1.797  -5.621  -5.018  0.00  0.00    -0.075 A 
ATOM      2  C2  N4B d   1      -1.814  -5.208  -3.667  0.00  0.00     0.002 A 
ATOM      3  C3  N4B d   1      -2.999  -5.178  -2.974  0.00  0.00     0.002 A 
ATOM      4  C4  N4B d   1      -4.177  -5.537  -3.612  0.00  0.00    -0.004 A 
ATOM      5  C5  N4B d   1      -4.148  -5.958  -4.909  0.00  0.00     0.002 A 
ATOM      6  C6  N4B d   1      -2.964  -5.997  -5.617  0.00  0.00     0.002 A 
ENDROOT
BRANCH   1   7
ATOM      7  C1' N4B d   1      -0.539  -5.588  -5.842  0.00  0.00     0.057 C 
BRANCH   7   8
ATOM      8  C2' N4B d   1       0.643  -6.000  -4.969  0.00  0.00     0.009 C 
BRANCH   8   9
ATOM      9  C3' N4B d   1       1.934  -5.330  -5.408  0.00  0.00     0.004 C 
ATOM     10  C4' N4B d   1       2.875  -5.081  -4.267  0.00  0.00     0.003 C 
ENDBRANCH   8   9
ENDBRANCH   7   8
ENDBRANCH   1   7
TORSDOF 3
ENDMDL
