MODEL 1
REMARK minimizedAffinity 1.85869002
REMARK minimizedRMSD -1
REMARK  3 active torsions:
REMARK  status: ('A' for Active; 'I' for Inactive)
REMARK    1  A    between atoms: C3'_2  and  C2'_3 
REMARK    2  A    between atoms: C2'_3  and  C1'_4 
REMARK    3  A    between atoms: C1'_4  and  C1_5 
ROOT
ATOM      1  C1  N4B d   1       1.985  -0.378   0.403  0.00  0.00    -0.075 A 
ATOM      2  C2  N4B d   1       0.673  -0.294   0.917  0.00  0.00     0.002 A 
ATOM      3  C3  N4B d   1      -0.151   0.735   0.533  0.00  0.00     0.002 A 
ATOM      4  C4  N4B d   1       0.320   1.698  -0.347  0.00  0.00    -0.004 A 
ATOM      5  C5  N4B d   1       1.580   1.596  -0.859  0.00  0.00     0.002 A 
ATOM      6  C6  N4B d   1       2.418   0.565  -0.485  0.00  0.00     0.002 A 
ENDROOT
BRANCH   1   7
ATOM      7  C1' N4B d   1       2.952  -1.436   0.860  0.00  0.00     0.057 C 
BRANCH   7   8
ATOM      8  C2' N4B d   1       3.017  -1.430   2.384  0.00  0.00     0.009 C 
BRANCH   8   9
ATOM      9  C3' N4B d   1       4.098  -0.499   2.903  0.00  0.00     0.004 C 
ATOM     10  C4' N4B d   1       5.335  -0.516   2.056  0.00  0.00     0.003 C 
ENDBRANCH   8   9
ENDBRANCH   7   8
ENDBRANCH   1   7
TORSDOF 3
ENDMDL
