MODEL 1
REMARK minimizedAffinity 5.03524828
REMARK minimizedRMSD -1
REMARK  1 active torsions:
REMARK  status: ('A' for Active; 'I' for Inactive)
REMARK    1  A    between atoms: C1_2  and  C2_3 
ROOT
ATOM      1  C2  UNL d   1       0.170  -1.486  -5.035  0.00  0.00    -0.076 A 
ATOM      2  C3  UNL d   1       0.729  -0.630  -5.999  0.00  0.00     0.004 A 
ATOM      3  C4  UNL d   1       2.069  -0.252  -5.933  0.00  0.00    -0.003 A 
ATOM      4  C5  UNL d   1       2.872  -0.725  -4.900  0.00  0.00     0.000 A 
ATOM      5  C6  UNL d   1       2.338  -1.590  -3.945  0.00  0.00     0.000 A 
ATOM      6  C7  UNL d   1       0.993  -1.993  -4.007  0.00  0.00    -0.073 A 
ATOM      7  C8  UNL d   1       0.469  -2.922  -2.947  0.00  0.00     0.078 C 
ENDROOT
BRANCH   1   8
ATOM      8  C1  UNL d   1      -1.296  -1.840  -5.144  0.00  0.00     0.053 C 
ATOM      9  C   UNL d   1      -2.205  -0.693  -4.727  0.00  0.00     0.018 C 
ENDBRANCH   1   8
TORSDOF 1
ENDMDL
