MODEL 1
REMARK minimizedAffinity -3.60856462
REMARK minimizedRMSD -1
REMARK  1 active torsions:
REMARK  status: ('A' for Active; 'I' for Inactive)
REMARK    1  A    between atoms: C1_2  and  C2_3 
ROOT
ATOM      1  C2  UNL d   1       0.513  -0.972   2.375  0.00  0.00    -0.076 A 
ATOM      2  C3  UNL d   1      -0.797  -1.457   2.532  0.00  0.00     0.004 A 
ATOM      3  C4  UNL d   1      -1.867  -0.862   1.866  0.00  0.00    -0.003 A 
ATOM      4  C5  UNL d   1      -1.644   0.226   1.030  0.00  0.00     0.000 A 
ATOM      5  C6  UNL d   1      -0.348   0.709   0.848  0.00  0.00     0.000 A 
ATOM      6  C7  UNL d   1       0.744   0.111   1.500  0.00  0.00    -0.073 A 
ATOM      7  C8  UNL d   1       2.119   0.677   1.272  0.00  0.00     0.078 C 
ENDROOT
BRANCH   1   8
ATOM      8  C1  UNL d   1       1.630  -1.641   3.144  0.00  0.00     0.053 C 
ATOM      9  C   UNL d   1       1.742  -1.128   4.572  0.00  0.00     0.018 C 
ENDBRANCH   1   8
TORSDOF 1
ENDMDL
