MODEL 1
REMARK minimizedAffinity 10.9089785
REMARK minimizedRMSD -1
REMARK  1 active torsions:
REMARK  status: ('A' for Active; 'I' for Inactive)
REMARK    1  A    between atoms: C1_2  and  C2_3 
ROOT
ATOM      1  C2  UNL d   1       0.347  -1.162   3.239  0.00  0.00    -0.076 A 
ATOM      2  C3  UNL d   1       0.379  -0.883   4.616  0.00  0.00     0.004 A 
ATOM      3  C4  UNL d   1       1.544  -1.063   5.359  0.00  0.00    -0.003 A 
ATOM      4  C5  UNL d   1       2.699  -1.525   4.735  0.00  0.00     0.000 A 
ATOM      5  C6  UNL d   1       2.690  -1.790   3.366  0.00  0.00     0.000 A 
ATOM      6  C7  UNL d   1       1.528  -1.598   2.600  0.00  0.00    -0.073 A 
ATOM      7  C8  UNL d   1       1.574  -1.906   1.129  0.00  0.00     0.078 C 
ENDROOT
BRANCH   1   8
ATOM      8  C1  UNL d   1      -0.953  -0.974   2.491  0.00  0.00     0.053 C 
ATOM      9  C   UNL d   1      -1.784  -2.247   2.436  0.00  0.00     0.018 C 
ENDBRANCH   1   8
TORSDOF 1
ENDMDL
