MODEL 1
REMARK minimizedAffinity 0.608837962
REMARK minimizedRMSD -1
REMARK  0 active torsions:
REMARK  status: ('A' for Active; 'I' for Inactive)
ROOT
ATOM      1  C   UNL d   1       0.755   0.336   2.494  0.00  0.00     0.078 C 
ATOM      2  C1  UNL d   1      -0.629   0.590   1.976  0.00  0.00    -0.077 A 
ATOM      3  C2  UNL d   1      -1.093  -0.045   0.817  0.00  0.00    -0.001 A 
ATOM      4  C3  UNL d   1      -2.380   0.209   0.341  0.00  0.00     0.003 A 
ATOM      5  C4  UNL d   1      -3.214   1.099   1.016  0.00  0.00    -0.005 A 
ATOM      6  C5  UNL d   1      -2.760   1.736   2.169  0.00  0.00     0.003 A 
ATOM      7  C6  UNL d   1      -1.473   1.484   2.647  0.00  0.00    -0.001 A 
ENDROOT
TORSDOF 0
ENDMDL
