MODEL 1
REMARK minimizedAffinity 7.57744312
REMARK minimizedRMSD -1
REMARK  0 active torsions:
REMARK  status: ('A' for Active; 'I' for Inactive)
ROOT
ATOM      1  C   UNL d   1       2.830   3.002  -6.000  0.00  0.00     0.078 C 
ATOM      2  C1  UNL d   1       1.895   3.842  -5.183  0.00  0.00    -0.077 A 
ATOM      3  C2  UNL d   1       1.233   3.310  -4.069  0.00  0.00    -0.001 A 
ATOM      4  C3  UNL d   1       0.357   4.102  -3.324  0.00  0.00     0.003 A 
ATOM      5  C4  UNL d   1       0.135   5.429  -3.685  0.00  0.00    -0.005 A 
ATOM      6  C5  UNL d   1       0.787   5.967  -4.792  0.00  0.00     0.003 A 
ATOM      7  C6  UNL d   1       1.663   5.177  -5.539  0.00  0.00    -0.001 A 
ENDROOT
TORSDOF 0
ENDMDL
