MODEL 1
REMARK minimizedAffinity 2.66300988
REMARK minimizedRMSD -1
REMARK  0 active torsions:
REMARK  status: ('A' for Active; 'I' for Inactive)
ROOT
ATOM      1  C   UNL d   1       5.425  -0.214   2.794  0.00  0.00     0.078 C 
ATOM      2  C1  UNL d   1       4.230   0.175   1.976  0.00  0.00    -0.077 A 
ATOM      3  C2  UNL d   1       4.359   1.022   0.868  0.00  0.00    -0.001 A 
ATOM      4  C3  UNL d   1       3.236   1.382   0.121  0.00  0.00     0.003 A 
ATOM      5  C4  UNL d   1       1.977   0.902   0.474  0.00  0.00    -0.005 A 
ATOM      6  C5  UNL d   1       1.839   0.060   1.576  0.00  0.00     0.003 A 
ATOM      7  C6  UNL d   1       2.960  -0.302   2.324  0.00  0.00    -0.001 A 
ENDROOT
TORSDOF 0
ENDMDL
