MODEL 1
REMARK minimizedAffinity -1.21290815
REMARK minimizedRMSD -1
REMARK  0 active torsions:
REMARK  status: ('A' for Active; 'I' for Inactive)
ROOT
ATOM      1  C   UNL d   1      -5.649   4.803   5.999  0.00  0.00     0.078 C 
ATOM      2  C1  UNL d   1      -5.752   3.494   5.274  0.00  0.00    -0.077 A 
ATOM      3  C2  UNL d   1      -5.794   3.445   3.875  0.00  0.00    -0.001 A 
ATOM      4  C3  UNL d   1      -5.899   2.220   3.215  0.00  0.00     0.003 A 
ATOM      5  C4  UNL d   1      -5.965   1.035   3.945  0.00  0.00    -0.005 A 
ATOM      6  C5  UNL d   1      -5.925   1.074   5.337  0.00  0.00     0.003 A 
ATOM      7  C6  UNL d   1      -5.820   2.298   5.999  0.00  0.00    -0.001 A 
ENDROOT
TORSDOF 0
ENDMDL
