MODEL 1
REMARK minimizedAffinity 9.28437042
REMARK minimizedRMSD -1
REMARK  0 active torsions:
REMARK  status: ('A' for Active; 'I' for Inactive)
ROOT
ATOM      1  C   UNL d   1       5.987   0.011   3.282  0.00  0.00     0.078 C 
ATOM      2  C1  UNL d   1       4.769   0.412   2.506  0.00  0.00    -0.077 A 
ATOM      3  C2  UNL d   1       4.862   1.297   1.424  0.00  0.00    -0.001 A 
ATOM      4  C3  UNL d   1       3.718   1.669   0.717  0.00  0.00     0.003 A 
ATOM      5  C4  UNL d   1       2.472   1.164   1.085  0.00  0.00    -0.005 A 
ATOM      6  C5  UNL d   1       2.370   0.285   2.161  0.00  0.00     0.003 A 
ATOM      7  C6  UNL d   1       3.513  -0.089   2.870  0.00  0.00    -0.001 A 
ENDROOT
TORSDOF 0
ENDMDL
