MODEL 1
REMARK minimizedAffinity 2.57011223
REMARK minimizedRMSD -1
REMARK  0 active torsions:
REMARK  status: ('A' for Active; 'I' for Inactive)
ROOT
ATOM      1  C   UNL d   1      -5.247   2.981   1.902  0.00  0.00     0.078 C 
ATOM      2  C1  UNL d   1      -5.337   3.423   3.332  0.00  0.00    -0.077 A 
ATOM      3  C2  UNL d   1      -4.877   2.603   4.370  0.00  0.00    -0.001 A 
ATOM      4  C3  UNL d   1      -4.976   3.023   5.698  0.00  0.00     0.003 A 
ATOM      5  C4  UNL d   1      -5.536   4.263   6.000  0.00  0.00    -0.005 A 
ATOM      6  C5  UNL d   1      -5.999   5.084   4.974  0.00  0.00     0.003 A 
ATOM      7  C6  UNL d   1      -5.900   4.666   3.646  0.00  0.00    -0.001 A 
ENDROOT
TORSDOF 0
ENDMDL
