MODEL 1
REMARK minimizedAffinity -2.90020895
REMARK minimizedRMSD -1
REMARK  0 active torsions:
REMARK  status: ('A' for Active; 'I' for Inactive)
ROOT
ATOM      1  C   UNL d   1      -4.509   1.631   2.527  0.00  0.00     0.078 C 
ATOM      2  C1  UNL d   1      -3.124   1.181   2.168  0.00  0.00    -0.077 A 
ATOM      3  C2  UNL d   1      -2.854   0.600   0.923  0.00  0.00    -0.001 A 
ATOM      4  C3  UNL d   1      -1.562   0.177   0.606  0.00  0.00     0.003 A 
ATOM      5  C4  UNL d   1      -0.530   0.330   1.530  0.00  0.00    -0.005 A 
ATOM      6  C5  UNL d   1      -0.789   0.906   2.772  0.00  0.00     0.003 A 
ATOM      7  C6  UNL d   1      -2.080   1.329   3.090  0.00  0.00    -0.001 A 
ENDROOT
TORSDOF 0
ENDMDL
