MODEL 1
REMARK minimizedAffinity -1.95685995
REMARK minimizedRMSD -1
REMARK  0 active torsions:
REMARK  status: ('A' for Active; 'I' for Inactive)
ROOT
ATOM      1  C   UNL d   1      -0.428   2.190   3.590  0.00  0.00     0.078 C 
ATOM      2  C1  UNL d   1      -1.139   1.536   2.443  0.00  0.00    -0.077 A 
ATOM      3  C2  UNL d   1      -0.483   0.612   1.621  0.00  0.00    -0.001 A 
ATOM      4  C3  UNL d   1      -1.154   0.018   0.551  0.00  0.00     0.003 A 
ATOM      5  C4  UNL d   1      -2.484   0.342   0.293  0.00  0.00    -0.005 A 
ATOM      6  C5  UNL d   1      -3.145   1.262   1.105  0.00  0.00     0.003 A 
ATOM      7  C6  UNL d   1      -2.476   1.857   2.175  0.00  0.00    -0.001 A 
ENDROOT
TORSDOF 0
ENDMDL
