MODEL 1
REMARK minimizedAffinity -3.42348623
REMARK minimizedRMSD -1
REMARK  0 active torsions:
REMARK  status: ('A' for Active; 'I' for Inactive)
ROOT
ATOM      1  C   UNL d   1      -0.002   2.113  -5.978  0.00  0.00     0.078 C 
ATOM      2  C1  UNL d   1       0.234   3.470  -5.386  0.00  0.00    -0.077 A 
ATOM      3  C2  UNL d   1      -0.280   4.622  -5.995  0.00  0.00    -0.001 A 
ATOM      4  C3  UNL d   1      -0.044   5.880  -5.439  0.00  0.00     0.003 A 
ATOM      5  C4  UNL d   1       0.708   5.999  -4.272  0.00  0.00    -0.005 A 
ATOM      6  C5  UNL d   1       1.226   4.859  -3.660  0.00  0.00     0.003 A 
ATOM      7  C6  UNL d   1       0.991   3.600  -4.215  0.00  0.00    -0.001 A 
ENDROOT
TORSDOF 0
ENDMDL
