MODEL 1
REMARK minimizedAffinity 3.17258859
REMARK minimizedRMSD -1
REMARK  0 active torsions:
REMARK  status: ('A' for Active; 'I' for Inactive)
ROOT
ATOM      1  C   UNL d   1       0.581  -0.126   0.678  0.00  0.00     0.078 C 
ATOM      2  C1  UNL d   1      -0.473   0.650   1.409  0.00  0.00    -0.077 A 
ATOM      3  C2  UNL d   1      -1.807   0.632   0.985  0.00  0.00    -0.001 A 
ATOM      4  C3  UNL d   1      -2.776   1.368   1.670  0.00  0.00     0.003 A 
ATOM      5  C4  UNL d   1      -2.421   2.127   2.783  0.00  0.00    -0.005 A 
ATOM      6  C5  UNL d   1      -1.095   2.152   3.212  0.00  0.00     0.003 A 
ATOM      7  C6  UNL d   1      -0.125   1.418   2.528  0.00  0.00    -0.001 A 
ENDROOT
TORSDOF 0
ENDMDL
