MODEL 1
REMARK minimizedAffinity 5.80395126
REMARK minimizedRMSD -1
REMARK  0 active torsions:
REMARK  status: ('A' for Active; 'I' for Inactive)
ROOT
ATOM      1  C   UNL d   1       0.548   0.055   1.301  0.00  0.00     0.078 C 
ATOM      2  C1  UNL d   1      -0.877   0.479   1.495  0.00  0.00    -0.077 A 
ATOM      3  C2  UNL d   1      -1.843   0.234   0.512  0.00  0.00    -0.001 A 
ATOM      4  C3  UNL d   1      -3.164   0.643   0.702  0.00  0.00     0.003 A 
ATOM      5  C4  UNL d   1      -3.531   1.302   1.874  0.00  0.00    -0.005 A 
ATOM      6  C5  UNL d   1      -2.576   1.553   2.857  0.00  0.00     0.003 A 
ATOM      7  C6  UNL d   1      -1.255   1.144   2.669  0.00  0.00    -0.001 A 
ENDROOT
TORSDOF 0
ENDMDL
