MODEL 1
REMARK minimizedAffinity 3.66538477
REMARK minimizedRMSD -1
REMARK  0 active torsions:
REMARK  status: ('A' for Active; 'I' for Inactive)
ROOT
ATOM      1  C   UNL d   1      -4.337   1.639   2.232  0.00  0.00     0.078 C 
ATOM      2  C1  UNL d   1      -2.988   1.141   1.804  0.00  0.00    -0.077 A 
ATOM      3  C2  UNL d   1      -2.819   0.477   0.583  0.00  0.00    -0.001 A 
ATOM      4  C3  UNL d   1      -1.560   0.010   0.202  0.00  0.00     0.003 A 
ATOM      5  C4  UNL d   1      -0.461   0.200   1.037  0.00  0.00    -0.005 A 
ATOM      6  C5  UNL d   1      -0.620   0.857   2.256  0.00  0.00     0.003 A 
ATOM      7  C6  UNL d   1      -1.879   1.325   2.638  0.00  0.00    -0.001 A 
ENDROOT
TORSDOF 0
ENDMDL
