MODEL 1
REMARK minimizedAffinity 0.170865789
REMARK minimizedRMSD -1
REMARK  0 active torsions:
REMARK  status: ('A' for Active; 'I' for Inactive)
ROOT
ATOM      1  C   UNL d   1       4.138  -0.005  -4.863  0.00  0.00     0.078 C 
ATOM      2  C1  UNL d   1       3.917   1.423  -5.265  0.00  0.00    -0.077 A 
ATOM      3  C2  UNL d   1       4.991   2.241  -5.637  0.00  0.00    -0.001 A 
ATOM      4  C3  UNL d   1       4.772   3.571  -5.999  0.00  0.00     0.003 A 
ATOM      5  C4  UNL d   1       3.481   4.095  -5.991  0.00  0.00    -0.005 A 
ATOM      6  C5  UNL d   1       2.407   3.289  -5.619  0.00  0.00     0.003 A 
ATOM      7  C6  UNL d   1       2.624   1.959  -5.257  0.00  0.00    -0.001 A 
ENDROOT
TORSDOF 0
ENDMDL
