MODEL 1
REMARK minimizedAffinity 6.15578365
REMARK minimizedRMSD -1
REMARK  0 active torsions:
REMARK  status: ('A' for Active; 'I' for Inactive)
ROOT
ATOM      1  C   UNL d   1      -2.289   1.064   1.635  0.00  0.00     0.078 C 
ATOM      2  C1  UNL d   1      -3.578   1.416   2.315  0.00  0.00    -0.077 A 
ATOM      3  C2  UNL d   1      -4.808   1.218   1.677  0.00  0.00    -0.001 A 
ATOM      4  C3  UNL d   1      -6.000   1.559   2.319  0.00  0.00     0.003 A 
ATOM      5  C4  UNL d   1      -5.973   2.102   3.602  0.00  0.00    -0.005 A 
ATOM      6  C5  UNL d   1      -4.754   2.305   4.244  0.00  0.00     0.003 A 
ATOM      7  C6  UNL d   1      -3.561   1.965   3.604  0.00  0.00    -0.001 A 
ENDROOT
TORSDOF 0
ENDMDL
