MODEL 1
REMARK minimizedAffinity 4.31599617
REMARK minimizedRMSD -1
REMARK  0 active torsions:
REMARK  status: ('A' for Active; 'I' for Inactive)
ROOT
ATOM      1  C   UNL d   1      -1.273  -0.035   0.378  0.00  0.00     0.078 C 
ATOM      2  C1  UNL d   1      -1.237   0.789   1.630  0.00  0.00    -0.077 A 
ATOM      3  C2  UNL d   1      -2.409   1.338   2.166  0.00  0.00    -0.001 A 
ATOM      4  C3  UNL d   1      -2.360   2.110   3.327  0.00  0.00     0.003 A 
ATOM      5  C4  UNL d   1      -1.141   2.343   3.962  0.00  0.00    -0.005 A 
ATOM      6  C5  UNL d   1       0.030   1.803   3.435  0.00  0.00     0.003 A 
ATOM      7  C6  UNL d   1      -0.017   1.030   2.274  0.00  0.00    -0.001 A 
ENDROOT
TORSDOF 0
ENDMDL
