MODEL 1
REMARK minimizedAffinity -3.60441971
REMARK minimizedRMSD -1
REMARK  0 active torsions:
REMARK  status: ('A' for Active; 'I' for Inactive)
ROOT
ATOM      1  C1  DEN d   1      -2.623   1.158  -2.955  0.00  0.00     0.130 A 
ATOM      2  C2  DEN d   1      -3.745   1.986  -2.520  0.00  0.00    -0.031 A 
ATOM      3  C3  DEN d   1      -3.221   3.323  -2.178  0.00  0.00     0.027 A 
ATOM      4  C4  DEN d   1      -0.794   4.190  -2.284  0.00  0.00     0.027 A 
ATOM      5  C5  DEN d   1       0.508   3.850  -2.581  0.00  0.00    -0.003 A 
ATOM      6  C6  DEN d   1       0.859   2.590  -2.987  0.00  0.00     0.001 A 
ATOM      7  C7  DEN d   1      -0.110   1.635  -3.151  0.00  0.00     0.017 A 
ATOM      8  C8  DEN d   1      -1.423   1.968  -2.847  0.00  0.00    -0.094 A 
ATOM      9  C9  DEN d   1      -1.760   3.251  -2.449  0.00  0.00    -0.072 A 
ENDROOT
TORSDOF 0
ENDMDL
