MODEL 1
REMARK minimizedAffinity -4.73691034
REMARK minimizedRMSD -1
REMARK  0 active torsions:
REMARK  status: ('A' for Active; 'I' for Inactive)
ROOT
ATOM      1  C1  DEN d   1       2.143  -1.259   1.981  0.00  0.00     0.130 A 
ATOM      2  C2  DEN d   1       1.569  -1.207   3.323  0.00  0.00    -0.031 A 
ATOM      3  C3  DEN d   1       0.183  -0.712   3.208  0.00  0.00     0.027 A 
ATOM      4  C4  DEN d   1      -1.125  -0.027   1.093  0.00  0.00     0.027 A 
ATOM      5  C5  DEN d   1      -1.054   0.111  -0.276  0.00  0.00    -0.003 A 
ATOM      6  C6  DEN d   1       0.090  -0.163  -0.978  0.00  0.00     0.001 A 
ATOM      7  C7  DEN d   1       1.195  -0.633  -0.320  0.00  0.00     0.017 A 
ATOM      8  C8  DEN d   1       1.133  -0.768   1.061  0.00  0.00    -0.094 A 
ATOM      9  C9  DEN d   1      -0.036  -0.497   1.752  0.00  0.00    -0.072 A 
ENDROOT
TORSDOF 0
ENDMDL
