MODEL 1
REMARK minimizedAffinity -0.510716975
REMARK minimizedRMSD -1
REMARK  0 active torsions:
REMARK  status: ('A' for Active; 'I' for Inactive)
ROOT
ATOM      1  C1  DEN d   1       1.760  -0.597   2.479  0.00  0.00     0.130 A 
ATOM      2  C2  DEN d   1       1.247  -1.598   3.411  0.00  0.00    -0.031 A 
ATOM      3  C3  DEN d   1      -0.120  -1.960   2.984  0.00  0.00     0.027 A 
ATOM      4  C4  DEN d   1      -1.482  -1.076   0.980  0.00  0.00     0.027 A 
ATOM      5  C5  DEN d   1      -1.470  -0.208  -0.090  0.00  0.00    -0.003 A 
ATOM      6  C6  DEN d   1      -0.403   0.609  -0.356  0.00  0.00     0.001 A 
ATOM      7  C7  DEN d   1       0.716   0.542   0.432  0.00  0.00     0.017 A 
ATOM      8  C8  DEN d   1       0.709  -0.325   1.516  0.00  0.00    -0.094 A 
ATOM      9  C9  DEN d   1      -0.375  -1.151   1.761  0.00  0.00    -0.072 A 
ENDROOT
TORSDOF 0
ENDMDL
