MODEL 1
REMARK minimizedAffinity -3.60454774
REMARK minimizedRMSD -1
REMARK  0 active torsions:
REMARK  status: ('A' for Active; 'I' for Inactive)
ROOT
ATOM      1  C1  DEN d   1      -0.887   0.284  -0.919  0.00  0.00     0.130 A 
ATOM      2  C2  DEN d   1      -0.096  -0.125  -2.077  0.00  0.00    -0.031 A 
ATOM      3  C3  DEN d   1       1.196  -0.646  -1.587  0.00  0.00     0.027 A 
ATOM      4  C4  DEN d   1       2.043  -0.861   0.840  0.00  0.00     0.027 A 
ATOM      5  C5  DEN d   1       1.731  -0.634   2.162  0.00  0.00    -0.003 A 
ATOM      6  C6  DEN d   1       0.549  -0.058   2.545  0.00  0.00     0.001 A 
ATOM      7  C7  DEN d   1      -0.385   0.269   1.597  0.00  0.00     0.017 A 
ATOM      8  C8  DEN d   1      -0.075   0.050   0.262  0.00  0.00    -0.094 A 
ATOM      9  C9  DEN d   1       1.121  -0.545  -0.104  0.00  0.00    -0.072 A 
ENDROOT
TORSDOF 0
ENDMDL
