MODEL 1
REMARK minimizedAffinity 4.25061131
REMARK minimizedRMSD -1
REMARK  0 active torsions:
REMARK  status: ('A' for Active; 'I' for Inactive)
ROOT
ATOM      1  C1  DEN d   1       1.014   0.187   3.206  0.00  0.00     0.130 A 
ATOM      2  C2  DEN d   1       1.958  -0.638   2.457  0.00  0.00    -0.031 A 
ATOM      3  C3  DEN d   1       1.207  -1.345   1.400  0.00  0.00     0.027 A 
ATOM      4  C4  DEN d   1      -1.311  -1.238   0.850  0.00  0.00     0.027 A 
ATOM      5  C5  DEN d   1      -2.518  -0.684   1.217  0.00  0.00    -0.003 A 
ATOM      6  C6  DEN d   1      -2.636   0.165   2.285  0.00  0.00     0.001 A 
ATOM      7  C7  DEN d   1      -1.521   0.521   2.997  0.00  0.00     0.017 A 
ATOM      8  C8  DEN d   1      -0.302  -0.039   2.637  0.00  0.00    -0.094 A 
ATOM      9  C9  DEN d   1      -0.201  -0.886   1.547  0.00  0.00    -0.072 A 
ENDROOT
TORSDOF 0
ENDMDL
