MODEL 1
REMARK minimizedAffinity -4.52737617
REMARK minimizedRMSD -1
REMARK  0 active torsions:
REMARK  status: ('A' for Active; 'I' for Inactive)
ROOT
ATOM      1  C1  DEN d   1       2.435  -1.857   1.949  0.00  0.00     0.130 A 
ATOM      2  C2  DEN d   1       3.203  -2.085   0.727  0.00  0.00    -0.031 A 
ATOM      3  C3  DEN d   1       2.477  -1.453  -0.393  0.00  0.00     0.027 A 
ATOM      4  C4  DEN d   1       0.254  -0.146  -0.354  0.00  0.00     0.027 A 
ATOM      5  C5  DEN d   1      -0.773   0.298   0.449  0.00  0.00    -0.003 A 
ATOM      6  C6  DEN d   1      -0.820   0.029   1.791  0.00  0.00     0.001 A 
ATOM      7  C7  DEN d   1       0.203  -0.667   2.379  0.00  0.00     0.017 A 
ATOM      8  C8  DEN d   1       1.238  -1.125   1.575  0.00  0.00    -0.094 A 
ATOM      9  C9  DEN d   1       1.273  -0.832   0.222  0.00  0.00    -0.072 A 
ENDROOT
TORSDOF 0
ENDMDL
