MODEL 1
REMARK minimizedAffinity -2.41315627
REMARK minimizedRMSD -1
REMARK  0 active torsions:
REMARK  status: ('A' for Active; 'I' for Inactive)
ROOT
ATOM      1  C1  DEN d   1       1.803  -0.715   1.675  0.00  0.00     0.130 A 
ATOM      2  C2  DEN d   1       1.317  -0.993   3.024  0.00  0.00    -0.031 A 
ATOM      3  C3  DEN d   1      -0.109  -0.614   3.083  0.00  0.00     0.027 A 
ATOM      4  C4  DEN d   1      -1.605   0.367   1.225  0.00  0.00     0.027 A 
ATOM      5  C5  DEN d   1      -1.636   0.789  -0.085  0.00  0.00    -0.003 A 
ATOM      6  C6  DEN d   1      -0.524   0.771  -0.885  0.00  0.00     0.001 A 
ATOM      7  C7  DEN d   1       0.657   0.280  -0.394  0.00  0.00     0.017 A 
ATOM      8  C8  DEN d   1       0.697  -0.140   0.929  0.00  0.00    -0.094 A 
ATOM      9  C9  DEN d   1      -0.441  -0.126   1.717  0.00  0.00    -0.072 A 
ENDROOT
TORSDOF 0
ENDMDL
