MODEL 1
REMARK minimizedAffinity 14.0204716
REMARK minimizedRMSD -1
REMARK  0 active torsions:
REMARK  status: ('A' for Active; 'I' for Inactive)
ROOT
ATOM      1  C   UNL d   1       4.239   0.394  -0.125  0.00  0.00     0.077 C 
ATOM      2  C1  UNL d   1       3.402   0.425   1.119  0.00  0.00    -0.074 A 
ATOM      3  C2  UNL d   1       2.840  -0.747   1.637  0.00  0.00    -0.005 A 
ATOM      4  C3  UNL d   1       2.072  -0.705   2.800  0.00  0.00     0.006 A 
ATOM      5  C4  UNL d   1       1.858   0.508   3.457  0.00  0.00    -0.005 A 
ATOM      6  C5  UNL d   1       2.412   1.690   2.955  0.00  0.00    -0.074 A 
ATOM      7  C6  UNL d   1       2.199   3.000   3.653  0.00  0.00     0.077 C 
ATOM      8  C7  UNL d   1       3.188   1.638   1.789  0.00  0.00    -0.001 A 
ENDROOT
TORSDOF 0
ENDMDL
