MODEL 1
REMARK minimizedAffinity 11.4471722
REMARK minimizedRMSD -1
REMARK  0 active torsions:
REMARK  status: ('A' for Active; 'I' for Inactive)
ROOT
ATOM      1  C   UNL d   1      -2.455  -5.998  -2.280  0.00  0.00     0.077 C 
ATOM      2  C1  UNL d   1      -3.010  -5.497  -3.580  0.00  0.00    -0.074 A 
ATOM      3  C2  UNL d   1      -2.372  -5.784  -4.791  0.00  0.00    -0.005 A 
ATOM      4  C3  UNL d   1      -2.906  -5.320  -5.994  0.00  0.00     0.006 A 
ATOM      5  C4  UNL d   1      -4.079  -4.565  -5.997  0.00  0.00    -0.005 A 
ATOM      6  C5  UNL d   1      -4.731  -4.269  -4.796  0.00  0.00    -0.074 A 
ATOM      7  C6  UNL d   1      -5.998  -3.468  -4.782  0.00  0.00     0.077 C 
ATOM      8  C7  UNL d   1      -4.193  -4.745  -3.592  0.00  0.00    -0.001 A 
ENDROOT
TORSDOF 0
ENDMDL
