MODEL 1
REMARK minimizedAffinity 3.11100864
REMARK minimizedRMSD -1
REMARK  0 active torsions:
REMARK  status: ('A' for Active; 'I' for Inactive)
ROOT
ATOM      1  C   UNL d   1       5.152  -5.957  -1.936  0.00  0.00     0.077 C 
ATOM      2  C1  UNL d   1       3.687  -5.965  -1.613  0.00  0.00    -0.074 A 
ATOM      3  C2  UNL d   1       2.727  -5.979  -2.630  0.00  0.00    -0.005 A 
ATOM      4  C3  UNL d   1       1.368  -5.996  -2.314  0.00  0.00     0.006 A 
ATOM      5  C4  UNL d   1       0.957  -5.999  -0.980  0.00  0.00    -0.005 A 
ATOM      6  C5  UNL d   1       1.903  -5.986   0.050  0.00  0.00    -0.074 A 
ATOM      7  C6  UNL d   1       1.478  -5.999   1.488  0.00  0.00     0.077 C 
ATOM      8  C7  UNL d   1       3.266  -5.976  -0.276  0.00  0.00    -0.001 A 
ENDROOT
TORSDOF 0
ENDMDL
