MODEL 1
REMARK minimizedAffinity 8.61736202
REMARK minimizedRMSD -1
REMARK  0 active torsions:
REMARK  status: ('A' for Active; 'I' for Inactive)
ROOT
ATOM      1  C   UNL d   1       3.085  -5.997  -4.247  0.00  0.00     0.077 C 
ATOM      2  C1  UNL d   1       3.856  -5.917  -2.963  0.00  0.00    -0.074 A 
ATOM      3  C2  UNL d   1       5.252  -5.991  -2.956  0.00  0.00    -0.005 A 
ATOM      4  C3  UNL d   1       5.956  -5.905  -1.755  0.00  0.00     0.006 A 
ATOM      5  C4  UNL d   1       5.271  -5.746  -0.550  0.00  0.00    -0.005 A 
ATOM      6  C5  UNL d   1       3.875  -5.669  -0.536  0.00  0.00    -0.074 A 
ATOM      7  C6  UNL d   1       3.124  -5.488   0.749  0.00  0.00     0.077 C 
ATOM      8  C7  UNL d   1       3.176  -5.749  -1.748  0.00  0.00    -0.001 A 
ENDROOT
TORSDOF 0
ENDMDL
