MODEL 1
REMARK minimizedAffinity 8.47221375
REMARK minimizedRMSD -1
REMARK  0 active torsions:
REMARK  status: ('A' for Active; 'I' for Inactive)
ROOT
ATOM      1  C   UNL d   1       1.682  -5.835  -1.198  0.00  0.00     0.077 C 
ATOM      2  C1  UNL d   1       3.106  -5.862  -1.668  0.00  0.00    -0.074 A 
ATOM      3  C2  UNL d   1       4.162  -5.967  -0.757  0.00  0.00    -0.005 A 
ATOM      4  C3  UNL d   1       5.481  -6.000  -1.210  0.00  0.00     0.006 A 
ATOM      5  C4  UNL d   1       5.756  -5.928  -2.576  0.00  0.00    -0.005 A 
ATOM      6  C5  UNL d   1       4.713  -5.824  -3.502  0.00  0.00    -0.074 A 
ATOM      7  C6  UNL d   1       4.992  -5.756  -4.974  0.00  0.00     0.077 C 
ATOM      8  C7  UNL d   1       3.391  -5.798  -3.039  0.00  0.00    -0.001 A 
ENDROOT
TORSDOF 0
ENDMDL
