MODEL 1
REMARK minimizedAffinity 4.45862055
REMARK minimizedRMSD -1
REMARK  0 active torsions:
REMARK  status: ('A' for Active; 'I' for Inactive)
ROOT
ATOM      1  C   UNL d   1       1.463  -5.754  -1.815  0.00  0.00     0.077 C 
ATOM      2  C1  UNL d   1       2.302  -5.846  -3.055  0.00  0.00    -0.074 A 
ATOM      3  C2  UNL d   1       1.710  -5.914  -4.320  0.00  0.00    -0.005 A 
ATOM      4  C3  UNL d   1       2.503  -5.990  -5.465  0.00  0.00     0.006 A 
ATOM      5  C4  UNL d   1       3.895  -5.999  -5.356  0.00  0.00    -0.005 A 
ATOM      6  C5  UNL d   1       4.505  -5.931  -4.100  0.00  0.00    -0.074 A 
ATOM      7  C6  UNL d   1       5.998  -5.930  -3.966  0.00  0.00     0.077 C 
ATOM      8  C7  UNL d   1       3.701  -5.848  -2.955  0.00  0.00    -0.001 A 
ENDROOT
TORSDOF 0
ENDMDL
