MODEL 1
REMARK minimizedAffinity 3.46050763
REMARK minimizedRMSD -1
REMARK  0 active torsions:
REMARK  status: ('A' for Active; 'I' for Inactive)
ROOT
ATOM      1  C   UNL d   1       1.690  -0.307   2.310  0.00  0.00     0.077 C 
ATOM      2  C1  UNL d   1       1.781  -1.310   3.421  0.00  0.00    -0.074 A 
ATOM      3  C2  UNL d   1       1.639  -0.918   4.756  0.00  0.00    -0.005 A 
ATOM      4  C3  UNL d   1       1.715  -1.864   5.778  0.00  0.00     0.006 A 
ATOM      5  C4  UNL d   1       1.935  -3.209   5.476  0.00  0.00    -0.005 A 
ATOM      6  C5  UNL d   1       2.078  -3.619   4.147  0.00  0.00    -0.074 A 
ATOM      7  C6  UNL d   1       2.305  -5.062   3.805  0.00  0.00     0.077 C 
ATOM      8  C7  UNL d   1       1.993  -2.664   3.125  0.00  0.00    -0.001 A 
ENDROOT
TORSDOF 0
ENDMDL
