MODEL 1
REMARK minimizedAffinity 5.65011978
REMARK minimizedRMSD -1
REMARK  0 active torsions:
REMARK  status: ('A' for Active; 'I' for Inactive)
ROOT
ATOM      1  C   UNL d   1      -1.845   0.073  -3.200  0.00  0.00     0.077 C 
ATOM      2  C1  UNL d   1      -0.948  -0.176  -2.024  0.00  0.00    -0.074 A 
ATOM      3  C2  UNL d   1      -0.673  -1.478  -1.593  0.00  0.00    -0.005 A 
ATOM      4  C3  UNL d   1       0.170  -1.694  -0.503  0.00  0.00     0.006 A 
ATOM      5  C4  UNL d   1       0.747  -0.613   0.164  0.00  0.00    -0.005 A 
ATOM      6  C5  UNL d   1       0.485   0.695  -0.254  0.00  0.00    -0.074 A 
ATOM      7  C6  UNL d   1       1.105   1.868   0.446  0.00  0.00     0.077 C 
ATOM      8  C7  UNL d   1      -0.358   0.904  -1.354  0.00  0.00    -0.001 A 
ENDROOT
TORSDOF 0
ENDMDL
