MODEL 1
REMARK minimizedAffinity 4.5304203
REMARK minimizedRMSD -1
REMARK  0 active torsions:
REMARK  status: ('A' for Active; 'I' for Inactive)
ROOT
ATOM      1  C4' PXY d   1       4.327  -2.565   3.471  0.00  0.00     0.077 C 
ATOM      2  C1' PXY d   1       1.349  -1.760  -1.418  0.00  0.00     0.077 C 
ATOM      3  C1  PXY d   1       2.128  -1.959  -0.132  0.00  0.00    -0.082 A 
ATOM      4  C2  PXY d   1       3.067  -2.889  -0.073  0.00  0.00     0.003 A 
ATOM      5  C3  PXY d   1       3.758  -3.104   1.091  0.00  0.00     0.003 A 
ATOM      6  C4  PXY d   1       3.523  -2.322   2.191  0.00  0.00    -0.082 A 
ATOM      7  C5  PXY d   1       2.574  -1.364   2.135  0.00  0.00     0.003 A 
ATOM      8  C6  PXY d   1       1.854  -1.190   0.956  0.00  0.00     0.003 A 
ENDROOT
TORSDOF 0
ENDMDL
