MODEL 1
REMARK minimizedAffinity 3.42805862
REMARK minimizedRMSD -1
REMARK  0 active torsions:
REMARK  status: ('A' for Active; 'I' for Inactive)
ROOT
ATOM      1  C4' PXY d   1       3.395  -1.994   3.863  0.00  0.00     0.077 C 
ATOM      2  C1' PXY d   1       0.487  -0.847  -0.999  0.00  0.00     0.077 C 
ATOM      3  C1  PXY d   1       1.240  -1.142   0.283  0.00  0.00    -0.082 A 
ATOM      4  C2  PXY d   1       2.549  -1.331   0.244  0.00  0.00     0.003 A 
ATOM      5  C3  PXY d   1       3.241  -1.630   1.389  0.00  0.00     0.003 A 
ATOM      6  C4  PXY d   1       2.595  -1.684   2.595  0.00  0.00    -0.082 A 
ATOM      7  C5  PXY d   1       1.261  -1.482   2.645  0.00  0.00     0.003 A 
ATOM      8  C6  PXY d   1       0.571  -1.221   1.465  0.00  0.00     0.003 A 
ENDROOT
TORSDOF 0
ENDMDL
