MODEL 1
REMARK minimizedAffinity 5.99613047
REMARK minimizedRMSD -1
REMARK  0 active torsions:
REMARK  status: ('A' for Active; 'I' for Inactive)
ROOT
ATOM      1  C4' PXY d   1       1.178  -3.834   1.740  0.00  0.00     0.077 C 
ATOM      2  C1' PXY d   1       6.000  -5.798  -0.771  0.00  0.00     0.077 C 
ATOM      3  C1  PXY d   1       4.738  -5.291  -0.102  0.00  0.00    -0.082 A 
ATOM      4  C2  PXY d   1       3.745  -4.827  -0.844  0.00  0.00     0.003 A 
ATOM      5  C3  PXY d   1       2.610  -4.334  -0.254  0.00  0.00     0.003 A 
ATOM      6  C4  PXY d   1       2.467  -4.366   1.107  0.00  0.00    -0.082 A 
ATOM      7  C5  PXY d   1       3.471  -4.847   1.871  0.00  0.00     0.003 A 
ATOM      8  C6  PXY d   1       4.632  -5.305   1.254  0.00  0.00     0.003 A 
ENDROOT
TORSDOF 0
ENDMDL
