MODEL 1
REMARK minimizedAffinity 5.71160126
REMARK minimizedRMSD -1
REMARK  0 active torsions:
REMARK  status: ('A' for Active; 'I' for Inactive)
ROOT
ATOM      1  C4' PXY d   1       4.244   4.513  -0.519  0.00  0.00     0.077 C 
ATOM      2  C1' PXY d   1       5.724  -0.914   0.811  0.00  0.00     0.077 C 
ATOM      3  C1  PXY d   1       5.334   0.506   0.450  0.00  0.00    -0.082 A 
ATOM      4  C2  PXY d   1       5.767   1.512   1.192  0.00  0.00     0.003 A 
ATOM      5  C3  PXY d   1       5.398   2.799   0.898  0.00  0.00     0.003 A 
ATOM      6  C4  PXY d   1       4.620   3.064  -0.197  0.00  0.00    -0.082 A 
ATOM      7  C5  PXY d   1       4.183   2.044  -0.965  0.00  0.00     0.003 A 
ATOM      8  C6  PXY d   1       4.535   0.741  -0.626  0.00  0.00     0.003 A 
ENDROOT
TORSDOF 0
ENDMDL
