MODEL 1
REMARK minimizedAffinity -3.25524545
REMARK minimizedRMSD -1
REMARK  0 active torsions:
REMARK  status: ('A' for Active; 'I' for Inactive)
ROOT
ATOM      1  C4' PXY d   1       2.483  -3.709   1.382  0.00  0.00     0.077 C 
ATOM      2  C1' PXY d   1      -1.295   0.666   1.281  0.00  0.00     0.077 C 
ATOM      3  C1  PXY d   1      -0.305  -0.483   1.295  0.00  0.00    -0.082 A 
ATOM      4  C2  PXY d   1      -0.134  -1.185   2.403  0.00  0.00     0.003 A 
ATOM      5  C3  PXY d   1       0.780  -2.207   2.442  0.00  0.00     0.003 A 
ATOM      6  C4  PXY d   1       1.488  -2.547   1.320  0.00  0.00    -0.082 A 
ATOM      7  C5  PXY d   1       1.310  -1.842   0.182  0.00  0.00     0.003 A 
ATOM      8  C6  PXY d   1       0.408  -0.782   0.175  0.00  0.00     0.003 A 
ENDROOT
TORSDOF 0
ENDMDL
