MODEL 1
REMARK minimizedAffinity 4.89096642
REMARK minimizedRMSD -1
REMARK  0 active torsions:
REMARK  status: ('A' for Active; 'I' for Inactive)
ROOT
ATOM      1  C4' PXY d   1       3.489   0.944  -0.059  0.00  0.00     0.077 C 
ATOM      2  C1' PXY d   1       5.862   6.000   1.431  0.00  0.00     0.077 C 
ATOM      3  C1  PXY d   1       5.252   4.668   1.041  0.00  0.00    -0.082 A 
ATOM      4  C2  PXY d   1       4.154   4.642   0.303  0.00  0.00     0.003 A 
ATOM      5  C3  PXY d   1       3.571   3.447  -0.032  0.00  0.00     0.003 A 
ATOM      6  C4  PXY d   1       4.146   2.265   0.350  0.00  0.00    -0.082 A 
ATOM      7  C5  PXY d   1       5.272   2.282   1.094  0.00  0.00     0.003 A 
ATOM      8  C6  PXY d   1       5.825   3.506   1.458  0.00  0.00     0.003 A 
ENDROOT
TORSDOF 0
ENDMDL
