MODEL 1
REMARK minimizedAffinity -4.77230501
REMARK minimizedRMSD -1
REMARK  0 active torsions:
REMARK  status: ('A' for Active; 'I' for Inactive)
ROOT
ATOM      1  C4' PXY d   1       0.393  -0.738   2.642  0.00  0.00     0.077 C 
ATOM      2  C1' PXY d   1       4.278  -5.011   2.383  0.00  0.00     0.077 C 
ATOM      3  C1  PXY d   1       3.256  -3.892   2.439  0.00  0.00    -0.082 A 
ATOM      4  C2  PXY d   1       3.373  -2.944   3.355  0.00  0.00     0.003 A 
ATOM      5  C3  PXY d   1       2.440  -1.943   3.439  0.00  0.00     0.003 A 
ATOM      6  C4  PXY d   1       1.407  -1.882   2.543  0.00  0.00    -0.082 A 
ATOM      7  C5  PXY d   1       1.286  -2.839   1.599  0.00  0.00     0.003 A 
ATOM      8  C6  PXY d   1       2.221  -3.870   1.556  0.00  0.00     0.003 A 
ENDROOT
TORSDOF 0
ENDMDL
