MODEL 1
REMARK minimizedAffinity 1.85279
REMARK minimizedRMSD -1
REMARK  0 active torsions:
REMARK  status: ('A' for Active; 'I' for Inactive)
ROOT
ATOM      1  C4' PXY d   1       3.534   5.331  -6.000  0.00  0.00     0.077 C 
ATOM      2  C1' PXY d   1       5.771   0.041  -5.343  0.00  0.00     0.077 C 
ATOM      3  C1  PXY d   1       5.194   1.433  -5.508  0.00  0.00    -0.082 A 
ATOM      4  C2  PXY d   1       3.905   1.580  -5.770  0.00  0.00     0.003 A 
ATOM      5  C3  PXY d   1       3.373   2.831  -5.954  0.00  0.00     0.003 A 
ATOM      6  C4  PXY d   1       4.158   3.944  -5.816  0.00  0.00    -0.082 A 
ATOM      7  C5  PXY d   1       5.471   3.803  -5.538  0.00  0.00     0.003 A 
ATOM      8  C6  PXY d   1       6.000   2.523  -5.396  0.00  0.00     0.003 A 
ENDROOT
TORSDOF 0
ENDMDL
