MODEL 1
REMARK minimizedAffinity -0.0234031044
REMARK minimizedRMSD -1
REMARK  0 active torsions:
REMARK  status: ('A' for Active; 'I' for Inactive)
ROOT
ATOM      1  C4' PXY d   1      -5.998   1.518  -4.927  0.00  0.00     0.077 C 
ATOM      2  C1' PXY d   1      -1.348  -1.913  -4.813  0.00  0.00     0.077 C 
ATOM      3  C1  PXY d   1      -2.560  -1.004  -4.850  0.00  0.00    -0.082 A 
ATOM      4  C2  PXY d   1      -3.509  -1.142  -3.937  0.00  0.00     0.003 A 
ATOM      5  C3  PXY d   1      -4.627  -0.350  -3.974  0.00  0.00     0.003 A 
ATOM      6  C4  PXY d   1      -4.752   0.629  -4.923  0.00  0.00    -0.082 A 
ATOM      7  C5  PXY d   1      -3.784   0.783  -5.851  0.00  0.00     0.003 A 
ATOM      8  C6  PXY d   1      -2.675  -0.059  -5.821  0.00  0.00     0.003 A 
ENDROOT
TORSDOF 0
ENDMDL
