MODEL 1
REMARK minimizedAffinity 0.326312661
REMARK minimizedRMSD -1
REMARK  0 active torsions:
REMARK  status: ('A' for Active; 'I' for Inactive)
ROOT
ATOM      1  C   UNL d   1      -0.207   1.902   0.246  0.00  0.00     0.172 C 
ATOM      2  N   UNL d   1      -0.095   0.463   0.291  0.00  0.00    -0.070 N 
ATOM      3  C1  UNL d   1       1.053  -0.255   0.092  0.00  0.00    -0.004 A 
ATOM      4  C2  UNL d   1       0.742  -1.592   0.218  0.00  0.00    -0.047 A 
ATOM      5  C3  UNL d   1      -0.641  -1.680   0.503  0.00  0.00    -0.047 A 
ATOM      6  C4  UNL d   1      -1.135  -0.393   0.542  0.00  0.00    -0.004 A 
ENDROOT
TORSDOF 0
ENDMDL
