MODEL 1
REMARK minimizedAffinity -0.468428522
REMARK minimizedRMSD -1
REMARK  0 active torsions:
REMARK  status: ('A' for Active; 'I' for Inactive)
ROOT
ATOM      1  C   UNL d   1      -0.681  -0.323  -0.698  0.00  0.00     0.172 C 
ATOM      2  N   UNL d   1      -1.469  -0.402  -1.905  0.00  0.00    -0.070 N 
ATOM      3  C1  UNL d   1      -2.318  -1.424  -2.239  0.00  0.00    -0.004 A 
ATOM      4  C2  UNL d   1      -2.878  -1.125  -3.462  0.00  0.00    -0.047 A 
ATOM      5  C3  UNL d   1      -2.346   0.118  -3.879  0.00  0.00    -0.047 A 
ATOM      6  C4  UNL d   1      -1.477   0.543  -2.896  0.00  0.00    -0.004 A 
ENDROOT
TORSDOF 0
ENDMDL
