MODEL 1
REMARK minimizedAffinity -2.21983457
REMARK minimizedRMSD -1
REMARK  0 active torsions:
REMARK  status: ('A' for Active; 'I' for Inactive)
ROOT
ATOM      1  C   UNL d   1      -0.247  -0.634  -0.095  0.00  0.00     0.172 C 
ATOM      2  N   UNL d   1       1.019  -0.261   0.491  0.00  0.00    -0.070 N 
ATOM      3  C1  UNL d   1       1.262   0.883   1.204  0.00  0.00    -0.004 A 
ATOM      4  C2  UNL d   1       2.586   0.866   1.589  0.00  0.00    -0.047 A 
ATOM      5  C3  UNL d   1       3.157  -0.328   1.089  0.00  0.00    -0.047 A 
ATOM      6  C4  UNL d   1       2.165  -1.007   0.413  0.00  0.00    -0.004 A 
ENDROOT
TORSDOF 0
ENDMDL
