MODEL 1
REMARK minimizedAffinity -2.66436052
REMARK minimizedRMSD -1
REMARK  0 active torsions:
REMARK  status: ('A' for Active; 'I' for Inactive)
ROOT
ATOM      1  C   UNL d   1       2.843   0.563   1.872  0.00  0.00     0.172 C 
ATOM      2  N   UNL d   1       1.590   0.169   1.271  0.00  0.00    -0.070 N 
ATOM      3  C1  UNL d   1       0.944   0.832   0.263  0.00  0.00    -0.004 A 
ATOM      4  C2  UNL d   1      -0.212   0.139  -0.027  0.00  0.00    -0.047 A 
ATOM      5  C3  UNL d   1      -0.262  -0.979   0.839  0.00  0.00    -0.047 A 
ATOM      6  C4  UNL d   1       0.865  -0.937   1.631  0.00  0.00    -0.004 A 
ENDROOT
TORSDOF 0
ENDMDL
