MODEL 1
REMARK minimizedAffinity -1.94989967
REMARK minimizedRMSD -1
REMARK  0 active torsions:
REMARK  status: ('A' for Active; 'I' for Inactive)
ROOT
ATOM      1  C   UNL d   1       3.142  -0.596   0.373  0.00  0.00     0.172 C 
ATOM      2  N   UNL d   1       1.708  -0.485   0.244  0.00  0.00    -0.070 N 
ATOM      3  C1  UNL d   1       1.026   0.636  -0.148  0.00  0.00    -0.004 A 
ATOM      4  C2  UNL d   1      -0.318   0.334  -0.144  0.00  0.00    -0.047 A 
ATOM      5  C3  UNL d   1      -0.449  -1.014   0.266  0.00  0.00    -0.047 A 
ATOM      6  C4  UNL d   1       0.821  -1.497   0.499  0.00  0.00    -0.004 A 
ENDROOT
TORSDOF 0
ENDMDL
