MODEL 1
REMARK minimizedAffinity -3.66426945
REMARK minimizedRMSD -1
REMARK  0 active torsions:
REMARK  status: ('A' for Active; 'I' for Inactive)
ROOT
ATOM      1  C   UNL d   1       0.332   2.539   0.926  0.00  0.00     0.172 C 
ATOM      2  N   UNL d   1       1.157   1.392   0.631  0.00  0.00    -0.070 N 
ATOM      3  C1  UNL d   1       0.893   0.441  -0.319  0.00  0.00    -0.004 A 
ATOM      4  C2  UNL d   1       1.917  -0.481  -0.289  0.00  0.00    -0.047 A 
ATOM      5  C3  UNL d   1       2.827  -0.071   0.714  0.00  0.00    -0.047 A 
ATOM      6  C4  UNL d   1       2.333   1.091   1.267  0.00  0.00    -0.004 A 
ENDROOT
TORSDOF 0
ENDMDL
