MODEL 1
REMARK minimizedAffinity -3.62866259
REMARK minimizedRMSD -1
REMARK  0 active torsions:
REMARK  status: ('A' for Active; 'I' for Inactive)
ROOT
ATOM      1  C   UNL d   1       0.042   0.262  -0.042  0.00  0.00     0.172 C 
ATOM      2  N   UNL d   1       1.351  -0.235   0.310  0.00  0.00    -0.070 N 
ATOM      3  C1  UNL d   1       2.191   0.317   1.240  0.00  0.00    -0.004 A 
ATOM      4  C2  UNL d   1       3.336  -0.449   1.281  0.00  0.00    -0.047 A 
ATOM      5  C3  UNL d   1       3.179  -1.497   0.343  0.00  0.00    -0.047 A 
ATOM      6  C4  UNL d   1       1.941  -1.341  -0.243  0.00  0.00    -0.004 A 
ENDROOT
TORSDOF 0
ENDMDL
