MODEL 1
REMARK minimizedAffinity -2.25720429
REMARK minimizedRMSD -1
REMARK  0 active torsions:
REMARK  status: ('A' for Active; 'I' for Inactive)
ROOT
ATOM      1  C   UNL d   1      -0.747   0.136   0.105  0.00  0.00     0.172 C 
ATOM      2  N   UNL d   1       0.670   0.365   0.265  0.00  0.00    -0.070 N 
ATOM      3  C1  UNL d   1       1.241   1.484   0.810  0.00  0.00    -0.004 A 
ATOM      4  C2  UNL d   1       2.609   1.316   0.783  0.00  0.00    -0.047 A 
ATOM      5  C3  UNL d   1       2.868   0.053   0.201  0.00  0.00    -0.047 A 
ATOM      6  C4  UNL d   1       1.651  -0.515  -0.110  0.00  0.00    -0.004 A 
ENDROOT
TORSDOF 0
ENDMDL
