MODEL 1
REMARK minimizedAffinity -3.48940253
REMARK minimizedRMSD -1
REMARK  0 active torsions:
REMARK  status: ('A' for Active; 'I' for Inactive)
ROOT
ATOM      1  C   UNL d   1       0.033   1.754   0.354  0.00  0.00     0.172 C 
ATOM      2  N   UNL d   1       0.706   0.482   0.475  0.00  0.00    -0.070 N 
ATOM      3  C1  UNL d   1       0.096  -0.742   0.540  0.00  0.00    -0.004 A 
ATOM      4  C2  UNL d   1       1.081  -1.699   0.651  0.00  0.00    -0.047 A 
ATOM      5  C3  UNL d   1       2.326  -1.027   0.654  0.00  0.00    -0.047 A 
ATOM      6  C4  UNL d   1       2.065   0.322   0.544  0.00  0.00    -0.004 A 
ENDROOT
TORSDOF 0
ENDMDL
