MODEL 1
REMARK minimizedAffinity -5.55483818
REMARK minimizedRMSD -1
REMARK  0 active torsions:
REMARK  status: ('A' for Active; 'I' for Inactive)
ROOT
ATOM      1  C   UNL d   1      -1.810   2.860   1.147  0.00  0.00    -0.002 A 
ATOM      2  C1  UNL d   1      -1.184   3.252  -0.027  0.00  0.00     0.010 A 
ATOM      3  C2  UNL d   1      -0.384   2.355  -0.739  0.00  0.00     0.041 A 
ATOM      4  C3  UNL d   1      -0.225   1.045  -0.246  0.00  0.00    -0.075 A 
ATOM      5  S   UNL d   1       0.707  -0.224  -0.950  0.00  0.00     0.015 SA
ATOM      6  C4  UNL d   1       0.294  -1.316   0.292  0.00  0.00     0.022 A 
ATOM      7  C5  UNL d   1      -0.533  -0.743   1.229  0.00  0.00     0.026 A 
ATOM      8  C6  UNL d   1      -0.846   0.627   0.934  0.00  0.00    -0.082 A 
ATOM      9  C7  UNL d   1      -1.650   1.560   1.633  0.00  0.00     0.045 A 
ENDROOT
TORSDOF 0
ENDMDL
