MODEL 1
REMARK minimizedAffinity -0.780936956
REMARK minimizedRMSD -1
REMARK  0 active torsions:
REMARK  status: ('A' for Active; 'I' for Inactive)
ROOT
ATOM      1  C   UNL d   1      -1.409   0.714   2.304  0.00  0.00    -0.002 A 
ATOM      2  C1  UNL d   1      -1.132   1.882   1.608  0.00  0.00     0.010 A 
ATOM      3  C2  UNL d   1      -0.342   1.852   0.457  0.00  0.00     0.041 A 
ATOM      4  C3  UNL d   1       0.168   0.616   0.012  0.00  0.00    -0.075 A 
ATOM      5  S   UNL d   1       1.157   0.338  -1.373  0.00  0.00     0.015 SA
ATOM      6  C4  UNL d   1       1.233  -1.338  -1.073  0.00  0.00     0.022 A 
ATOM      7  C5  UNL d   1       0.527  -1.694   0.051  0.00  0.00     0.026 A 
ATOM      8  C6  UNL d   1      -0.099  -0.573   0.695  0.00  0.00    -0.082 A 
ATOM      9  C7  UNL d   1      -0.902  -0.510   1.859  0.00  0.00     0.045 A 
ENDROOT
TORSDOF 0
ENDMDL
