MODEL 1
REMARK minimizedAffinity -3.54188991
REMARK minimizedRMSD -1
REMARK  0 active torsions:
REMARK  status: ('A' for Active; 'I' for Inactive)
ROOT
ATOM      1  C   UNL d   1      -1.609   3.264   1.172  0.00  0.00    -0.002 A 
ATOM      2  C1  UNL d   1      -0.942   3.695   0.034  0.00  0.00     0.010 A 
ATOM      3  C2  UNL d   1      -0.195   2.800  -0.734  0.00  0.00     0.041 A 
ATOM      4  C3  UNL d   1      -0.130   1.450  -0.336  0.00  0.00    -0.075 A 
ATOM      5  S   UNL d   1       0.723   0.174  -1.122  0.00  0.00     0.015 SA
ATOM      6  C4  UNL d   1       0.222  -0.973   0.034  0.00  0.00     0.022 A 
ATOM      7  C5  UNL d   1      -0.577  -0.414   1.003  0.00  0.00     0.026 A 
ATOM      8  C6  UNL d   1      -0.794   0.992   0.806  0.00  0.00    -0.082 A 
ATOM      9  C7  UNL d   1      -1.542   1.924   1.564  0.00  0.00     0.045 A 
ENDROOT
TORSDOF 0
ENDMDL
