MODEL 1
REMARK minimizedAffinity -3.86755252
REMARK minimizedRMSD -1
REMARK  0 active torsions:
REMARK  status: ('A' for Active; 'I' for Inactive)
ROOT
ATOM      1  C   UNL d   1      -2.743   2.943   1.160  0.00  0.00    -0.002 A 
ATOM      2  C1  UNL d   1      -1.606   3.552   0.649  0.00  0.00     0.010 A 
ATOM      3  C2  UNL d   1      -0.448   2.808   0.412  0.00  0.00     0.041 A 
ATOM      4  C3  UNL d   1      -0.453   1.429   0.698  0.00  0.00    -0.075 A 
ATOM      5  S   UNL d   1       0.849   0.319   0.487  0.00  0.00     0.015 SA
ATOM      6  C4  UNL d   1      -0.074  -0.990   1.069  0.00  0.00     0.022 A 
ATOM      7  C5  UNL d   1      -1.347  -0.608   1.420  0.00  0.00     0.026 A 
ATOM      8  C6  UNL d   1      -1.587   0.793   1.212  0.00  0.00    -0.082 A 
ATOM      9  C7  UNL d   1      -2.745   1.574   1.442  0.00  0.00     0.045 A 
ENDROOT
TORSDOF 0
ENDMDL
