MODEL 1
REMARK minimizedAffinity -3.42980456
REMARK minimizedRMSD -1
REMARK  0 active torsions:
REMARK  status: ('A' for Active; 'I' for Inactive)
ROOT
ATOM      1  C   UNL d   1      -0.672   3.803   0.285  0.00  0.00    -0.002 A 
ATOM      2  C1  UNL d   1       0.192   3.362  -0.707  0.00  0.00     0.010 A 
ATOM      3  C2  UNL d   1       0.577   2.021  -0.770  0.00  0.00     0.041 A 
ATOM      4  C3  UNL d   1       0.071   1.121   0.189  0.00  0.00    -0.075 A 
ATOM      5  S   UNL d   1       0.402  -0.566   0.308  0.00  0.00     0.015 SA
ATOM      6  C4  UNL d   1      -0.597  -0.742   1.677  0.00  0.00     0.022 A 
ATOM      7  C5  UNL d   1      -1.177   0.448   2.049  0.00  0.00     0.026 A 
ATOM      8  C6  UNL d   1      -0.802   1.541   1.197  0.00  0.00    -0.082 A 
ATOM      9  C7  UNL d   1      -1.172   2.907   1.234  0.00  0.00     0.045 A 
ENDROOT
TORSDOF 0
ENDMDL
