MODEL 1
REMARK minimizedAffinity -4.82046413
REMARK minimizedRMSD -1
REMARK  0 active torsions:
REMARK  status: ('A' for Active; 'I' for Inactive)
ROOT
ATOM      1  C   UNL d   1      -1.950   3.045   1.301  0.00  0.00    -0.002 A 
ATOM      2  C1  UNL d   1      -1.528   3.479   0.053  0.00  0.00     0.010 A 
ATOM      3  C2  UNL d   1      -0.725   2.665  -0.748  0.00  0.00     0.041 A 
ATOM      4  C3  UNL d   1      -0.351   1.394  -0.270  0.00  0.00    -0.075 A 
ATOM      5  S   UNL d   1       0.626   0.226  -1.077  0.00  0.00     0.015 SA
ATOM      6  C4  UNL d   1       0.505  -0.879   0.216  0.00  0.00     0.022 A 
ATOM      7  C5  UNL d   1      -0.258  -0.384   1.246  0.00  0.00     0.026 A 
ATOM      8  C6  UNL d   1      -0.765   0.934   0.983  0.00  0.00    -0.082 A 
ATOM      9  C7  UNL d   1      -1.578   1.783   1.772  0.00  0.00     0.045 A 
ENDROOT
TORSDOF 0
ENDMDL
