MODEL 1
REMARK minimizedAffinity -4.22143888
REMARK minimizedRMSD -1
REMARK  0 active torsions:
REMARK  status: ('A' for Active; 'I' for Inactive)
ROOT
ATOM      1  C   UNL d   1      -1.843   2.654   1.195  0.00  0.00    -0.002 A 
ATOM      2  C1  UNL d   1      -1.225   3.475   0.262  0.00  0.00     0.010 A 
ATOM      3  C2  UNL d   1      -0.244   2.967  -0.592  0.00  0.00     0.041 A 
ATOM      4  C3  UNL d   1       0.107   1.606  -0.494  0.00  0.00    -0.075 A 
ATOM      5  S   UNL d   1       1.279   0.764  -1.436  0.00  0.00     0.015 SA
ATOM      6  C4  UNL d   1       0.986  -0.705  -0.624  0.00  0.00     0.022 A 
ATOM      7  C5  UNL d   1       0.021  -0.575   0.346  0.00  0.00     0.026 A 
ATOM      8  C6  UNL d   1      -0.503   0.759   0.437  0.00  0.00    -0.082 A 
ATOM      9  C7  UNL d   1      -1.492   1.305   1.289  0.00  0.00     0.045 A 
ENDROOT
TORSDOF 0
ENDMDL
