MODEL 1
REMARK minimizedAffinity -5.0259676
REMARK minimizedRMSD -1
REMARK  0 active torsions:
REMARK  status: ('A' for Active; 'I' for Inactive)
ROOT
ATOM      1  C   UNL d   1      -2.134   2.868   0.990  0.00  0.00    -0.002 A 
ATOM      2  C1  UNL d   1      -1.357   3.393  -0.033  0.00  0.00     0.010 A 
ATOM      3  C2  UNL d   1      -0.376   2.616  -0.650  0.00  0.00     0.041 A 
ATOM      4  C3  UNL d   1      -0.187   1.288  -0.219  0.00  0.00    -0.075 A 
ATOM      5  S   UNL d   1       0.955   0.150  -0.829  0.00  0.00     0.015 SA
ATOM      6  C4  UNL d   1       0.439  -1.061   0.253  0.00  0.00     0.022 A 
ATOM      7  C5  UNL d   1      -0.579  -0.624   1.068  0.00  0.00     0.026 A 
ATOM      8  C6  UNL d   1      -0.957   0.737   0.809  0.00  0.00    -0.082 A 
ATOM      9  C7  UNL d   1      -1.944   1.551   1.415  0.00  0.00     0.045 A 
ENDROOT
TORSDOF 0
ENDMDL
