MODEL 1
REMARK minimizedAffinity -5.3696847
REMARK minimizedRMSD -1
REMARK  0 active torsions:
REMARK  status: ('A' for Active; 'I' for Inactive)
ROOT
ATOM      1  C   UNL d   1      -0.428   3.783   0.379  0.00  0.00    -0.002 A 
ATOM      2  C1  UNL d   1      -1.231   3.207   1.353  0.00  0.00     0.010 A 
ATOM      3  C2  UNL d   1      -1.269   1.820   1.514  0.00  0.00     0.041 A 
ATOM      4  C3  UNL d   1      -0.477   1.015   0.672  0.00  0.00    -0.075 A 
ATOM      5  S   UNL d   1      -0.361  -0.705   0.687  0.00  0.00     0.015 SA
ATOM      6  C4  UNL d   1       0.758  -0.715  -0.599  0.00  0.00     0.022 A 
ATOM      7  C5  UNL d   1       1.047   0.554  -1.041  0.00  0.00     0.026 A 
ATOM      8  C6  UNL d   1       0.341   1.572  -0.316  0.00  0.00    -0.082 A 
ATOM      9  C7  UNL d   1       0.356   2.981  -0.454  0.00  0.00     0.045 A 
ENDROOT
TORSDOF 0
ENDMDL
