MODEL 1
REMARK minimizedAffinity -4.22272015
REMARK minimizedRMSD -1
REMARK  0 active torsions:
REMARK  status: ('A' for Active; 'I' for Inactive)
ROOT
ATOM      1  C   UNL d   1      -1.409   3.185   0.067  0.00  0.00    -0.002 A 
ATOM      2  C1  UNL d   1      -1.828   2.830   1.341  0.00  0.00     0.010 A 
ATOM      3  C2  UNL d   1      -1.525   1.572   1.864  0.00  0.00     0.041 A 
ATOM      4  C3  UNL d   1      -0.785   0.667   1.078  0.00  0.00    -0.075 A 
ATOM      5  S   UNL d   1      -0.297  -0.929   1.511  0.00  0.00     0.015 SA
ATOM      6  C4  UNL d   1       0.480  -1.177   0.014  0.00  0.00     0.022 A 
ATOM      7  C5  UNL d   1       0.379  -0.080  -0.808  0.00  0.00     0.026 A 
ATOM      8  C6  UNL d   1      -0.351   1.001  -0.208  0.00  0.00    -0.082 A 
ATOM      9  C7  UNL d   1      -0.675   2.284  -0.711  0.00  0.00     0.045 A 
ENDROOT
TORSDOF 0
ENDMDL
