MODEL 1
REMARK minimizedAffinity -1.40697563
REMARK minimizedRMSD -1
REMARK  1 active torsions:
REMARK  status: ('A' for Active; 'I' for Inactive)
REMARK    1  A    between atoms: C3_4  and  O_7 
ROOT
ATOM      1  C   UNL d   1      -4.387   5.118  -3.671  0.00  0.00    -0.033 A 
ATOM      2  C1  UNL d   1      -4.480   4.453  -2.447  0.00  0.00     0.039 A 
ATOM      3  C2  UNL d   1      -4.052   3.128  -2.335  0.00  0.00    -0.080 A 
ATOM      4  C3  UNL d   1      -3.533   2.481  -3.454  0.00  0.00     0.150 A 
ATOM      5  C4  UNL d   1      -3.434   3.139  -4.675  0.00  0.00    -0.007 A 
ATOM      6  C5  UNL d   1      -3.863   4.461  -4.785  0.00  0.00     0.039 A 
ENDROOT
BRANCH   4   7
ATOM      7  O   UNL d   1      -3.108   1.188  -3.395  0.00  0.00    -0.526 OA
ATOM      8  H5  UNL d   1      -3.264   0.853  -2.496  0.00  0.00     0.418 HD
ENDBRANCH   4   7
TORSDOF 1
ENDMDL
