MODEL 1
REMARK minimizedAffinity 1.70706058
REMARK minimizedRMSD -1
REMARK  1 active torsions:
REMARK  status: ('A' for Active; 'I' for Inactive)
REMARK    1  A    between atoms: C3_4  and  O_7 
ROOT
ATOM      1  C   UNL d   1       2.559  -2.692   3.641  0.00  0.00    -0.033 A 
ATOM      2  C1  UNL d   1       1.750  -1.964   2.766  0.00  0.00     0.039 A 
ATOM      3  C2  UNL d   1       1.302  -0.690   3.124  0.00  0.00    -0.080 A 
ATOM      4  C3  UNL d   1       1.672  -0.157   4.355  0.00  0.00     0.150 A 
ATOM      5  C4  UNL d   1       2.481  -0.875   5.229  0.00  0.00    -0.007 A 
ATOM      6  C5  UNL d   1       2.926  -2.147   4.871  0.00  0.00     0.039 A 
ENDROOT
BRANCH   4   7
ATOM      7  O   UNL d   1       1.256   1.080   4.749  0.00  0.00    -0.526 OA
ATOM      8  H5  UNL d   1       0.680   1.447   4.057  0.00  0.00     0.418 HD
ENDBRANCH   4   7
TORSDOF 1
ENDMDL
