MODEL 1
REMARK minimizedAffinity 4.81892538
REMARK minimizedRMSD -1
REMARK  1 active torsions:
REMARK  status: ('A' for Active; 'I' for Inactive)
REMARK    1  A    between atoms: C3_4  and  O_7 
ROOT
ATOM      1  C   UNL d   1      -1.539  -4.102   0.637  0.00  0.00    -0.033 A 
ATOM      2  C1  UNL d   1      -2.011  -4.024  -0.675  0.00  0.00     0.039 A 
ATOM      3  C2  UNL d   1      -1.130  -4.180  -1.747  0.00  0.00    -0.080 A 
ATOM      4  C3  UNL d   1       0.219  -4.414  -1.493  0.00  0.00     0.150 A 
ATOM      5  C4  UNL d   1       0.695  -4.496  -0.189  0.00  0.00    -0.007 A 
ATOM      6  C5  UNL d   1      -0.186  -4.340   0.879  0.00  0.00     0.039 A 
ENDROOT
BRANCH   4   7
ATOM      7  O   UNL d   1       1.118  -4.567  -2.507  0.00  0.00    -0.526 OA
ATOM      8  H5  UNL d   1       0.651  -4.457  -3.352  0.00  0.00     0.418 HD
ENDBRANCH   4   7
TORSDOF 1
ENDMDL
