MODEL 1
REMARK minimizedAffinity 1.03203857
REMARK minimizedRMSD -1
REMARK  1 active torsions:
REMARK  status: ('A' for Active; 'I' for Inactive)
REMARK    1  A    between atoms: C3_4  and  O_7 
ROOT
ATOM      1  C   UNL d   1       1.835  -1.590   2.077  0.00  0.00    -0.033 A 
ATOM      2  C1  UNL d   1       1.340  -0.744   3.072  0.00  0.00     0.039 A 
ATOM      3  C2  UNL d   1       1.299  -1.175   4.399  0.00  0.00    -0.080 A 
ATOM      4  C3  UNL d   1       1.755  -2.450   4.718  0.00  0.00     0.150 A 
ATOM      5  C4  UNL d   1       2.253  -3.297   3.733  0.00  0.00    -0.007 A 
ATOM      6  C5  UNL d   1       2.292  -2.866   2.408  0.00  0.00     0.039 A 
ENDROOT
BRANCH   4   7
ATOM      7  O   UNL d   1       1.730  -2.916   5.999  0.00  0.00    -0.526 OA
ATOM      8  H5  UNL d   1       1.334  -2.234   6.567  0.00  0.00     0.418 HD
ENDBRANCH   4   7
TORSDOF 1
ENDMDL
