MODEL 1
REMARK minimizedAffinity 6.45023918
REMARK minimizedRMSD -1
REMARK  1 active torsions:
REMARK  status: ('A' for Active; 'I' for Inactive)
REMARK    1  A    between atoms: C3_4  and  O_7 
ROOT
ATOM      1  C   UNL d   1      -5.944   4.915  -2.918  0.00  0.00    -0.033 A 
ATOM      2  C1  UNL d   1      -4.782   5.240  -3.620  0.00  0.00     0.039 A 
ATOM      3  C2  UNL d   1      -3.670   4.398  -3.560  0.00  0.00    -0.080 A 
ATOM      4  C3  UNL d   1      -3.733   3.236  -2.796  0.00  0.00     0.150 A 
ATOM      5  C4  UNL d   1      -4.889   2.905  -2.097  0.00  0.00    -0.007 A 
ATOM      6  C5  UNL d   1      -5.998   3.747  -2.157  0.00  0.00     0.039 A 
ENDROOT
BRANCH   4   7
ATOM      7  O   UNL d   1      -2.672   2.386  -2.703  0.00  0.00    -0.526 OA
ATOM      8  H5  UNL d   1      -1.934   2.757  -3.215  0.00  0.00     0.418 HD
ENDBRANCH   4   7
TORSDOF 1
ENDMDL
