MODEL 1
REMARK minimizedAffinity 8.55231094
REMARK minimizedRMSD -1
REMARK  0 active torsions:
REMARK  status: ('A' for Active; 'I' for Inactive)
ROOT
ATOM      1  C2' OXE d   1       2.870  -1.792   1.536  0.00  0.00     0.078 C 
ATOM      2  C1' OXE d   1       1.581  -0.050  -0.248  0.00  0.00     0.078 C 
ATOM      3  C1  OXE d   1       2.950   0.340   0.250  0.00  0.00    -0.078 A 
ATOM      4  C2  OXE d   1       3.554  -0.496   1.158  0.00  0.00    -0.078 A 
ATOM      5  C3  OXE d   1       4.840  -0.211   1.608  0.00  0.00     0.003 A 
ATOM      6  C4  OXE d   1       5.461   0.995   1.262  0.00  0.00    -0.002 A 
ATOM      7  C5  OXE d   1       4.847   1.879   0.368  0.00  0.00    -0.002 A 
ATOM      8  C6  OXE d   1       3.612   1.547  -0.179  0.00  0.00     0.003 A 
ENDROOT
TORSDOF 0
ENDMDL
