MODEL 1
REMARK minimizedAffinity 9.03961372
REMARK minimizedRMSD -1
REMARK  0 active torsions:
REMARK  status: ('A' for Active; 'I' for Inactive)
ROOT
ATOM      1  C2' OXE d   1       2.147   1.113   0.490  0.00  0.00     0.078 C 
ATOM      2  C1' OXE d   1       2.146   2.316   3.027  0.00  0.00     0.078 C 
ATOM      3  C1  OXE d   1       1.483   3.060   1.895  0.00  0.00    -0.078 A 
ATOM      4  C2  OXE d   1       1.529   2.486   0.647  0.00  0.00    -0.078 A 
ATOM      5  C3  OXE d   1       0.886   3.104  -0.421  0.00  0.00     0.003 A 
ATOM      6  C4  OXE d   1       0.325   4.378  -0.269  0.00  0.00    -0.002 A 
ATOM      7  C5  OXE d   1       0.302   4.999   0.984  0.00  0.00    -0.002 A 
ATOM      8  C6  OXE d   1       0.838   4.336   2.083  0.00  0.00     0.003 A 
ENDROOT
TORSDOF 0
ENDMDL
