MODEL 1
REMARK minimizedAffinity 11.2506218
REMARK minimizedRMSD -1
REMARK  0 active torsions:
REMARK  status: ('A' for Active; 'I' for Inactive)
ROOT
ATOM      1  C2' OXE d   1       3.423  -0.075   0.621  0.00  0.00     0.078 C 
ATOM      2  C1' OXE d   1       6.000   0.667   1.449  0.00  0.00     0.078 C 
ATOM      3  C1  OXE d   1       5.353   1.476   0.353  0.00  0.00    -0.078 A 
ATOM      4  C2  OXE d   1       4.111   1.077  -0.078  0.00  0.00    -0.078 A 
ATOM      5  C3  OXE d   1       3.446   1.821  -1.049  0.00  0.00     0.003 A 
ATOM      6  C4  OXE d   1       4.094   2.880  -1.697  0.00  0.00    -0.002 A 
ATOM      7  C5  OXE d   1       5.375   3.278  -1.301  0.00  0.00    -0.002 A 
ATOM      8  C6  OXE d   1       6.000   2.615  -0.250  0.00  0.00     0.003 A 
ENDROOT
TORSDOF 0
ENDMDL
