MODEL 1
REMARK minimizedAffinity 9.55545998
REMARK minimizedRMSD -1
REMARK  0 active torsions:
REMARK  status: ('A' for Active; 'I' for Inactive)
ROOT
ATOM      1  C2' OXE d   1       4.737   4.431   4.887  0.00  0.00     0.078 C 
ATOM      2  C1' OXE d   1       4.797   3.333   2.305  0.00  0.00     0.078 C 
ATOM      3  C1  OXE d   1       3.674   2.915   3.221  0.00  0.00    -0.078 A 
ATOM      4  C2  OXE d   1       3.679   3.421   4.498  0.00  0.00    -0.078 A 
ATOM      5  C3  OXE d   1       2.636   3.110   5.367  0.00  0.00     0.003 A 
ATOM      6  C4  OXE d   1       1.667   2.168   5.002  0.00  0.00    -0.002 A 
ATOM      7  C5  OXE d   1       1.667   1.610   3.719  0.00  0.00    -0.002 A 
ATOM      8  C6  OXE d   1       2.637   2.004   2.804  0.00  0.00     0.003 A 
ENDROOT
TORSDOF 0
ENDMDL
