MODEL 1
REMARK minimizedAffinity 13.1641722
REMARK minimizedRMSD -1
REMARK  0 active torsions:
REMARK  status: ('A' for Active; 'I' for Inactive)
ROOT
ATOM      1  C2' OXE d   1       3.071  -2.170   0.747  0.00  0.00     0.078 C 
ATOM      2  C1' OXE d   1       5.600  -1.214   1.500  0.00  0.00     0.078 C 
ATOM      3  C1  OXE d   1       4.634  -0.236   0.881  0.00  0.00    -0.078 A 
ATOM      4  C2  OXE d   1       3.415  -0.722   0.473  0.00  0.00    -0.078 A 
ATOM      5  C3  OXE d   1       2.467   0.149  -0.054  0.00  0.00     0.003 A 
ATOM      6  C4  OXE d   1       2.797   1.485  -0.313  0.00  0.00    -0.002 A 
ATOM      7  C5  OXE d   1       4.047   1.992   0.058  0.00  0.00    -0.002 A 
ATOM      8  C6  OXE d   1       4.959   1.157   0.694  0.00  0.00     0.003 A 
ENDROOT
TORSDOF 0
ENDMDL
