MODEL 1
REMARK minimizedAffinity 1.72275686
REMARK minimizedRMSD -1
REMARK  0 active torsions:
REMARK  status: ('A' for Active; 'I' for Inactive)
ROOT
ATOM      1  C2' OXE d   1      -4.932   4.067   2.090  0.00  0.00     0.078 C 
ATOM      2  C1' OXE d   1      -2.658   5.506   2.889  0.00  0.00     0.078 C 
ATOM      3  C1  OXE d   1      -3.806   5.408   3.862  0.00  0.00    -0.078 A 
ATOM      4  C2  OXE d   1      -4.933   4.742   3.445  0.00  0.00    -0.078 A 
ATOM      5  C3  OXE d   1      -6.000   4.575   4.324  0.00  0.00     0.003 A 
ATOM      6  C4  OXE d   1      -5.996   5.210   5.571  0.00  0.00    -0.002 A 
ATOM      7  C5  OXE d   1      -4.874   5.927   6.000  0.00  0.00    -0.002 A 
ATOM      8  C6  OXE d   1      -3.756   6.000   5.176  0.00  0.00     0.003 A 
ENDROOT
TORSDOF 0
ENDMDL
