MODEL 1
REMARK minimizedAffinity 1.63692594
REMARK minimizedRMSD -1
REMARK  0 active torsions:
REMARK  status: ('A' for Active; 'I' for Inactive)
ROOT
ATOM      1  C2' OXE d   1       4.803   3.221   2.140  0.00  0.00     0.078 C 
ATOM      2  C1' OXE d   1       2.227   2.211   2.613  0.00  0.00     0.078 C 
ATOM      3  C1  OXE d   1       2.854   1.936   1.269  0.00  0.00    -0.078 A 
ATOM      4  C2  OXE d   1       4.096   2.474   1.029  0.00  0.00    -0.078 A 
ATOM      5  C3  OXE d   1       4.743   2.206  -0.174  0.00  0.00     0.003 A 
ATOM      6  C4  OXE d   1       4.077   1.523  -1.199  0.00  0.00    -0.002 A 
ATOM      7  C5  OXE d   1       2.796   1.001  -0.990  0.00  0.00    -0.002 A 
ATOM      8  C6  OXE d   1       2.189   1.162   0.250  0.00  0.00     0.003 A 
ENDROOT
TORSDOF 0
ENDMDL
