MODEL 1
REMARK minimizedAffinity -3.20643544
REMARK minimizedRMSD -1
REMARK  0 active torsions:
REMARK  status: ('A' for Active; 'I' for Inactive)
ROOT
ATOM      1  C2' OXE d   1      -0.384   0.959  -0.582  0.00  0.00     0.078 C 
ATOM      2  C1' OXE d   1      -0.355  -1.842  -0.390  0.00  0.00     0.078 C 
ATOM      3  C1  OXE d   1       0.972  -1.128  -0.464  0.00  0.00    -0.078 A 
ATOM      4  C2  OXE d   1       0.947   0.239  -0.605  0.00  0.00    -0.078 A 
ATOM      5  C3  OXE d   1       2.143   0.951  -0.623  0.00  0.00     0.003 A 
ATOM      6  C4  OXE d   1       3.370   0.277  -0.653  0.00  0.00    -0.002 A 
ATOM      7  C5  OXE d   1       3.416  -1.117  -0.550  0.00  0.00    -0.002 A 
ATOM      8  C6  OXE d   1       2.230  -1.830  -0.412  0.00  0.00     0.003 A 
ENDROOT
TORSDOF 0
ENDMDL
