MODEL 1
REMARK minimizedAffinity -1.38121367
REMARK minimizedRMSD -1
REMARK  0 active torsions:
REMARK  status: ('A' for Active; 'I' for Inactive)
ROOT
ATOM      1  O1  BZF d   1      -3.090   1.900   3.201  0.00  0.00    -0.204 OA
ATOM      2  C2  BZF d   1      -3.917   0.808   3.378  0.00  0.00     0.174 A 
ATOM      3  C3  BZF d   1      -3.379  -0.295   2.819  0.00  0.00    -0.012 A 
ATOM      4  C3A BZF d   1      -2.095   0.115   2.338  0.00  0.00    -0.107 A 
ATOM      5  C4  BZF d   1      -1.079  -0.538   1.701  0.00  0.00     0.055 A 
ATOM      6  C5  BZF d   1       0.012   0.167   1.302  0.00  0.00    -0.016 A 
ATOM      7  C6  BZF d   1       0.118   1.525   1.520  0.00  0.00     0.022 A 
ATOM      8  C7  BZF d   1      -0.862   2.215   2.153  0.00  0.00     0.029 A 
ATOM      9  C7A BZF d   1      -1.951   1.499   2.586  0.00  0.00     0.058 A 
ENDROOT
TORSDOF 0
ENDMDL
