MODEL 1
REMARK minimizedAffinity -5.45203304
REMARK minimizedRMSD -1
REMARK  0 active torsions:
REMARK  status: ('A' for Active; 'I' for Inactive)
ROOT
ATOM      1  O1  BZF d   1       1.320   2.143   0.278  0.00  0.00    -0.204 OA
ATOM      2  C2  BZF d   1       2.127   1.090  -0.107  0.00  0.00     0.174 A 
ATOM      3  C3  BZF d   1       1.624  -0.083   0.326  0.00  0.00    -0.012 A 
ATOM      4  C3A BZF d   1       0.378   0.249   0.948  0.00  0.00    -0.107 A 
ATOM      5  C4  BZF d   1      -0.595  -0.492   1.556  0.00  0.00     0.055 A 
ATOM      6  C5  BZF d   1      -1.652   0.145   2.124  0.00  0.00    -0.016 A 
ATOM      7  C6  BZF d   1      -1.765   1.520   2.108  0.00  0.00     0.022 A 
ATOM      8  C7  BZF d   1      -0.828   2.297   1.512  0.00  0.00     0.029 A 
ATOM      9  C7A BZF d   1       0.225   1.654   0.908  0.00  0.00     0.058 A 
ENDROOT
TORSDOF 0
ENDMDL
