MODEL 1
REMARK minimizedAffinity 0.35414964
REMARK minimizedRMSD -1
REMARK  0 active torsions:
REMARK  status: ('A' for Active; 'I' for Inactive)
ROOT
ATOM      1  O1  BZF d   1      -1.877   2.962   2.122  0.00  0.00    -0.204 OA
ATOM      2  C2  BZF d   1      -2.674   2.348   3.069  0.00  0.00     0.174 A 
ATOM      3  C3  BZF d   1      -2.318   1.056   3.227  0.00  0.00    -0.012 A 
ATOM      4  C3A BZF d   1      -1.172   0.876   2.390  0.00  0.00    -0.107 A 
ATOM      5  C4  BZF d   1      -0.357  -0.189   2.131  0.00  0.00     0.055 A 
ATOM      6  C5  BZF d   1       0.631  -0.055   1.208  0.00  0.00    -0.016 A 
ATOM      7  C6  BZF d   1       0.828   1.125   0.522  0.00  0.00     0.022 A 
ATOM      8  C7  BZF d   1       0.048   2.210   0.748  0.00  0.00     0.029 A 
ATOM      9  C7A BZF d   1      -0.930   2.089   1.705  0.00  0.00     0.058 A 
ENDROOT
TORSDOF 0
ENDMDL
