MODEL 1
REMARK minimizedAffinity -5.87343836
REMARK minimizedRMSD -1
REMARK  0 active torsions:
REMARK  status: ('A' for Active; 'I' for Inactive)
ROOT
ATOM      1  O1  BZF d   1      -3.035  -0.157   2.825  0.00  0.00    -0.204 OA
ATOM      2  C2  BZF d   1      -3.581   0.990   3.367  0.00  0.00     0.174 A 
ATOM      3  C3  BZF d   1      -2.760   2.044   3.183  0.00  0.00    -0.012 A 
ATOM      4  C3A BZF d   1      -1.672   1.542   2.400  0.00  0.00    -0.107 A 
ATOM      5  C4  BZF d   1      -0.546   2.114   1.882  0.00  0.00     0.055 A 
ATOM      6  C5  BZF d   1       0.351   1.331   1.227  0.00  0.00    -0.016 A 
ATOM      7  C6  BZF d   1       0.156  -0.027   1.077  0.00  0.00     0.022 A 
ATOM      8  C7  BZF d   1      -0.948  -0.638   1.569  0.00  0.00     0.029 A 
ATOM      9  C7A BZF d   1      -1.873   0.156   2.203  0.00  0.00     0.058 A 
ENDROOT
TORSDOF 0
ENDMDL
