MODEL 1
REMARK minimizedAffinity -0.758323431
REMARK minimizedRMSD -1
REMARK  0 active torsions:
REMARK  status: ('A' for Active; 'I' for Inactive)
ROOT
ATOM      1  O1  BZF d   1       1.520  -0.637   0.671  0.00  0.00    -0.204 OA
ATOM      2  C2  BZF d   1       2.224   0.392   0.077  0.00  0.00     0.174 A 
ATOM      3  C3  BZF d   1       1.476   1.513   0.021  0.00  0.00    -0.012 A 
ATOM      4  C3A BZF d   1       0.259   1.188   0.699  0.00  0.00    -0.107 A 
ATOM      5  C4  BZF d   1      -0.873   1.895   0.986  0.00  0.00     0.055 A 
ATOM      6  C5  BZF d   1      -1.909   1.263   1.599  0.00  0.00    -0.016 A 
ATOM      7  C6  BZF d   1      -1.848  -0.073   1.934  0.00  0.00     0.022 A 
ATOM      8  C7  BZF d   1      -0.744  -0.815   1.674  0.00  0.00     0.029 A 
ATOM      9  C7A BZF d   1       0.317  -0.171   1.085  0.00  0.00     0.058 A 
ENDROOT
TORSDOF 0
ENDMDL
