MODEL 1
REMARK minimizedAffinity 1.01173246
REMARK minimizedRMSD -1
REMARK  0 active torsions:
REMARK  status: ('A' for Active; 'I' for Inactive)
ROOT
ATOM      1  O1  BZF d   1      -2.385   1.101   2.962  0.00  0.00    -0.204 OA
ATOM      2  C2  BZF d   1      -2.297   2.480   2.990  0.00  0.00     0.174 A 
ATOM      3  C3  BZF d   1      -1.235   2.906   2.277  0.00  0.00    -0.012 A 
ATOM      4  C3A BZF d   1      -0.674   1.726   1.695  0.00  0.00    -0.107 A 
ATOM      5  C4  BZF d   1       0.389   1.501   0.867  0.00  0.00     0.055 A 
ATOM      6  C5  BZF d   1       0.714   0.222   0.542  0.00  0.00    -0.016 A 
ATOM      7  C6  BZF d   1       0.002  -0.855   1.030  0.00  0.00     0.022 A 
ATOM      8  C7  BZF d   1      -1.063  -0.681   1.850  0.00  0.00     0.029 A 
ATOM      9  C7A BZF d   1      -1.414   0.611   2.154  0.00  0.00     0.058 A 
ENDROOT
TORSDOF 0
ENDMDL
