MODEL 1
REMARK minimizedAffinity 0.223055512
REMARK minimizedRMSD -1
REMARK  0 active torsions:
REMARK  status: ('A' for Active; 'I' for Inactive)
ROOT
ATOM      1  O1  BZF d   1      -0.915   2.874   2.055  0.00  0.00    -0.204 OA
ATOM      2  C2  BZF d   1       0.057   2.206   1.335  0.00  0.00     0.174 A 
ATOM      3  C3  BZF d   1      -0.175   0.878   1.337  0.00  0.00    -0.012 A 
ATOM      4  C3A BZF d   1      -1.418   0.714   2.028  0.00  0.00    -0.107 A 
ATOM      5  C4  BZF d   1      -2.182  -0.374   2.339  0.00  0.00     0.055 A 
ATOM      6  C5  BZF d   1      -3.304  -0.202   3.086  0.00  0.00    -0.016 A 
ATOM      7  C6  BZF d   1      -3.687   1.042   3.543  0.00  0.00     0.022 A 
ATOM      8  C7  BZF d   1      -2.964   2.152   3.255  0.00  0.00     0.029 A 
ATOM      9  C7A BZF d   1      -1.848   1.985   2.473  0.00  0.00     0.058 A 
ENDROOT
TORSDOF 0
ENDMDL
