MODEL 1
REMARK minimizedAffinity 2.86706543
REMARK minimizedRMSD -1
REMARK  0 active torsions:
REMARK  status: ('A' for Active; 'I' for Inactive)
ROOT
ATOM      1  O1  BZF d   1      -2.546   0.036   2.998  0.00  0.00    -0.204 OA
ATOM      2  C2  BZF d   1      -2.353  -1.306   2.734  0.00  0.00     0.174 A 
ATOM      3  C3  BZF d   1      -1.271  -1.489   1.951  0.00  0.00    -0.012 A 
ATOM      4  C3A BZF d   1      -0.701  -0.187   1.786  0.00  0.00    -0.107 A 
ATOM      5  C4  BZF d   1       0.399   0.280   1.124  0.00  0.00     0.055 A 
ATOM      6  C5  BZF d   1       0.636   1.618   1.099  0.00  0.00    -0.016 A 
ATOM      7  C6  BZF d   1      -0.207   2.516   1.720  0.00  0.00     0.022 A 
ATOM      8  C7  BZF d   1      -1.307   2.100   2.393  0.00  0.00     0.029 A 
ATOM      9  C7A BZF d   1      -1.532   0.746   2.448  0.00  0.00     0.058 A 
ENDROOT
TORSDOF 0
ENDMDL
