MODEL 1
REMARK minimizedAffinity 3.05018163
REMARK minimizedRMSD -1
REMARK  0 active torsions:
REMARK  status: ('A' for Active; 'I' for Inactive)
ROOT
ATOM      1  O1  BZF d   1       2.368  -0.964   0.938  0.00  0.00    -0.204 OA
ATOM      2  C2  BZF d   1       2.945   0.000   0.134  0.00  0.00     0.174 A 
ATOM      3  C3  BZF d   1       2.085   1.015  -0.088  0.00  0.00    -0.012 A 
ATOM      4  C3A BZF d   1       0.929   0.707   0.697  0.00  0.00    -0.107 A 
ATOM      5  C4  BZF d   1      -0.261   1.345   0.906  0.00  0.00     0.055 A 
ATOM      6  C5  BZF d   1      -1.207   0.742   1.673  0.00  0.00    -0.016 A 
ATOM      7  C6  BZF d   1      -0.999  -0.498   2.241  0.00  0.00     0.022 A 
ATOM      8  C7  BZF d   1       0.166  -1.166   2.066  0.00  0.00     0.029 A 
ATOM      9  C7A BZF d   1       1.137  -0.545   1.319  0.00  0.00     0.058 A 
ENDROOT
TORSDOF 0
ENDMDL
