MODEL 1
REMARK minimizedAffinity 0.660686433
REMARK minimizedRMSD -1
REMARK  0 active torsions:
REMARK  status: ('A' for Active; 'I' for Inactive)
ROOT
ATOM      1  O1  BZF d   1      -2.016   1.685   3.770  0.00  0.00    -0.204 OA
ATOM      2  C2  BZF d   1      -2.144   0.844   2.682  0.00  0.00     0.174 A 
ATOM      3  C3  BZF d   1      -3.394   0.345   2.607  0.00  0.00    -0.012 A 
ATOM      4  C3A BZF d   1      -4.118   0.982   3.664  0.00  0.00    -0.107 A 
ATOM      5  C4  BZF d   1      -5.413   0.911   4.092  0.00  0.00     0.055 A 
ATOM      6  C5  BZF d   1      -5.782   1.606   5.200  0.00  0.00    -0.016 A 
ATOM      7  C6  BZF d   1      -4.882   2.377   5.906  0.00  0.00     0.022 A 
ATOM      8  C7  BZF d   1      -3.588   2.483   5.518  0.00  0.00     0.029 A 
ATOM      9  C7A BZF d   1      -3.220   1.808   4.379  0.00  0.00     0.058 A 
ENDROOT
TORSDOF 0
ENDMDL
