MODEL 1
REMARK minimizedAffinity -4.62348366
REMARK minimizedRMSD -1
REMARK  0 active torsions:
REMARK  status: ('A' for Active; 'I' for Inactive)
ROOT
ATOM      1  O1  BZF d   1      -2.892   0.627   2.914  0.00  0.00    -0.204 OA
ATOM      2  C2  BZF d   1      -3.070   1.980   3.124  0.00  0.00     0.174 A 
ATOM      3  C3  BZF d   1      -2.044   2.684   2.603  0.00  0.00    -0.012 A 
ATOM      4  C3A BZF d   1      -1.216   1.716   1.952  0.00  0.00    -0.107 A 
ATOM      5  C4  BZF d   1      -0.055   1.802   1.238  0.00  0.00     0.055 A 
ATOM      6  C5  BZF d   1       0.536   0.660   0.799  0.00  0.00    -0.016 A 
ATOM      7  C6  BZF d   1      -0.002  -0.583   1.060  0.00  0.00     0.022 A 
ATOM      8  C7  BZF d   1      -1.155  -0.718   1.759  0.00  0.00     0.029 A 
ATOM      9  C7A BZF d   1      -1.772   0.436   2.176  0.00  0.00     0.058 A 
ENDROOT
TORSDOF 0
ENDMDL
