MODEL 1
REMARK minimizedAffinity 1.7060951
REMARK minimizedRMSD -1
REMARK  0 active torsions:
REMARK  status: ('A' for Active; 'I' for Inactive)
ROOT
ATOM      1  O1  BZF d   1      -1.777   2.963   1.873  0.00  0.00    -0.204 OA
ATOM      2  C2  BZF d   1      -2.660   2.390   2.767  0.00  0.00     0.174 A 
ATOM      3  C3  BZF d   1      -2.202   1.195   3.193  0.00  0.00    -0.012 A 
ATOM      4  C3A BZF d   1      -0.911   1.051   2.592  0.00  0.00    -0.107 A 
ATOM      5  C4  BZF d   1       0.047   0.080   2.648  0.00  0.00     0.055 A 
ATOM      6  C5  BZF d   1       1.164   0.211   1.886  0.00  0.00    -0.016 A 
ATOM      7  C6  BZF d   1       1.354   1.295   1.054  0.00  0.00     0.022 A 
ATOM      8  C7  BZF d   1       0.433   2.287   0.970  0.00  0.00     0.029 A 
ATOM      9  C7A BZF d   1      -0.682   2.174   1.763  0.00  0.00     0.058 A 
ENDROOT
TORSDOF 0
ENDMDL
