MODEL 1
REMARK minimizedAffinity 0.330708027
REMARK minimizedRMSD -1
REMARK  0 active torsions:
REMARK  status: ('A' for Active; 'I' for Inactive)
ROOT
ATOM      1  O1  BZF d   1      -1.345   2.790   2.561  0.00  0.00    -0.204 OA
ATOM      2  C2  BZF d   1      -2.582   2.209   2.768  0.00  0.00     0.174 A 
ATOM      3  C3  BZF d   1      -2.630   0.978   2.220  0.00  0.00    -0.012 A 
ATOM      4  C3A BZF d   1      -1.313   0.739   1.713  0.00  0.00    -0.107 A 
ATOM      5  C4  BZF d   1      -0.731  -0.316   1.072  0.00  0.00     0.055 A 
ATOM      6  C5  BZF d   1       0.555  -0.202   0.645  0.00  0.00    -0.016 A 
ATOM      7  C6  BZF d   1       1.284   0.953   0.838  0.00  0.00     0.022 A 
ATOM      8  C7  BZF d   1       0.751   2.025   1.474  0.00  0.00     0.029 A 
ATOM      9  C7A BZF d   1      -0.537   1.900   1.935  0.00  0.00     0.058 A 
ENDROOT
TORSDOF 0
ENDMDL
