MODEL 1
REMARK minimizedAffinity -3.98481154
REMARK minimizedRMSD -1
REMARK  0 active torsions:
REMARK  status: ('A' for Active; 'I' for Inactive)
ROOT
ATOM      1  O1  BZF d   1       0.583  -0.426   0.571  0.00  0.00    -0.204 OA
ATOM      2  C2  BZF d   1      -0.313  -1.371   1.033  0.00  0.00     0.174 A 
ATOM      3  C3  BZF d   1      -1.321  -0.785   1.710  0.00  0.00    -0.012 A 
ATOM      4  C3A BZF d   1      -1.087   0.622   1.589  0.00  0.00    -0.107 A 
ATOM      5  C4  BZF d   1      -1.754   1.726   2.037  0.00  0.00     0.055 A 
ATOM      6  C5  BZF d   1      -1.221   2.956   1.811  0.00  0.00    -0.016 A 
ATOM      7  C6  BZF d   1      -0.022   3.117   1.148  0.00  0.00     0.022 A 
ATOM      8  C7  BZF d   1       0.673   2.052   0.681  0.00  0.00     0.029 A 
ATOM      9  C7A BZF d   1       0.121   0.810   0.878  0.00  0.00     0.058 A 
ENDROOT
TORSDOF 0
ENDMDL
