MODEL 1
REMARK minimizedAffinity 2.73742867
REMARK minimizedRMSD -1
REMARK  0 active torsions:
REMARK  status: ('A' for Active; 'I' for Inactive)
ROOT
ATOM      1  O1  BZF d   1      -2.185   1.886   3.949  0.00  0.00    -0.204 OA
ATOM      2  C2  BZF d   1      -2.276   1.071   2.837  0.00  0.00     0.174 A 
ATOM      3  C3  BZF d   1      -3.525   0.579   2.706  0.00  0.00    -0.012 A 
ATOM      4  C3A BZF d   1      -4.284   1.193   3.752  0.00  0.00    -0.107 A 
ATOM      5  C4  BZF d   1      -5.593   1.116   4.131  0.00  0.00     0.055 A 
ATOM      6  C5  BZF d   1      -6.000   1.786   5.241  0.00  0.00    -0.016 A 
ATOM      7  C6  BZF d   1      -5.124   2.537   5.998  0.00  0.00     0.022 A 
ATOM      8  C7  BZF d   1      -3.817   2.648   5.658  0.00  0.00     0.029 A 
ATOM      9  C7A BZF d   1      -3.410   1.998   4.518  0.00  0.00     0.058 A 
ENDROOT
TORSDOF 0
ENDMDL
