MODEL 1
REMARK minimizedAffinity 3.04723954
REMARK minimizedRMSD -1
REMARK  0 active torsions:
REMARK  status: ('A' for Active; 'I' for Inactive)
ROOT
ATOM      1  O1  BZF d   1      -0.612   3.477   2.264  0.00  0.00    -0.204 OA
ATOM      2  C2  BZF d   1       0.547   2.838   1.867  0.00  0.00     0.174 A 
ATOM      3  C3  BZF d   1       0.401   1.499   1.933  0.00  0.00    -0.012 A 
ATOM      4  C3A BZF d   1      -0.963   1.287   2.312  0.00  0.00    -0.107 A 
ATOM      5  C4  BZF d   1      -1.715   0.168   2.524  0.00  0.00     0.055 A 
ATOM      6  C5  BZF d   1      -2.997   0.305   2.956  0.00  0.00    -0.016 A 
ATOM      7  C6  BZF d   1      -3.555   1.545   3.190  0.00  0.00     0.022 A 
ATOM      8  C7  BZF d   1      -2.850   2.684   2.988  0.00  0.00     0.029 A 
ATOM      9  C7A BZF d   1      -1.565   2.550   2.520  0.00  0.00     0.058 A 
ENDROOT
TORSDOF 0
ENDMDL
