MODEL 1
REMARK minimizedAffinity 5.23774815
REMARK minimizedRMSD -1
REMARK  0 active torsions:
REMARK  status: ('A' for Active; 'I' for Inactive)
ROOT
ATOM      1  C1  BNZ d   1       1.129   1.595   5.988  0.00  0.00     0.000 A 
ATOM      2  C2  BNZ d   1       1.180   0.834   4.850  0.00  0.00     0.000 A 
ATOM      3  C3  BNZ d   1       0.535   1.233   3.712  0.00  0.00     0.000 A 
ATOM      4  C4  BNZ d   1      -0.191   2.369   3.725  0.00  0.00     0.000 A 
ATOM      5  C5  BNZ d   1      -0.259   3.142   4.867  0.00  0.00     0.000 A 
ATOM      6  C6  BNZ d   1       0.423   2.758   5.999  0.00  0.00     0.000 A 
ENDROOT
TORSDOF 0
ENDMDL
