MODEL 1
REMARK minimizedAffinity 3.59179544
REMARK minimizedRMSD -1
REMARK  0 active torsions:
REMARK  status: ('A' for Active; 'I' for Inactive)
ROOT
ATOM      1  C1  BNZ d   1      -2.934   0.759   2.600  0.00  0.00     0.000 A 
ATOM      2  C2  BNZ d   1      -2.795   0.096   3.790  0.00  0.00     0.000 A 
ATOM      3  C3  BNZ d   1      -3.614  -0.952   4.107  0.00  0.00     0.000 A 
ATOM      4  C4  BNZ d   1      -4.594  -1.309   3.253  0.00  0.00     0.000 A 
ATOM      5  C5  BNZ d   1      -4.753  -0.644   2.054  0.00  0.00     0.000 A 
ATOM      6  C6  BNZ d   1      -3.903   0.385   1.721  0.00  0.00     0.000 A 
ENDROOT
TORSDOF 0
ENDMDL
