MODEL 1
REMARK minimizedAffinity 5.20563316
REMARK minimizedRMSD -1
REMARK  0 active torsions:
REMARK  status: ('A' for Active; 'I' for Inactive)
ROOT
ATOM      1  C1  BNZ d   1      -4.850  -4.711  -5.997  0.00  0.00     0.000 A 
ATOM      2  C2  BNZ d   1      -3.750  -5.023  -5.243  0.00  0.00     0.000 A 
ATOM      3  C3  BNZ d   1      -3.133  -4.073  -4.478  0.00  0.00     0.000 A 
ATOM      4  C4  BNZ d   1      -3.592  -2.805  -4.499  0.00  0.00     0.000 A 
ATOM      5  C5  BNZ d   1      -4.694  -2.472  -5.261  0.00  0.00     0.000 A 
ATOM      6  C6  BNZ d   1      -5.336  -3.440  -6.000  0.00  0.00     0.000 A 
ENDROOT
TORSDOF 0
ENDMDL
