MODEL 1
REMARK minimizedAffinity 6.35269308
REMARK minimizedRMSD -1
REMARK  0 active torsions:
REMARK  status: ('A' for Active; 'I' for Inactive)
ROOT
ATOM      1  C1  BNZ d   1      -1.323  -4.714  -2.466  0.00  0.00     0.000 A 
ATOM      2  C2  BNZ d   1      -0.620  -3.581  -2.779  0.00  0.00     0.000 A 
ATOM      3  C3  BNZ d   1      -1.233  -2.522  -3.387  0.00  0.00     0.000 A 
ATOM      4  C4  BNZ d   1      -2.538  -2.611  -3.717  0.00  0.00     0.000 A 
ATOM      5  C5  BNZ d   1      -3.258  -3.750  -3.416  0.00  0.00     0.000 A 
ATOM      6  C6  BNZ d   1      -2.647  -4.799  -2.769  0.00  0.00     0.000 A 
ENDROOT
TORSDOF 0
ENDMDL
