MODEL 1
REMARK minimizedAffinity 6.18204498
REMARK minimizedRMSD -1
REMARK  0 active torsions:
REMARK  status: ('A' for Active; 'I' for Inactive)
ROOT
ATOM      1  C1  BNZ d   1      -3.542  -3.568  -4.455  0.00  0.00     0.000 A 
ATOM      2  C2  BNZ d   1      -2.234  -3.163  -4.425  0.00  0.00     0.000 A 
ATOM      3  C3  BNZ d   1      -1.318  -3.810  -3.644  0.00  0.00     0.000 A 
ATOM      4  C4  BNZ d   1      -1.719  -4.835  -2.864  0.00  0.00     0.000 A 
ATOM      5  C5  BNZ d   1      -3.036  -5.249  -2.875  0.00  0.00     0.000 A 
ATOM      6  C6  BNZ d   1      -3.947  -4.620  -3.693  0.00  0.00     0.000 A 
ENDROOT
TORSDOF 0
ENDMDL
