MODEL 1
REMARK minimizedAffinity 8.88111115
REMARK minimizedRMSD -1
REMARK  0 active torsions:
REMARK  status: ('A' for Active; 'I' for Inactive)
ROOT
ATOM      1  C1  BNZ d   1      -4.764   2.138   3.781  0.00  0.00     0.000 A 
ATOM      2  C2  BNZ d   1      -4.841   2.739   5.009  0.00  0.00     0.000 A 
ATOM      3  C3  BNZ d   1      -3.953   2.424   5.999  0.00  0.00     0.000 A 
ATOM      4  C4  BNZ d   1      -3.015   1.482   5.774  0.00  0.00     0.000 A 
ATOM      5  C5  BNZ d   1      -2.930   0.860   4.544  0.00  0.00     0.000 A 
ATOM      6  C6  BNZ d   1      -3.801   1.208   3.537  0.00  0.00     0.000 A 
ENDROOT
TORSDOF 0
ENDMDL
