MODEL 1
REMARK minimizedAffinity 6.78413677
REMARK minimizedRMSD -1
REMARK  0 active torsions:
REMARK  status: ('A' for Active; 'I' for Inactive)
ROOT
ATOM      1  C1  BNZ d   1      -4.644   2.745   4.744  0.00  0.00     0.000 A 
ATOM      2  C2  BNZ d   1      -3.492   2.008   4.670  0.00  0.00     0.000 A 
ATOM      3  C3  BNZ d   1      -3.438   0.866   3.920  0.00  0.00     0.000 A 
ATOM      4  C4  BNZ d   1      -4.546   0.443   3.277  0.00  0.00     0.000 A 
ATOM      5  C5  BNZ d   1      -5.718   1.170   3.350  0.00  0.00     0.000 A 
ATOM      6  C6  BNZ d   1      -5.757   2.339   4.075  0.00  0.00     0.000 A 
ENDROOT
TORSDOF 0
ENDMDL
