MODEL 1
REMARK minimizedAffinity 1.20612395
REMARK minimizedRMSD -1
REMARK  0 active torsions:
REMARK  status: ('A' for Active; 'I' for Inactive)
ROOT
ATOM      1  C1  BNZ d   1       1.561   1.087   0.248  0.00  0.00     0.000 A 
ATOM      2  C2  BNZ d   1       1.448  -0.153  -0.322  0.00  0.00     0.000 A 
ATOM      3  C3  BNZ d   1       1.948  -0.399  -1.570  0.00  0.00     0.000 A 
ATOM      4  C4  BNZ d   1       2.525   0.605  -2.263  0.00  0.00     0.000 A 
ATOM      5  C5  BNZ d   1       2.638   1.863  -1.706  0.00  0.00     0.000 A 
ATOM      6  C6  BNZ d   1       2.168   2.097  -0.434  0.00  0.00     0.000 A 
ENDROOT
TORSDOF 0
ENDMDL
