MODEL 1
REMARK minimizedAffinity 10.5938244
REMARK minimizedRMSD -1
REMARK  0 active torsions:
REMARK  status: ('A' for Active; 'I' for Inactive)
ROOT
ATOM      1  C1  BNZ d   1       0.368  -1.977  -4.222  0.00  0.00     0.000 A 
ATOM      2  C2  BNZ d   1       0.971  -2.079  -5.448  0.00  0.00     0.000 A 
ATOM      3  C3  BNZ d   1       1.969  -1.217  -5.810  0.00  0.00     0.000 A 
ATOM      4  C4  BNZ d   1       2.334  -0.232  -4.964  0.00  0.00     0.000 A 
ATOM      5  C5  BNZ d   1       1.729  -0.111  -3.729  0.00  0.00     0.000 A 
ATOM      6  C6  BNZ d   1       0.752  -1.004  -3.352  0.00  0.00     0.000 A 
ENDROOT
TORSDOF 0
ENDMDL
