MODEL 1
REMARK minimizedAffinity 1.18552387
REMARK minimizedRMSD -1
REMARK  0 active torsions:
REMARK  status: ('A' for Active; 'I' for Inactive)
ROOT
ATOM      1  C1  BNZ d   1      -4.951  -3.023  -5.432  0.00  0.00     0.000 A 
ATOM      2  C2  BNZ d   1      -3.899  -3.717  -4.897  0.00  0.00     0.000 A 
ATOM      3  C3  BNZ d   1      -3.871  -5.083  -4.931  0.00  0.00     0.000 A 
ATOM      4  C4  BNZ d   1      -4.913  -5.754  -5.462  0.00  0.00     0.000 A 
ATOM      5  C5  BNZ d   1      -5.986  -5.070  -5.997  0.00  0.00     0.000 A 
ATOM      6  C6  BNZ d   1      -5.993  -3.694  -5.996  0.00  0.00     0.000 A 
ENDROOT
TORSDOF 0
ENDMDL
