MODEL 1
REMARK minimizedAffinity 12.3877459
REMARK minimizedRMSD -1
REMARK  0 active torsions:
REMARK  status: ('A' for Active; 'I' for Inactive)
ROOT
ATOM      1  C1  BNZ d   1      -2.011  -5.255  -2.149  0.00  0.00     0.000 A 
ATOM      2  C2  BNZ d   1      -3.019  -4.740  -2.920  0.00  0.00     0.000 A 
ATOM      3  C3  BNZ d   1      -2.812  -3.634  -3.696  0.00  0.00     0.000 A 
ATOM      4  C4  BNZ d   1      -1.611  -3.022  -3.671  0.00  0.00     0.000 A 
ATOM      5  C5  BNZ d   1      -0.587  -3.524  -2.893  0.00  0.00     0.000 A 
ATOM      6  C6  BNZ d   1      -0.787  -4.659  -2.142  0.00  0.00     0.000 A 
ENDROOT
TORSDOF 0
ENDMDL
