MODEL 1
REMARK minimizedAffinity 8.74063015
REMARK minimizedRMSD -1
REMARK  0 active torsions:
REMARK  status: ('A' for Active; 'I' for Inactive)
ROOT
ATOM      1  C1  BNZ d   1      -2.296  -0.076   2.902  0.00  0.00     0.000 A 
ATOM      2  C2  BNZ d   1      -1.143  -0.677   3.330  0.00  0.00     0.000 A 
ATOM      3  C3  BNZ d   1       0.048  -0.006   3.304  0.00  0.00     0.000 A 
ATOM      4  C4  BNZ d   1       0.090   1.250   2.815  0.00  0.00     0.000 A 
ATOM      5  C5  BNZ d   1      -1.062   1.867   2.371  0.00  0.00     0.000 A 
ATOM      6  C6  BNZ d   1      -2.265   1.202   2.434  0.00  0.00     0.000 A 
ENDROOT
TORSDOF 0
ENDMDL
