MODEL 1
REMARK minimizedAffinity 6.45049334
REMARK minimizedRMSD -1
REMARK  0 active torsions:
REMARK  status: ('A' for Active; 'I' for Inactive)
ROOT
ATOM      1  C1  BNZ d   1      -0.341   0.290   5.993  0.00  0.00     0.000 A 
ATOM      2  C2  BNZ d   1      -1.630   0.751   6.000  0.00  0.00     0.000 A 
ATOM      3  C3  BNZ d   1      -1.894   2.092   5.982  0.00  0.00     0.000 A 
ATOM      4  C4  BNZ d   1      -0.870   2.970   5.997  0.00  0.00     0.000 A 
ATOM      5  C5  BNZ d   1       0.435   2.520   6.000  0.00  0.00     0.000 A 
ATOM      6  C6  BNZ d   1       0.697   1.170   5.979  0.00  0.00     0.000 A 
ENDROOT
TORSDOF 0
ENDMDL
