MODEL 1
REMARK minimizedAffinity -0.639364898
REMARK minimizedRMSD -1
REMARK  0 active torsions:
REMARK  status: ('A' for Active; 'I' for Inactive)
ROOT
ATOM      1  C1  BNZ d   1      -4.477  -4.896  -4.976  0.00  0.00     0.000 A 
ATOM      2  C2  BNZ d   1      -3.644  -5.251  -3.949  0.00  0.00     0.000 A 
ATOM      3  C3  BNZ d   1      -2.348  -4.817  -3.917  0.00  0.00     0.000 A 
ATOM      4  C4  BNZ d   1      -1.876  -4.064  -4.931  0.00  0.00     0.000 A 
ATOM      5  C5  BNZ d   1      -2.701  -3.705  -5.979  0.00  0.00     0.000 A 
ATOM      6  C6  BNZ d   1      -4.016  -4.111  -5.988  0.00  0.00     0.000 A 
ENDROOT
TORSDOF 0
ENDMDL
