MODEL 1
REMARK minimizedAffinity 8.20798397
REMARK minimizedRMSD -1
REMARK  0 active torsions:
REMARK  status: ('A' for Active; 'I' for Inactive)
ROOT
ATOM      1  C1  BNZ d   1      -3.655  -0.657   1.772  0.00  0.00     0.000 A 
ATOM      2  C2  BNZ d   1      -2.320  -0.562   1.482  0.00  0.00     0.000 A 
ATOM      3  C3  BNZ d   1      -1.521   0.327   2.145  0.00  0.00     0.000 A 
ATOM      4  C4  BNZ d   1      -2.065   1.146   3.068  0.00  0.00     0.000 A 
ATOM      5  C5  BNZ d   1      -3.411   1.069   3.366  0.00  0.00     0.000 A 
ATOM      6  C6  BNZ d   1      -4.205   0.146   2.724  0.00  0.00     0.000 A 
ENDROOT
TORSDOF 0
ENDMDL
