MODEL 1
REMARK minimizedAffinity 2.38541222
REMARK minimizedRMSD -1
REMARK  0 active torsions:
REMARK  status: ('A' for Active; 'I' for Inactive)
ROOT
ATOM      1  C1  BNZ d   1      -2.814   2.727   3.388  0.00  0.00     0.000 A 
ATOM      2  C2  BNZ d   1      -1.995   2.389   4.433  0.00  0.00     0.000 A 
ATOM      3  C3  BNZ d   1      -2.283   1.316   5.229  0.00  0.00     0.000 A 
ATOM      4  C4  BNZ d   1      -3.409   0.607   5.005  0.00  0.00     0.000 A 
ATOM      5  C5  BNZ d   1      -4.249   0.941   3.962  0.00  0.00     0.000 A 
ATOM      6  C6  BNZ d   1      -3.936   1.998   3.139  0.00  0.00     0.000 A 
ENDROOT
TORSDOF 0
ENDMDL
