MODEL 1
REMARK minimizedAffinity -0.594707131
REMARK minimizedRMSD -1
REMARK  0 active torsions:
REMARK  status: ('A' for Active; 'I' for Inactive)
ROOT
ATOM      1  C1  BNZ d   1       1.366   4.544  -1.862  0.00  0.00     0.000 A 
ATOM      2  C2  BNZ d   1       1.283   4.756  -0.511  0.00  0.00     0.000 A 
ATOM      3  C3  BNZ d   1       1.165   3.706   0.356  0.00  0.00     0.000 A 
ATOM      4  C4  BNZ d   1       1.089   2.451  -0.129  0.00  0.00     0.000 A 
ATOM      5  C5  BNZ d   1       1.162   2.221  -1.489  0.00  0.00     0.000 A 
ATOM      6  C6  BNZ d   1       1.320   3.277  -2.356  0.00  0.00     0.000 A 
ENDROOT
TORSDOF 0
ENDMDL
