MODEL 1
REMARK minimizedAffinity -1.88854456
REMARK minimizedRMSD -1
REMARK  2 active torsions:
REMARK  status: ('A' for Active; 'I' for Inactive)
REMARK    1  A    between atoms: C1_2  and  C2_3 
REMARK    2  A    between atoms: C2_3  and  C3_4 
ROOT
ATOM      1  C3  UNL d   1       4.569  -3.781  -3.820  0.00  0.00    -0.075 A 
ATOM      2  C4  UNL d   1       4.938  -2.428  -3.839  0.00  0.00     0.002 A 
ATOM      3  C5  UNL d   1       5.645  -1.903  -4.921  0.00  0.00     0.002 A 
ATOM      4  C6  UNL d   1       6.000  -2.723  -5.990  0.00  0.00    -0.004 A 
ATOM      5  C7  UNL d   1       5.652  -4.072  -5.973  0.00  0.00     0.002 A 
ATOM      6  C8  UNL d   1       4.941  -4.600  -4.894  0.00  0.00     0.002 A 
ENDROOT
BRANCH   1   7
ATOM      7  C2  UNL d   1       3.778  -4.350  -2.665  0.00  0.00     0.056 C 
BRANCH   7   8
ATOM      8  C1  UNL d   1       2.260  -4.205  -2.817  0.00  0.00     0.007 C 
ATOM      9  C   UNL d   1       1.488  -4.652  -1.584  0.00  0.00     0.009 C 
ENDBRANCH   7   8
ENDBRANCH   1   7
TORSDOF 2
ENDMDL
