MODEL 1
REMARK minimizedAffinity 5.29926968
REMARK minimizedRMSD -1
REMARK  2 active torsions:
REMARK  status: ('A' for Active; 'I' for Inactive)
REMARK    1  A    between atoms: C1_2  and  C2_3 
REMARK    2  A    between atoms: C2_3  and  C3_4 
ROOT
ATOM      1  C3  UNL d   1       3.835  -5.282  -4.695  0.00  0.00    -0.075 A 
ATOM      2  C4  UNL d   1       4.921  -6.000  -5.217  0.00  0.00     0.002 A 
ATOM      3  C5  UNL d   1       5.976  -5.334  -5.842  0.00  0.00     0.002 A 
ATOM      4  C6  UNL d   1       5.953  -3.946  -5.962  0.00  0.00    -0.004 A 
ATOM      5  C7  UNL d   1       4.872  -3.224  -5.461  0.00  0.00     0.002 A 
ATOM      6  C8  UNL d   1       3.817  -3.888  -4.831  0.00  0.00     0.002 A 
ENDROOT
BRANCH   1   7
ATOM      7  C2  UNL d   1       2.705  -5.995  -3.991  0.00  0.00     0.056 C 
BRANCH   7   8
ATOM      8  C1  UNL d   1       1.362  -5.262  -4.068  0.00  0.00     0.007 C 
ATOM      9  C   UNL d   1       0.626  -5.216  -2.736  0.00  0.00     0.009 C 
ENDBRANCH   7   8
ENDBRANCH   1   7
TORSDOF 2
ENDMDL
