MODEL 1
REMARK minimizedAffinity 8.07635784
REMARK minimizedRMSD -1
REMARK  2 active torsions:
REMARK  status: ('A' for Active; 'I' for Inactive)
REMARK    1  A    between atoms: C1_2  and  C2_3 
REMARK    2  A    between atoms: C2_3  and  C3_4 
ROOT
ATOM      1  C3  UNL d   1      -1.150   0.070  -1.153  0.00  0.00    -0.075 A 
ATOM      2  C4  UNL d   1      -0.736   0.960  -0.152  0.00  0.00     0.002 A 
ATOM      3  C5  UNL d   1      -0.331   0.484   1.096  0.00  0.00     0.002 A 
ATOM      4  C6  UNL d   1      -0.345  -0.884   1.361  0.00  0.00    -0.004 A 
ATOM      5  C7  UNL d   1      -0.770  -1.775   0.378  0.00  0.00     0.002 A 
ATOM      6  C8  UNL d   1      -1.172  -1.302  -0.872  0.00  0.00     0.002 A 
ENDROOT
BRANCH   1   7
ATOM      7  C2  UNL d   1      -1.562   0.577  -2.515  0.00  0.00     0.056 C 
BRANCH   7   8
ATOM      8  C1  UNL d   1      -3.075   0.743  -2.688  0.00  0.00     0.007 C 
ATOM      9  C   UNL d   1      -3.525   2.198  -2.673  0.00  0.00     0.009 C 
ENDBRANCH   7   8
ENDBRANCH   1   7
TORSDOF 2
ENDMDL
