MODEL 1
REMARK minimizedAffinity 7.27121735
REMARK minimizedRMSD -1
REMARK  2 active torsions:
REMARK  status: ('A' for Active; 'I' for Inactive)
REMARK    1  A    between atoms: C1_2  and  C2_3 
REMARK    2  A    between atoms: C2_3  and  C3_4 
ROOT
ATOM      1  C3  UNL d   1       4.434  -3.719  -5.203  0.00  0.00    -0.075 A 
ATOM      2  C4  UNL d   1       5.155  -2.796  -5.974  0.00  0.00     0.002 A 
ATOM      3  C5  UNL d   1       4.825  -1.441  -5.949  0.00  0.00     0.002 A 
ATOM      4  C6  UNL d   1       3.765  -0.993  -5.164  0.00  0.00    -0.004 A 
ATOM      5  C7  UNL d   1       3.031  -1.903  -4.407  0.00  0.00     0.002 A 
ATOM      6  C8  UNL d   1       3.362  -3.259  -4.426  0.00  0.00     0.002 A 
ENDROOT
BRANCH   1   7
ATOM      7  C2  UNL d   1       4.805  -5.183  -5.203  0.00  0.00     0.056 C 
BRANCH   7   8
ATOM      8  C1  UNL d   1       4.119  -5.999  -4.102  0.00  0.00     0.007 C 
ATOM      9  C   UNL d   1       2.599  -5.928  -4.160  0.00  0.00     0.009 C 
ENDBRANCH   7   8
ENDBRANCH   1   7
TORSDOF 2
ENDMDL
