MODEL 1
REMARK minimizedAffinity 3.73277736
REMARK minimizedRMSD -1
REMARK  2 active torsions:
REMARK  status: ('A' for Active; 'I' for Inactive)
REMARK    1  A    between atoms: C1_2  and  C2_3 
REMARK    2  A    between atoms: C2_3  and  C3_4 
ROOT
ATOM      1  C3  UNL d   1       4.106  -3.616  -4.892  0.00  0.00    -0.075 A 
ATOM      2  C4  UNL d   1       3.744  -4.870  -4.378  0.00  0.00     0.002 A 
ATOM      3  C5  UNL d   1       4.511  -6.000  -4.662  0.00  0.00     0.002 A 
ATOM      4  C6  UNL d   1       5.640  -5.894  -5.470  0.00  0.00    -0.004 A 
ATOM      5  C7  UNL d   1       6.000  -4.657  -6.000  0.00  0.00     0.002 A 
ATOM      6  C8  UNL d   1       5.237  -3.523  -5.713  0.00  0.00     0.002 A 
ENDROOT
BRANCH   1   7
ATOM      7  C2  UNL d   1       3.297  -2.384  -4.564  0.00  0.00     0.056 C 
BRANCH   7   8
ATOM      8  C1  UNL d   1       2.802  -2.330  -3.115  0.00  0.00     0.007 C 
ATOM      9  C   UNL d   1       1.291  -2.177  -3.002  0.00  0.00     0.009 C 
ENDBRANCH   7   8
ENDBRANCH   1   7
TORSDOF 2
ENDMDL
