MODEL 1
REMARK minimizedAffinity -0.803432882
REMARK minimizedRMSD -1
REMARK  2 active torsions:
REMARK  status: ('A' for Active; 'I' for Inactive)
REMARK    1  A    between atoms: C1_2  and  C2_3 
REMARK    2  A    between atoms: C2_3  and  C3_4 
ROOT
ATOM      1  C3  UNL d   1       5.383  -2.562  -5.173  0.00  0.00    -0.075 A 
ATOM      2  C4  UNL d   1       4.257  -2.405  -4.351  0.00  0.00     0.002 A 
ATOM      3  C5  UNL d   1       3.746  -1.134  -4.087  0.00  0.00     0.002 A 
ATOM      4  C6  UNL d   1       4.358  -0.006  -4.629  0.00  0.00    -0.004 A 
ATOM      5  C7  UNL d   1       5.487  -0.150  -5.433  0.00  0.00     0.002 A 
ATOM      6  C8  UNL d   1       5.998  -1.421  -5.703  0.00  0.00     0.002 A 
ENDROOT
BRANCH   1   7
ATOM      7  C2  UNL d   1       5.924  -3.937  -5.487  0.00  0.00     0.056 C 
BRANCH   7   8
ATOM      8  C1  UNL d   1       5.999  -4.870  -4.274  0.00  0.00     0.007 C 
ATOM      9  C   UNL d   1       4.959  -5.981  -4.306  0.00  0.00     0.009 C 
ENDBRANCH   7   8
ENDBRANCH   1   7
TORSDOF 2
ENDMDL
