MODEL 1
REMARK minimizedAffinity -2.08464527
REMARK minimizedRMSD -1
REMARK  0 active torsions:
REMARK  status: ('A' for Active; 'I' for Inactive)
ROOT
ATOM      1  C   UNL d   1      -1.966  -1.523   2.065  0.00  0.00     0.020 A 
ATOM      2  C1  UNL d   1      -1.018  -1.034   2.963  0.00  0.00     0.020 A 
ATOM      3  C2  UNL d   1       0.067  -0.290   2.495  0.00  0.00     0.034 A 
ATOM      4  C3  UNL d   1       0.207  -0.032   1.127  0.00  0.00     0.017 A 
ATOM      5  C4  UNL d   1      -0.746  -0.523   0.227  0.00  0.00     0.017 A 
ATOM      6  C5  UNL d   1      -1.831  -1.267   0.700  0.00  0.00     0.034 A 
ATOM      7 Cl   UNL d   1      -0.641  -0.246  -1.476  0.00  0.00    -0.070 Cl
ATOM      8 Cl1  UNL d   1       1.574   0.895   0.619  0.00  0.00    -0.070 Cl
ENDROOT
TORSDOF 0
ENDMDL
