MODEL 1
REMARK minimizedAffinity -4.72365189
REMARK minimizedRMSD -1
REMARK  0 active torsions:
REMARK  status: ('A' for Active; 'I' for Inactive)
ROOT
ATOM      1  C   UNL d   1      -1.774   0.243  -0.780  0.00  0.00     0.020 A 
ATOM      2  C1  UNL d   1      -0.688   0.740  -1.499  0.00  0.00     0.020 A 
ATOM      3  C2  UNL d   1       0.569   0.826  -0.896  0.00  0.00     0.034 A 
ATOM      4  C3  UNL d   1       0.742   0.414   0.431  0.00  0.00     0.017 A 
ATOM      5  C4  UNL d   1      -0.348  -0.085   1.152  0.00  0.00     0.017 A 
ATOM      6  C5  UNL d   1      -1.604  -0.169   0.543  0.00  0.00     0.034 A 
ATOM      7 Cl   UNL d   1      -0.211  -0.613   2.792  0.00  0.00    -0.070 Cl
ATOM      8 Cl1  UNL d   1       2.324   0.549   1.113  0.00  0.00    -0.070 Cl
ENDROOT
TORSDOF 0
ENDMDL
