MODEL 1
REMARK minimizedAffinity -2.76525187
REMARK minimizedRMSD -1
REMARK  0 active torsions:
REMARK  status: ('A' for Active; 'I' for Inactive)
ROOT
ATOM      1  C   UNL d   1      -1.705  -0.862   2.082  0.00  0.00     0.020 A 
ATOM      2  C1  UNL d   1      -0.818  -0.431   3.068  0.00  0.00     0.020 A 
ATOM      3  C2  UNL d   1       0.417   0.112   2.708  0.00  0.00     0.034 A 
ATOM      4  C3  UNL d   1       0.769   0.227   1.358  0.00  0.00     0.017 A 
ATOM      5  C4  UNL d   1      -0.122  -0.205   0.369  0.00  0.00     0.017 A 
ATOM      6  C5  UNL d   1      -1.357  -0.749   0.735  0.00  0.00     0.034 A 
ATOM      7 Cl   UNL d   1       0.242  -0.096  -1.317  0.00  0.00    -0.070 Cl
ATOM      8 Cl1  UNL d   1       2.312   0.909   0.985  0.00  0.00    -0.070 Cl
ENDROOT
TORSDOF 0
ENDMDL
