MODEL 1
REMARK minimizedAffinity -1.30473852
REMARK minimizedRMSD -1
REMARK  0 active torsions:
REMARK  status: ('A' for Active; 'I' for Inactive)
ROOT
ATOM      1  C   UNL d   1       1.637   0.180   1.767  0.00  0.00     0.020 A 
ATOM      2  C1  UNL d   1       0.576   0.107   2.668  0.00  0.00     0.020 A 
ATOM      3  C2  UNL d   1      -0.736   0.031   2.197  0.00  0.00     0.034 A 
ATOM      4  C3  UNL d   1      -0.991   0.028   0.821  0.00  0.00     0.017 A 
ATOM      5  C4  UNL d   1       0.075   0.101  -0.083  0.00  0.00     0.017 A 
ATOM      6  C5  UNL d   1       1.387   0.177   0.394  0.00  0.00     0.034 A 
ATOM      7 Cl   UNL d   1      -0.160   0.102  -1.795  0.00  0.00    -0.070 Cl
ATOM      8 Cl1  UNL d   1      -2.638  -0.068   0.309  0.00  0.00    -0.070 Cl
ENDROOT
TORSDOF 0
ENDMDL
