MODEL 1
REMARK minimizedAffinity -2.03468871
REMARK minimizedRMSD -1
REMARK  0 active torsions:
REMARK  status: ('A' for Active; 'I' for Inactive)
ROOT
ATOM      1  C   UNL d   1       1.997  -2.274  -0.488  0.00  0.00     0.020 A 
ATOM      2  C1  UNL d   1       1.204  -2.054  -1.614  0.00  0.00     0.020 A 
ATOM      3  C2  UNL d   1       0.093  -1.212  -1.532  0.00  0.00     0.034 A 
ATOM      4  C3  UNL d   1      -0.229  -0.588  -0.322  0.00  0.00     0.017 A 
ATOM      5  C4  UNL d   1       0.567  -0.809   0.808  0.00  0.00     0.017 A 
ATOM      6  C5  UNL d   1       1.679  -1.653   0.720  0.00  0.00     0.034 A 
ATOM      7 Cl   UNL d   1       0.233  -0.074   2.336  0.00  0.00    -0.070 Cl
ATOM      8 Cl1  UNL d   1      -1.617   0.440  -0.293  0.00  0.00    -0.070 Cl
ENDROOT
TORSDOF 0
ENDMDL
