MODEL 1
REMARK minimizedAffinity -3.3401165
REMARK minimizedRMSD -1
REMARK  0 active torsions:
REMARK  status: ('A' for Active; 'I' for Inactive)
ROOT
ATOM      1  C   UNL d   1       0.133   0.946  -1.219  0.00  0.00     0.020 A 
ATOM      2  C1  UNL d   1       1.165   0.774  -0.297  0.00  0.00     0.020 A 
ATOM      3  C2  UNL d   1       0.903   0.183   0.941  0.00  0.00     0.034 A 
ATOM      4  C3  UNL d   1      -0.393  -0.237   1.261  0.00  0.00     0.017 A 
ATOM      5  C4  UNL d   1      -1.428  -0.064   0.334  0.00  0.00     0.017 A 
ATOM      6  C5  UNL d   1      -1.160   0.528  -0.904  0.00  0.00     0.034 A 
ATOM      7 Cl   UNL d   1      -3.053  -0.558   0.656  0.00  0.00    -0.070 Cl
ATOM      8 Cl1  UNL d   1      -0.645  -0.960   2.810  0.00  0.00    -0.070 Cl
ENDROOT
TORSDOF 0
ENDMDL
