MODEL 1
REMARK minimizedAffinity -2.33538079
REMARK minimizedRMSD -1
REMARK  0 active torsions:
REMARK  status: ('A' for Active; 'I' for Inactive)
ROOT
ATOM      1  C   UNL d   1      -1.565  -0.396   2.080  0.00  0.00     0.020 A 
ATOM      2  C1  UNL d   1      -0.563  -0.218   3.033  0.00  0.00     0.020 A 
ATOM      3  C2  UNL d   1       0.761  -0.032   2.629  0.00  0.00     0.034 A 
ATOM      4  C3  UNL d   1       1.086  -0.025   1.268  0.00  0.00     0.017 A 
ATOM      5  C4  UNL d   1       0.080  -0.203   0.311  0.00  0.00     0.017 A 
ATOM      6  C5  UNL d   1      -1.244  -0.389   0.722  0.00  0.00     0.034 A 
ATOM      7 Cl   UNL d   1       0.404  -0.205  -1.386  0.00  0.00    -0.070 Cl
ATOM      8 Cl1  UNL d   1       2.743   0.211   0.839  0.00  0.00    -0.070 Cl
ENDROOT
TORSDOF 0
ENDMDL
