MODEL 1
REMARK minimizedAffinity -3.69256902
REMARK minimizedRMSD -1
REMARK  0 active torsions:
REMARK  status: ('A' for Active; 'I' for Inactive)
ROOT
ATOM      1  C   UNL d   1      -1.244  -1.098   2.271  0.00  0.00     0.020 A 
ATOM      2  C1  UNL d   1      -0.310  -0.552   3.150  0.00  0.00     0.020 A 
ATOM      3  C2  UNL d   1       0.777   0.171   2.653  0.00  0.00     0.034 A 
ATOM      4  C3  UNL d   1       0.933   0.349   1.274  0.00  0.00     0.017 A 
ATOM      5  C4  UNL d   1      -0.006  -0.200   0.392  0.00  0.00     0.017 A 
ATOM      6  C5  UNL d   1      -1.092  -0.923   0.895  0.00  0.00     0.034 A 
ATOM      7 Cl   UNL d   1       0.119  -0.022  -1.323  0.00  0.00    -0.070 Cl
ATOM      8 Cl1  UNL d   1       2.300   1.254   0.730  0.00  0.00    -0.070 Cl
ENDROOT
TORSDOF 0
ENDMDL
