MODEL 1
REMARK minimizedAffinity -4.66081905
REMARK minimizedRMSD -1
REMARK  0 active torsions:
REMARK  status: ('A' for Active; 'I' for Inactive)
ROOT
ATOM      1  C   UNL d   1      -1.235   0.382  -1.378  0.00  0.00     0.020 A 
ATOM      2  C1  UNL d   1      -2.263  -0.185  -0.624  0.00  0.00     0.020 A 
ATOM      3  C2  UNL d   1      -2.044  -0.519   0.714  0.00  0.00     0.034 A 
ATOM      4  C3  UNL d   1      -0.796  -0.286   1.303  0.00  0.00     0.017 A 
ATOM      5  C4  UNL d   1       0.234   0.284   0.546  0.00  0.00     0.017 A 
ATOM      6  C5  UNL d   1       0.010   0.616  -0.794  0.00  0.00     0.034 A 
ATOM      7 Cl   UNL d   1       1.801   0.601   1.204  0.00  0.00    -0.070 Cl
ATOM      8 Cl1  UNL d   1      -0.597  -0.723   2.963  0.00  0.00    -0.070 Cl
ENDROOT
TORSDOF 0
ENDMDL
