MODEL 1
REMARK minimizedAffinity -3.36234903
REMARK minimizedRMSD -1
REMARK  0 active torsions:
REMARK  status: ('A' for Active; 'I' for Inactive)
ROOT
ATOM      1  C   UNL d   1       1.454   0.481  -0.159  0.00  0.00     0.020 A 
ATOM      2  C1  UNL d   1       0.433   0.443  -1.108  0.00  0.00     0.020 A 
ATOM      3  C2  UNL d   1      -0.847   0.022  -0.740  0.00  0.00     0.034 A 
ATOM      4  C3  UNL d   1      -1.109  -0.362   0.580  0.00  0.00     0.017 A 
ATOM      5  C4  UNL d   1      -0.084  -0.322   1.532  0.00  0.00     0.017 A 
ATOM      6  C5  UNL d   1       1.195   0.100   1.158  0.00  0.00     0.034 A 
ATOM      7 Cl   UNL d   1      -0.332  -0.780   3.180  0.00  0.00    -0.070 Cl
ATOM      8 Cl1  UNL d   1      -2.715  -0.871   0.965  0.00  0.00    -0.070 Cl
ENDROOT
TORSDOF 0
ENDMDL
