MODEL 1
REMARK minimizedAffinity -3.60698819
REMARK minimizedRMSD -1
REMARK  0 active torsions:
REMARK  status: ('A' for Active; 'I' for Inactive)
ROOT
ATOM      1  C   UNL d   1      -2.221  -0.405   1.961  0.00  0.00     0.020 A 
ATOM      2  C1  UNL d   1      -1.271  -0.544   2.973  0.00  0.00     0.020 A 
ATOM      3  C2  UNL d   1       0.090  -0.488   2.665  0.00  0.00     0.034 A 
ATOM      4  C3  UNL d   1       0.505  -0.293   1.343  0.00  0.00     0.017 A 
ATOM      5  C4  UNL d   1      -0.449  -0.154   0.328  0.00  0.00     0.017 A 
ATOM      6  C5  UNL d   1      -1.811  -0.211   0.642  0.00  0.00     0.034 A 
ATOM      7 Cl   UNL d   1      -0.013   0.089  -1.327  0.00  0.00    -0.070 Cl
ATOM      8 Cl1  UNL d   1       2.204  -0.235   1.034  0.00  0.00    -0.070 Cl
ENDROOT
TORSDOF 0
ENDMDL
