MODEL 1
REMARK minimizedAffinity -1.3268044
REMARK minimizedRMSD -1
REMARK  0 active torsions:
REMARK  status: ('A' for Active; 'I' for Inactive)
ROOT
ATOM      1  C   UNL d   1      -0.683   1.200  -0.594  0.00  0.00     0.020 A 
ATOM      2  C1  UNL d   1      -1.811   0.533  -0.117  0.00  0.00     0.020 A 
ATOM      3  C2  UNL d   1      -1.754  -0.154   1.098  0.00  0.00     0.034 A 
ATOM      4  C3  UNL d   1      -0.568  -0.174   1.840  0.00  0.00     0.017 A 
ATOM      5  C4  UNL d   1       0.563   0.496   1.361  0.00  0.00     0.017 A 
ATOM      6  C5  UNL d   1       0.501   1.182   0.144  0.00  0.00     0.034 A 
ATOM      7 Cl   UNL d   1       2.063   0.516   2.220  0.00  0.00    -0.070 Cl
ATOM      8 Cl1  UNL d   1      -0.569  -1.043   3.334  0.00  0.00    -0.070 Cl
ENDROOT
TORSDOF 0
ENDMDL
