MODEL 1
REMARK minimizedAffinity -3.84626174
REMARK minimizedRMSD -1
REMARK  0 active torsions:
REMARK  status: ('A' for Active; 'I' for Inactive)
ROOT
ATOM      1  C   UNL d   1       1.236   0.480   0.211  0.00  0.00     0.020 A 
ATOM      2  C1  UNL d   1       0.254   0.769  -0.737  0.00  0.00     0.020 A 
ATOM      3  C2  UNL d   1      -1.079   0.438  -0.484  0.00  0.00     0.034 A 
ATOM      4  C3  UNL d   1      -1.434  -0.184   0.719  0.00  0.00     0.017 A 
ATOM      5  C4  UNL d   1      -0.448  -0.474   1.669  0.00  0.00     0.017 A 
ATOM      6  C5  UNL d   1       0.885  -0.140   1.411  0.00  0.00     0.034 A 
ATOM      7 Cl   UNL d   1      -0.809  -1.239   3.176  0.00  0.00    -0.070 Cl
ATOM      8 Cl1  UNL d   1      -3.101  -0.565   0.964  0.00  0.00    -0.070 Cl
ENDROOT
TORSDOF 0
ENDMDL
