MODEL 1
REMARK minimizedAffinity -4.65236092
REMARK minimizedRMSD -1
REMARK  0 active torsions:
REMARK  status: ('A' for Active; 'I' for Inactive)
ROOT
ATOM      1  C   UNL d   1       0.737   1.305  -0.784  0.00  0.00     0.020 A 
ATOM      2  C1  UNL d   1       1.609   1.199   0.298  0.00  0.00     0.020 A 
ATOM      3  C2  UNL d   1       1.231   0.475   1.431  0.00  0.00     0.034 A 
ATOM      4  C3  UNL d   1      -0.023  -0.145   1.484  0.00  0.00     0.017 A 
ATOM      5  C4  UNL d   1      -0.897  -0.038   0.397  0.00  0.00     0.017 A 
ATOM      6  C5  UNL d   1      -0.514   0.688  -0.735  0.00  0.00     0.034 A 
ATOM      7 Cl   UNL d   1      -2.461  -0.775   0.389  0.00  0.00    -0.070 Cl
ATOM      8 Cl1  UNL d   1      -0.424  -1.024   2.916  0.00  0.00    -0.070 Cl
ENDROOT
TORSDOF 0
ENDMDL
