MODEL 1
REMARK minimizedAffinity -2.57301283
REMARK minimizedRMSD -1
REMARK  0 active torsions:
REMARK  status: ('A' for Active; 'I' for Inactive)
ROOT
ATOM      1  C   UNL d   1       0.477  -0.612   2.317  0.00  0.00     0.020 A 
ATOM      2  C1  UNL d   1      -0.861  -0.994   2.393  0.00  0.00     0.020 A 
ATOM      3  C2  UNL d   1      -1.737  -0.681   1.351  0.00  0.00     0.034 A 
ATOM      4  C3  UNL d   1      -1.275   0.015   0.229  0.00  0.00     0.017 A 
ATOM      5  C4  UNL d   1       0.069   0.398   0.153  0.00  0.00     0.017 A 
ATOM      6  C5  UNL d   1       0.941   0.083   1.199  0.00  0.00     0.034 A 
ATOM      7 Cl   UNL d   1       0.712   1.260  -1.200  0.00  0.00    -0.070 Cl
ATOM      8 Cl1  UNL d   1      -2.414   0.368  -1.022  0.00  0.00    -0.070 Cl
ENDROOT
TORSDOF 0
ENDMDL
