MODEL 1
REMARK minimizedAffinity -3.46931267
REMARK minimizedRMSD -1
REMARK  0 active torsions:
REMARK  status: ('A' for Active; 'I' for Inactive)
ROOT
ATOM      1  C   UNL d   1      -1.262  -1.020   2.584  0.00  0.00     0.020 A 
ATOM      2  C1  UNL d   1      -0.458  -0.177   3.349  0.00  0.00     0.020 A 
ATOM      3  C2  UNL d   1       0.589   0.525   2.749  0.00  0.00     0.034 A 
ATOM      4  C3  UNL d   1       0.836   0.384   1.378  0.00  0.00     0.017 A 
ATOM      5  C4  UNL d   1       0.028  -0.462   0.610  0.00  0.00     0.017 A 
ATOM      6  C5  UNL d   1      -1.019  -1.162   1.217  0.00  0.00     0.034 A 
ATOM      7 Cl   UNL d   1       0.270  -0.687  -1.086  0.00  0.00    -0.070 Cl
ATOM      8 Cl1  UNL d   1       2.148   1.282   0.701  0.00  0.00    -0.070 Cl
ENDROOT
TORSDOF 0
ENDMDL
