MODEL 1
REMARK minimizedAffinity -3.29906058
REMARK minimizedRMSD -1
REMARK  0 active torsions:
REMARK  status: ('A' for Active; 'I' for Inactive)
ROOT
ATOM      1  C   UNL d   1      -0.593  -0.466   3.087  0.00  0.00     0.020 A 
ATOM      2  C1  UNL d   1      -1.172  -1.336   2.165  0.00  0.00     0.020 A 
ATOM      3  C2  UNL d   1      -0.740  -1.335   0.837  0.00  0.00     0.034 A 
ATOM      4  C3  UNL d   1       0.274  -0.462   0.428  0.00  0.00     0.017 A 
ATOM      5  C4  UNL d   1       0.855   0.412   1.354  0.00  0.00     0.017 A 
ATOM      6  C5  UNL d   1       0.418   0.407   2.683  0.00  0.00     0.034 A 
ATOM      7 Cl   UNL d   1       2.111   1.519   0.924  0.00  0.00    -0.070 Cl
ATOM      8 Cl1  UNL d   1       0.760  -0.514  -1.230  0.00  0.00    -0.070 Cl
ENDROOT
TORSDOF 0
ENDMDL
