MODEL 1
REMARK minimizedAffinity 0.212845579
REMARK minimizedRMSD -1
REMARK  0 active torsions:
REMARK  status: ('A' for Active; 'I' for Inactive)
ROOT
ATOM      1  C   UNL d   1      -0.734   0.332   2.835  0.00  0.00     0.020 A 
ATOM      2  C1  UNL d   1       0.610   0.213   2.484  0.00  0.00     0.020 A 
ATOM      3  C2  UNL d   1       0.977   0.144   1.138  0.00  0.00     0.034 A 
ATOM      4  C3  UNL d   1      -0.002   0.193   0.139  0.00  0.00     0.017 A 
ATOM      5  C4  UNL d   1      -1.351   0.312   0.492  0.00  0.00     0.017 A 
ATOM      6  C5  UNL d   1      -1.712   0.381   1.841  0.00  0.00     0.034 A 
ATOM      7 Cl   UNL d   1      -2.615   0.380  -0.684  0.00  0.00    -0.070 Cl
ATOM      8 Cl1  UNL d   1       0.523   0.103  -1.505  0.00  0.00    -0.070 Cl
ENDROOT
TORSDOF 0
ENDMDL
