MODEL 1
REMARK minimizedAffinity 3.38172722
REMARK minimizedRMSD -1
REMARK  0 active torsions:
REMARK  status: ('A' for Active; 'I' for Inactive)
ROOT
ATOM      1  C1  BNZ d   1      -4.324   3.467  -5.999  0.00  0.00     0.000 A 
ATOM      2  C2  BNZ d   1      -5.317   2.524  -6.000  0.00  0.00     0.000 A 
ATOM      3  C3  BNZ d   1      -5.608   1.813  -4.869  0.00  0.00     0.000 A 
ATOM      4  C4  BNZ d   1      -4.879   2.017  -3.752  0.00  0.00     0.000 A 
ATOM      5  C5  BNZ d   1      -3.868   2.957  -3.739  0.00  0.00     0.000 A 
ATOM      6  C6  BNZ d   1      -3.605   3.698  -4.868  0.00  0.00     0.000 A 
ENDROOT
TORSDOF 0
ENDMDL
