MODEL 1
REMARK minimizedAffinity 2.75557637
REMARK minimizedRMSD -1
REMARK  0 active torsions:
REMARK  status: ('A' for Active; 'I' for Inactive)
ROOT
ATOM      1  C1  BNZ d   1      -4.521   1.732  -4.002  0.00  0.00     0.000 A 
ATOM      2  C2  BNZ d   1      -4.504   3.089  -4.187  0.00  0.00     0.000 A 
ATOM      3  C3  BNZ d   1      -5.250   3.670  -5.174  0.00  0.00     0.000 A 
ATOM      4  C4  BNZ d   1      -5.979   2.892  -5.999  0.00  0.00     0.000 A 
ATOM      5  C5  BNZ d   1      -5.999   1.521  -5.832  0.00  0.00     0.000 A 
ATOM      6  C6  BNZ d   1      -5.278   0.943  -4.813  0.00  0.00     0.000 A 
ENDROOT
TORSDOF 0
ENDMDL
