MODEL 1
REMARK minimizedAffinity 3.19701505
REMARK minimizedRMSD -1
REMARK  0 active torsions:
REMARK  status: ('A' for Active; 'I' for Inactive)
ROOT
ATOM      1  C1  BNZ d   1       0.119   0.568   1.076  0.00  0.00     0.000 A 
ATOM      2  C2  BNZ d   1       0.432  -0.323   0.085  0.00  0.00     0.000 A 
ATOM      3  C3  BNZ d   1       0.586   0.093  -1.208  0.00  0.00     0.000 A 
ATOM      4  C4  BNZ d   1       0.389   1.392  -1.514  0.00  0.00     0.000 A 
ATOM      5  C5  BNZ d   1       0.064   2.301  -0.527  0.00  0.00     0.000 A 
ATOM      6  C6  BNZ d   1      -0.052   1.885   0.779  0.00  0.00     0.000 A 
ENDROOT
TORSDOF 0
ENDMDL
