MODEL 1
REMARK minimizedAffinity 2.39592862
REMARK minimizedRMSD -1
REMARK  0 active torsions:
REMARK  status: ('A' for Active; 'I' for Inactive)
ROOT
ATOM      1  C1  BNZ d   1      -5.992   2.712  -5.998  0.00  0.00     0.000 A 
ATOM      2  C2  BNZ d   1      -6.000   1.342  -6.000  0.00  0.00     0.000 A 
ATOM      3  C3  BNZ d   1      -5.230   0.637  -5.118  0.00  0.00     0.000 A 
ATOM      4  C4  BNZ d   1      -4.424   1.300  -4.264  0.00  0.00     0.000 A 
ATOM      5  C5  BNZ d   1      -4.398   2.680  -4.256  0.00  0.00     0.000 A 
ATOM      6  C6  BNZ d   1      -5.204   3.387  -5.118  0.00  0.00     0.000 A 
ENDROOT
TORSDOF 0
ENDMDL
