MODEL 1
REMARK minimizedAffinity 1.96477664
REMARK minimizedRMSD -1
REMARK  0 active torsions:
REMARK  status: ('A' for Active; 'I' for Inactive)
ROOT
ATOM      1  C1  BNZ d   1      -5.999   2.625  -5.999  0.00  0.00     0.000 A 
ATOM      2  C2  BNZ d   1      -5.993   1.255  -5.998  0.00  0.00     0.000 A 
ATOM      3  C3  BNZ d   1      -5.315   0.559  -5.037  0.00  0.00     0.000 A 
ATOM      4  C4  BNZ d   1      -4.613   1.232  -4.102  0.00  0.00     0.000 A 
ATOM      5  C5  BNZ d   1      -4.602   2.612  -4.095  0.00  0.00     0.000 A 
ATOM      6  C6  BNZ d   1      -5.317   3.310  -5.041  0.00  0.00     0.000 A 
ENDROOT
TORSDOF 0
ENDMDL
