MODEL 1
REMARK minimizedAffinity 1.60709417
REMARK minimizedRMSD -1
REMARK  0 active torsions:
REMARK  status: ('A' for Active; 'I' for Inactive)
ROOT
ATOM      1  C1  BNZ d   1      -5.158   4.045  -5.335  0.00  0.00     0.000 A 
ATOM      2  C2  BNZ d   1      -5.997   3.187  -5.994  0.00  0.00     0.000 A 
ATOM      3  C3  BNZ d   1      -6.000   1.851  -5.705  0.00  0.00     0.000 A 
ATOM      4  C4  BNZ d   1      -5.136   1.369  -4.788  0.00  0.00     0.000 A 
ATOM      5  C5  BNZ d   1      -4.276   2.220  -4.122  0.00  0.00     0.000 A 
ATOM      6  C6  BNZ d   1      -4.304   3.570  -4.388  0.00  0.00     0.000 A 
ENDROOT
TORSDOF 0
ENDMDL
