MODEL 1
REMARK minimizedAffinity 2.44894528
REMARK minimizedRMSD -1
REMARK  0 active torsions:
REMARK  status: ('A' for Active; 'I' for Inactive)
ROOT
ATOM      1  C1  BNZ d   1       0.118   1.360  -0.749  0.00  0.00     0.000 A 
ATOM      2  C2  BNZ d   1       0.243   2.628  -0.247  0.00  0.00     0.000 A 
ATOM      3  C3  BNZ d   1       0.224   2.851   1.102  0.00  0.00     0.000 A 
ATOM      4  C4  BNZ d   1       0.040   1.814   1.943  0.00  0.00     0.000 A 
ATOM      5  C5  BNZ d   1      -0.097   0.531   1.452  0.00  0.00     0.000 A 
ATOM      6  C6  BNZ d   1      -0.038   0.305   0.096  0.00  0.00     0.000 A 
ENDROOT
TORSDOF 0
ENDMDL
