MODEL 1
REMARK minimizedAffinity -2.68952107
REMARK minimizedRMSD -1
REMARK  0 active torsions:
REMARK  status: ('A' for Active; 'I' for Inactive)
ROOT
ATOM      1  C1  BNZ d   1      -4.572   3.272  -5.027  0.00  0.00     0.000 A 
ATOM      2  C2  BNZ d   1      -4.189   2.364  -5.978  0.00  0.00     0.000 A 
ATOM      3  C3  BNZ d   1      -4.724   1.106  -6.000  0.00  0.00     0.000 A 
ATOM      4  C4  BNZ d   1      -5.610   0.746  -5.049  0.00  0.00     0.000 A 
ATOM      5  C5  BNZ d   1      -6.000   1.647  -4.079  0.00  0.00     0.000 A 
ATOM      6  C6  BNZ d   1      -5.488   2.925  -4.083  0.00  0.00     0.000 A 
ENDROOT
TORSDOF 0
ENDMDL
