MODEL 1
REMARK minimizedAffinity -0.129432231
REMARK minimizedRMSD -1
REMARK  0 active torsions:
REMARK  status: ('A' for Active; 'I' for Inactive)
ROOT
ATOM      1  C1  BNZ d   1      -3.822   2.077  -4.053  0.00  0.00     0.000 A 
ATOM      2  C2  BNZ d   1      -2.497   2.203  -3.729  0.00  0.00     0.000 A 
ATOM      3  C3  BNZ d   1      -1.757   3.248  -4.205  0.00  0.00     0.000 A 
ATOM      4  C4  BNZ d   1      -2.330   4.143  -5.036  0.00  0.00     0.000 A 
ATOM      5  C5  BNZ d   1      -3.662   4.024  -5.379  0.00  0.00     0.000 A 
ATOM      6  C6  BNZ d   1      -4.415   2.993  -4.866  0.00  0.00     0.000 A 
ENDROOT
TORSDOF 0
ENDMDL
