MODEL 1
REMARK minimizedAffinity 0.344914645
REMARK minimizedRMSD -1
REMARK  0 active torsions:
REMARK  status: ('A' for Active; 'I' for Inactive)
ROOT
ATOM      1  C1  BNZ d   1       1.043   1.158  -1.356  0.00  0.00     0.000 A 
ATOM      2  C2  BNZ d   1       0.395   2.184  -0.720  0.00  0.00     0.000 A 
ATOM      3  C3  BNZ d   1      -0.065   2.035   0.559  0.00  0.00     0.000 A 
ATOM      4  C4  BNZ d   1       0.087   0.849   1.184  0.00  0.00     0.000 A 
ATOM      5  C5  BNZ d   1       0.729  -0.197   0.553  0.00  0.00     0.000 A 
ATOM      6  C6  BNZ d   1       1.226  -0.031  -0.720  0.00  0.00     0.000 A 
ENDROOT
TORSDOF 0
ENDMDL
