MODEL 1
REMARK minimizedAffinity 1.91749477
REMARK minimizedRMSD -1
REMARK  0 active torsions:
REMARK  status: ('A' for Active; 'I' for Inactive)
ROOT
ATOM      1  C1  BNZ d   1       0.305   2.132  -0.192  0.00  0.00     0.000 A 
ATOM      2  C2  BNZ d   1       0.492   3.361   0.382  0.00  0.00     0.000 A 
ATOM      3  C3  BNZ d   1       0.443   3.514   1.739  0.00  0.00     0.000 A 
ATOM      4  C4  BNZ d   1       0.169   2.447   2.517  0.00  0.00     0.000 A 
ATOM      5  C5  BNZ d   1      -0.031   1.203   1.953  0.00  0.00     0.000 A 
ATOM      6  C6  BNZ d   1       0.057   1.045   0.589  0.00  0.00     0.000 A 
ENDROOT
TORSDOF 0
ENDMDL
