MODEL 1
REMARK minimizedAffinity -0.530225873
REMARK minimizedRMSD -1
REMARK  0 active torsions:
REMARK  status: ('A' for Active; 'I' for Inactive)
ROOT
ATOM      1  C1  BNZ d   1      -4.997   2.223  -6.000  0.00  0.00     0.000 A 
ATOM      2  C2  BNZ d   1      -5.989   3.168  -5.996  0.00  0.00     0.000 A 
ATOM      3  C3  BNZ d   1      -5.998   4.169  -5.066  0.00  0.00     0.000 A 
ATOM      4  C4  BNZ d   1      -5.041   4.202  -4.117  0.00  0.00     0.000 A 
ATOM      5  C5  BNZ d   1      -4.039   3.251  -4.101  0.00  0.00     0.000 A 
ATOM      6  C6  BNZ d   1      -4.011   2.268  -5.063  0.00  0.00     0.000 A 
ENDROOT
TORSDOF 0
ENDMDL
