MODEL 1
REMARK minimizedAffinity 0.479158938
REMARK minimizedRMSD -1
REMARK  0 active torsions:
REMARK  status: ('A' for Active; 'I' for Inactive)
ROOT
ATOM      1  C1  BNZ d   1      -0.273   0.784   0.301  0.00  0.00     0.000 A 
ATOM      2  C2  BNZ d   1      -0.652   2.001  -0.200  0.00  0.00     0.000 A 
ATOM      3  C3  BNZ d   1      -0.331   3.158   0.454  0.00  0.00     0.000 A 
ATOM      4  C4  BNZ d   1       0.331   3.095   1.627  0.00  0.00     0.000 A 
ATOM      5  C5  BNZ d   1       0.712   1.875   2.150  0.00  0.00     0.000 A 
ATOM      6  C6  BNZ d   1       0.422   0.715   1.469  0.00  0.00     0.000 A 
ENDROOT
TORSDOF 0
ENDMDL
