MODEL 1
REMARK minimizedAffinity 6.05354929
REMARK minimizedRMSD -1
REMARK  1 active torsions:
REMARK  status: ('A' for Active; 'I' for Inactive)
REMARK    1  A    between atoms: C1_2  and  C2_3 
ROOT
ATOM      1  C2  UNL d   1      -2.946   3.011   1.053  0.00  0.00    -0.077 A 
ATOM      2  C3  UNL d   1      -3.813   2.746   2.122  0.00  0.00     0.002 A 
ATOM      3  C4  UNL d   1      -5.123   3.230   2.106  0.00  0.00     0.002 A 
ATOM      4  C5  UNL d   1      -5.577   3.979   1.022  0.00  0.00    -0.004 A 
ATOM      5  C6  UNL d   1      -4.721   4.250  -0.044  0.00  0.00     0.002 A 
ATOM      6  C7  UNL d   1      -3.412   3.768  -0.030  0.00  0.00     0.002 A 
ENDROOT
BRANCH   1   7
ATOM      7  C1  UNL d   1      -1.549   2.448   1.046  0.00  0.00     0.055 C 
ATOM      8  C   UNL d   1      -1.553   0.961   0.723  0.00  0.00     0.019 C 
ENDBRANCH   1   7
TORSDOF 1
ENDMDL
