MODEL 1
REMARK minimizedAffinity 8.76354027
REMARK minimizedRMSD -1
REMARK  1 active torsions:
REMARK  status: ('A' for Active; 'I' for Inactive)
REMARK    1  A    between atoms: C1_2  and  C2_3 
ROOT
ATOM      1  C2  UNL d   1       3.756   1.816   3.541  0.00  0.00    -0.077 A 
ATOM      2  C3  UNL d   1       4.869   1.847   4.394  0.00  0.00     0.002 A 
ATOM      3  C4  UNL d   1       4.839   1.176   5.618  0.00  0.00     0.002 A 
ATOM      4  C5  UNL d   1       3.702   0.466   5.998  0.00  0.00    -0.004 A 
ATOM      5  C6  UNL d   1       2.590   0.432   5.158  0.00  0.00     0.002 A 
ATOM      6  C7  UNL d   1       2.617   1.103   3.935  0.00  0.00     0.002 A 
ENDROOT
BRANCH   1   7
ATOM      7  C1  UNL d   1       3.804   2.498   2.199  0.00  0.00     0.055 C 
ATOM      8  C   UNL d   1       3.119   1.662   1.128  0.00  0.00     0.019 C 
ENDBRANCH   1   7
TORSDOF 1
ENDMDL
