MODEL 1
REMARK minimizedAffinity 13.5719671
REMARK minimizedRMSD -1
REMARK  1 active torsions:
REMARK  status: ('A' for Active; 'I' for Inactive)
REMARK    1  A    between atoms: C1_2  and  C2_3 
ROOT
ATOM      1  C2  UNL d   1      -0.422   0.477  -1.933  0.00  0.00    -0.077 A 
ATOM      2  C3  UNL d   1       0.353  -0.614  -1.514  0.00  0.00     0.002 A 
ATOM      3  C4  UNL d   1       0.785  -0.706  -0.190  0.00  0.00     0.002 A 
ATOM      4  C5  UNL d   1       0.446   0.288   0.726  0.00  0.00    -0.004 A 
ATOM      5  C6  UNL d   1      -0.322   1.378   0.319  0.00  0.00     0.002 A 
ATOM      6  C7  UNL d   1      -0.755   1.471  -1.005  0.00  0.00     0.002 A 
ENDROOT
BRANCH   1   7
ATOM      7  C1  UNL d   1      -0.931   0.553  -3.349  0.00  0.00     0.055 C 
ATOM      8  C   UNL d   1      -1.851  -0.616  -3.669  0.00  0.00     0.019 C 
ENDBRANCH   1   7
TORSDOF 1
ENDMDL
