MODEL 1
REMARK minimizedAffinity 3.58949995
REMARK minimizedRMSD -1
REMARK  1 active torsions:
REMARK  status: ('A' for Active; 'I' for Inactive)
REMARK    1  A    between atoms: C1_2  and  C2_3 
ROOT
ATOM      1  C2  UNL d   1       0.384   0.656  -0.006  0.00  0.00    -0.077 A 
ATOM      2  C3  UNL d   1       0.780   2.000   0.044  0.00  0.00     0.002 A 
ATOM      3  C4  UNL d   1      -0.115   2.984   0.467  0.00  0.00     0.002 A 
ATOM      4  C5  UNL d   1      -1.409   2.635   0.847  0.00  0.00    -0.004 A 
ATOM      5  C6  UNL d   1      -1.813   1.302   0.799  0.00  0.00     0.002 A 
ATOM      6  C7  UNL d   1      -0.920   0.316   0.375  0.00  0.00     0.002 A 
ENDROOT
BRANCH   1   7
ATOM      7  C1  UNL d   1       1.363  -0.414  -0.414  0.00  0.00     0.055 C 
ATOM      8  C   UNL d   1       2.427  -0.627   0.652  0.00  0.00     0.019 C 
ENDBRANCH   1   7
TORSDOF 1
ENDMDL
