MODEL 1
REMARK minimizedAffinity 8.6967411
REMARK minimizedRMSD -1
REMARK  1 active torsions:
REMARK  status: ('A' for Active; 'I' for Inactive)
REMARK    1  A    between atoms: C1_2  and  C2_3 
ROOT
ATOM      1  C2  UNL d   1       1.625  -2.362   4.168  0.00  0.00    -0.077 A 
ATOM      2  C3  UNL d   1       2.008  -2.226   2.826  0.00  0.00     0.002 A 
ATOM      3  C4  UNL d   1       2.369  -0.977   2.317  0.00  0.00     0.002 A 
ATOM      4  C5  UNL d   1       2.356   0.144   3.144  0.00  0.00    -0.004 A 
ATOM      5  C6  UNL d   1       1.975   0.020   4.480  0.00  0.00     0.002 A 
ATOM      6  C7  UNL d   1       1.613  -1.228   4.990  0.00  0.00     0.002 A 
ENDROOT
BRANCH   1   7
ATOM      7  C1  UNL d   1       1.283  -3.716   4.731  0.00  0.00     0.055 C 
ATOM      8  C   UNL d   1       1.959  -4.830   3.945  0.00  0.00     0.019 C 
ENDBRANCH   1   7
TORSDOF 1
ENDMDL
