MODEL 1
REMARK minimizedAffinity -2.02718306
REMARK minimizedRMSD -1
REMARK  1 active torsions:
REMARK  status: ('A' for Active; 'I' for Inactive)
REMARK    1  A    between atoms: C1_2  and  C2_3 
ROOT
ATOM      1  C2  UNL d   1      -0.277  -0.201  -0.153  0.00  0.00    -0.076 A 
ATOM      2  C3  UNL d   1      -1.335   0.145   0.705  0.00  0.00     0.004 A 
ATOM      3  C4  UNL d   1      -1.307  -0.200   2.055  0.00  0.00    -0.003 A 
ATOM      4  C5  UNL d   1      -0.219  -0.896   2.570  0.00  0.00     0.000 A 
ATOM      5  C6  UNL d   1       0.848  -1.232   1.737  0.00  0.00     0.000 A 
ATOM      6  C7  UNL d   1       0.843  -0.878   0.377  0.00  0.00    -0.073 A 
ATOM      7  C8  UNL d   1       2.017  -1.271  -0.476  0.00  0.00     0.078 C 
ENDROOT
BRANCH   1   8
ATOM      8  C1  UNL d   1      -0.376   0.176  -1.614  0.00  0.00     0.053 C 
ATOM      9  C   UNL d   1      -1.182   1.446  -1.834  0.00  0.00     0.018 C 
ENDBRANCH   1   8
TORSDOF 1
ENDMDL
