MODEL 1
REMARK minimizedAffinity -0.0589238405
REMARK minimizedRMSD -1
REMARK  1 active torsions:
REMARK  status: ('A' for Active; 'I' for Inactive)
REMARK    1  A    between atoms: C1_2  and  C2_3 
ROOT
ATOM      1  C2  UNL d   1      -0.860   0.841  -0.983  0.00  0.00    -0.076 A 
ATOM      2  C3  UNL d   1      -1.368   1.302   0.244  0.00  0.00     0.004 A 
ATOM      3  C4  UNL d   1      -1.054   0.656   1.439  0.00  0.00    -0.003 A 
ATOM      4  C5  UNL d   1      -0.228  -0.462   1.426  0.00  0.00     0.000 A 
ATOM      5  C6  UNL d   1       0.299  -0.923   0.220  0.00  0.00     0.000 A 
ATOM      6  C7  UNL d   1       0.006  -0.273  -0.992  0.00  0.00    -0.073 A 
ATOM      7  C8  UNL d   1       0.597  -0.817  -2.264  0.00  0.00     0.078 C 
ENDROOT
BRANCH   1   8
ATOM      8  C1  UNL d   1      -1.256   1.566  -2.249  0.00  0.00     0.053 C 
ATOM      9  C   UNL d   1      -0.285   2.680  -2.611  0.00  0.00     0.018 C 
ENDBRANCH   1   8
TORSDOF 1
ENDMDL
