MODEL 1
REMARK minimizedAffinity -1.93268502
REMARK minimizedRMSD -1
REMARK  1 active torsions:
REMARK  status: ('A' for Active; 'I' for Inactive)
REMARK    1  A    between atoms: C1_2  and  C2_3 
ROOT
ATOM      1  C2  UNL d   1      -0.667  -0.306   1.353  0.00  0.00    -0.076 A 
ATOM      2  C3  UNL d   1      -0.167  -1.215   2.302  0.00  0.00     0.004 A 
ATOM      3  C4  UNL d   1       0.925  -2.030   2.009  0.00  0.00    -0.003 A 
ATOM      4  C5  UNL d   1       1.536  -1.948   0.763  0.00  0.00     0.000 A 
ATOM      5  C6  UNL d   1       1.065  -1.040  -0.185  0.00  0.00     0.000 A 
ATOM      6  C7  UNL d   1      -0.025  -0.200   0.100  0.00  0.00    -0.073 A 
ATOM      7  C8  UNL d   1      -0.496   0.757  -0.961  0.00  0.00     0.078 C 
ENDROOT
BRANCH   1   8
ATOM      8  C1  UNL d   1      -1.872   0.532   1.717  0.00  0.00     0.053 C 
ATOM      9  C   UNL d   1      -3.176  -0.083   1.235  0.00  0.00     0.018 C 
ENDBRANCH   1   8
TORSDOF 1
ENDMDL
