MODEL 1
REMARK minimizedAffinity -0.591993034
REMARK minimizedRMSD -1
REMARK  1 active torsions:
REMARK  status: ('A' for Active; 'I' for Inactive)
REMARK    1  A    between atoms: C3_4  and  O_7 
ROOT
ATOM      1  C   UNL d   1       2.993  -2.498  -1.143  0.00  0.00    -0.033 A 
ATOM      2  C1  UNL d   1       3.835  -1.677  -1.896  0.00  0.00     0.039 A 
ATOM      3  C2  UNL d   1       3.923  -0.314  -1.609  0.00  0.00    -0.080 A 
ATOM      4  C3  UNL d   1       3.166   0.216  -0.568  0.00  0.00     0.150 A 
ATOM      5  C4  UNL d   1       2.328  -0.596   0.188  0.00  0.00    -0.007 A 
ATOM      6  C5  UNL d   1       2.240  -1.958  -0.100  0.00  0.00     0.039 A 
ENDROOT
BRANCH   4   7
ATOM      7  O   UNL d   1       3.215   1.542  -0.254  0.00  0.00    -0.526 OA
ATOM      8  H5  UNL d   1       3.814   1.984  -0.879  0.00  0.00     0.418 HD
ENDBRANCH   4   7
TORSDOF 1
ENDMDL
