MODEL 1
REMARK minimizedAffinity 3.04450488
REMARK minimizedRMSD -1
REMARK  1 active torsions:
REMARK  status: ('A' for Active; 'I' for Inactive)
REMARK    1  A    between atoms: C3_4  and  O_7 
ROOT
ATOM      1  C   UNL d   1       2.199  -2.079  -0.294  0.00  0.00    -0.033 A 
ATOM      2  C1  UNL d   1       1.578  -1.959  -1.539  0.00  0.00     0.039 A 
ATOM      3  C2  UNL d   1       0.443  -2.719  -1.831  0.00  0.00    -0.080 A 
ATOM      4  C3  UNL d   1      -0.059  -3.593  -0.871  0.00  0.00     0.150 A 
ATOM      5  C4  UNL d   1       0.553  -3.716   0.372  0.00  0.00    -0.007 A 
ATOM      6  C5  UNL d   1       1.686  -2.957   0.661  0.00  0.00     0.039 A 
ENDROOT
BRANCH   4   7
ATOM      7  O   UNL d   1      -1.161  -4.359  -1.112  0.00  0.00    -0.526 OA
ATOM      8  H5  UNL d   1      -1.460  -4.191  -2.021  0.00  0.00     0.418 HD
ENDBRANCH   4   7
TORSDOF 1
ENDMDL
