MODEL 1
REMARK minimizedAffinity 1.64383554
REMARK minimizedRMSD -1
REMARK  1 active torsions:
REMARK  status: ('A' for Active; 'I' for Inactive)
REMARK    1  A    between atoms: C3_4  and  O_7 
ROOT
ATOM      1  C   UNL d   1       3.917   1.371   0.164  0.00  0.00    -0.033 A 
ATOM      2  C1  UNL d   1       4.821   0.333  -0.066  0.00  0.00     0.039 A 
ATOM      3  C2  UNL d   1       4.378  -0.991  -0.077  0.00  0.00    -0.080 A 
ATOM      4  C3  UNL d   1       3.030  -1.263   0.142  0.00  0.00     0.150 A 
ATOM      5  C4  UNL d   1       2.123  -0.233   0.368  0.00  0.00    -0.007 A 
ATOM      6  C5  UNL d   1       2.567   1.089   0.380  0.00  0.00     0.039 A 
ENDROOT
BRANCH   4   7
ATOM      7  O   UNL d   1       2.552  -2.540   0.145  0.00  0.00    -0.526 OA
ATOM      8  H5  UNL d   1       3.297  -3.148   0.005  0.00  0.00     0.418 HD
ENDBRANCH   4   7
TORSDOF 1
ENDMDL
