MODEL 1
REMARK minimizedAffinity 6.34459305
REMARK minimizedRMSD -1
REMARK  1 active torsions:
REMARK  status: ('A' for Active; 'I' for Inactive)
REMARK    1  A    between atoms: C3_4  and  O_7 
ROOT
ATOM      1  C   UNL d   1      -1.495   0.974   1.860  0.00  0.00    -0.033 A 
ATOM      2  C1  UNL d   1      -0.319   0.825   2.598  0.00  0.00     0.039 A 
ATOM      3  C2  UNL d   1       0.919   0.846   1.953  0.00  0.00    -0.080 A 
ATOM      4  C3  UNL d   1       0.968   1.017   0.573  0.00  0.00     0.150 A 
ATOM      5  C4  UNL d   1      -0.199   1.170  -0.168  0.00  0.00    -0.007 A 
ATOM      6  C5  UNL d   1      -1.435   1.148   0.477  0.00  0.00     0.039 A 
ENDROOT
BRANCH   4   7
ATOM      7  O   UNL d   1       2.153   1.039  -0.101  0.00  0.00    -0.526 OA
ATOM      8  H5  UNL d   1       2.872   0.893   0.536  0.00  0.00     0.418 HD
ENDBRANCH   4   7
TORSDOF 1
ENDMDL
