MODEL 1
REMARK minimizedAffinity 6.29028988
REMARK minimizedRMSD -1
REMARK  1 active torsions:
REMARK  status: ('A' for Active; 'I' for Inactive)
REMARK    1  A    between atoms: C3_4  and  O_7 
ROOT
ATOM      1  C   UNL d   1       1.594  -3.022  -0.122  0.00  0.00    -0.033 A 
ATOM      2  C1  UNL d   1       1.913  -2.560  -1.401  0.00  0.00     0.039 A 
ATOM      3  C2  UNL d   1       2.523  -1.315  -1.563  0.00  0.00    -0.080 A 
ATOM      4  C3  UNL d   1       2.811  -0.544  -0.441  0.00  0.00     0.150 A 
ATOM      5  C4  UNL d   1       2.501  -1.000   0.836  0.00  0.00    -0.007 A 
ATOM      6  C5  UNL d   1       1.890  -2.243   0.996  0.00  0.00     0.039 A 
ENDROOT
BRANCH   4   7
ATOM      7  O   UNL d   1       3.402   0.680  -0.550  0.00  0.00    -0.526 OA
ATOM      8  H5  UNL d   1       3.533   0.876  -1.493  0.00  0.00     0.418 HD
ENDBRANCH   4   7
TORSDOF 1
ENDMDL
