MODEL 1
REMARK minimizedAffinity 0.221954525
REMARK minimizedRMSD -1
REMARK  1 active torsions:
REMARK  status: ('A' for Active; 'I' for Inactive)
REMARK    1  A    between atoms: C3_4  and  O_7 
ROOT
ATOM      1  C   UNL d   1      -0.342   1.350  -0.066  0.00  0.00    -0.033 A 
ATOM      2  C1  UNL d   1       0.922   1.245   0.518  0.00  0.00     0.039 A 
ATOM      3  C2  UNL d   1       1.050   1.207   1.908  0.00  0.00    -0.080 A 
ATOM      4  C3  UNL d   1      -0.092   1.274   2.702  0.00  0.00     0.150 A 
ATOM      5  C4  UNL d   1      -1.354   1.375   2.127  0.00  0.00    -0.007 A 
ATOM      6  C5  UNL d   1      -1.480   1.413   0.739  0.00  0.00     0.039 A 
ENDROOT
BRANCH   4   7
ATOM      7  O   UNL d   1      -0.016   1.245   4.062  0.00  0.00    -0.526 OA
ATOM      8  H5  UNL d   1       0.920   1.203   4.318  0.00  0.00     0.418 HD
ENDBRANCH   4   7
TORSDOF 1
ENDMDL
