MODEL 1
REMARK minimizedAffinity -2.93233037
REMARK minimizedRMSD -1
REMARK  1 active torsions:
REMARK  status: ('A' for Active; 'I' for Inactive)
REMARK    1  A    between atoms: C3_4  and  O_7 
ROOT
ATOM      1  C   UNL d   1       3.701  -0.299  -0.810  0.00  0.00    -0.033 A 
ATOM      2  C1  UNL d   1       3.486  -1.609  -0.377  0.00  0.00     0.039 A 
ATOM      3  C2  UNL d   1       2.601  -1.863   0.672  0.00  0.00    -0.080 A 
ATOM      4  C3  UNL d   1       1.937  -0.800   1.278  0.00  0.00     0.150 A 
ATOM      5  C4  UNL d   1       2.144   0.507   0.850  0.00  0.00    -0.007 A 
ATOM      6  C5  UNL d   1       3.029   0.759  -0.197  0.00  0.00     0.039 A 
ENDROOT
BRANCH   4   7
ATOM      7  O   UNL d   1       1.067  -0.998   2.309  0.00  0.00    -0.526 OA
ATOM      8  H5  UNL d   1       1.046  -1.947   2.516  0.00  0.00     0.418 HD
ENDBRANCH   4   7
TORSDOF 1
ENDMDL
