MODEL 1
REMARK minimizedAffinity 3.0457015
REMARK minimizedRMSD -1
REMARK  1 active torsions:
REMARK  status: ('A' for Active; 'I' for Inactive)
REMARK    1  A    between atoms: C3_4  and  O_7 
ROOT
ATOM      1  C   UNL d   1      -1.692   1.520   1.570  0.00  0.00    -0.033 A 
ATOM      2  C1  UNL d   1      -1.502   1.669   0.195  0.00  0.00     0.039 A 
ATOM      3  C2  UNL d   1      -0.245   1.438  -0.367  0.00  0.00    -0.080 A 
ATOM      4  C3  UNL d   1       0.812   1.059   0.456  0.00  0.00     0.150 A 
ATOM      5  C4  UNL d   1       0.629   0.904   1.827  0.00  0.00    -0.007 A 
ATOM      6  C5  UNL d   1      -0.627   1.137   2.386  0.00  0.00     0.039 A 
ENDROOT
BRANCH   4   7
ATOM      7  O   UNL d   1       2.058   0.827  -0.045  0.00  0.00    -0.526 OA
ATOM      8  H5  UNL d   1       2.042   1.000  -1.001  0.00  0.00     0.418 HD
ENDBRANCH   4   7
TORSDOF 1
ENDMDL
