MODEL 1
REMARK minimizedAffinity 0.511573136
REMARK minimizedRMSD -1
REMARK  0 active torsions:
REMARK  status: ('A' for Active; 'I' for Inactive)
ROOT
ATOM      1  O1  BZF d   1       2.454  -1.560   0.739  0.00  0.00    -0.204 OA
ATOM      2  C2  BZF d   1       2.497  -2.929   0.922  0.00  0.00     0.174 A 
ATOM      3  C3  BZF d   1       1.540  -3.327   1.785  0.00  0.00    -0.012 A 
ATOM      4  C3A BZF d   1       0.796  -2.144   2.093  0.00  0.00    -0.107 A 
ATOM      5  C4  BZF d   1      -0.290  -1.897   2.883  0.00  0.00     0.055 A 
ATOM      6  C5  BZF d   1      -0.726  -0.618   3.026  0.00  0.00    -0.016 A 
ATOM      7  C6  BZF d   1      -0.097   0.438   2.398  0.00  0.00     0.022 A 
ATOM      8  C7  BZF d   1       0.981   0.242   1.601  0.00  0.00     0.029 A 
ATOM      9  C7A BZF d   1       1.404  -1.054   1.428  0.00  0.00     0.058 A 
ENDROOT
TORSDOF 0
ENDMDL
