MODEL 1
REMARK minimizedAffinity 4.3020339
REMARK minimizedRMSD -1
REMARK  0 active torsions:
REMARK  status: ('A' for Active; 'I' for Inactive)
ROOT
ATOM      1  O1  BZF d   1       0.565  -2.047  -0.020  0.00  0.00    -0.204 OA
ATOM      2  C2  BZF d   1       1.700  -2.764   0.307  0.00  0.00     0.174 A 
ATOM      3  C3  BZF d   1       1.866  -2.814   1.644  0.00  0.00    -0.012 A 
ATOM      4  C3A BZF d   1       0.716  -2.161   2.191  0.00  0.00    -0.107 A 
ATOM      5  C4  BZF d   1       0.297  -1.908   3.466  0.00  0.00     0.055 A 
ATOM      6  C5  BZF d   1      -0.837  -1.184   3.657  0.00  0.00    -0.016 A 
ATOM      7  C6  BZF d   1      -1.573  -0.695   2.598  0.00  0.00     0.022 A 
ATOM      8  C7  BZF d   1      -1.201  -0.925   1.315  0.00  0.00     0.029 A 
ATOM      9  C7A BZF d   1      -0.073  -1.684   1.118  0.00  0.00     0.058 A 
ENDROOT
TORSDOF 0
ENDMDL
