MODEL 1
REMARK minimizedAffinity 8.82327271
REMARK minimizedRMSD -1
REMARK  0 active torsions:
REMARK  status: ('A' for Active; 'I' for Inactive)
ROOT
ATOM      1  O1  BZF d   1      -0.059  -1.910   0.055  0.00  0.00    -0.204 OA
ATOM      2  C2  BZF d   1       0.340  -1.349  -1.143  0.00  0.00     0.174 A 
ATOM      3  C3  BZF d   1       1.677  -1.175  -1.169  0.00  0.00    -0.012 A 
ATOM      4  C3A BZF d   1       2.154  -1.741   0.055  0.00  0.00    -0.107 A 
ATOM      5  C4  BZF d   1       3.397  -1.886   0.601  0.00  0.00     0.055 A 
ATOM      6  C5  BZF d   1       3.514  -2.417   1.847  0.00  0.00    -0.016 A 
ATOM      7  C6  BZF d   1       2.410  -2.808   2.576  0.00  0.00     0.022 A 
ATOM      8  C7  BZF d   1       1.157  -2.689   2.074  0.00  0.00     0.029 A 
ATOM      9  C7A BZF d   1       1.038  -2.183   0.803  0.00  0.00     0.058 A 
ENDROOT
TORSDOF 0
ENDMDL
