MODEL 1
REMARK minimizedAffinity 5.43432236
REMARK minimizedRMSD -1
REMARK  0 active torsions:
REMARK  status: ('A' for Active; 'I' for Inactive)
ROOT
ATOM      1  O1  BZF d   1       2.224   4.136   4.659  0.00  0.00    -0.204 OA
ATOM      2  C2  BZF d   1       1.515   5.113   5.331  0.00  0.00     0.174 A 
ATOM      3  C3  BZF d   1       2.352   5.962   5.961  0.00  0.00    -0.012 A 
ATOM      4  C3A BZF d   1       3.667   5.541   5.589  0.00  0.00    -0.107 A 
ATOM      5  C4  BZF d   1       4.919   6.000   5.883  0.00  0.00     0.055 A 
ATOM      6  C5  BZF d   1       5.999   5.318   5.418  0.00  0.00    -0.016 A 
ATOM      7  C6  BZF d   1       5.864   4.173   4.662  0.00  0.00     0.022 A 
ATOM      8  C7  BZF d   1       4.643   3.682   4.339  0.00  0.00     0.029 A 
ATOM      9  C7A BZF d   1       3.550   4.387   4.780  0.00  0.00     0.058 A 
ENDROOT
TORSDOF 0
ENDMDL
