MODEL 1
REMARK minimizedAffinity 11.2459316
REMARK minimizedRMSD -1
REMARK  0 active torsions:
REMARK  status: ('A' for Active; 'I' for Inactive)
ROOT
ATOM      1  O1  BZF d   1       1.870  -2.223  -1.276  0.00  0.00    -0.204 OA
ATOM      2  C2  BZF d   1       0.828  -1.422  -1.701  0.00  0.00     0.174 A 
ATOM      3  C3  BZF d   1       0.040  -1.072  -0.664  0.00  0.00    -0.012 A 
ATOM      4  C3A BZF d   1       0.679  -1.617   0.495  0.00  0.00    -0.107 A 
ATOM      5  C4  BZF d   1       0.384  -1.593   1.828  0.00  0.00     0.055 A 
ATOM      6  C5  BZF d   1       1.172  -2.286   2.691  0.00  0.00    -0.016 A 
ATOM      7  C6  BZF d   1       2.258  -3.017   2.256  0.00  0.00     0.022 A 
ATOM      8  C7  BZF d   1       2.593  -3.067   0.943  0.00  0.00     0.029 A 
ATOM      9  C7A BZF d   1       1.818  -2.341   0.073  0.00  0.00     0.058 A 
ENDROOT
TORSDOF 0
ENDMDL
