MODEL 1
REMARK minimizedAffinity 0.770418942
REMARK minimizedRMSD -1
REMARK  0 active torsions:
REMARK  status: ('A' for Active; 'I' for Inactive)
ROOT
ATOM      1  O1  BZF d   1       0.767  -5.229   1.800  0.00  0.00    -0.204 OA
ATOM      2  C2  BZF d   1       1.956  -4.679   1.360  0.00  0.00     0.174 A 
ATOM      3  C3  BZF d   1       2.030  -3.374   1.692  0.00  0.00    -0.012 A 
ATOM      4  C3A BZF d   1       0.853  -3.114   2.462  0.00  0.00    -0.107 A 
ATOM      5  C4  BZF d   1       0.367  -2.001   3.087  0.00  0.00     0.055 A 
ATOM      6  C5  BZF d   1      -0.848  -2.061   3.693  0.00  0.00    -0.016 A 
ATOM      7  C6  BZF d   1      -1.605  -3.214   3.688  0.00  0.00     0.022 A 
ATOM      8  C7  BZF d   1      -1.163  -4.345   3.085  0.00  0.00     0.029 A 
ATOM      9  C7A BZF d   1       0.079  -4.297   2.501  0.00  0.00     0.058 A 
ENDROOT
TORSDOF 0
ENDMDL
