MODEL 1
REMARK minimizedAffinity 11.6169538
REMARK minimizedRMSD -1
REMARK  0 active torsions:
REMARK  status: ('A' for Active; 'I' for Inactive)
ROOT
ATOM      1  O1  BZF d   1      -0.594  -2.492   3.379  0.00  0.00    -0.204 OA
ATOM      2  C2  BZF d   1      -0.800  -1.191   3.796  0.00  0.00     0.174 A 
ATOM      3  C3  BZF d   1      -0.008  -0.339   3.113  0.00  0.00    -0.012 A 
ATOM      4  C3A BZF d   1       0.672  -1.148   2.149  0.00  0.00    -0.107 A 
ATOM      5  C4  BZF d   1       1.583  -0.875   1.169  0.00  0.00     0.055 A 
ATOM      6  C5  BZF d   1       2.107  -1.902   0.449  0.00  0.00    -0.016 A 
ATOM      7  C6  BZF d   1       1.747  -3.212   0.686  0.00  0.00     0.022 A 
ATOM      8  C7  BZF d   1       0.844  -3.532   1.645  0.00  0.00     0.029 A 
ATOM      9  C7A BZF d   1       0.288  -2.494   2.351  0.00  0.00     0.058 A 
ENDROOT
TORSDOF 0
ENDMDL
