MODEL 1
REMARK minimizedAffinity 8.58728123
REMARK minimizedRMSD -1
REMARK  0 active torsions:
REMARK  status: ('A' for Active; 'I' for Inactive)
ROOT
ATOM      1  O1  BZF d   1       1.940  -1.498   2.665  0.00  0.00    -0.204 OA
ATOM      2  C2  BZF d   1       1.128  -1.090   1.624  0.00  0.00     0.174 A 
ATOM      3  C3  BZF d   1       1.199  -1.958   0.594  0.00  0.00    -0.012 A 
ATOM      4  C3A BZF d   1       2.040  -3.020   1.054  0.00  0.00    -0.107 A 
ATOM      5  C4  BZF d   1       2.475  -4.184   0.489  0.00  0.00     0.055 A 
ATOM      6  C5  BZF d   1       3.347  -4.967   1.177  0.00  0.00    -0.016 A 
ATOM      7  C6  BZF d   1       3.809  -4.613   2.427  0.00  0.00     0.022 A 
ATOM      8  C7  BZF d   1       3.402  -3.469   3.031  0.00  0.00     0.029 A 
ATOM      9  C7A BZF d   1       2.495  -2.693   2.352  0.00  0.00     0.058 A 
ENDROOT
TORSDOF 0
ENDMDL
