MODEL 1
REMARK minimizedAffinity -4.49315977
REMARK minimizedRMSD -1
REMARK  1 active torsions:
REMARK  status: ('A' for Active; 'I' for Inactive)
REMARK    1  A    between atoms: C1_2  and  C2_3 
ROOT
ATOM      1  C2  UNL d   1      -0.018  -0.204   0.320  0.00  0.00    -0.077 A 
ATOM      2  C3  UNL d   1      -0.502  -1.116   1.269  0.00  0.00     0.002 A 
ATOM      3  C4  UNL d   1      -0.150  -0.989   2.614  0.00  0.00     0.002 A 
ATOM      4  C5  UNL d   1       0.683   0.050   3.023  0.00  0.00    -0.004 A 
ATOM      5  C6  UNL d   1       1.171   0.961   2.087  0.00  0.00     0.002 A 
ATOM      6  C7  UNL d   1       0.822   0.835   0.742  0.00  0.00     0.002 A 
ENDROOT
BRANCH   1   7
ATOM      7  C1  UNL d   1      -0.436  -0.310  -1.123  0.00  0.00     0.055 C 
ATOM      8  C   UNL d   1      -0.877   1.039  -1.672  0.00  0.00     0.019 C 
ENDBRANCH   1   7
TORSDOF 1
ENDMDL
