MODEL 1
REMARK minimizedAffinity -5.53270197
REMARK minimizedRMSD -1
REMARK  1 active torsions:
REMARK  status: ('A' for Active; 'I' for Inactive)
REMARK    1  A    between atoms: C1_2  and  C2_3 
ROOT
ATOM      1  C2  UNL d   1      -3.379   3.234  -2.389  0.00  0.00    -0.077 A 
ATOM      2  C3  UNL d   1      -2.289   4.066  -2.100  0.00  0.00     0.002 A 
ATOM      3  C4  UNL d   1      -1.006   3.530  -1.970  0.00  0.00     0.002 A 
ATOM      4  C5  UNL d   1      -0.802   2.161  -2.132  0.00  0.00    -0.004 A 
ATOM      5  C6  UNL d   1      -1.881   1.325  -2.418  0.00  0.00     0.002 A 
ATOM      6  C7  UNL d   1      -3.163   1.860  -2.547  0.00  0.00     0.002 A 
ENDROOT
BRANCH   1   7
ATOM      7  C1  UNL d   1      -4.755   3.818  -2.578  0.00  0.00     0.055 C 
ATOM      8  C   UNL d   1      -5.681   2.835  -3.280  0.00  0.00     0.019 C 
ENDBRANCH   1   7
TORSDOF 1
ENDMDL
