MODEL 1
REMARK minimizedAffinity -3.73997021
REMARK minimizedRMSD -1
REMARK  1 active torsions:
REMARK  status: ('A' for Active; 'I' for Inactive)
REMARK    1  A    between atoms: C1_2  and  C2_3 
ROOT
ATOM      1  C2  UNL d   1      -2.629   3.345  -2.871  0.00  0.00    -0.077 A 
ATOM      2  C3  UNL d   1      -1.765   3.521  -3.962  0.00  0.00     0.002 A 
ATOM      3  C4  UNL d   1      -0.512   2.905  -3.976  0.00  0.00     0.002 A 
ATOM      4  C5  UNL d   1      -0.114   2.107  -2.906  0.00  0.00    -0.004 A 
ATOM      5  C6  UNL d   1      -0.965   1.928  -1.816  0.00  0.00     0.002 A 
ATOM      6  C7  UNL d   1      -2.217   2.544  -1.799  0.00  0.00     0.002 A 
ENDROOT
BRANCH   1   7
ATOM      7  C1  UNL d   1      -4.000   3.969  -2.876  0.00  0.00     0.055 C 
ATOM      8  C   UNL d   1      -4.986   3.143  -2.062  0.00  0.00     0.019 C 
ENDBRANCH   1   7
TORSDOF 1
ENDMDL
