MODEL 1
REMARK minimizedAffinity -2.09571743
REMARK minimizedRMSD -1
REMARK  1 active torsions:
REMARK  status: ('A' for Active; 'I' for Inactive)
REMARK    1  A    between atoms: C1_2  and  C2_3 
ROOT
ATOM      1  C2  UNL d   1      -1.032   1.693  -2.128  0.00  0.00    -0.077 A 
ATOM      2  C3  UNL d   1      -2.332   2.200  -1.994  0.00  0.00     0.002 A 
ATOM      3  C4  UNL d   1      -2.607   3.532  -2.309  0.00  0.00     0.002 A 
ATOM      4  C5  UNL d   1      -1.589   4.366  -2.764  0.00  0.00    -0.004 A 
ATOM      5  C6  UNL d   1      -0.292   3.872  -2.900  0.00  0.00     0.002 A 
ATOM      6  C7  UNL d   1      -0.015   2.541  -2.584  0.00  0.00     0.002 A 
ENDROOT
BRANCH   1   7
ATOM      7  C1  UNL d   1      -0.743   0.244  -1.836  0.00  0.00     0.055 C 
ATOM      8  C   UNL d   1      -0.715  -0.024  -0.338  0.00  0.00     0.019 C 
ENDBRANCH   1   7
TORSDOF 1
ENDMDL
