MODEL 1
REMARK minimizedAffinity -3.39607263
REMARK minimizedRMSD -1
REMARK  1 active torsions:
REMARK  status: ('A' for Active; 'I' for Inactive)
REMARK    1  A    between atoms: C1_2  and  C2_3 
ROOT
ATOM      1  C2  UNL d   1       0.655  -0.608  -0.042  0.00  0.00    -0.077 A 
ATOM      2  C3  UNL d   1       1.173  -0.739   1.254  0.00  0.00     0.002 A 
ATOM      3  C4  UNL d   1       0.338  -0.607   2.365  0.00  0.00     0.002 A 
ATOM      4  C5  UNL d   1      -1.020  -0.348   2.192  0.00  0.00    -0.004 A 
ATOM      5  C6  UNL d   1      -1.545  -0.214   0.907  0.00  0.00     0.002 A 
ATOM      6  C7  UNL d   1      -0.711  -0.345  -0.205  0.00  0.00     0.002 A 
ENDROOT
BRANCH   1   7
ATOM      7  C1  UNL d   1       1.544  -0.799  -1.243  0.00  0.00     0.055 C 
ATOM      8  C   UNL d   1       2.917  -1.318  -0.838  0.00  0.00     0.019 C 
ENDBRANCH   1   7
TORSDOF 1
ENDMDL
