MODEL 1
REMARK minimizedAffinity -4.04752874
REMARK minimizedRMSD -1
REMARK  1 active torsions:
REMARK  status: ('A' for Active; 'I' for Inactive)
REMARK    1  A    between atoms: C1_2  and  C2_3 
ROOT
ATOM      1  C2  UNL d   1       0.200  -0.678   0.327  0.00  0.00    -0.077 A 
ATOM      2  C3  UNL d   1      -0.352  -0.949  -0.932  0.00  0.00     0.002 A 
ATOM      3  C4  UNL d   1       0.476  -1.207  -2.026  0.00  0.00     0.002 A 
ATOM      4  C5  UNL d   1       1.861  -1.200  -1.870  0.00  0.00    -0.004 A 
ATOM      5  C6  UNL d   1       2.420  -0.930  -0.622  0.00  0.00     0.002 A 
ATOM      6  C7  UNL d   1       1.593  -0.671   0.472  0.00  0.00     0.002 A 
ENDROOT
BRANCH   1   7
ATOM      7  C1  UNL d   1      -0.692  -0.448   1.519  0.00  0.00     0.055 C 
ATOM      8  C   UNL d   1      -0.540  -1.560   2.547  0.00  0.00     0.019 C 
ENDBRANCH   1   7
TORSDOF 1
ENDMDL
