MODEL 1
REMARK minimizedAffinity -2.14856505
REMARK minimizedRMSD -1
REMARK  1 active torsions:
REMARK  status: ('A' for Active; 'I' for Inactive)
REMARK    1  A    between atoms: C1_2  and  C2_3 
ROOT
ATOM      1  C2  UNL d   1      -0.108   3.722  -5.944  0.00  0.00    -0.073 A 
ATOM      2  C3  UNL d   1      -0.711   2.459  -5.963  0.00  0.00    -0.002 A 
ATOM      3  C4  UNL d   1      -2.102   2.342  -5.980  0.00  0.00     0.004 A 
ATOM      4  C5  UNL d   1      -2.902   3.484  -5.985  0.00  0.00    -0.004 A 
ATOM      5  C6  UNL d   1      -2.318   4.755  -5.978  0.00  0.00    -0.075 A 
ATOM      6  C7  UNL d   1      -3.165   5.994  -5.981  0.00  0.00     0.076 C 
ATOM      7  C8  UNL d   1      -0.921   4.865  -5.958  0.00  0.00     0.001 A 
ENDROOT
BRANCH   1   8
ATOM      8  C1  UNL d   1       1.393   3.854  -5.932  0.00  0.00     0.053 C 
ATOM      9  C   UNL d   1       2.084   2.501  -5.999  0.00  0.00     0.018 C 
ENDBRANCH   1   8
TORSDOF 1
ENDMDL
