MODEL 1
REMARK minimizedAffinity -0.147753075
REMARK minimizedRMSD -1
REMARK  1 active torsions:
REMARK  status: ('A' for Active; 'I' for Inactive)
REMARK    1  A    between atoms: C1_2  and  C2_3 
ROOT
ATOM      1  C2  UNL d   1       2.760   5.019  -5.586  0.00  0.00    -0.073 A 
ATOM      2  C3  UNL d   1       3.976   5.575  -6.000  0.00  0.00    -0.002 A 
ATOM      3  C4  UNL d   1       5.184   4.989  -5.620  0.00  0.00     0.004 A 
ATOM      4  C5  UNL d   1       5.189   3.840  -4.829  0.00  0.00    -0.004 A 
ATOM      5  C6  UNL d   1       3.984   3.263  -4.416  0.00  0.00    -0.075 A 
ATOM      6  C7  UNL d   1       3.972   2.028  -3.564  0.00  0.00     0.076 C 
ATOM      7  C8  UNL d   1       2.775   3.859  -4.800  0.00  0.00     0.001 A 
ENDROOT
BRANCH   1   8
ATOM      8  C1  UNL d   1       1.453   5.645  -6.000  0.00  0.00     0.053 C 
ATOM      9  C   UNL d   1       0.263   4.768  -5.642  0.00  0.00     0.018 C 
ENDBRANCH   1   8
TORSDOF 1
ENDMDL
