MODEL 1
REMARK minimizedAffinity 0.672986865
REMARK minimizedRMSD -1
REMARK  1 active torsions:
REMARK  status: ('A' for Active; 'I' for Inactive)
REMARK    1  A    between atoms: C1_2  and  C2_3 
ROOT
ATOM      1  C2  UNL d   1      -1.665   3.684  -5.988  0.00  0.00    -0.073 A 
ATOM      2  C3  UNL d   1      -1.900   5.064  -5.988  0.00  0.00    -0.002 A 
ATOM      3  C4  UNL d   1      -0.831   5.961  -5.984  0.00  0.00     0.004 A 
ATOM      4  C5  UNL d   1       0.481   5.489  -5.986  0.00  0.00    -0.004 A 
ATOM      5  C6  UNL d   1       0.736   4.114  -5.997  0.00  0.00    -0.075 A 
ATOM      6  C7  UNL d   1       2.142   3.590  -5.997  0.00  0.00     0.076 C 
ATOM      7  C8  UNL d   1      -0.342   3.219  -5.999  0.00  0.00     0.001 A 
ENDROOT
BRANCH   1   8
ATOM      8  C1  UNL d   1      -2.816   2.712  -5.998  0.00  0.00     0.053 C 
ATOM      9  C   UNL d   1      -4.161   3.421  -5.999  0.00  0.00     0.018 C 
ENDBRANCH   1   8
TORSDOF 1
ENDMDL
