MODEL 1
REMARK minimizedAffinity 7.14810371
REMARK minimizedRMSD -1
REMARK  1 active torsions:
REMARK  status: ('A' for Active; 'I' for Inactive)
REMARK    1  A    between atoms: C1_2  and  C2_3 
ROOT
ATOM      1  C2  UNL d   1       3.289  -2.598  -2.692  0.00  0.00    -0.073 A 
ATOM      2  C3  UNL d   1       3.494  -2.455  -4.069  0.00  0.00    -0.002 A 
ATOM      3  C4  UNL d   1       2.465  -2.740  -4.968  0.00  0.00     0.004 A 
ATOM      4  C5  UNL d   1       1.221  -3.164  -4.500  0.00  0.00    -0.004 A 
ATOM      5  C6  UNL d   1       0.994  -3.302  -3.127  0.00  0.00    -0.075 A 
ATOM      6  C7  UNL d   1      -0.338  -3.759  -2.608  0.00  0.00     0.076 C 
ATOM      7  C8  UNL d   1       2.032  -3.016  -2.231  0.00  0.00     0.001 A 
ENDROOT
BRANCH   1   8
ATOM      8  C1  UNL d   1       4.394  -2.286  -1.717  0.00  0.00     0.053 C 
ATOM      9  C   UNL d   1       5.644  -1.775  -2.416  0.00  0.00     0.018 C 
ENDBRANCH   1   8
TORSDOF 1
ENDMDL
