MODEL 1
REMARK minimizedAffinity 1.5990423
REMARK minimizedRMSD -1
REMARK  1 active torsions:
REMARK  status: ('A' for Active; 'I' for Inactive)
REMARK    1  A    between atoms: C1_2  and  C2_3 
ROOT
ATOM      1  C2  UNL d   1       3.808   4.550  -0.295  0.00  0.00    -0.073 A 
ATOM      2  C3  UNL d   1       2.456   4.325  -0.576  0.00  0.00    -0.002 A 
ATOM      3  C4  UNL d   1       2.082   3.366  -1.519  0.00  0.00     0.004 A 
ATOM      4  C5  UNL d   1       3.055   2.619  -2.184  0.00  0.00    -0.004 A 
ATOM      5  C6  UNL d   1       4.411   2.821  -1.907  0.00  0.00    -0.075 A 
ATOM      6  C7  UNL d   1       5.469   2.027  -2.615  0.00  0.00     0.076 C 
ATOM      7  C8  UNL d   1       4.778   3.788  -0.961  0.00  0.00     0.001 A 
ENDROOT
BRANCH   1   8
ATOM      8  C1  UNL d   1       4.216   5.580   0.727  0.00  0.00     0.053 C 
ATOM      9  C   UNL d   1       5.094   4.985   1.817  0.00  0.00     0.018 C 
ENDBRANCH   1   8
TORSDOF 1
ENDMDL
