MODEL 1
REMARK minimizedAffinity 8.04313087
REMARK minimizedRMSD -1
REMARK  1 active torsions:
REMARK  status: ('A' for Active; 'I' for Inactive)
REMARK    1  A    between atoms: C1_2  and  C2_3 
ROOT
ATOM      1  C2  UNL d   1       2.184  -3.167  -3.578  0.00  0.00    -0.073 A 
ATOM      2  C3  UNL d   1       2.585  -4.345  -4.217  0.00  0.00    -0.002 A 
ATOM      3  C4  UNL d   1       1.748  -5.461  -4.230  0.00  0.00     0.004 A 
ATOM      4  C5  UNL d   1       0.499  -5.409  -3.611  0.00  0.00    -0.004 A 
ATOM      5  C6  UNL d   1       0.075  -4.237  -2.977  0.00  0.00    -0.075 A 
ATOM      6  C7  UNL d   1      -1.265  -4.165  -2.304  0.00  0.00     0.076 C 
ATOM      7  C8  UNL d   1       0.923  -3.121  -2.966  0.00  0.00     0.001 A 
ENDROOT
BRANCH   1   8
ATOM      8  C1  UNL d   1       3.082  -1.958  -3.567  0.00  0.00     0.053 C 
ATOM      9  C   UNL d   1       3.088  -1.264  -2.214  0.00  0.00     0.018 C 
ENDBRANCH   1   8
TORSDOF 1
ENDMDL
