MODEL 1
REMARK minimizedAffinity 4.03793478
REMARK minimizedRMSD -1
REMARK  1 active torsions:
REMARK  status: ('A' for Active; 'I' for Inactive)
REMARK    1  A    between atoms: C1_2  and  C2_3 
ROOT
ATOM      1  C2  UNL d   1      -3.292   4.164  -5.935  0.00  0.00    -0.073 A 
ATOM      2  C3  UNL d   1      -3.020   5.535  -5.864  0.00  0.00    -0.002 A 
ATOM      3  C4  UNL d   1      -1.702   5.990  -5.812  0.00  0.00     0.004 A 
ATOM      4  C5  UNL d   1      -0.644   5.081  -5.837  0.00  0.00    -0.004 A 
ATOM      5  C6  UNL d   1      -0.896   3.708  -5.919  0.00  0.00    -0.075 A 
ATOM      6  C7  UNL d   1       0.231   2.717  -5.944  0.00  0.00     0.076 C 
ATOM      7  C8  UNL d   1      -2.222   3.258  -5.968  0.00  0.00     0.001 A 
ENDROOT
BRANCH   1   8
ATOM      8  C1  UNL d   1      -4.714   3.668  -5.997  0.00  0.00     0.053 C 
ATOM      9  C   UNL d   1      -5.319   3.495  -4.613  0.00  0.00     0.018 C 
ENDBRANCH   1   8
TORSDOF 1
ENDMDL
