MODEL 1
REMARK minimizedAffinity -3.09517908
REMARK minimizedRMSD -1
REMARK  1 active torsions:
REMARK  status: ('A' for Active; 'I' for Inactive)
REMARK    1  A    between atoms: C1_2  and  C2_3 
ROOT
ATOM      1  C2  UNL d   1      -1.400   4.719  -5.962  0.00  0.00    -0.073 A 
ATOM      2  C3  UNL d   1      -1.937   3.427  -5.976  0.00  0.00    -0.002 A 
ATOM      3  C4  UNL d   1      -1.095   2.314  -5.998  0.00  0.00     0.004 A 
ATOM      4  C5  UNL d   1       0.290   2.482  -6.000  0.00  0.00    -0.004 A 
ATOM      5  C6  UNL d   1       0.845   3.765  -5.975  0.00  0.00    -0.075 A 
ATOM      6  C7  UNL d   1       2.333   3.962  -5.979  0.00  0.00     0.076 C 
ATOM      7  C8  UNL d   1      -0.007   4.877  -5.955  0.00  0.00     0.001 A 
ENDROOT
BRANCH   1   8
ATOM      8  C1  UNL d   1      -2.305   5.924  -5.932  0.00  0.00     0.053 C 
ATOM      9  C   UNL d   1      -3.774   5.535  -5.999  0.00  0.00     0.018 C 
ENDBRANCH   1   8
TORSDOF 1
ENDMDL
