MODEL 1
REMARK minimizedAffinity 0.77351886
REMARK minimizedRMSD -1
REMARK  1 active torsions:
REMARK  status: ('A' for Active; 'I' for Inactive)
REMARK    1  A    between atoms: C1_2  and  C2_3 
ROOT
ATOM      1  C2  UNL d   1       1.659   4.786  -5.990  0.00  0.00    -0.073 A 
ATOM      2  C3  UNL d   1       1.477   3.399  -6.000  0.00  0.00    -0.002 A 
ATOM      3  C4  UNL d   1       0.191   2.857  -5.997  0.00  0.00     0.004 A 
ATOM      4  C5  UNL d   1      -0.924   3.695  -5.992  0.00  0.00    -0.004 A 
ATOM      5  C6  UNL d   1      -0.762   5.084  -5.995  0.00  0.00    -0.075 A 
ATOM      6  C7  UNL d   1      -1.951   6.000  -5.987  0.00  0.00     0.076 C 
ATOM      7  C8  UNL d   1       0.532   5.621  -5.995  0.00  0.00     0.001 A 
ENDROOT
BRANCH   1   8
ATOM      8  C1  UNL d   1       3.046   5.376  -6.000  0.00  0.00     0.053 C 
ATOM      9  C   UNL d   1       4.122   4.302  -5.989  0.00  0.00     0.018 C 
ENDBRANCH   1   8
TORSDOF 1
ENDMDL
