MODEL 1
REMARK minimizedAffinity -3.65419149
REMARK minimizedRMSD -1
REMARK  1 active torsions:
REMARK  status: ('A' for Active; 'I' for Inactive)
REMARK    1  A    between atoms: C1_2  and  C2_3 
ROOT
ATOM      1  C2  UNL d   1      -0.370   3.548  -5.738  0.00  0.00    -0.073 A 
ATOM      2  C3  UNL d   1      -0.275   2.246  -5.233  0.00  0.00    -0.002 A 
ATOM      3  C4  UNL d   1       0.975   1.676  -4.986  0.00  0.00     0.004 A 
ATOM      4  C5  UNL d   1       2.139   2.403  -5.234  0.00  0.00    -0.004 A 
ATOM      5  C6  UNL d   1       2.064   3.709  -5.726  0.00  0.00    -0.075 A 
ATOM      6  C7  UNL d   1       3.307   4.504  -6.000  0.00  0.00     0.076 C 
ATOM      7  C8  UNL d   1       0.806   4.274  -5.975  0.00  0.00     0.001 A 
ENDROOT
BRANCH   1   8
ATOM      8  C1  UNL d   1      -1.718   4.170  -6.000  0.00  0.00     0.053 C 
ATOM      9  C   UNL d   1      -2.838   3.143  -5.956  0.00  0.00     0.018 C 
ENDBRANCH   1   8
TORSDOF 1
ENDMDL
