MODEL 1
REMARK minimizedAffinity 8.17671299
REMARK minimizedRMSD -1
REMARK  1 active torsions:
REMARK  status: ('A' for Active; 'I' for Inactive)
REMARK    1  A    between atoms: C1_2  and  C2_3 
ROOT
ATOM      1  C2  UNL d   1      -0.678  -3.334  -2.743  0.00  0.00    -0.073 A 
ATOM      2  C3  UNL d   1      -0.259  -3.662  -4.038  0.00  0.00    -0.002 A 
ATOM      3  C4  UNL d   1       1.086  -3.556  -4.392  0.00  0.00     0.004 A 
ATOM      4  C5  UNL d   1       2.027  -3.129  -3.454  0.00  0.00    -0.004 A 
ATOM      5  C6  UNL d   1       1.630  -2.809  -2.152  0.00  0.00    -0.075 A 
ATOM      6  C7  UNL d   1       2.629  -2.346  -1.133  0.00  0.00     0.076 C 
ATOM      7  C8  UNL d   1       0.276  -2.915  -1.806  0.00  0.00     0.001 A 
ENDROOT
BRANCH   1   8
ATOM      8  C1  UNL d   1      -2.129  -3.453  -2.355  0.00  0.00     0.053 C 
ATOM      9  C   UNL d   1      -2.382  -2.964  -0.938  0.00  0.00     0.018 C 
ENDBRANCH   1   8
TORSDOF 1
ENDMDL
