MODEL 1
REMARK minimizedAffinity 3.25324869
REMARK minimizedRMSD -1
REMARK  1 active torsions:
REMARK  status: ('A' for Active; 'I' for Inactive)
REMARK    1  A    between atoms: C1_2  and  C2_3 
ROOT
ATOM      1  C2  UNL d   1      -2.851   4.763  -5.626  0.00  0.00    -0.073 A 
ATOM      2  C3  UNL d   1      -3.456   3.504  -5.719  0.00  0.00    -0.002 A 
ATOM      3  C4  UNL d   1      -2.680   2.361  -5.909  0.00  0.00     0.004 A 
ATOM      4  C5  UNL d   1      -1.292   2.462  -6.000  0.00  0.00    -0.004 A 
ATOM      5  C6  UNL d   1      -0.667   3.710  -5.897  0.00  0.00    -0.075 A 
ATOM      6  C7  UNL d   1       0.825   3.836  -5.996  0.00  0.00     0.076 C 
ATOM      7  C8  UNL d   1      -1.454   4.854  -5.710  0.00  0.00     0.001 A 
ENDROOT
BRANCH   1   8
ATOM      8  C1  UNL d   1      -3.685   6.000  -5.415  0.00  0.00     0.053 C 
ATOM      9  C   UNL d   1      -5.098   5.833  -5.951  0.00  0.00     0.018 C 
ENDBRANCH   1   8
TORSDOF 1
ENDMDL
