MODEL 1
REMARK minimizedAffinity 0.698420286
REMARK minimizedRMSD -1
REMARK  1 active torsions:
REMARK  status: ('A' for Active; 'I' for Inactive)
REMARK    1  A    between atoms: C1_2  and  C2_3 
ROOT
ATOM      1  C2  UNL d   1       0.769   4.263  -5.979  0.00  0.00    -0.073 A 
ATOM      2  C3  UNL d   1       1.123   5.617  -5.994  0.00  0.00    -0.002 A 
ATOM      3  C4  UNL d   1       2.466   5.995  -5.999  0.00  0.00     0.004 A 
ATOM      4  C5  UNL d   1       3.468   5.025  -5.996  0.00  0.00    -0.004 A 
ATOM      5  C6  UNL d   1       3.135   3.666  -5.993  0.00  0.00    -0.075 A 
ATOM      6  C7  UNL d   1       4.201   2.610  -5.987  0.00  0.00     0.076 C 
ATOM      7  C8  UNL d   1       1.784   3.295  -5.985  0.00  0.00     0.001 A 
ENDROOT
BRANCH   1   8
ATOM      8  C1  UNL d   1      -0.680   3.850  -5.980  0.00  0.00     0.053 C 
ATOM      9  C   UNL d   1      -1.613   5.044  -5.866  0.00  0.00     0.018 C 
ENDBRANCH   1   8
TORSDOF 1
ENDMDL
