MODEL 1
REMARK minimizedAffinity 12.1349306
REMARK minimizedRMSD -1
REMARK  0 active torsions:
REMARK  status: ('A' for Active; 'I' for Inactive)
ROOT
ATOM      1  C   UNL d   1      -3.368   0.001   3.000  0.00  0.00     0.078 C 
ATOM      2  C1  UNL d   1      -3.968   1.063   3.872  0.00  0.00    -0.077 A 
ATOM      3  C2  UNL d   1      -4.983   1.900   3.394  0.00  0.00    -0.001 A 
ATOM      4  C3  UNL d   1      -5.525   2.891   4.214  0.00  0.00     0.003 A 
ATOM      5  C4  UNL d   1      -5.057   3.056   5.516  0.00  0.00    -0.005 A 
ATOM      6  C5  UNL d   1      -4.045   2.229   6.000  0.00  0.00     0.003 A 
ATOM      7  C6  UNL d   1      -3.502   1.237   5.181  0.00  0.00    -0.001 A 
ENDROOT
TORSDOF 0
ENDMDL
