MODEL 1
REMARK minimizedAffinity 8.73709011
REMARK minimizedRMSD -1
REMARK  0 active torsions:
REMARK  status: ('A' for Active; 'I' for Inactive)
ROOT
ATOM      1  C   UNL d   1      -4.909  -1.811   2.243  0.00  0.00     0.078 C 
ATOM      2  C1  UNL d   1      -4.022  -0.637   2.537  0.00  0.00    -0.077 A 
ATOM      3  C2  UNL d   1      -2.757  -0.524   1.947  0.00  0.00    -0.001 A 
ATOM      4  C3  UNL d   1      -1.939   0.569   2.237  0.00  0.00     0.003 A 
ATOM      5  C4  UNL d   1      -2.375   1.556   3.118  0.00  0.00    -0.005 A 
ATOM      6  C5  UNL d   1      -3.632   1.451   3.711  0.00  0.00     0.003 A 
ATOM      7  C6  UNL d   1      -4.452   0.359   3.422  0.00  0.00    -0.001 A 
ENDROOT
TORSDOF 0
ENDMDL
