MODEL 1
REMARK minimizedAffinity 4.4357605
REMARK minimizedRMSD -1
REMARK  0 active torsions:
REMARK  status: ('A' for Active; 'I' for Inactive)
ROOT
ATOM      1  C   UNL d   1      -2.495   0.979  -3.686  0.00  0.00     0.078 C 
ATOM      2  C1  UNL d   1      -2.301   2.225  -4.498  0.00  0.00    -0.077 A 
ATOM      3  C2  UNL d   1      -1.022   2.632  -4.898  0.00  0.00    -0.001 A 
ATOM      4  C3  UNL d   1      -0.855   3.799  -5.646  0.00  0.00     0.003 A 
ATOM      5  C4  UNL d   1      -1.962   4.569  -5.998  0.00  0.00    -0.005 A 
ATOM      6  C5  UNL d   1      -3.238   4.172  -5.603  0.00  0.00     0.003 A 
ATOM      7  C6  UNL d   1      -3.407   3.006  -4.855  0.00  0.00    -0.001 A 
ENDROOT
TORSDOF 0
ENDMDL
