MODEL 1
REMARK minimizedAffinity 16.2179432
REMARK minimizedRMSD -1
REMARK  0 active torsions:
REMARK  status: ('A' for Active; 'I' for Inactive)
ROOT
ATOM      1  C   UNL d   1       1.494  -2.818  -0.151  0.00  0.00     0.078 C 
ATOM      2  C1  UNL d   1       1.944  -1.501  -0.709  0.00  0.00    -0.077 A 
ATOM      3  C2  UNL d   1       1.604  -1.115  -2.011  0.00  0.00    -0.001 A 
ATOM      4  C3  UNL d   1       2.038   0.110  -2.520  0.00  0.00     0.003 A 
ATOM      5  C4  UNL d   1       2.816   0.958  -1.735  0.00  0.00    -0.005 A 
ATOM      6  C5  UNL d   1       3.161   0.582  -0.439  0.00  0.00     0.003 A 
ATOM      7  C6  UNL d   1       2.728  -0.642   0.073  0.00  0.00    -0.001 A 
ENDROOT
TORSDOF 0
ENDMDL
