MODEL 1
REMARK minimizedAffinity 9.24495411
REMARK minimizedRMSD -1
REMARK  0 active torsions:
REMARK  status: ('A' for Active; 'I' for Inactive)
ROOT
ATOM      1  C   UNL d   1      -3.871  -1.664   3.022  0.00  0.00     0.078 C 
ATOM      2  C1  UNL d   1      -4.216  -2.841   2.159  0.00  0.00    -0.077 A 
ATOM      3  C2  UNL d   1      -5.422  -2.886   1.449  0.00  0.00    -0.001 A 
ATOM      4  C3  UNL d   1      -5.734  -3.992   0.657  0.00  0.00     0.003 A 
ATOM      5  C4  UNL d   1      -4.846  -5.062   0.569  0.00  0.00    -0.005 A 
ATOM      6  C5  UNL d   1      -3.645  -5.028   1.274  0.00  0.00     0.003 A 
ATOM      7  C6  UNL d   1      -3.331  -3.922   2.066  0.00  0.00    -0.001 A 
ENDROOT
TORSDOF 0
ENDMDL
