MODEL 1
REMARK minimizedAffinity 6.98765612
REMARK minimizedRMSD -1
REMARK  0 active torsions:
REMARK  status: ('A' for Active; 'I' for Inactive)
ROOT
ATOM      1  C   UNL d   1      -4.557   2.108   3.937  0.00  0.00     0.078 C 
ATOM      2  C1  UNL d   1      -3.674   1.041   3.362  0.00  0.00    -0.077 A 
ATOM      3  C2  UNL d   1      -4.059  -0.306   3.389  0.00  0.00    -0.001 A 
ATOM      4  C3  UNL d   1      -3.223  -1.289   2.859  0.00  0.00     0.003 A 
ATOM      5  C4  UNL d   1      -1.996  -0.938   2.299  0.00  0.00    -0.005 A 
ATOM      6  C5  UNL d   1      -1.604   0.399   2.270  0.00  0.00     0.003 A 
ATOM      7  C6  UNL d   1      -2.439   1.384   2.800  0.00  0.00    -0.001 A 
ENDROOT
TORSDOF 0
ENDMDL
