MODEL 1
REMARK minimizedAffinity 4.57571077
REMARK minimizedRMSD -1
REMARK  0 active torsions:
REMARK  status: ('A' for Active; 'I' for Inactive)
ROOT
ATOM      1  C   UNL d   1      -3.188   4.348  -5.941  0.00  0.00     0.078 C 
ATOM      2  C1  UNL d   1      -2.706   3.100  -5.264  0.00  0.00    -0.077 A 
ATOM      3  C2  UNL d   1      -2.454   1.933  -5.996  0.00  0.00    -0.001 A 
ATOM      4  C3  UNL d   1      -2.016   0.776  -5.351  0.00  0.00     0.003 A 
ATOM      5  C4  UNL d   1      -1.827   0.773  -3.970  0.00  0.00    -0.005 A 
ATOM      6  C5  UNL d   1      -2.077   1.929  -3.233  0.00  0.00     0.003 A 
ATOM      7  C6  UNL d   1      -2.516   3.087  -3.876  0.00  0.00    -0.001 A 
ENDROOT
TORSDOF 0
ENDMDL
