MODEL 1
REMARK minimizedAffinity 6.59727383
REMARK minimizedRMSD -1
REMARK  0 active torsions:
REMARK  status: ('A' for Active; 'I' for Inactive)
ROOT
ATOM      1  C   UNL d   1       5.037   1.096  -0.316  0.00  0.00     0.078 C 
ATOM      2  C1  UNL d   1       3.972   0.054  -0.487  0.00  0.00    -0.077 A 
ATOM      3  C2  UNL d   1       4.117  -1.223   0.068  0.00  0.00    -0.001 A 
ATOM      4  C3  UNL d   1       3.122  -2.186  -0.108  0.00  0.00     0.003 A 
ATOM      5  C4  UNL d   1       1.976  -1.882  -0.839  0.00  0.00    -0.005 A 
ATOM      6  C5  UNL d   1       1.824  -0.614  -1.397  0.00  0.00     0.003 A 
ATOM      7  C6  UNL d   1       2.818   0.350  -1.223  0.00  0.00    -0.001 A 
ENDROOT
TORSDOF 0
ENDMDL
