MODEL 1
REMARK minimizedAffinity 2.57923198
REMARK minimizedRMSD -1
REMARK  0 active torsions:
REMARK  status: ('A' for Active; 'I' for Inactive)
ROOT
ATOM      1  C   UNL d   1      -2.093  -3.394  -5.845  0.00  0.00     0.078 C 
ATOM      2  C1  UNL d   1      -3.450  -4.031  -5.868  0.00  0.00    -0.077 A 
ATOM      3  C2  UNL d   1      -3.593  -5.420  -5.965  0.00  0.00    -0.001 A 
ATOM      4  C3  UNL d   1      -4.863  -5.999  -5.994  0.00  0.00     0.003 A 
ATOM      5  C4  UNL d   1      -6.000  -5.195  -5.928  0.00  0.00    -0.005 A 
ATOM      6  C5  UNL d   1      -5.867  -3.811  -5.834  0.00  0.00     0.003 A 
ATOM      7  C6  UNL d   1      -4.598  -3.231  -5.804  0.00  0.00    -0.001 A 
ENDROOT
TORSDOF 0
ENDMDL
