MODEL 1
REMARK minimizedAffinity 7.59951591
REMARK minimizedRMSD -1
REMARK  0 active torsions:
REMARK  status: ('A' for Active; 'I' for Inactive)
ROOT
ATOM      1  C   UNL d   1      -3.943  -2.412   5.250  0.00  0.00     0.078 C 
ATOM      2  C1  UNL d   1      -3.821  -1.328   4.221  0.00  0.00    -0.077 A 
ATOM      3  C2  UNL d   1      -3.392  -0.043   4.574  0.00  0.00    -0.001 A 
ATOM      4  C3  UNL d   1      -3.292   0.959   3.607  0.00  0.00     0.003 A 
ATOM      5  C4  UNL d   1      -3.620   0.686   2.281  0.00  0.00    -0.005 A 
ATOM      6  C5  UNL d   1      -4.050  -0.589   1.920  0.00  0.00     0.003 A 
ATOM      7  C6  UNL d   1      -4.151  -1.592   2.886  0.00  0.00    -0.001 A 
ENDROOT
TORSDOF 0
ENDMDL
