MODEL 1
REMARK minimizedAffinity 0.775876522
REMARK minimizedRMSD -1
REMARK  0 active torsions:
REMARK  status: ('A' for Active; 'I' for Inactive)
ROOT
ATOM      1  C   UNL d   1       2.376  -4.341  -0.385  0.00  0.00     0.078 C 
ATOM      2  C1  UNL d   1       2.816  -4.012  -1.780  0.00  0.00    -0.077 A 
ATOM      3  C2  UNL d   1       3.916  -4.656  -2.360  0.00  0.00    -0.001 A 
ATOM      4  C3  UNL d   1       4.321  -4.333  -3.656  0.00  0.00     0.003 A 
ATOM      5  C4  UNL d   1       3.633  -3.364  -4.383  0.00  0.00    -0.005 A 
ATOM      6  C5  UNL d   1       2.539  -2.716  -3.814  0.00  0.00     0.003 A 
ATOM      7  C6  UNL d   1       2.132  -3.038  -2.518  0.00  0.00    -0.001 A 
ENDROOT
TORSDOF 0
ENDMDL
