MODEL 1
REMARK minimizedAffinity 3.99716425
REMARK minimizedRMSD -1
REMARK  0 active torsions:
REMARK  status: ('A' for Active; 'I' for Inactive)
ROOT
ATOM      1  C   UNL d   1       1.098  -3.646  -4.028  0.00  0.00     0.078 C 
ATOM      2  C1  UNL d   1       1.621  -2.869  -2.856  0.00  0.00    -0.077 A 
ATOM      3  C2  UNL d   1       1.710  -1.472  -2.899  0.00  0.00    -0.001 A 
ATOM      4  C3  UNL d   1       2.208  -0.763  -1.805  0.00  0.00     0.003 A 
ATOM      5  C4  UNL d   1       2.622  -1.442  -0.661  0.00  0.00    -0.005 A 
ATOM      6  C5  UNL d   1       2.540  -2.832  -0.610  0.00  0.00     0.003 A 
ATOM      7  C6  UNL d   1       2.042  -3.543  -1.703  0.00  0.00    -0.001 A 
ENDROOT
TORSDOF 0
ENDMDL
