MODEL 1
REMARK minimizedAffinity 1.51627481
REMARK minimizedRMSD -1
REMARK  0 active torsions:
REMARK  status: ('A' for Active; 'I' for Inactive)
ROOT
ATOM      1  C   UNL d   1       0.170  -3.398  -2.717  0.00  0.00     0.078 C 
ATOM      2  C1  UNL d   1       1.229  -2.684  -1.931  0.00  0.00    -0.077 A 
ATOM      3  C2  UNL d   1       1.563  -1.354  -2.213  0.00  0.00    -0.001 A 
ATOM      4  C3  UNL d   1       2.558  -0.706  -1.479  0.00  0.00     0.003 A 
ATOM      5  C4  UNL d   1       3.228  -1.380  -0.461  0.00  0.00    -0.005 A 
ATOM      6  C5  UNL d   1       2.904  -2.704  -0.174  0.00  0.00     0.003 A 
ATOM      7  C6  UNL d   1       1.910  -3.355  -0.907  0.00  0.00    -0.001 A 
ENDROOT
TORSDOF 0
ENDMDL
