MODEL 1
REMARK minimizedAffinity 4.25938749
REMARK minimizedRMSD -1
REMARK  0 active torsions:
REMARK  status: ('A' for Active; 'I' for Inactive)
ROOT
ATOM      1  C   UNL d   1       3.709   1.088  -0.249  0.00  0.00     0.078 C 
ATOM      2  C1  UNL d   1       3.067  -0.166  -0.762  0.00  0.00    -0.077 A 
ATOM      3  C2  UNL d   1       3.278  -1.396  -0.128  0.00  0.00    -0.001 A 
ATOM      4  C3  UNL d   1       2.682  -2.557  -0.622  0.00  0.00     0.003 A 
ATOM      5  C4  UNL d   1       1.871  -2.500  -1.754  0.00  0.00    -0.005 A 
ATOM      6  C5  UNL d   1       1.656  -1.280  -2.393  0.00  0.00     0.003 A 
ATOM      7  C6  UNL d   1       2.252  -0.118  -1.900  0.00  0.00    -0.001 A 
ENDROOT
TORSDOF 0
ENDMDL
