MODEL 1
REMARK minimizedAffinity 1.81547213
REMARK minimizedRMSD -1
REMARK  0 active torsions:
REMARK  status: ('A' for Active; 'I' for Inactive)
ROOT
ATOM      1  C   UNL d   1       2.569   0.032  -1.492  0.00  0.00     0.078 C 
ATOM      2  C1  UNL d   1       2.293  -1.417  -1.760  0.00  0.00    -0.077 A 
ATOM      3  C2  UNL d   1       1.903  -2.280  -0.728  0.00  0.00    -0.001 A 
ATOM      4  C3  UNL d   1       1.659  -3.629  -0.990  0.00  0.00     0.003 A 
ATOM      5  C4  UNL d   1       1.802  -4.128  -2.283  0.00  0.00    -0.005 A 
ATOM      6  C5  UNL d   1       2.191  -3.277  -3.316  0.00  0.00     0.003 A 
ATOM      7  C6  UNL d   1       2.436  -1.928  -3.056  0.00  0.00    -0.001 A 
ENDROOT
TORSDOF 0
ENDMDL
