MODEL 1
REMARK minimizedAffinity 3.63858867
REMARK minimizedRMSD -1
REMARK  0 active torsions:
REMARK  status: ('A' for Active; 'I' for Inactive)
ROOT
ATOM      1  C   UNL d   1       2.146   0.353  -1.241  0.00  0.00     0.078 C 
ATOM      2  C1  UNL d   1       2.035  -1.122  -1.487  0.00  0.00    -0.077 A 
ATOM      3  C2  UNL d   1       1.593  -1.617  -2.721  0.00  0.00    -0.001 A 
ATOM      4  C3  UNL d   1       1.486  -2.992  -2.933  0.00  0.00     0.003 A 
ATOM      5  C4  UNL d   1       1.818  -3.885  -1.915  0.00  0.00    -0.005 A 
ATOM      6  C5  UNL d   1       2.256  -3.402  -0.684  0.00  0.00     0.003 A 
ATOM      7  C6  UNL d   1       2.364  -2.027  -0.470  0.00  0.00    -0.001 A 
ENDROOT
TORSDOF 0
ENDMDL
