MODEL 1
REMARK minimizedAffinity 7.97138309
REMARK minimizedRMSD -1
REMARK  0 active torsions:
REMARK  status: ('A' for Active; 'I' for Inactive)
ROOT
ATOM      1  C   UNL d   1       2.722  -3.334   0.170  0.00  0.00     0.078 C 
ATOM      2  C1  UNL d   1       2.323  -2.541  -1.038  0.00  0.00    -0.077 A 
ATOM      3  C2  UNL d   1       2.243  -1.144  -0.990  0.00  0.00    -0.001 A 
ATOM      4  C3  UNL d   1       1.860  -0.419  -2.120  0.00  0.00     0.003 A 
ATOM      5  C4  UNL d   1       1.554  -1.082  -3.306  0.00  0.00    -0.005 A 
ATOM      6  C5  UNL d   1       1.629  -2.473  -3.363  0.00  0.00     0.003 A 
ATOM      7  C6  UNL d   1       2.011  -3.199  -2.234  0.00  0.00    -0.001 A 
ENDROOT
TORSDOF 0
ENDMDL
