MODEL 1
REMARK minimizedAffinity 1.65901005
REMARK minimizedRMSD -1
REMARK  0 active torsions:
REMARK  status: ('A' for Active; 'I' for Inactive)
ROOT
ATOM      1  C   UNL d   1       3.928  -2.565   2.956  0.00  0.00     0.172 C 
ATOM      2  N   UNL d   1       4.678  -2.912   4.141  0.00  0.00    -0.070 N 
ATOM      3  C1  UNL d   1       4.924  -4.183   4.587  0.00  0.00    -0.004 A 
ATOM      4  C2  UNL d   1       5.669  -4.088   5.742  0.00  0.00    -0.047 A 
ATOM      5  C3  UNL d   1       5.878  -2.712   6.000  0.00  0.00    -0.047 A 
ATOM      6  C4  UNL d   1       5.254  -2.006   4.993  0.00  0.00    -0.004 A 
ENDROOT
TORSDOF 0
ENDMDL
