MODEL 1
REMARK minimizedAffinity 1.02430773
REMARK minimizedRMSD -1
REMARK  0 active torsions:
REMARK  status: ('A' for Active; 'I' for Inactive)
ROOT
ATOM      1  C   UNL d   1       1.091  -0.753  -0.691  0.00  0.00     0.172 C 
ATOM      2  N   UNL d   1       1.545  -1.205   0.604  0.00  0.00    -0.070 N 
ATOM      3  C1  UNL d   1       2.808  -1.643   0.899  0.00  0.00    -0.004 A 
ATOM      4  C2  UNL d   1       2.836  -1.981   2.234  0.00  0.00    -0.047 A 
ATOM      5  C3  UNL d   1       1.545  -1.739   2.760  0.00  0.00    -0.047 A 
ATOM      6  C4  UNL d   1       0.765  -1.258   1.729  0.00  0.00    -0.004 A 
ENDROOT
TORSDOF 0
ENDMDL
