MODEL 1
REMARK minimizedAffinity 0.692414403
REMARK minimizedRMSD -1
REMARK  0 active torsions:
REMARK  status: ('A' for Active; 'I' for Inactive)
ROOT
ATOM      1  C   UNL d   1       3.901  -4.072   4.554  0.00  0.00     0.172 C 
ATOM      2  N   UNL d   1       3.244  -4.005   3.270  0.00  0.00    -0.070 N 
ATOM      3  C1  UNL d   1       1.919  -3.727   3.065  0.00  0.00    -0.004 A 
ATOM      4  C2  UNL d   1       1.686  -3.757   1.707  0.00  0.00    -0.047 A 
ATOM      5  C3  UNL d   1       2.914  -4.064   1.073  0.00  0.00    -0.047 A 
ATOM      6  C4  UNL d   1       3.861  -4.213   2.064  0.00  0.00    -0.004 A 
ENDROOT
TORSDOF 0
ENDMDL
