MODEL 1
REMARK minimizedAffinity 1.9828167
REMARK minimizedRMSD -1
REMARK  0 active torsions:
REMARK  status: ('A' for Active; 'I' for Inactive)
ROOT
ATOM      1  C   UNL d   1       6.000  -0.744   0.754  0.00  0.00     0.172 C 
ATOM      2  N   UNL d   1       5.353   0.524   0.515  0.00  0.00    -0.070 N 
ATOM      3  C1  UNL d   1       5.670   1.709   1.123  0.00  0.00    -0.004 A 
ATOM      4  C2  UNL d   1       4.827   2.679   0.624  0.00  0.00    -0.047 A 
ATOM      5  C3  UNL d   1       3.974   2.055  -0.316  0.00  0.00    -0.047 A 
ATOM      6  C4  UNL d   1       4.321   0.721  -0.364  0.00  0.00    -0.004 A 
ENDROOT
TORSDOF 0
ENDMDL
