MODEL 1
REMARK minimizedAffinity 6.48533487
REMARK minimizedRMSD -1
REMARK  0 active torsions:
REMARK  status: ('A' for Active; 'I' for Inactive)
ROOT
ATOM      1  C   UNL d   1       3.537   2.247   1.531  0.00  0.00     0.172 C 
ATOM      2  N   UNL d   1       2.357   3.033   1.802  0.00  0.00    -0.070 N 
ATOM      3  C1  UNL d   1       2.018   3.573   3.014  0.00  0.00    -0.004 A 
ATOM      4  C2  UNL d   1       0.826   4.248   2.857  0.00  0.00    -0.047 A 
ATOM      5  C3  UNL d   1       0.435   4.108   1.504  0.00  0.00    -0.047 A 
ATOM      6  C4  UNL d   1       1.400   3.351   0.874  0.00  0.00    -0.004 A 
ENDROOT
TORSDOF 0
ENDMDL
