MODEL 1
REMARK minimizedAffinity 1.37472999
REMARK minimizedRMSD -1
REMARK  0 active torsions:
REMARK  status: ('A' for Active; 'I' for Inactive)
ROOT
ATOM      1  C   UNL d   1       5.999   5.951   1.045  0.00  0.00     0.172 C 
ATOM      2  N   UNL d   1       5.250   4.720   0.957  0.00  0.00    -0.070 N 
ATOM      3  C1  UNL d   1       4.081   4.544   0.266  0.00  0.00    -0.004 A 
ATOM      4  C2  UNL d   1       3.688   3.233   0.430  0.00  0.00    -0.047 A 
ATOM      5  C3  UNL d   1       4.653   2.600   1.248  0.00  0.00    -0.047 A 
ATOM      6  C4  UNL d   1       5.609   3.543   1.560  0.00  0.00    -0.004 A 
ENDROOT
TORSDOF 0
ENDMDL
