MODEL 1
REMARK minimizedAffinity -3.13418174
REMARK minimizedRMSD -1
REMARK  0 active torsions:
REMARK  status: ('A' for Active; 'I' for Inactive)
ROOT
ATOM      1  C   UNL d   1       0.759  -1.242   2.518  0.00  0.00     0.172 C 
ATOM      2  N   UNL d   1       1.774  -2.269   2.504  0.00  0.00    -0.070 N 
ATOM      3  C1  UNL d   1       1.850  -3.304   1.611  0.00  0.00    -0.004 A 
ATOM      4  C2  UNL d   1       2.957  -4.059   1.933  0.00  0.00    -0.047 A 
ATOM      5  C3  UNL d   1       3.567  -3.458   3.059  0.00  0.00    -0.047 A 
ATOM      6  C4  UNL d   1       2.814  -2.351   3.392  0.00  0.00    -0.004 A 
ENDROOT
TORSDOF 0
ENDMDL
