MODEL 1
REMARK minimizedAffinity -0.323933452
REMARK minimizedRMSD -1
REMARK  0 active torsions:
REMARK  status: ('A' for Active; 'I' for Inactive)
ROOT
ATOM      1  C   UNL d   1       6.000  -1.336   0.728  0.00  0.00     0.172 C 
ATOM      2  N   UNL d   1       4.791  -2.012   1.137  0.00  0.00    -0.070 N 
ATOM      3  C1  UNL d   1       3.674  -2.187   0.366  0.00  0.00    -0.004 A 
ATOM      4  C2  UNL d   1       2.747  -2.877   1.116  0.00  0.00    -0.047 A 
ATOM      5  C3  UNL d   1       3.327  -3.125   2.383  0.00  0.00    -0.047 A 
ATOM      6  C4  UNL d   1       4.593  -2.579   2.369  0.00  0.00    -0.004 A 
ENDROOT
TORSDOF 0
ENDMDL
