MODEL 1
REMARK minimizedAffinity -2.09127498
REMARK minimizedRMSD -1
REMARK  0 active torsions:
REMARK  status: ('A' for Active; 'I' for Inactive)
ROOT
ATOM      1  C   UNL d   1       1.473  -1.565   0.066  0.00  0.00     0.172 C 
ATOM      2  N   UNL d   1       0.566  -1.072   1.076  0.00  0.00    -0.070 N 
ATOM      3  C1  UNL d   1      -0.578  -0.358   0.841  0.00  0.00    -0.004 A 
ATOM      4  C2  UNL d   1      -1.158  -0.077   2.060  0.00  0.00    -0.047 A 
ATOM      5  C3  UNL d   1      -0.332  -0.641   3.061  0.00  0.00    -0.047 A 
ATOM      6  C4  UNL d   1       0.728  -1.251   2.424  0.00  0.00    -0.004 A 
ENDROOT
TORSDOF 0
ENDMDL
