MODEL 1
REMARK minimizedAffinity -1.27791011
REMARK minimizedRMSD -1
REMARK  0 active torsions:
REMARK  status: ('A' for Active; 'I' for Inactive)
ROOT
ATOM      1  C   UNL d   1       1.274  -2.144   0.651  0.00  0.00     0.172 C 
ATOM      2  N   UNL d   1       0.272  -1.331   1.299  0.00  0.00    -0.070 N 
ATOM      3  C1  UNL d   1      -0.464  -0.342   0.701  0.00  0.00    -0.004 A 
ATOM      4  C2  UNL d   1      -1.306   0.192   1.652  0.00  0.00    -0.047 A 
ATOM      5  C3  UNL d   1      -1.068  -0.498   2.864  0.00  0.00    -0.047 A 
ATOM      6  C4  UNL d   1      -0.087  -1.435   2.617  0.00  0.00    -0.004 A 
ENDROOT
TORSDOF 0
ENDMDL
