MODEL 1
REMARK minimizedAffinity -2.31713438
REMARK minimizedRMSD -1
REMARK  0 active torsions:
REMARK  status: ('A' for Active; 'I' for Inactive)
ROOT
ATOM      1  C   UNL d   1       4.823  -3.396   5.976  0.00  0.00     0.172 C 
ATOM      2  N   UNL d   1       4.455  -3.847   4.654  0.00  0.00    -0.070 N 
ATOM      3  C1  UNL d   1       3.964  -3.057   3.649  0.00  0.00    -0.004 A 
ATOM      4  C2  UNL d   1       3.738  -3.860   2.553  0.00  0.00    -0.047 A 
ATOM      5  C3  UNL d   1       4.105  -5.179   2.911  0.00  0.00    -0.047 A 
ATOM      6  C4  UNL d   1       4.545  -5.142   4.218  0.00  0.00    -0.004 A 
ENDROOT
TORSDOF 0
ENDMDL
