MODEL 1
REMARK minimizedAffinity -2.53769851
REMARK minimizedRMSD -1
REMARK  0 active torsions:
REMARK  status: ('A' for Active; 'I' for Inactive)
ROOT
ATOM      1  C   UNL d   1       4.303  -2.605   4.552  0.00  0.00     0.172 C 
ATOM      2  N   UNL d   1       3.763  -2.536   3.215  0.00  0.00    -0.070 N 
ATOM      3  C1  UNL d   1       4.305  -3.124   2.103  0.00  0.00    -0.004 A 
ATOM      4  C2  UNL d   1       3.495  -2.824   1.029  0.00  0.00    -0.047 A 
ATOM      5  C3  UNL d   1       2.429  -2.028   1.512  0.00  0.00    -0.047 A 
ATOM      6  C4  UNL d   1       2.620  -1.865   2.868  0.00  0.00    -0.004 A 
ENDROOT
TORSDOF 0
ENDMDL
