MODEL 1
REMARK minimizedAffinity -1.35868895
REMARK minimizedRMSD -1
REMARK  1 active torsions:
REMARK  status: ('A' for Active; 'I' for Inactive)
REMARK    1  A    between atoms: C1_2  and  C2_3 
ROOT
ATOM      1  C2  UNL d   1       0.481  -1.132  -0.788  0.00  0.00    -0.081 A 
ATOM      2  C3  UNL d   1       0.576  -0.980   0.601  0.00  0.00     0.006 A 
ATOM      3  C4  UNL d   1       0.271   0.243   1.202  0.00  0.00     0.002 A 
ATOM      4  C5  UNL d   1      -0.142   1.332   0.426  0.00  0.00    -0.080 A 
ATOM      5  C6  UNL d   1      -0.502   2.641   1.062  0.00  0.00     0.076 C 
ATOM      6  C7  UNL d   1      -0.220   1.185  -0.963  0.00  0.00     0.002 A 
ATOM      7  C8  UNL d   1       0.086  -0.037  -1.565  0.00  0.00     0.006 A 
ENDROOT
BRANCH   1   8
ATOM      8  C1  UNL d   1       0.748  -2.468  -1.433  0.00  0.00     0.054 C 
ATOM      9  C   UNL d   1      -0.339  -3.476  -1.088  0.00  0.00     0.018 C 
ENDBRANCH   1   8
TORSDOF 1
ENDMDL
