MODEL 1
REMARK minimizedAffinity 3.99746013
REMARK minimizedRMSD -1
REMARK  1 active torsions:
REMARK  status: ('A' for Active; 'I' for Inactive)
REMARK    1  A    between atoms: C1_2  and  C2_3 
ROOT
ATOM      1  C2  UNL d   1       2.787  -5.330   0.101  0.00  0.00    -0.081 A 
ATOM      2  C3  UNL d   1       1.631  -5.995   0.527  0.00  0.00     0.006 A 
ATOM      3  C4  UNL d   1       0.370  -5.563   0.108  0.00  0.00     0.002 A 
ATOM      4  C5  UNL d   1       0.245  -4.465  -0.750  0.00  0.00    -0.080 A 
ATOM      5  C6  UNL d   1      -1.100  -4.010  -1.232  0.00  0.00     0.076 C 
ATOM      6  C7  UNL d   1       1.399  -3.791  -1.163  0.00  0.00     0.002 A 
ATOM      7  C8  UNL d   1       2.660  -4.221  -0.743  0.00  0.00     0.006 A 
ENDROOT
BRANCH   1   8
ATOM      8  C1  UNL d   1       4.151  -5.833   0.499  0.00  0.00     0.054 C 
ATOM      9  C   UNL d   1       5.055  -6.000  -0.714  0.00  0.00     0.018 C 
ENDBRANCH   1   8
TORSDOF 1
ENDMDL
