MODEL 1
REMARK minimizedAffinity -2.58166409
REMARK minimizedRMSD -1
REMARK  1 active torsions:
REMARK  status: ('A' for Active; 'I' for Inactive)
REMARK    1  A    between atoms: C1_2  and  C2_3 
ROOT
ATOM      1  C2  UNL d   1       0.486  -0.977  -0.744  0.00  0.00    -0.081 A 
ATOM      2  C3  UNL d   1       0.761  -1.097   0.624  0.00  0.00     0.006 A 
ATOM      3  C4  UNL d   1       0.435  -0.063   1.505  0.00  0.00     0.002 A 
ATOM      4  C5  UNL d   1      -0.176   1.104   1.035  0.00  0.00    -0.080 A 
ATOM      5  C6  UNL d   1      -0.558   2.210   1.974  0.00  0.00     0.076 C 
ATOM      6  C7  UNL d   1      -0.434   1.232  -0.335  0.00  0.00     0.002 A 
ATOM      7  C8  UNL d   1      -0.108   0.198  -1.216  0.00  0.00     0.006 A 
ENDROOT
BRANCH   1   8
ATOM      8  C1  UNL d   1       0.777  -2.117  -1.686  0.00  0.00     0.054 C 
ATOM      9  C   UNL d   1       0.881  -3.439  -0.940  0.00  0.00     0.018 C 
ENDBRANCH   1   8
TORSDOF 1
ENDMDL
