MODEL 1
REMARK minimizedAffinity -4.59843063
REMARK minimizedRMSD -1
REMARK  1 active torsions:
REMARK  status: ('A' for Active; 'I' for Inactive)
REMARK    1  A    between atoms: C1_2  and  C2_3 
ROOT
ATOM      1  C2  UNL d   1      -0.668  -1.865  -0.717  0.00  0.00    -0.081 A 
ATOM      2  C3  UNL d   1      -1.130  -1.881   0.605  0.00  0.00     0.006 A 
ATOM      3  C4  UNL d   1      -0.919  -0.783   1.442  0.00  0.00     0.002 A 
ATOM      4  C5  UNL d   1      -0.250   0.351   0.970  0.00  0.00    -0.080 A 
ATOM      5  C6  UNL d   1      -0.044   1.549   1.850  0.00  0.00     0.076 C 
ATOM      6  C7  UNL d   1       0.227   0.361  -0.345  0.00  0.00     0.002 A 
ATOM      7  C8  UNL d   1       0.018  -0.737  -1.182  0.00  0.00     0.006 A 
ENDROOT
BRANCH   1   8
ATOM      8  C1  UNL d   1      -0.950  -3.021  -1.641  0.00  0.00     0.054 C 
ATOM      9  C   UNL d   1      -0.923  -4.347  -0.894  0.00  0.00     0.018 C 
ENDBRANCH   1   8
TORSDOF 1
ENDMDL
