MODEL 1
REMARK minimizedAffinity -4.60694313
REMARK minimizedRMSD -1
REMARK  1 active torsions:
REMARK  status: ('A' for Active; 'I' for Inactive)
REMARK    1  A    between atoms: C1_2  and  C2_3 
ROOT
ATOM      1  C2  UNL d   1       0.228   0.073  -0.371  0.00  0.00    -0.081 A 
ATOM      2  C3  UNL d   1      -0.130   0.069   0.983  0.00  0.00     0.006 A 
ATOM      3  C4  UNL d   1      -0.746   1.183   1.556  0.00  0.00     0.002 A 
ATOM      4  C5  UNL d   1      -1.023   2.317   0.784  0.00  0.00    -0.080 A 
ATOM      5  C6  UNL d   1      -1.712   3.508   1.380  0.00  0.00     0.076 C 
ATOM      6  C7  UNL d   1      -0.650   2.328  -0.564  0.00  0.00     0.002 A 
ATOM      7  C8  UNL d   1      -0.032   1.214  -1.137  0.00  0.00     0.006 A 
ENDROOT
BRANCH   1   8
ATOM      8  C1  UNL d   1       0.835  -1.151  -1.007  0.00  0.00     0.054 C 
ATOM      9  C   UNL d   1      -0.240  -2.108  -1.501  0.00  0.00     0.018 C 
ENDBRANCH   1   8
TORSDOF 1
ENDMDL
