MODEL 1
REMARK minimizedAffinity -4.81934214
REMARK minimizedRMSD -1
REMARK  1 active torsions:
REMARK  status: ('A' for Active; 'I' for Inactive)
REMARK    1  A    between atoms: C1_2  and  C2_3 
ROOT
ATOM      1  C2  UNL d   1      -0.270   0.592   0.329  0.00  0.00    -0.081 A 
ATOM      2  C3  UNL d   1      -0.285   0.952   1.682  0.00  0.00     0.006 A 
ATOM      3  C4  UNL d   1      -0.818   2.180   2.082  0.00  0.00     0.002 A 
ATOM      4  C5  UNL d   1      -1.352   3.063   1.138  0.00  0.00    -0.080 A 
ATOM      5  C6  UNL d   1      -1.955   4.371   1.557  0.00  0.00     0.076 C 
ATOM      6  C7  UNL d   1      -1.322   2.711  -0.216  0.00  0.00     0.002 A 
ATOM      7  C8  UNL d   1      -0.788   1.484  -0.616  0.00  0.00     0.006 A 
ENDROOT
BRANCH   1   8
ATOM      8  C1  UNL d   1       0.245  -0.759  -0.099  0.00  0.00     0.054 C 
ATOM      9  C   UNL d   1      -0.877  -1.632  -0.643  0.00  0.00     0.018 C 
ENDBRANCH   1   8
TORSDOF 1
ENDMDL
