MODEL 1
REMARK minimizedAffinity -6.32395649
REMARK minimizedRMSD -1
REMARK  1 active torsions:
REMARK  status: ('A' for Active; 'I' for Inactive)
REMARK    1  A    between atoms: C1_2  and  C2_3 
ROOT
ATOM      1  C2  UNL d   1      -0.456   2.711  -0.616  0.00  0.00    -0.081 A 
ATOM      2  C3  UNL d   1      -0.842   3.220   0.629  0.00  0.00     0.006 A 
ATOM      3  C4  UNL d   1      -0.775   2.422   1.773  0.00  0.00     0.002 A 
ATOM      4  C5  UNL d   1      -0.313   1.104   1.692  0.00  0.00    -0.080 A 
ATOM      5  C6  UNL d   1      -0.207   0.245   2.917  0.00  0.00     0.076 C 
ATOM      6  C7  UNL d   1       0.056   0.588   0.445  0.00  0.00     0.002 A 
ATOM      7  C8  UNL d   1      -0.012   1.386  -0.699  0.00  0.00     0.006 A 
ENDROOT
BRANCH   1   8
ATOM      8  C1  UNL d   1      -0.467   3.590  -1.841  0.00  0.00     0.054 C 
ATOM      9  C   UNL d   1       0.422   4.811  -1.653  0.00  0.00     0.018 C 
ENDBRANCH   1   8
TORSDOF 1
ENDMDL
