MODEL 1
REMARK minimizedAffinity 7.24017048
REMARK minimizedRMSD -1
REMARK  0 active torsions:
REMARK  status: ('A' for Active; 'I' for Inactive)
ROOT
ATOM      1  C   UNL d   1       1.765  -0.027  -0.722  0.00  0.00     0.077 C 
ATOM      2  C1  UNL d   1       3.241   0.205  -0.596  0.00  0.00    -0.074 A 
ATOM      3  C2  UNL d   1       4.065  -0.734   0.032  0.00  0.00    -0.005 A 
ATOM      4  C3  UNL d   1       5.438  -0.509   0.133  0.00  0.00     0.006 A 
ATOM      5  C4  UNL d   1       6.000   0.655  -0.392  0.00  0.00    -0.005 A 
ATOM      6  C5  UNL d   1       5.192   1.605  -1.024  0.00  0.00    -0.074 A 
ATOM      7  C6  UNL d   1       5.781   2.858  -1.603  0.00  0.00     0.077 C 
ATOM      8  C7  UNL d   1       3.814   1.369  -1.128  0.00  0.00    -0.001 A 
ENDROOT
TORSDOF 0
ENDMDL
