MODEL 1
REMARK minimizedAffinity 6.905797
REMARK minimizedRMSD -1
REMARK  0 active torsions:
REMARK  status: ('A' for Active; 'I' for Inactive)
ROOT
ATOM      1  C   UNL d   1       2.775   0.735   1.706  0.00  0.00     0.077 C 
ATOM      2  C1  UNL d   1       3.352   0.397   0.364  0.00  0.00    -0.074 A 
ATOM      3  C2  UNL d   1       4.217   1.280  -0.289  0.00  0.00    -0.005 A 
ATOM      4  C3  UNL d   1       4.754   0.948  -1.533  0.00  0.00     0.006 A 
ATOM      5  C4  UNL d   1       4.431  -0.269  -2.135  0.00  0.00    -0.005 A 
ATOM      6  C5  UNL d   1       3.568  -1.165  -1.497  0.00  0.00    -0.074 A 
ATOM      7  C6  UNL d   1       3.219  -2.481  -2.126  0.00  0.00     0.077 C 
ATOM      8  C7  UNL d   1       3.039  -0.827  -0.244  0.00  0.00    -0.001 A 
ENDROOT
TORSDOF 0
ENDMDL
