MODEL 1
REMARK minimizedAffinity 2.424119
REMARK minimizedRMSD -1
REMARK  0 active torsions:
REMARK  status: ('A' for Active; 'I' for Inactive)
ROOT
ATOM      1  C   UNL d   1       4.647   2.034  -1.129  0.00  0.00     0.077 C 
ATOM      2  C1  UNL d   1       4.778   0.683  -0.492  0.00  0.00    -0.074 A 
ATOM      3  C2  UNL d   1       5.895   0.360   0.285  0.00  0.00    -0.005 A 
ATOM      4  C3  UNL d   1       5.999  -0.898   0.879  0.00  0.00     0.006 A 
ATOM      5  C4  UNL d   1       4.989  -1.844   0.702  0.00  0.00    -0.005 A 
ATOM      6  C5  UNL d   1       3.865  -1.539  -0.072  0.00  0.00    -0.074 A 
ATOM      7  C6  UNL d   1       2.765  -2.541  -0.264  0.00  0.00     0.077 C 
ATOM      8  C7  UNL d   1       3.764  -0.271  -0.659  0.00  0.00    -0.001 A 
ENDROOT
TORSDOF 0
ENDMDL
