MODEL 1
REMARK minimizedAffinity 11.0797691
REMARK minimizedRMSD -1
REMARK  0 active torsions:
REMARK  status: ('A' for Active; 'I' for Inactive)
ROOT
ATOM      1  C   UNL d   1       1.808   0.275  -0.003  0.00  0.00     0.077 C 
ATOM      2  C1  UNL d   1       3.268  -0.000  -0.207  0.00  0.00    -0.074 A 
ATOM      3  C2  UNL d   1       3.981   0.627  -1.235  0.00  0.00    -0.005 A 
ATOM      4  C3  UNL d   1       5.340   0.368  -1.407  0.00  0.00     0.006 A 
ATOM      5  C4  UNL d   1       6.000  -0.519  -0.555  0.00  0.00    -0.005 A 
ATOM      6  C5  UNL d   1       5.304  -1.154   0.479  0.00  0.00    -0.074 A 
ATOM      7  C6  UNL d   1       6.000  -2.103   1.409  0.00  0.00     0.077 C 
ATOM      8  C7  UNL d   1       3.939  -0.884   0.649  0.00  0.00    -0.001 A 
ENDROOT
TORSDOF 0
ENDMDL
