MODEL 1
REMARK minimizedAffinity 9.17508507
REMARK minimizedRMSD -1
REMARK  0 active torsions:
REMARK  status: ('A' for Active; 'I' for Inactive)
ROOT
ATOM      1  C   UNL d   1       4.897   2.950  -1.504  0.00  0.00     0.077 C 
ATOM      2  C1  UNL d   1       4.915   1.560  -0.942  0.00  0.00    -0.074 A 
ATOM      3  C2  UNL d   1       6.000   1.103  -0.187  0.00  0.00    -0.005 A 
ATOM      4  C3  UNL d   1       5.998  -0.190   0.336  0.00  0.00     0.006 A 
ATOM      5  C4  UNL d   1       4.913  -1.038   0.111  0.00  0.00    -0.005 A 
ATOM      6  C5  UNL d   1       3.819  -0.598  -0.641  0.00  0.00    -0.074 A 
ATOM      7  C6  UNL d   1       2.641  -1.494  -0.885  0.00  0.00     0.077 C 
ATOM      8  C7  UNL d   1       3.825   0.704  -1.158  0.00  0.00    -0.001 A 
ENDROOT
TORSDOF 0
ENDMDL
