MODEL 1
REMARK minimizedAffinity 9.2579813
REMARK minimizedRMSD -1
REMARK  0 active torsions:
REMARK  status: ('A' for Active; 'I' for Inactive)
ROOT
ATOM      1  C   UNL d   1       5.999   1.832  -1.105  0.00  0.00     0.077 C 
ATOM      2  C1  UNL d   1       4.733   1.031  -1.056  0.00  0.00    -0.074 A 
ATOM      3  C2  UNL d   1       3.626   1.479  -0.328  0.00  0.00    -0.005 A 
ATOM      4  C3  UNL d   1       2.451   0.728  -0.299  0.00  0.00     0.006 A 
ATOM      5  C4  UNL d   1       2.372  -0.479  -0.996  0.00  0.00    -0.005 A 
ATOM      6  C5  UNL d   1       3.468  -0.943  -1.730  0.00  0.00    -0.074 A 
ATOM      7  C6  UNL d   1       3.397  -2.232  -2.493  0.00  0.00     0.077 C 
ATOM      8  C7  UNL d   1       4.643  -0.178  -1.760  0.00  0.00    -0.001 A 
ENDROOT
TORSDOF 0
ENDMDL
