MODEL 1
REMARK minimizedAffinity 9.87658501
REMARK minimizedRMSD -1
REMARK  0 active torsions:
REMARK  status: ('A' for Active; 'I' for Inactive)
ROOT
ATOM      1  C   UNL d   1      -6.000  -0.242  -4.734  0.00  0.00     0.077 C 
ATOM      2  C1  UNL d   1      -4.636   0.381  -4.769  0.00  0.00    -0.074 A 
ATOM      3  C2  UNL d   1      -4.316   1.357  -5.719  0.00  0.00    -0.005 A 
ATOM      4  C3  UNL d   1      -3.046   1.934  -5.733  0.00  0.00     0.006 A 
ATOM      5  C4  UNL d   1      -2.085   1.542  -4.800  0.00  0.00    -0.005 A 
ATOM      6  C5  UNL d   1      -2.388   0.568  -3.843  0.00  0.00    -0.074 A 
ATOM      7  C6  UNL d   1      -1.370   0.143  -2.826  0.00  0.00     0.077 C 
ATOM      8  C7  UNL d   1      -3.668  -0.002  -3.830  0.00  0.00    -0.001 A 
ENDROOT
TORSDOF 0
ENDMDL
