MODEL 1
REMARK minimizedAffinity 6.68937254
REMARK minimizedRMSD -1
REMARK  0 active torsions:
REMARK  status: ('A' for Active; 'I' for Inactive)
ROOT
ATOM      1  C   UNL d   1       2.359  -0.156   0.126  0.00  0.00     0.077 C 
ATOM      2  C1  UNL d   1       3.381  -0.344  -0.955  0.00  0.00    -0.074 A 
ATOM      3  C2  UNL d   1       4.517   0.469  -1.019  0.00  0.00    -0.005 A 
ATOM      4  C3  UNL d   1       5.464   0.277  -2.025  0.00  0.00     0.006 A 
ATOM      5  C4  UNL d   1       5.285  -0.729  -2.975  0.00  0.00    -0.005 A 
ATOM      6  C5  UNL d   1       4.156  -1.553  -2.926  0.00  0.00    -0.074 A 
ATOM      7  C6  UNL d   1       3.953  -2.645  -3.934  0.00  0.00     0.077 C 
ATOM      8  C7  UNL d   1       3.212  -1.358  -1.909  0.00  0.00    -0.001 A 
ENDROOT
TORSDOF 0
ENDMDL
