MODEL 1
REMARK minimizedAffinity 3.72464967
REMARK minimizedRMSD -1
REMARK  0 active torsions:
REMARK  status: ('A' for Active; 'I' for Inactive)
ROOT
ATOM      1  C4' PXY d   1       1.683  -2.493   2.645  0.00  0.00     0.077 C 
ATOM      2  C1' PXY d   1       2.146  -5.256  -2.411  0.00  0.00     0.077 C 
ATOM      3  C1  PXY d   1       2.024  -4.543  -1.079  0.00  0.00    -0.082 A 
ATOM      4  C2  PXY d   1       1.618  -3.284  -1.046  0.00  0.00     0.003 A 
ATOM      5  C3  PXY d   1       1.532  -2.614   0.147  0.00  0.00     0.003 A 
ATOM      6  C4  PXY d   1       1.813  -3.256   1.324  0.00  0.00    -0.082 A 
ATOM      7  C5  PXY d   1       2.217  -4.543   1.299  0.00  0.00     0.003 A 
ATOM      8  C6  PXY d   1       2.337  -5.193   0.074  0.00  0.00     0.003 A 
ENDROOT
TORSDOF 0
ENDMDL
