MODEL 1
REMARK minimizedAffinity 4.67043638
REMARK minimizedRMSD -1
REMARK  0 active torsions:
REMARK  status: ('A' for Active; 'I' for Inactive)
ROOT
ATOM      1  C4' PXY d   1      -2.156  -0.489  -0.402  0.00  0.00     0.077 C 
ATOM      2  C1' PXY d   1       2.439  -3.693  -1.827  0.00  0.00     0.077 C 
ATOM      3  C1  PXY d   1       1.236  -2.857  -1.441  0.00  0.00    -0.082 A 
ATOM      4  C2  PXY d   1       0.327  -2.558  -2.355  0.00  0.00     0.003 A 
ATOM      5  C3  PXY d   1      -0.752  -1.775  -2.030  0.00  0.00     0.003 A 
ATOM      6  C4  PXY d   1      -0.929  -1.339  -0.744  0.00  0.00    -0.082 A 
ATOM      7  C5  PXY d   1      -0.012  -1.649   0.196  0.00  0.00     0.003 A 
ATOM      8  C6  PXY d   1       1.097  -2.410  -0.163  0.00  0.00     0.003 A 
ENDROOT
TORSDOF 0
ENDMDL
