MODEL 1
REMARK minimizedAffinity 10.0787334
REMARK minimizedRMSD -1
REMARK  0 active torsions:
REMARK  status: ('A' for Active; 'I' for Inactive)
ROOT
ATOM      1  C4' PXY d   1      -2.904   2.424  -0.904  0.00  0.00     0.077 C 
ATOM      2  C1' PXY d   1      -6.000   3.117  -5.736  0.00  0.00     0.077 C 
ATOM      3  C1  PXY d   1      -5.197   2.942  -4.462  0.00  0.00    -0.082 A 
ATOM      4  C2  PXY d   1      -3.884   2.795  -4.531  0.00  0.00     0.003 A 
ATOM      5  C3  PXY d   1      -3.147   2.603  -3.391  0.00  0.00     0.003 A 
ATOM      6  C4  PXY d   1      -3.754   2.614  -2.164  0.00  0.00    -0.082 A 
ATOM      7  C5  PXY d   1      -5.092   2.774  -2.084  0.00  0.00     0.003 A 
ATOM      8  C6  PXY d   1      -5.827   2.926  -3.256  0.00  0.00     0.003 A 
ENDROOT
TORSDOF 0
ENDMDL
