MODEL 1
REMARK minimizedAffinity 7.53830528
REMARK minimizedRMSD -1
REMARK  0 active torsions:
REMARK  status: ('A' for Active; 'I' for Inactive)
ROOT
ATOM      1  C4' PXY d   1       2.531   2.577   0.497  0.00  0.00     0.077 C 
ATOM      2  C1' PXY d   1       2.493  -2.452   3.347  0.00  0.00     0.077 C 
ATOM      3  C1  PXY d   1       2.495  -1.128   2.608  0.00  0.00    -0.082 A 
ATOM      4  C2  PXY d   1       2.752  -1.103   1.311  0.00  0.00     0.003 A 
ATOM      5  C3  PXY d   1       2.790   0.089   0.634  0.00  0.00     0.003 A 
ATOM      6  C4  PXY d   1       2.509   1.262   1.281  0.00  0.00    -0.082 A 
ATOM      7  C5  PXY d   1       2.235   1.244   2.603  0.00  0.00     0.003 A 
ATOM      8  C6  PXY d   1       2.242   0.028   3.280  0.00  0.00     0.003 A 
ENDROOT
TORSDOF 0
ENDMDL
