MODEL 1
REMARK minimizedAffinity 1.43514979
REMARK minimizedRMSD -1
REMARK  0 active torsions:
REMARK  status: ('A' for Active; 'I' for Inactive)
ROOT
ATOM      1  C4' PXY d   1       3.796  -2.315   4.741  0.00  0.00     0.077 C 
ATOM      2  C1' PXY d   1       0.251  -1.859   0.197  0.00  0.00     0.077 C 
ATOM      3  C1  PXY d   1       1.188  -1.970   1.383  0.00  0.00    -0.082 A 
ATOM      4  C2  PXY d   1       1.174  -3.064   2.129  0.00  0.00     0.003 A 
ATOM      5  C3  PXY d   1       1.993  -3.167   3.224  0.00  0.00     0.003 A 
ATOM      6  C4  PXY d   1       2.873  -2.164   3.528  0.00  0.00    -0.082 A 
ATOM      7  C5  PXY d   1       2.901  -1.050   2.766  0.00  0.00     0.003 A 
ATOM      8  C6  PXY d   1       2.033  -0.947   1.683  0.00  0.00     0.003 A 
ENDROOT
TORSDOF 0
ENDMDL
