MODEL 1
REMARK minimizedAffinity 7.90846014
REMARK minimizedRMSD -1
REMARK  0 active torsions:
REMARK  status: ('A' for Active; 'I' for Inactive)
ROOT
ATOM      1  C4' PXY d   1       2.993   2.405  -0.185  0.00  0.00     0.077 C 
ATOM      2  C1' PXY d   1       1.667  -2.328   2.857  0.00  0.00     0.077 C 
ATOM      3  C1  PXY d   1       2.027  -1.091   2.059  0.00  0.00    -0.082 A 
ATOM      4  C2  PXY d   1       1.266  -0.012   2.145  0.00  0.00     0.003 A 
ATOM      5  C3  PXY d   1       1.559   1.105   1.406  0.00  0.00     0.003 A 
ATOM      6  C4  PXY d   1       2.673   1.136   0.610  0.00  0.00    -0.082 A 
ATOM      7  C5  PXY d   1       3.460   0.043   0.524  0.00  0.00     0.003 A 
ATOM      8  C6  PXY d   1       3.122  -1.094   1.251  0.00  0.00     0.003 A 
ENDROOT
TORSDOF 0
ENDMDL
