MODEL 1
REMARK minimizedAffinity 4.92079639
REMARK minimizedRMSD -1
REMARK  0 active torsions:
REMARK  status: ('A' for Active; 'I' for Inactive)
ROOT
ATOM      1  C4' PXY d   1      -1.035  -1.384  -1.512  0.00  0.00     0.077 C 
ATOM      2  C1' PXY d   1      -3.930   2.467   1.683  0.00  0.00     0.077 C 
ATOM      3  C1  PXY d   1      -3.179   1.459   0.836  0.00  0.00    -0.082 A 
ATOM      4  C2  PXY d   1      -2.380   0.580   1.419  0.00  0.00     0.003 A 
ATOM      5  C3  PXY d   1      -1.670  -0.319   0.665  0.00  0.00     0.003 A 
ATOM      6  C4  PXY d   1      -1.819  -0.353  -0.695  0.00  0.00    -0.082 A 
ATOM      7  C5  PXY d   1      -2.641   0.533  -1.297  0.00  0.00     0.003 A 
ATOM      8  C6  PXY d   1      -3.322   1.464  -0.517  0.00  0.00     0.003 A 
ENDROOT
TORSDOF 0
ENDMDL
