MODEL 1
REMARK minimizedAffinity 3.03963327
REMARK minimizedRMSD -1
REMARK  0 active torsions:
REMARK  status: ('A' for Active; 'I' for Inactive)
ROOT
ATOM      1  C4' PXY d   1       3.044   3.451  -0.575  0.00  0.00     0.077 C 
ATOM      2  C1' PXY d   1       1.233  -1.340   2.105  0.00  0.00     0.077 C 
ATOM      3  C1  PXY d   1       1.720  -0.089   1.400  0.00  0.00    -0.082 A 
ATOM      4  C2  PXY d   1       1.172   1.080   1.689  0.00  0.00     0.003 A 
ATOM      5  C3  PXY d   1       1.577   2.216   1.038  0.00  0.00     0.003 A 
ATOM      6  C4  PXY d   1       2.591   2.163   0.119  0.00  0.00    -0.082 A 
ATOM      7  C5  PXY d   1       3.163   0.976  -0.174  0.00  0.00     0.003 A 
ATOM      8  C6  PXY d   1       2.708  -0.172   0.468  0.00  0.00     0.003 A 
ENDROOT
TORSDOF 0
ENDMDL
