MODEL 1
REMARK minimizedAffinity 2.89442158
REMARK minimizedRMSD -1
REMARK  0 active torsions:
REMARK  status: ('A' for Active; 'I' for Inactive)
ROOT
ATOM      1  C4' PXY d   1      -1.128  -1.931  -1.427  0.00  0.00     0.077 C 
ATOM      2  C1' PXY d   1       4.329  -2.792  -3.131  0.00  0.00     0.077 C 
ATOM      3  C1  PXY d   1       2.898  -2.578  -2.678  0.00  0.00    -0.082 A 
ATOM      4  C2  PXY d   1       2.117  -1.747  -3.349  0.00  0.00     0.003 A 
ATOM      5  C3  PXY d   1       0.830  -1.517  -2.935  0.00  0.00     0.003 A 
ATOM      6  C4  PXY d   1       0.321  -2.185  -1.853  0.00  0.00    -0.082 A 
ATOM      7  C5  PXY d   1       1.108  -3.043  -1.170  0.00  0.00     0.003 A 
ATOM      8  C6  PXY d   1       2.424  -3.231  -1.582  0.00  0.00     0.003 A 
ENDROOT
TORSDOF 0
ENDMDL
