MODEL 1
REMARK minimizedAffinity 5.4405489
REMARK minimizedRMSD -1
REMARK  0 active torsions:
REMARK  status: ('A' for Active; 'I' for Inactive)
ROOT
ATOM      1  C4' PXY d   1      -4.129  -1.914  -1.015  0.00  0.00     0.077 C 
ATOM      2  C1' PXY d   1       1.570  -1.708  -1.960  0.00  0.00     0.077 C 
ATOM      3  C1  PXY d   1       0.077  -1.759  -1.700  0.00  0.00    -0.082 A 
ATOM      4  C2  PXY d   1      -0.694  -2.516  -2.462  0.00  0.00     0.003 A 
ATOM      5  C3  PXY d   1      -2.050  -2.549  -2.261  0.00  0.00     0.003 A 
ATOM      6  C4  PXY d   1      -2.616  -1.839  -1.235  0.00  0.00    -0.082 A 
ATOM      7  C5  PXY d   1      -1.834  -1.072  -0.446  0.00  0.00     0.003 A 
ATOM      8  C6  PXY d   1      -0.465  -1.021  -0.693  0.00  0.00     0.003 A 
ENDROOT
TORSDOF 0
ENDMDL
