MODEL 1
REMARK minimizedAffinity 5.5279417
REMARK minimizedRMSD -1
REMARK  0 active torsions:
REMARK  status: ('A' for Active; 'I' for Inactive)
ROOT
ATOM      1  C4' PXY d   1      -0.313  -0.786   0.083  0.00  0.00     0.077 C 
ATOM      2  C1' PXY d   1       2.865  -2.315   4.664  0.00  0.00     0.077 C 
ATOM      3  C1  PXY d   1       2.033  -1.901   3.466  0.00  0.00    -0.082 A 
ATOM      4  C2  PXY d   1       1.185  -2.764   2.929  0.00  0.00     0.003 A 
ATOM      5  C3  PXY d   1       0.448  -2.417   1.826  0.00  0.00     0.003 A 
ATOM      6  C4  PXY d   1       0.541  -1.157   1.299  0.00  0.00    -0.082 A 
ATOM      7  C5  PXY d   1       1.396  -0.268   1.847  0.00  0.00     0.003 A 
ATOM      8  C6  PXY d   1       2.165  -0.653   2.942  0.00  0.00     0.003 A 
ENDROOT
TORSDOF 0
ENDMDL
