MODEL 1
REMARK minimizedAffinity -3.93629146
REMARK minimizedRMSD -1
REMARK  1 active torsions:
REMARK  status: ('A' for Active; 'I' for Inactive)
REMARK    1  A    between atoms: N_2  and  C1_3 
ROOT
ATOM      1  C1  UNL d   1      -0.528  -0.168   0.362  0.00  0.00     0.143 A 
ATOM      2  C2  UNL d   1      -1.454   0.690   0.967  0.00  0.00    -0.057 A 
ATOM      3  C3  UNL d   1      -1.220   2.068   1.050  0.00  0.00     0.033 A 
ATOM      4  C4  UNL d   1      -0.040   2.611   0.555  0.00  0.00    -0.042 A 
ATOM      5  C5  UNL d   1       0.906   1.774  -0.028  0.00  0.00     0.033 A 
ATOM      6  C6  UNL d   1       0.664   0.400  -0.114  0.00  0.00    -0.057 A 
ENDROOT
BRANCH   1   7
ATOM      7  N   UNL d   1      -0.658  -1.558   0.336  0.00  0.00    -0.732 N 
ATOM      8  C   UNL d   1      -0.619  -2.279  -0.918  0.00  0.00     0.284 C 
ATOM      9  H3  UNL d   1      -0.146  -2.010   1.091  0.00  0.00     0.395 HD
ENDBRANCH   1   7
TORSDOF 1
ENDMDL
