MODEL 1
REMARK minimizedAffinity -3.96757579
REMARK minimizedRMSD -1
REMARK  1 active torsions:
REMARK  status: ('A' for Active; 'I' for Inactive)
REMARK    1  A    between atoms: N_2  and  C1_3 
ROOT
ATOM      1  C1  UNL d   1      -0.033  -0.167   0.253  0.00  0.00     0.143 A 
ATOM      2  C2  UNL d   1       0.793   0.925   0.541  0.00  0.00    -0.057 A 
ATOM      3  C3  UNL d   1       0.283   2.229   0.587  0.00  0.00     0.033 A 
ATOM      4  C4  UNL d   1      -1.060   2.466   0.317  0.00  0.00    -0.042 A 
ATOM      5  C5  UNL d   1      -1.894   1.399   0.004  0.00  0.00     0.033 A 
ATOM      6  C6  UNL d   1      -1.381   0.099  -0.035  0.00  0.00    -0.057 A 
ENDROOT
BRANCH   1   7
ATOM      7  N   UNL d   1       0.434  -1.474   0.095  0.00  0.00    -0.732 N 
ATOM      8  C   UNL d   1      -0.170  -2.360  -0.878  0.00  0.00     0.284 C 
ATOM      9  H3  UNL d   1       1.448  -1.532   0.137  0.00  0.00     0.395 HD
ENDBRANCH   1   7
TORSDOF 1
ENDMDL
