MODEL 1
REMARK minimizedAffinity -1.73653913
REMARK minimizedRMSD -1
REMARK  1 active torsions:
REMARK  status: ('A' for Active; 'I' for Inactive)
REMARK    1  A    between atoms: N_2  and  C1_3 
ROOT
ATOM      1  C1  UNL d   1       0.178  -1.720  -0.997  0.00  0.00     0.143 A 
ATOM      2  C2  UNL d   1       0.783  -0.470  -1.166  0.00  0.00    -0.057 A 
ATOM      3  C3  UNL d   1       0.704   0.515  -0.174  0.00  0.00     0.033 A 
ATOM      4  C4  UNL d   1      -0.010   0.277   0.996  0.00  0.00    -0.042 A 
ATOM      5  C5  UNL d   1      -0.641  -0.949   1.174  0.00  0.00     0.033 A 
ATOM      6  C6  UNL d   1      -0.552  -1.931   0.183  0.00  0.00    -0.057 A 
ENDROOT
BRANCH   1   7
ATOM      7  N   UNL d   1       0.138  -2.705  -1.987  0.00  0.00    -0.732 N 
ATOM      8  C   UNL d   1      -0.966  -3.639  -2.054  0.00  0.00     0.284 C 
ATOM      9  H3  UNL d   1       0.444  -2.357  -2.893  0.00  0.00     0.395 HD
ENDBRANCH   1   7
TORSDOF 1
ENDMDL
