MODEL 1
REMARK minimizedAffinity -5.14197826
REMARK minimizedRMSD -1
REMARK  1 active torsions:
REMARK  status: ('A' for Active; 'I' for Inactive)
REMARK    1  A    between atoms: N_2  and  C1_3 
ROOT
ATOM      1  C1  UNL d   1       0.846   0.473   0.485  0.00  0.00     0.143 A 
ATOM      2  C2  UNL d   1      -0.226   1.370   0.447  0.00  0.00    -0.057 A 
ATOM      3  C3  UNL d   1      -0.017   2.754   0.483  0.00  0.00     0.033 A 
ATOM      4  C4  UNL d   1       1.272   3.266   0.588  0.00  0.00    -0.042 A 
ATOM      5  C5  UNL d   1       2.352   2.393   0.653  0.00  0.00     0.033 A 
ATOM      6  C6  UNL d   1       2.137   1.012   0.609  0.00  0.00    -0.057 A 
ENDROOT
BRANCH   1   7
ATOM      7  N   UNL d   1       0.698  -0.915   0.551  0.00  0.00    -0.732 N 
ATOM      8  C   UNL d   1      -0.126  -1.615  -0.410  0.00  0.00     0.284 C 
ATOM      9  H3  UNL d   1       1.571  -1.388   0.774  0.00  0.00     0.395 HD
ENDBRANCH   1   7
TORSDOF 1
ENDMDL
