MODEL 1
REMARK minimizedAffinity -3.30532455
REMARK minimizedRMSD -1
REMARK  1 active torsions:
REMARK  status: ('A' for Active; 'I' for Inactive)
REMARK    1  A    between atoms: N_2  and  C1_3 
ROOT
ATOM      1  C1  UNL d   1       0.221   2.917   1.974  0.00  0.00     0.143 A 
ATOM      2  C2  UNL d   1       0.098   3.089   3.357  0.00  0.00    -0.057 A 
ATOM      3  C3  UNL d   1       1.225   3.270   4.168  0.00  0.00     0.033 A 
ATOM      4  C4  UNL d   1       2.500   3.253   3.612  0.00  0.00    -0.042 A 
ATOM      5  C5  UNL d   1       2.647   3.059   2.244  0.00  0.00     0.033 A 
ATOM      6  C6  UNL d   1       1.517   2.885   1.437  0.00  0.00    -0.057 A 
ENDROOT
BRANCH   1   7
ATOM      7  N   UNL d   1      -0.854   2.634   1.127  0.00  0.00    -0.732 N 
ATOM      8  C   UNL d   1      -1.108   1.279   0.685  0.00  0.00     0.284 C 
ATOM      9  H3  UNL d   1      -1.692   3.154   1.376  0.00  0.00     0.395 HD
ENDBRANCH   1   7
TORSDOF 1
ENDMDL
