MODEL 1
REMARK minimizedAffinity -4.57944393
REMARK minimizedRMSD -1
REMARK  1 active torsions:
REMARK  status: ('A' for Active; 'I' for Inactive)
REMARK    1  A    between atoms: N_2  and  C1_3 
ROOT
ATOM      1  C1  UNL d   1      -0.112   0.262  -0.028  0.00  0.00     0.143 A 
ATOM      2  C2  UNL d   1       1.013   0.864  -0.602  0.00  0.00    -0.057 A 
ATOM      3  C3  UNL d   1       1.109   2.255  -0.725  0.00  0.00     0.033 A 
ATOM      4  C4  UNL d   1       0.065   3.071  -0.301  0.00  0.00    -0.042 A 
ATOM      5  C5  UNL d   1      -1.073   2.494   0.250  0.00  0.00     0.033 A 
ATOM      6  C6  UNL d   1      -1.161   1.104   0.376  0.00  0.00    -0.057 A 
ENDROOT
BRANCH   1   7
ATOM      7  N   UNL d   1      -0.310  -1.119   0.032  0.00  0.00    -0.732 N 
ATOM      8  C   UNL d   1      -0.540  -1.884  -1.174  0.00  0.00     0.284 C 
ATOM      9  H3  UNL d   1       0.311  -1.571   0.700  0.00  0.00     0.395 HD
ENDBRANCH   1   7
TORSDOF 1
ENDMDL
