MODEL 1
REMARK minimizedAffinity -4.47388935
REMARK minimizedRMSD -1
REMARK  1 active torsions:
REMARK  status: ('A' for Active; 'I' for Inactive)
REMARK    1  A    between atoms: N_2  and  C1_3 
ROOT
ATOM      1  C1  UNL d   1       0.233   0.571   0.021  0.00  0.00     0.143 A 
ATOM      2  C2  UNL d   1       1.583   0.940   0.030  0.00  0.00    -0.057 A 
ATOM      3  C3  UNL d   1       2.580   0.034   0.409  0.00  0.00     0.033 A 
ATOM      4  C4  UNL d   1       2.242  -1.253   0.816  0.00  0.00    -0.042 A 
ATOM      5  C5  UNL d   1       0.905  -1.633   0.839  0.00  0.00     0.033 A 
ATOM      6  C6  UNL d   1      -0.086  -0.726   0.452  0.00  0.00    -0.057 A 
ENDROOT
BRANCH   1   7
ATOM      7  N   UNL d   1      -0.813   1.456  -0.251  0.00  0.00    -0.732 N 
ATOM      8  C   UNL d   1      -0.558   2.871  -0.417  0.00  0.00     0.284 C 
ATOM      9  H3  UNL d   1      -1.482   1.074  -0.915  0.00  0.00     0.395 HD
ENDBRANCH   1   7
TORSDOF 1
ENDMDL
