MODEL 1
REMARK minimizedAffinity -4.51229715
REMARK minimizedRMSD -1
REMARK  1 active torsions:
REMARK  status: ('A' for Active; 'I' for Inactive)
REMARK    1  A    between atoms: N_2  and  C1_3 
ROOT
ATOM      1  C1  UNL d   1      -0.249  -0.484  -0.186  0.00  0.00     0.143 A 
ATOM      2  C2  UNL d   1      -1.510   0.020   0.150  0.00  0.00    -0.057 A 
ATOM      3  C3  UNL d   1      -1.754   1.398   0.188  0.00  0.00     0.033 A 
ATOM      4  C4  UNL d   1      -0.731   2.300  -0.082  0.00  0.00    -0.042 A 
ATOM      5  C5  UNL d   1       0.537   1.822  -0.394  0.00  0.00     0.033 A 
ATOM      6  C6  UNL d   1       0.774   0.445  -0.437  0.00  0.00    -0.057 A 
ENDROOT
BRANCH   1   7
ATOM      7  N   UNL d   1       0.083  -1.840  -0.146  0.00  0.00    -0.732 N 
ATOM      8  C   UNL d   1       0.348  -2.571  -1.366  0.00  0.00     0.284 C 
ATOM      9  H3  UNL d   1       0.718  -2.062   0.618  0.00  0.00     0.395 HD
ENDBRANCH   1   7
TORSDOF 1
ENDMDL
