MODEL 1
REMARK minimizedAffinity -3.2278204
REMARK minimizedRMSD -1
REMARK  1 active torsions:
REMARK  status: ('A' for Active; 'I' for Inactive)
REMARK    1  A    between atoms: N_2  and  C1_3 
ROOT
ATOM      1  C1  UNL d   1       0.143  -0.641   0.191  0.00  0.00     0.143 A 
ATOM      2  C2  UNL d   1       1.151   0.298  -0.051  0.00  0.00    -0.057 A 
ATOM      3  C3  UNL d   1       0.889   1.673  -0.007  0.00  0.00     0.033 A 
ATOM      4  C4  UNL d   1      -0.397   2.133   0.253  0.00  0.00    -0.042 A 
ATOM      5  C5  UNL d   1      -1.420   1.218   0.472  0.00  0.00     0.033 A 
ATOM      6  C6  UNL d   1      -1.151  -0.154   0.433  0.00  0.00    -0.057 A 
ENDROOT
BRANCH   1   7
ATOM      7  N   UNL d   1       0.319  -2.021   0.064  0.00  0.00    -0.732 N 
ATOM      8  C   UNL d   1      -0.543  -2.798  -0.800  0.00  0.00     0.284 C 
ATOM      9  H3  UNL d   1       1.301  -2.285   0.018  0.00  0.00     0.395 HD
ENDBRANCH   1   7
TORSDOF 1
ENDMDL
