MODEL 1
REMARK minimizedAffinity -5.39984751
REMARK minimizedRMSD -1
REMARK  1 active torsions:
REMARK  status: ('A' for Active; 'I' for Inactive)
REMARK    1  A    between atoms: N_2  and  C1_3 
ROOT
ATOM      1  C1  UNL d   1      -0.259  -0.319  -0.232  0.00  0.00     0.143 A 
ATOM      2  C2  UNL d   1       0.843   0.483  -0.547  0.00  0.00    -0.057 A 
ATOM      3  C3  UNL d   1       0.790   1.876  -0.415  0.00  0.00     0.033 A 
ATOM      4  C4  UNL d   1      -0.382   2.495   0.007  0.00  0.00    -0.042 A 
ATOM      5  C5  UNL d   1      -1.498   1.720   0.301  0.00  0.00     0.033 A 
ATOM      6  C6  UNL d   1      -1.436   0.329   0.174  0.00  0.00    -0.057 A 
ENDROOT
BRANCH   1   7
ATOM      7  N   UNL d   1      -0.300  -1.700  -0.436  0.00  0.00    -0.732 N 
ATOM      8  C   UNL d   1      -0.315  -2.248  -1.776  0.00  0.00     0.284 C 
ATOM      9  H3  UNL d   1       0.298  -2.207   0.213  0.00  0.00     0.395 HD
ENDBRANCH   1   7
TORSDOF 1
ENDMDL
