MODEL 1
REMARK minimizedAffinity -5.02548504
REMARK minimizedRMSD -1
REMARK  1 active torsions:
REMARK  status: ('A' for Active; 'I' for Inactive)
REMARK    1  A    between atoms: N_2  and  C1_3 
ROOT
ATOM      1  C1  UNL d   1       0.304  -0.166   0.190  0.00  0.00     0.143 A 
ATOM      2  C2  UNL d   1      -0.967   0.263   0.589  0.00  0.00    -0.057 A 
ATOM      3  C3  UNL d   1      -1.301   1.622   0.612  0.00  0.00     0.033 A 
ATOM      4  C4  UNL d   1      -0.358   2.582   0.261  0.00  0.00    -0.042 A 
ATOM      5  C5  UNL d   1       0.919   2.181  -0.115  0.00  0.00     0.033 A 
ATOM      6  C6  UNL d   1       1.245   0.822  -0.142  0.00  0.00    -0.057 A 
ENDROOT
BRANCH   1   7
ATOM      7  N   UNL d   1       0.728  -1.496   0.241  0.00  0.00    -0.732 N 
ATOM      8  C   UNL d   1       0.120  -2.496  -0.611  0.00  0.00     0.284 C 
ATOM      9  H3  UNL d   1       1.738  -1.578   0.323  0.00  0.00     0.395 HD
ENDBRANCH   1   7
TORSDOF 1
ENDMDL
