MODEL 1
REMARK minimizedAffinity -3.33477116
REMARK minimizedRMSD -1
REMARK  1 active torsions:
REMARK  status: ('A' for Active; 'I' for Inactive)
REMARK    1  A    between atoms: N_2  and  C1_3 
ROOT
ATOM      1  C1  UNL d   1       0.295   0.273   0.003  0.00  0.00     0.143 A 
ATOM      2  C2  UNL d   1       1.190   0.872  -0.890  0.00  0.00    -0.057 A 
ATOM      3  C3  UNL d   1       1.494   2.236  -0.809  0.00  0.00     0.033 A 
ATOM      4  C4  UNL d   1       0.883   3.035   0.152  0.00  0.00    -0.042 A 
ATOM      5  C5  UNL d   1      -0.029   2.467   1.034  0.00  0.00     0.033 A 
ATOM      6  C6  UNL d   1      -0.323   1.102   0.953  0.00  0.00    -0.057 A 
ENDROOT
BRANCH   1   7
ATOM      7  N   UNL d   1      -0.123  -1.057  -0.088  0.00  0.00    -0.732 N 
ATOM      8  C   UNL d   1      -0.187  -1.723  -1.371  0.00  0.00     0.284 C 
ATOM      9  H3  UNL d   1       0.252  -1.634   0.662  0.00  0.00     0.395 HD
ENDBRANCH   1   7
TORSDOF 1
ENDMDL
