MODEL 1
REMARK minimizedAffinity -4.66245413
REMARK minimizedRMSD -1
REMARK  1 active torsions:
REMARK  status: ('A' for Active; 'I' for Inactive)
REMARK    1  A    between atoms: N_2  and  C1_3 
ROOT
ATOM      1  C1  UNL d   1      -1.327   0.993   0.485  0.00  0.00     0.143 A 
ATOM      2  C2  UNL d   1      -0.151   0.243   0.377  0.00  0.00    -0.057 A 
ATOM      3  C3  UNL d   1       1.049   0.830  -0.042  0.00  0.00     0.033 A 
ATOM      4  C4  UNL d   1       1.088   2.176  -0.389  0.00  0.00    -0.042 A 
ATOM      5  C5  UNL d   1      -0.075   2.935  -0.313  0.00  0.00     0.033 A 
ATOM      6  C6  UNL d   1      -1.268   2.345   0.112  0.00  0.00    -0.057 A 
ENDROOT
BRANCH   1   7
ATOM      7  N   UNL d   1      -2.573   0.446   0.801  0.00  0.00    -0.732 N 
ATOM      8  C   UNL d   1      -3.785   1.214   0.613  0.00  0.00     0.284 C 
ATOM      9  H3  UNL d   1      -2.651  -0.529   0.521  0.00  0.00     0.395 HD
ENDBRANCH   1   7
TORSDOF 1
ENDMDL
