MODEL 1
REMARK minimizedAffinity -4.33564949
REMARK minimizedRMSD -1
REMARK  1 active torsions:
REMARK  status: ('A' for Active; 'I' for Inactive)
REMARK    1  A    between atoms: N_2  and  C1_3 
ROOT
ATOM      1  C1  UNL d   1      -0.246  -0.127   0.363  0.00  0.00     0.143 A 
ATOM      2  C2  UNL d   1      -1.300   0.769   0.572  0.00  0.00    -0.057 A 
ATOM      3  C3  UNL d   1      -1.066   2.138   0.750  0.00  0.00     0.033 A 
ATOM      4  C4  UNL d   1       0.234   2.633   0.751  0.00  0.00    -0.042 A 
ATOM      5  C5  UNL d   1       1.299   1.757   0.570  0.00  0.00     0.033 A 
ATOM      6  C6  UNL d   1       1.058   0.392   0.386  0.00  0.00    -0.057 A 
ENDROOT
BRANCH   1   7
ATOM      7  N   UNL d   1      -0.407  -1.512   0.278  0.00  0.00    -0.732 N 
ATOM      8  C   UNL d   1      -0.278  -2.192  -0.993  0.00  0.00     0.284 C 
ATOM      9  H3  UNL d   1       0.026  -2.002   1.057  0.00  0.00     0.395 HD
ENDBRANCH   1   7
TORSDOF 1
ENDMDL
