MODEL 1
REMARK minimizedAffinity -3.63142419
REMARK minimizedRMSD -1
REMARK  1 active torsions:
REMARK  status: ('A' for Active; 'I' for Inactive)
REMARK    1  A    between atoms: N_2  and  C1_3 
ROOT
ATOM      1  C1  UNL d   1       0.314  -0.069   0.484  0.00  0.00     0.143 A 
ATOM      2  C2  UNL d   1      -0.543   1.030   0.606  0.00  0.00    -0.057 A 
ATOM      3  C3  UNL d   1      -0.058   2.294   0.962  0.00  0.00     0.033 A 
ATOM      4  C4  UNL d   1       1.294   2.476   1.231  0.00  0.00    -0.042 A 
ATOM      5  C5  UNL d   1       2.162   1.393   1.140  0.00  0.00     0.033 A 
ATOM      6  C6  UNL d   1       1.672   0.135   0.777  0.00  0.00    -0.057 A 
ENDROOT
BRANCH   1   7
ATOM      7  N   UNL d   1      -0.121  -1.371   0.230  0.00  0.00    -0.732 N 
ATOM      8  C   UNL d   1      -0.517  -1.769  -1.104  0.00  0.00     0.284 C 
ATOM      9  H3  UNL d   1       0.429  -2.069   0.725  0.00  0.00     0.395 HD
ENDBRANCH   1   7
TORSDOF 1
ENDMDL
