MODEL 1
REMARK minimizedAffinity 9.40629864
REMARK minimizedRMSD -1
REMARK  0 active torsions:
REMARK  status: ('A' for Active; 'I' for Inactive)
ROOT
ATOM      1  C4' PXY d   1      -5.285   2.660   1.326  0.00  0.00     0.077 C 
ATOM      2  C1' PXY d   1      -5.948   5.996   6.000  0.00  0.00     0.077 C 
ATOM      3  C1  PXY d   1      -5.772   5.111   4.782  0.00  0.00    -0.082 A 
ATOM      4  C2  PXY d   1      -5.406   5.649   3.630  0.00  0.00     0.003 A 
ATOM      5  C3  PXY d   1      -5.273   4.868   2.510  0.00  0.00     0.003 A 
ATOM      6  C4  PXY d   1      -5.465   3.514   2.584  0.00  0.00    -0.082 A 
ATOM      7  C5  PXY d   1      -5.829   2.956   3.758  0.00  0.00     0.003 A 
ATOM      8  C6  PXY d   1      -5.998   3.772   4.873  0.00  0.00     0.003 A 
ENDROOT
TORSDOF 0
ENDMDL
