MODEL 1
REMARK minimizedAffinity 4.06503916
REMARK minimizedRMSD -1
REMARK  0 active torsions:
REMARK  status: ('A' for Active; 'I' for Inactive)
ROOT
ATOM      1  C4' PXY d   1       1.827   2.443   5.995  0.00  0.00     0.077 C 
ATOM      2  C1' PXY d   1       5.447   6.000   3.227  0.00  0.00     0.077 C 
ATOM      3  C1  PXY d   1       4.506   5.067   3.963  0.00  0.00    -0.082 A 
ATOM      4  C2  PXY d   1       3.659   4.316   3.277  0.00  0.00     0.003 A 
ATOM      5  C3  PXY d   1       2.779   3.491   3.927  0.00  0.00     0.003 A 
ATOM      6  C4  PXY d   1       2.802   3.392   5.293  0.00  0.00    -0.082 A 
ATOM      7  C5  PXY d   1       3.670   4.147   6.000  0.00  0.00     0.003 A 
ATOM      8  C6  PXY d   1       4.527   5.009   5.322  0.00  0.00     0.003 A 
ENDROOT
TORSDOF 0
ENDMDL
