MODEL 1
REMARK minimizedAffinity 7.91507149
REMARK minimizedRMSD -1
REMARK  0 active torsions:
REMARK  status: ('A' for Active; 'I' for Inactive)
ROOT
ATOM      1  C4' PXY d   1       2.860   2.381  -1.079  0.00  0.00     0.077 C 
ATOM      2  C1' PXY d   1       1.654  -2.437   1.878  0.00  0.00     0.077 C 
ATOM      3  C1  PXY d   1       1.964  -1.166   1.111  0.00  0.00    -0.082 A 
ATOM      4  C2  PXY d   1       2.166  -1.223  -0.195  0.00  0.00     0.003 A 
ATOM      5  C3  PXY d   1       2.480  -0.088  -0.898  0.00  0.00     0.003 A 
ATOM      6  C4  PXY d   1       2.534   1.125  -0.267  0.00  0.00    -0.082 A 
ATOM      7  C5  PXY d   1       2.319   1.193   1.064  0.00  0.00     0.003 A 
ATOM      8  C6  PXY d   1       2.043   0.024   1.767  0.00  0.00     0.003 A 
ENDROOT
TORSDOF 0
ENDMDL
