MODEL 1
REMARK minimizedAffinity 9.20313835
REMARK minimizedRMSD -1
REMARK  0 active torsions:
REMARK  status: ('A' for Active; 'I' for Inactive)
ROOT
ATOM      1  C4' PXY d   1       2.623  -1.462  -0.010  0.00  0.00     0.077 C 
ATOM      2  C1' PXY d   1      -1.912  -4.671  -1.608  0.00  0.00     0.077 C 
ATOM      3  C1  PXY d   1      -0.724  -3.834  -1.177  0.00  0.00    -0.082 A 
ATOM      4  C2  PXY d   1      -0.406  -2.747  -1.861  0.00  0.00     0.003 A 
ATOM      5  C3  PXY d   1       0.684  -1.996  -1.504  0.00  0.00     0.003 A 
ATOM      6  C4  PXY d   1       1.426  -2.332  -0.404  0.00  0.00    -0.082 A 
ATOM      7  C5  PXY d   1       1.102  -3.434   0.306  0.00  0.00     0.003 A 
ATOM      8  C6  PXY d   1       0.016  -4.205  -0.097  0.00  0.00     0.003 A 
ENDROOT
TORSDOF 0
ENDMDL
