MODEL 1
REMARK minimizedAffinity 6.51525164
REMARK minimizedRMSD -1
REMARK  0 active torsions:
REMARK  status: ('A' for Active; 'I' for Inactive)
ROOT
ATOM      1  C4' PXY d   1       2.268  -2.076  -0.082  0.00  0.00     0.077 C 
ATOM      2  C1' PXY d   1       4.431   3.256   0.465  0.00  0.00     0.077 C 
ATOM      3  C1  PXY d   1       3.855   1.860   0.331  0.00  0.00    -0.082 A 
ATOM      4  C2  PXY d   1       4.597   0.893  -0.184  0.00  0.00     0.003 A 
ATOM      5  C3  PXY d   1       4.081  -0.367  -0.342  0.00  0.00     0.003 A 
ATOM      6  C4  PXY d   1       2.811  -0.654   0.081  0.00  0.00    -0.082 A 
ATOM      7  C5  PXY d   1       2.051   0.325   0.617  0.00  0.00     0.003 A 
ATOM      8  C6  PXY d   1       2.579   1.607   0.731  0.00  0.00     0.003 A 
ENDROOT
TORSDOF 0
ENDMDL
