MODEL 1
REMARK minimizedAffinity 7.22290802
REMARK minimizedRMSD -1
REMARK  0 active torsions:
REMARK  status: ('A' for Active; 'I' for Inactive)
ROOT
ATOM      1  C4' PXY d   1       3.779  -3.186  -2.416  0.00  0.00     0.077 C 
ATOM      2  C1' PXY d   1       3.554   1.818   0.469  0.00  0.00     0.077 C 
ATOM      3  C1  PXY d   1       3.608   0.500  -0.277  0.00  0.00    -0.082 A 
ATOM      4  C2  PXY d   1       4.470   0.344  -1.268  0.00  0.00     0.003 A 
ATOM      5  C3  PXY d   1       4.510  -0.830  -1.975  0.00  0.00     0.003 A 
ATOM      6  C4  PXY d   1       3.696  -1.875  -1.628  0.00  0.00    -0.082 A 
ATOM      7  C5  PXY d   1       2.821  -1.728  -0.611  0.00  0.00     0.003 A 
ATOM      8  C6  PXY d   1       2.767  -0.514   0.067  0.00  0.00     0.003 A 
ENDROOT
TORSDOF 0
ENDMDL
