MODEL 1
REMARK minimizedAffinity 13.4807272
REMARK minimizedRMSD -1
REMARK  0 active torsions:
REMARK  status: ('A' for Active; 'I' for Inactive)
ROOT
ATOM      1  C4' PXY d   1       5.249   5.337  -0.826  0.00  0.00     0.077 C 
ATOM      2  C1' PXY d   1       2.445   2.750   3.517  0.00  0.00     0.077 C 
ATOM      3  C1  PXY d   1       3.177   3.419   2.370  0.00  0.00    -0.082 A 
ATOM      4  C2  PXY d   1       4.140   4.289   2.628  0.00  0.00     0.003 A 
ATOM      5  C3  PXY d   1       4.791   4.926   1.603  0.00  0.00     0.003 A 
ATOM      6  C4  PXY d   1       4.489   4.631   0.300  0.00  0.00    -0.082 A 
ATOM      7  C5  PXY d   1       3.515   3.737   0.029  0.00  0.00     0.003 A 
ATOM      8  C6  PXY d   1       2.838   3.131   1.084  0.00  0.00     0.003 A 
ENDROOT
TORSDOF 0
ENDMDL
