MODEL 1
REMARK minimizedAffinity -0.926863253
REMARK minimizedRMSD -1
REMARK  0 active torsions:
REMARK  status: ('A' for Active; 'I' for Inactive)
ROOT
ATOM      1  C4' PXY d   1      -3.423   5.981   0.513  0.00  0.00     0.077 C 
ATOM      2  C1' PXY d   1      -5.893   5.988   5.739  0.00  0.00     0.077 C 
ATOM      3  C1  PXY d   1      -5.235   5.992   4.373  0.00  0.00    -0.082 A 
ATOM      4  C2  PXY d   1      -5.987   5.990   3.285  0.00  0.00     0.003 A 
ATOM      5  C3  PXY d   1      -5.407   5.961   2.042  0.00  0.00     0.003 A 
ATOM      6  C4  PXY d   1      -4.045   5.987   1.912  0.00  0.00    -0.082 A 
ATOM      7  C5  PXY d   1      -3.271   6.000   3.018  0.00  0.00     0.003 A 
ATOM      8  C6  PXY d   1      -3.878   5.987   4.270  0.00  0.00     0.003 A 
ENDROOT
TORSDOF 0
ENDMDL
