MODEL 1
REMARK minimizedAffinity -2.89991951
REMARK minimizedRMSD -1
REMARK  0 active torsions:
REMARK  status: ('A' for Active; 'I' for Inactive)
ROOT
ATOM      1  C2' OXE d   1      -1.330  -0.328  -0.025  0.00  0.00     0.078 C 
ATOM      2  C1' OXE d   1       0.366  -2.324   0.984  0.00  0.00     0.078 C 
ATOM      3  C1  OXE d   1       0.997  -1.039   0.509  0.00  0.00    -0.078 A 
ATOM      4  C2  OXE d   1       0.165  -0.086  -0.026  0.00  0.00    -0.078 A 
ATOM      5  C3  OXE d   1       0.688   1.139  -0.429  0.00  0.00     0.003 A 
ATOM      6  C4  OXE d   1       2.072   1.350  -0.436  0.00  0.00    -0.002 A 
ATOM      7  C5  OXE d   1       2.942   0.377   0.068  0.00  0.00    -0.002 A 
ATOM      8  C6  OXE d   1       2.418  -0.804   0.582  0.00  0.00     0.003 A 
ENDROOT
TORSDOF 0
ENDMDL
