MODEL 1
REMARK minimizedAffinity -3.64635515
REMARK minimizedRMSD -1
REMARK  0 active torsions:
REMARK  status: ('A' for Active; 'I' for Inactive)
ROOT
ATOM      1  C2' OXE d   1      -1.184  -0.164   0.009  0.00  0.00     0.078 C 
ATOM      2  C1' OXE d   1       0.326  -2.189   1.234  0.00  0.00     0.078 C 
ATOM      3  C1  OXE d   1       1.056  -0.960   0.753  0.00  0.00    -0.078 A 
ATOM      4  C2  OXE d   1       0.316   0.005   0.112  0.00  0.00    -0.078 A 
ATOM      5  C3  OXE d   1       0.931   1.183  -0.303  0.00  0.00     0.003 A 
ATOM      6  C4  OXE d   1       2.321   1.327  -0.212  0.00  0.00    -0.002 A 
ATOM      7  C5  OXE d   1       3.099   0.339   0.401  0.00  0.00    -0.002 A 
ATOM      8  C6  OXE d   1       2.478  -0.789   0.926  0.00  0.00     0.003 A 
ENDROOT
TORSDOF 0
ENDMDL
