MODEL 1
REMARK minimizedAffinity -3.58226752
REMARK minimizedRMSD -1
REMARK  0 active torsions:
REMARK  status: ('A' for Active; 'I' for Inactive)
ROOT
ATOM      1  C2' OXE d   1       2.350   1.573   2.034  0.00  0.00     0.078 C 
ATOM      2  C1' OXE d   1       2.990  -0.696   0.510  0.00  0.00     0.078 C 
ATOM      3  C1  OXE d   1       1.582  -0.163   0.421  0.00  0.00    -0.078 A 
ATOM      4  C2  OXE d   1       1.265   0.920   1.205  0.00  0.00    -0.078 A 
ATOM      5  C3  OXE d   1      -0.004   1.485   1.120  0.00  0.00     0.003 A 
ATOM      6  C4  OXE d   1      -1.005   0.869   0.359  0.00  0.00    -0.002 A 
ATOM      7  C5  OXE d   1      -0.714  -0.258  -0.417  0.00  0.00    -0.002 A 
ATOM      8  C6  OXE d   1       0.583  -0.760  -0.431  0.00  0.00     0.003 A 
ENDROOT
TORSDOF 0
ENDMDL
