MODEL 1
REMARK minimizedAffinity -4.45472717
REMARK minimizedRMSD -1
REMARK  0 active torsions:
REMARK  status: ('A' for Active; 'I' for Inactive)
ROOT
ATOM      1  C2' OXE d   1      -0.418   0.589   0.021  0.00  0.00     0.078 C 
ATOM      2  C1' OXE d   1       2.244   1.482   0.005  0.00  0.00     0.078 C 
ATOM      3  C1  OXE d   1       1.950   0.157   0.662  0.00  0.00    -0.078 A 
ATOM      4  C2  OXE d   1       0.639  -0.250   0.707  0.00  0.00    -0.078 A 
ATOM      5  C3  OXE d   1       0.320  -1.490   1.253  0.00  0.00     0.003 A 
ATOM      6  C4  OXE d   1       1.301  -2.255   1.894  0.00  0.00    -0.002 A 
ATOM      7  C5  OXE d   1       2.637  -1.840   1.895  0.00  0.00    -0.002 A 
ATOM      8  C6  OXE d   1       2.984  -0.660   1.248  0.00  0.00     0.003 A 
ENDROOT
TORSDOF 0
ENDMDL
