MODEL 1
REMARK minimizedAffinity -2.29119134
REMARK minimizedRMSD -1
REMARK  0 active torsions:
REMARK  status: ('A' for Active; 'I' for Inactive)
ROOT
ATOM      1  C2' OXE d   1       0.285  -0.947   0.205  0.00  0.00     0.078 C 
ATOM      2  C1' OXE d   1      -0.833   1.619   0.418  0.00  0.00     0.078 C 
ATOM      3  C1  OXE d   1      -1.438   0.669  -0.585  0.00  0.00    -0.078 A 
ATOM      4  C2  OXE d   1      -0.855  -0.568  -0.715  0.00  0.00    -0.078 A 
ATOM      5  C3  OXE d   1      -1.408  -1.502  -1.587  0.00  0.00     0.003 A 
ATOM      6  C4  OXE d   1      -2.456  -1.141  -2.442  0.00  0.00    -0.002 A 
ATOM      7  C5  OXE d   1      -3.039   0.128  -2.353  0.00  0.00    -0.002 A 
ATOM      8  C6  OXE d   1      -2.571   1.028  -1.403  0.00  0.00     0.003 A 
ENDROOT
TORSDOF 0
ENDMDL
