MODEL 1
REMARK minimizedAffinity -5.51073456
REMARK minimizedRMSD -1
REMARK  0 active torsions:
REMARK  status: ('A' for Active; 'I' for Inactive)
ROOT
ATOM      1  C2' OXE d   1       0.714   2.511   0.698  0.00  0.00     0.078 C 
ATOM      2  C1' OXE d   1      -0.596   0.124   0.017  0.00  0.00     0.078 C 
ATOM      3  C1  OXE d   1       0.876   0.052   0.336  0.00  0.00    -0.078 A 
ATOM      4  C2  OXE d   1       1.519   1.232   0.622  0.00  0.00    -0.078 A 
ATOM      5  C3  OXE d   1       2.865   1.215   0.977  0.00  0.00     0.003 A 
ATOM      6  C4  OXE d   1       3.605   0.029   0.895  0.00  0.00    -0.002 A 
ATOM      7  C5  OXE d   1       2.978  -1.177   0.566  0.00  0.00    -0.002 A 
ATOM      8  C6  OXE d   1       1.609  -1.190   0.326  0.00  0.00     0.003 A 
ENDROOT
TORSDOF 0
ENDMDL
