MODEL 1
REMARK minimizedAffinity -5.46923447
REMARK minimizedRMSD -1
REMARK  0 active torsions:
REMARK  status: ('A' for Active; 'I' for Inactive)
ROOT
ATOM      1  C2' OXE d   1       0.794   2.183  -0.308  0.00  0.00     0.078 C 
ATOM      2  C1' OXE d   1      -0.932   0.044   0.266  0.00  0.00     0.078 C 
ATOM      3  C1  OXE d   1       0.535  -0.134   0.570  0.00  0.00    -0.078 A 
ATOM      4  C2  OXE d   1       1.378   0.901   0.243  0.00  0.00    -0.078 A 
ATOM      5  C3  OXE d   1       2.732   0.810   0.553  0.00  0.00     0.003 A 
ATOM      6  C4  OXE d   1       3.267  -0.384   1.053  0.00  0.00    -0.002 A 
ATOM      7  C5  OXE d   1       2.431  -1.464   1.356  0.00  0.00    -0.002 A 
ATOM      8  C6  OXE d   1       1.060  -1.340   1.161  0.00  0.00     0.003 A 
ENDROOT
TORSDOF 0
ENDMDL
