MODEL 1
REMARK minimizedAffinity -3.79884672
REMARK minimizedRMSD -1
REMARK  0 active torsions:
REMARK  status: ('A' for Active; 'I' for Inactive)
ROOT
ATOM      1  C2' OXE d   1      -0.719  -1.842   0.791  0.00  0.00     0.078 C 
ATOM      2  C1' OXE d   1      -0.970   0.773  -0.200  0.00  0.00     0.078 C 
ATOM      3  C1  OXE d   1       0.420   0.209  -0.047  0.00  0.00    -0.078 A 
ATOM      4  C2  OXE d   1       0.536  -1.054   0.483  0.00  0.00    -0.078 A 
ATOM      5  C3  OXE d   1       1.793  -1.642   0.595  0.00  0.00     0.003 A 
ATOM      6  C4  OXE d   1       2.949  -0.902   0.317  0.00  0.00    -0.002 A 
ATOM      7  C5  OXE d   1       2.855   0.400  -0.186  0.00  0.00    -0.002 A 
ATOM      8  C6  OXE d   1       1.600   0.953  -0.413  0.00  0.00     0.003 A 
ENDROOT
TORSDOF 0
ENDMDL
