MODEL 1
REMARK minimizedAffinity -4.43384266
REMARK minimizedRMSD -1
REMARK  0 active torsions:
REMARK  status: ('A' for Active; 'I' for Inactive)
ROOT
ATOM      1  C2' OXE d   1      -0.954  -0.702   0.746  0.00  0.00     0.078 C 
ATOM      2  C1' OXE d   1       1.033  -2.258   1.976  0.00  0.00     0.078 C 
ATOM      3  C1  OXE d   1       1.447  -0.943   1.365  0.00  0.00    -0.078 A 
ATOM      4  C2  OXE d   1       0.477  -0.210   0.724  0.00  0.00    -0.078 A 
ATOM      5  C3  OXE d   1       0.794   1.036   0.191  0.00  0.00     0.003 A 
ATOM      6  C4  OXE d   1       2.122   1.480   0.167  0.00  0.00    -0.002 A 
ATOM      7  C5  OXE d   1       3.132   0.730   0.779  0.00  0.00    -0.002 A 
ATOM      8  C6  OXE d   1       2.805  -0.461   1.418  0.00  0.00     0.003 A 
ENDROOT
TORSDOF 0
ENDMDL
