MODEL 1
REMARK minimizedAffinity -6.72870159
REMARK minimizedRMSD -1
REMARK  3 active torsions:
REMARK  status: ('A' for Active; 'I' for Inactive)
REMARK    1  A    between atoms: C3'_2  and  C2'_3 
REMARK    2  A    between atoms: C2'_3  and  C1'_4 
REMARK    3  A    between atoms: C1'_4  and  C1_5 
ROOT
ATOM      1  C1  N4B d   1       0.065  -0.492   0.192  0.00  0.00    -0.075 A 
ATOM      2  C2  N4B d   1      -0.504  -0.048  -1.021  0.00  0.00     0.002 A 
ATOM      3  C3  N4B d   1      -1.854  -0.181  -1.235  0.00  0.00     0.002 A 
ATOM      4  C4  N4B d   1      -2.648  -0.770  -0.262  0.00  0.00    -0.004 A 
ATOM      5  C5  N4B d   1      -2.094  -1.173   0.917  0.00  0.00     0.002 A 
ATOM      6  C6  N4B d   1      -0.739  -1.042   1.148  0.00  0.00     0.002 A 
ENDROOT
BRANCH   1   7
ATOM      7  C1' N4B d   1       1.549  -0.445   0.437  0.00  0.00     0.057 C 
BRANCH   7   8
ATOM      8  C2' N4B d   1       2.085   0.917   0.006  0.00  0.00     0.009 C 
BRANCH   8   9
ATOM      9  C3' N4B d   1       2.364   1.820   1.196  0.00  0.00     0.004 C 
ATOM     10  C4' N4B d   1       2.346   3.276   0.837  0.00  0.00     0.003 C 
ENDBRANCH   8   9
ENDBRANCH   7   8
ENDBRANCH   1   7
TORSDOF 3
ENDMDL
