MODEL 1
REMARK minimizedAffinity -6.03333187
REMARK minimizedRMSD -1
REMARK  3 active torsions:
REMARK  status: ('A' for Active; 'I' for Inactive)
REMARK    1  A    between atoms: C3'_2  and  C2'_3 
REMARK    2  A    between atoms: C2'_3  and  C1'_4 
REMARK    3  A    between atoms: C1'_4  and  C1_5 
ROOT
ATOM      1  C1  N4B d   1       0.021  -0.243  -0.265  0.00  0.00    -0.075 A 
ATOM      2  C2  N4B d   1      -1.063  -0.995   0.238  0.00  0.00     0.002 A 
ATOM      3  C3  N4B d   1      -2.322  -0.815  -0.280  0.00  0.00     0.002 A 
ATOM      4  C4  N4B d   1      -2.524   0.121  -1.283  0.00  0.00    -0.004 A 
ATOM      5  C5  N4B d   1      -1.468   0.825  -1.781  0.00  0.00     0.002 A 
ATOM      6  C6  N4B d   1      -0.196   0.652  -1.273  0.00  0.00     0.002 A 
ENDROOT
BRANCH   1   7
ATOM      7  C1' N4B d   1       1.400  -0.343   0.327  0.00  0.00     0.057 C 
BRANCH   7   8
ATOM      8  C2' N4B d   1       2.121   0.990   0.147  0.00  0.00     0.009 C 
BRANCH   8   9
ATOM      9  C3' N4B d   1       1.967   1.888   1.362  0.00  0.00     0.004 C 
ATOM     10  C4' N4B d   1       2.975   2.998   1.395  0.00  0.00     0.003 C 
ENDBRANCH   8   9
ENDBRANCH   7   8
ENDBRANCH   1   7
TORSDOF 3
ENDMDL
