MODEL 1
REMARK minimizedAffinity -5.62728405
REMARK minimizedRMSD -1
REMARK  3 active torsions:
REMARK  status: ('A' for Active; 'I' for Inactive)
REMARK    1  A    between atoms: C3'_2  and  C2'_3 
REMARK    2  A    between atoms: C2'_3  and  C1'_4 
REMARK    3  A    between atoms: C1'_4  and  C1_5 
ROOT
ATOM      1  C1  N4B d   1      -0.366   0.171   0.259  0.00  0.00    -0.075 A 
ATOM      2  C2  N4B d   1      -0.735   0.284  -1.099  0.00  0.00     0.002 A 
ATOM      3  C3  N4B d   1      -1.954  -0.187  -1.520  0.00  0.00     0.002 A 
ATOM      4  C4  N4B d   1      -2.809  -0.790  -0.609  0.00  0.00    -0.004 A 
ATOM      5  C5  N4B d   1      -2.455  -0.873   0.706  0.00  0.00     0.002 A 
ATOM      6  C6  N4B d   1      -1.234  -0.400   1.144  0.00  0.00     0.002 A 
ENDROOT
BRANCH   1   7
ATOM      7  C1' N4B d   1       0.992   0.594   0.751  0.00  0.00     0.057 C 
BRANCH   7   8
ATOM      8  C2' N4B d   1       0.825   1.679   1.810  0.00  0.00     0.009 C 
BRANCH   8   9
ATOM      9  C3' N4B d   1       1.437   2.999   1.373  0.00  0.00     0.004 C 
ATOM     10  C4' N4B d   1       2.935   2.994   1.441  0.00  0.00     0.003 C 
ENDBRANCH   8   9
ENDBRANCH   7   8
ENDBRANCH   1   7
TORSDOF 3
ENDMDL
