MODEL 1
REMARK minimizedAffinity -4.65092802
REMARK minimizedRMSD -1
REMARK  0 active torsions:
REMARK  status: ('A' for Active; 'I' for Inactive)
ROOT
ATOM      1  C2' OXE d   1       2.061   0.706   0.823  0.00  0.00     0.078 C 
ATOM      2  C1' OXE d   1       0.142  -0.106  -1.058  0.00  0.00     0.078 C 
ATOM      3  C1  OXE d   1      -0.195  -0.265   0.403  0.00  0.00    -0.078 A 
ATOM      4  C2  OXE d   1       0.768   0.092   1.316  0.00  0.00    -0.078 A 
ATOM      5  C3  OXE d   1       0.489   0.017   2.678  0.00  0.00     0.003 A 
ATOM      6  C4  OXE d   1      -0.705  -0.561   3.126  0.00  0.00    -0.002 A 
ATOM      7  C5  OXE d   1      -1.684  -0.968   2.212  0.00  0.00    -0.002 A 
ATOM      8  C6  OXE d   1      -1.462  -0.787   0.851  0.00  0.00     0.003 A 
ENDROOT
TORSDOF 0
ENDMDL
