MODEL 1
REMARK minimizedAffinity -2.10536027
REMARK minimizedRMSD -1
REMARK  0 active torsions:
REMARK  status: ('A' for Active; 'I' for Inactive)
ROOT
ATOM      1  C2' OXE d   1      -0.057  -0.287  -1.644  0.00  0.00     0.078 C 
ATOM      2  C1' OXE d   1      -2.462  -0.090  -0.209  0.00  0.00     0.078 C 
ATOM      3  C1  OXE d   1      -1.180  -0.206   0.578  0.00  0.00    -0.078 A 
ATOM      4  C2  OXE d   1      -0.013  -0.349  -0.133  0.00  0.00    -0.078 A 
ATOM      5  C3  OXE d   1       1.203  -0.405   0.543  0.00  0.00     0.003 A 
ATOM      6  C4  OXE d   1       1.235  -0.471   1.941  0.00  0.00    -0.002 A 
ATOM      7  C5  OXE d   1       0.054  -0.368   2.684  0.00  0.00    -0.002 A 
ATOM      8  C6  OXE d   1      -1.155  -0.192   2.020  0.00  0.00     0.003 A 
ENDROOT
TORSDOF 0
ENDMDL
