MODEL 1
REMARK minimizedAffinity -3.68662143
REMARK minimizedRMSD -1
REMARK  0 active torsions:
REMARK  status: ('A' for Active; 'I' for Inactive)
ROOT
ATOM      1  C2' OXE d   1       0.368  -0.103  -1.425  0.00  0.00     0.078 C 
ATOM      2  C1' OXE d   1       2.190   0.957   0.429  0.00  0.00     0.078 C 
ATOM      3  C1  OXE d   1       0.897   0.388   0.959  0.00  0.00    -0.078 A 
ATOM      4  C2  OXE d   1      -0.009  -0.086   0.040  0.00  0.00    -0.078 A 
ATOM      5  C3  OXE d   1      -1.193  -0.671   0.479  0.00  0.00     0.003 A 
ATOM      6  C4  OXE d   1      -1.538  -0.642   1.835  0.00  0.00    -0.002 A 
ATOM      7  C5  OXE d   1      -0.647  -0.128   2.784  0.00  0.00    -0.002 A 
ATOM      8  C6  OXE d   1       0.590   0.351   2.367  0.00  0.00     0.003 A 
ENDROOT
TORSDOF 0
ENDMDL
