MODEL 1
REMARK minimizedAffinity -2.97979474
REMARK minimizedRMSD -1
REMARK  0 active torsions:
REMARK  status: ('A' for Active; 'I' for Inactive)
ROOT
ATOM      1  C2' OXE d   1       1.864  -0.389   1.413  0.00  0.00     0.078 C 
ATOM      2  C1' OXE d   1       0.073  -0.395  -0.748  0.00  0.00     0.078 C 
ATOM      3  C1  OXE d   1      -0.492  -0.176   0.633  0.00  0.00    -0.078 A 
ATOM      4  C2  OXE d   1       0.385  -0.221   1.689  0.00  0.00    -0.078 A 
ATOM      5  C3  OXE d   1      -0.075   0.030   2.979  0.00  0.00     0.003 A 
ATOM      6  C4  OXE d   1      -1.445   0.175   3.227  0.00  0.00    -0.002 A 
ATOM      7  C5  OXE d   1      -2.361   0.184   2.169  0.00  0.00    -0.002 A 
ATOM      8  C6  OXE d   1      -1.897   0.053   0.865  0.00  0.00     0.003 A 
ENDROOT
TORSDOF 0
ENDMDL
