MODEL 1
REMARK minimizedAffinity -3.35023475
REMARK minimizedRMSD -1
REMARK  0 active torsions:
REMARK  status: ('A' for Active; 'I' for Inactive)
ROOT
ATOM      1  C2' OXE d   1       2.358   0.505   0.665  0.00  0.00     0.078 C 
ATOM      2  C1' OXE d   1       0.321  -0.143  -1.156  0.00  0.00     0.078 C 
ATOM      3  C1  OXE d   1      -0.051  -0.017   0.300  0.00  0.00    -0.078 A 
ATOM      4  C2  OXE d   1       0.960   0.254   1.190  0.00  0.00    -0.078 A 
ATOM      5  C3  OXE d   1       0.663   0.435   2.538  0.00  0.00     0.003 A 
ATOM      6  C4  OXE d   1      -0.630   0.192   3.017  0.00  0.00    -0.002 A 
ATOM      7  C5  OXE d   1      -1.667  -0.125   2.133  0.00  0.00    -0.002 A 
ATOM      8  C6  OXE d   1      -1.403  -0.191   0.769  0.00  0.00     0.003 A 
ENDROOT
TORSDOF 0
ENDMDL
