MODEL 1
REMARK minimizedAffinity -4.25384712
REMARK minimizedRMSD -1
REMARK  0 active torsions:
REMARK  status: ('A' for Active; 'I' for Inactive)
ROOT
ATOM      1  C2' OXE d   1       2.276   0.816   0.669  0.00  0.00     0.078 C 
ATOM      2  C1' OXE d   1       0.324   0.506  -1.324  0.00  0.00     0.078 C 
ATOM      3  C1  OXE d   1       0.032  -0.064   0.042  0.00  0.00    -0.078 A 
ATOM      4  C2  OXE d   1       1.012   0.051   0.998  0.00  0.00    -0.078 A 
ATOM      5  C3  OXE d   1       0.772  -0.409   2.290  0.00  0.00     0.003 A 
ATOM      6  C4  OXE d   1      -0.395  -1.124   2.582  0.00  0.00    -0.002 A 
ATOM      7  C5  OXE d   1      -1.389  -1.288   1.612  0.00  0.00    -0.002 A 
ATOM      8  C6  OXE d   1      -1.210  -0.728   0.352  0.00  0.00     0.003 A 
ENDROOT
TORSDOF 0
ENDMDL
