MODEL 1
REMARK minimizedAffinity -3.56561732
REMARK minimizedRMSD -1
REMARK  0 active torsions:
REMARK  status: ('A' for Active; 'I' for Inactive)
ROOT
ATOM      1  C2' OXE d   1      -2.481   0.395   1.326  0.00  0.00     0.078 C 
ATOM      2  C1' OXE d   1      -0.335   0.170   3.121  0.00  0.00     0.078 C 
ATOM      3  C1  OXE d   1      -0.047  -0.024   1.654  0.00  0.00    -0.078 A 
ATOM      4  C2  OXE d   1      -1.112   0.042   0.787  0.00  0.00    -0.078 A 
ATOM      5  C3  OXE d   1      -0.893  -0.075  -0.583  0.00  0.00     0.003 A 
ATOM      6  C4  OXE d   1       0.375  -0.412  -1.072  0.00  0.00    -0.002 A 
ATOM      7  C5  OXE d   1       1.465  -0.522  -0.203  0.00  0.00    -0.002 A 
ATOM      8  C6  OXE d   1       1.279  -0.290   1.156  0.00  0.00     0.003 A 
ENDROOT
TORSDOF 0
ENDMDL
