MODEL 1
REMARK minimizedAffinity -3.61877489
REMARK minimizedRMSD -1
REMARK  0 active torsions:
REMARK  status: ('A' for Active; 'I' for Inactive)
ROOT
ATOM      1  C2' OXE d   1      -1.674  -1.782   0.198  0.00  0.00     0.078 C 
ATOM      2  C1' OXE d   1       0.097  -0.323  -1.418  0.00  0.00     0.078 C 
ATOM      3  C1  OXE d   1       0.207  -0.155   0.076  0.00  0.00    -0.078 A 
ATOM      4  C2  OXE d   1      -0.694  -0.837   0.858  0.00  0.00    -0.078 A 
ATOM      5  C3  OXE d   1      -0.602  -0.759   2.244  0.00  0.00     0.003 A 
ATOM      6  C4  OXE d   1       0.301   0.125   2.846  0.00  0.00    -0.002 A 
ATOM      7  C5  OXE d   1       1.202   0.859   2.067  0.00  0.00    -0.002 A 
ATOM      8  C6  OXE d   1       1.197   0.699   0.686  0.00  0.00     0.003 A 
ENDROOT
TORSDOF 0
ENDMDL
