MODEL 1
REMARK minimizedAffinity -4.80866814
REMARK minimizedRMSD -1
REMARK  0 active torsions:
REMARK  status: ('A' for Active; 'I' for Inactive)
ROOT
ATOM      1  C2' OXE d   1       1.168  -2.111  -2.695  0.00  0.00     0.078 C 
ATOM      2  C1' OXE d   1       1.115   0.684  -2.957  0.00  0.00     0.078 C 
ATOM      3  C1  OXE d   1       0.824   0.099  -1.597  0.00  0.00    -0.078 A 
ATOM      4  C2  OXE d   1       0.806  -1.271  -1.489  0.00  0.00    -0.078 A 
ATOM      5  C3  OXE d   1       0.596  -1.861  -0.246  0.00  0.00     0.003 A 
ATOM      6  C4  OXE d   1       0.252  -1.077   0.862  0.00  0.00    -0.002 A 
ATOM      7  C5  OXE d   1       0.226   0.318   0.764  0.00  0.00    -0.002 A 
ATOM      8  C6  OXE d   1       0.550   0.922  -0.445  0.00  0.00     0.003 A 
ENDROOT
TORSDOF 0
ENDMDL
