MODEL 1
REMARK minimizedAffinity -4.71977091
REMARK minimizedRMSD -1
REMARK  0 active torsions:
REMARK  status: ('A' for Active; 'I' for Inactive)
ROOT
ATOM      1  C2' OXE d   1      -0.795   1.055  -1.321  0.00  0.00     0.078 C 
ATOM      2  C1' OXE d   1      -2.559   0.726   0.838  0.00  0.00     0.078 C 
ATOM      3  C1  OXE d   1      -1.093   0.469   1.081  0.00  0.00    -0.078 A 
ATOM      4  C2  OXE d   1      -0.243   0.587   0.008  0.00  0.00    -0.078 A 
ATOM      5  C3  OXE d   1       1.126   0.414   0.190  0.00  0.00     0.003 A 
ATOM      6  C4  OXE d   1       1.627  -0.029   1.421  0.00  0.00    -0.002 A 
ATOM      7  C5  OXE d   1       0.774  -0.194   2.517  0.00  0.00    -0.002 A 
ATOM      8  C6  OXE d   1      -0.580   0.091   2.375  0.00  0.00     0.003 A 
ENDROOT
TORSDOF 0
ENDMDL
