MODEL 1
REMARK minimizedAffinity -2.02544856
REMARK minimizedRMSD -1
REMARK  0 active torsions:
REMARK  status: ('A' for Active; 'I' for Inactive)
ROOT
ATOM      1  C2' OXE d   1      -2.310   0.710  -0.758  0.00  0.00     0.078 C 
ATOM      2  C1' OXE d   1       0.201  -0.280  -1.529  0.00  0.00     0.078 C 
ATOM      3  C1  OXE d   1      -0.052  -0.074  -0.056  0.00  0.00    -0.078 A 
ATOM      4  C2  OXE d   1      -1.267   0.456   0.308  0.00  0.00    -0.078 A 
ATOM      5  C3  OXE d   1      -1.572   0.615   1.657  0.00  0.00     0.003 A 
ATOM      6  C4  OXE d   1      -0.598   0.387   2.636  0.00  0.00    -0.002 A 
ATOM      7  C5  OXE d   1       0.659  -0.115   2.283  0.00  0.00    -0.002 A 
ATOM      8  C6  OXE d   1       0.933  -0.390   0.948  0.00  0.00     0.003 A 
ENDROOT
TORSDOF 0
ENDMDL
