MODEL 1
REMARK minimizedAffinity -2.30912948
REMARK minimizedRMSD -1
REMARK  0 active torsions:
REMARK  status: ('A' for Active; 'I' for Inactive)
ROOT
ATOM      1  C2' OXE d   1       1.646   0.708  -3.723  0.00  0.00     0.078 C 
ATOM      2  C1' OXE d   1       1.095  -2.044  -3.679  0.00  0.00     0.078 C 
ATOM      3  C1  OXE d   1       0.853  -1.258  -2.415  0.00  0.00    -0.078 A 
ATOM      4  C2  OXE d   1       1.169   0.079  -2.432  0.00  0.00    -0.078 A 
ATOM      5  C3  OXE d   1       0.913   0.862  -1.310  0.00  0.00     0.003 A 
ATOM      6  C4  OXE d   1       0.481   0.271  -0.116  0.00  0.00    -0.002 A 
ATOM      7  C5  OXE d   1       0.191  -1.097  -0.066  0.00  0.00    -0.002 A 
ATOM      8  C6  OXE d   1       0.330  -1.866  -1.216  0.00  0.00     0.003 A 
ENDROOT
TORSDOF 0
ENDMDL
