MODEL 1
REMARK minimizedAffinity -3.28604865
REMARK minimizedRMSD -1
REMARK  0 active torsions:
REMARK  status: ('A' for Active; 'I' for Inactive)
ROOT
ATOM      1  C2' OXE d   1       0.017   0.136  -1.445  0.00  0.00     0.078 C 
ATOM      2  C1' OXE d   1      -2.577   0.191  -0.372  0.00  0.00     0.078 C 
ATOM      3  C1  OXE d   1      -1.418   0.134   0.591  0.00  0.00    -0.078 A 
ATOM      4  C2  OXE d   1      -0.154   0.060   0.057  0.00  0.00    -0.078 A 
ATOM      5  C3  OXE d   1       0.952   0.060   0.901  0.00  0.00     0.003 A 
ATOM      6  C4  OXE d   1       0.785  -0.020   2.289  0.00  0.00    -0.002 A 
ATOM      7  C5  OXE d   1      -0.495   0.013   2.853  0.00  0.00    -0.002 A 
ATOM      8  C6  OXE d   1      -1.603   0.133   2.022  0.00  0.00     0.003 A 
ENDROOT
TORSDOF 0
ENDMDL
