MODEL 1
REMARK minimizedAffinity -3.54120398
REMARK minimizedRMSD -1
REMARK  0 active torsions:
REMARK  status: ('A' for Active; 'I' for Inactive)
ROOT
ATOM      1  O1  BZF d   1       3.369  -5.926  -5.399  0.00  0.00    -0.204 OA
ATOM      2  C2  BZF d   1       2.123  -5.925  -5.997  0.00  0.00     0.174 A 
ATOM      3  C3  BZF d   1       1.147  -5.999  -5.069  0.00  0.00    -0.012 A 
ATOM      4  C3A BZF d   1       1.823  -5.956  -3.808  0.00  0.00    -0.107 A 
ATOM      5  C4  BZF d   1       1.394  -5.978  -2.512  0.00  0.00     0.055 A 
ATOM      6  C5  BZF d   1       2.314  -5.997  -1.512  0.00  0.00    -0.016 A 
ATOM      7  C6  BZF d   1       3.668  -6.000  -1.772  0.00  0.00     0.022 A 
ATOM      8  C7  BZF d   1       4.142  -5.973  -3.041  0.00  0.00     0.029 A 
ATOM      9  C7A BZF d   1       3.215  -5.921  -4.053  0.00  0.00     0.058 A 
ENDROOT
TORSDOF 0
ENDMDL
