MODEL 1
REMARK minimizedAffinity 14.7362585
REMARK minimizedRMSD -1
REMARK  0 active torsions:
REMARK  status: ('A' for Active; 'I' for Inactive)
ROOT
ATOM      1  O1  BZF d   1       3.696  -5.972  -3.568  0.00  0.00    -0.204 OA
ATOM      2  C2  BZF d   1       2.450  -5.996  -4.165  0.00  0.00     0.174 A 
ATOM      3  C3  BZF d   1       1.474  -5.999  -3.235  0.00  0.00    -0.012 A 
ATOM      4  C3A BZF d   1       2.149  -5.882  -1.979  0.00  0.00    -0.107 A 
ATOM      5  C4  BZF d   1       1.720  -5.815  -0.685  0.00  0.00     0.055 A 
ATOM      6  C5  BZF d   1       2.639  -5.779   0.315  0.00  0.00    -0.016 A 
ATOM      7  C6  BZF d   1       3.994  -5.814   0.057  0.00  0.00     0.022 A 
ATOM      8  C7  BZF d   1       4.468  -5.875  -1.211  0.00  0.00     0.029 A 
ATOM      9  C7A BZF d   1       3.542  -5.878  -2.225  0.00  0.00     0.058 A 
ENDROOT
TORSDOF 0
ENDMDL
