MODEL 1
REMARK minimizedAffinity 10.7855368
REMARK minimizedRMSD -1
REMARK  0 active torsions:
REMARK  status: ('A' for Active; 'I' for Inactive)
ROOT
ATOM      1  O1  BZF d   1       1.164  -2.076   2.261  0.00  0.00    -0.204 OA
ATOM      2  C2  BZF d   1       1.596  -0.765   2.317  0.00  0.00     0.174 A 
ATOM      3  C3  BZF d   1       2.657  -0.646   3.141  0.00  0.00    -0.012 A 
ATOM      4  C3A BZF d   1       2.961  -1.980   3.558  0.00  0.00    -0.107 A 
ATOM      5  C4  BZF d   1       3.921  -2.513   4.370  0.00  0.00     0.055 A 
ATOM      6  C5  BZF d   1       3.899  -3.847   4.630  0.00  0.00    -0.016 A 
ATOM      7  C6  BZF d   1       2.930  -4.674   4.102  0.00  0.00     0.022 A 
ATOM      8  C7  BZF d   1       1.960  -4.192   3.287  0.00  0.00     0.029 A 
ATOM      9  C7A BZF d   1       1.999  -2.850   2.996  0.00  0.00     0.058 A 
ENDROOT
TORSDOF 0
ENDMDL
