MODEL 1
REMARK minimizedAffinity 7.47507429
REMARK minimizedRMSD -1
REMARK  0 active torsions:
REMARK  status: ('A' for Active; 'I' for Inactive)
ROOT
ATOM      1  O1  BZF d   1      -2.996   0.860   1.268  0.00  0.00    -0.204 OA
ATOM      2  C2  BZF d   1      -1.936   0.897   0.382  0.00  0.00     0.174 A 
ATOM      3  C3  BZF d   1      -2.058   1.938  -0.466  0.00  0.00    -0.012 A 
ATOM      4  C3A BZF d   1      -3.221   2.646  -0.028  0.00  0.00    -0.107 A 
ATOM      5  C4  BZF d   1      -3.850   3.779  -0.461  0.00  0.00     0.055 A 
ATOM      6  C5  BZF d   1      -5.007   4.163   0.139  0.00  0.00    -0.016 A 
ATOM      7  C6  BZF d   1      -5.566   3.437   1.170  0.00  0.00     0.022 A 
ATOM      8  C7  BZF d   1      -4.977   2.309   1.637  0.00  0.00     0.029 A 
ATOM      9  C7A BZF d   1      -3.790   1.936   1.055  0.00  0.00     0.058 A 
ENDROOT
TORSDOF 0
ENDMDL
