MODEL 1
REMARK minimizedAffinity 12.6371546
REMARK minimizedRMSD -1
REMARK  0 active torsions:
REMARK  status: ('A' for Active; 'I' for Inactive)
ROOT
ATOM      1  O1  BZF d   1       3.674   2.054   0.222  0.00  0.00    -0.204 OA
ATOM      2  C2  BZF d   1       3.064   1.211   1.130  0.00  0.00     0.174 A 
ATOM      3  C3  BZF d   1       1.789   1.589   1.353  0.00  0.00    -0.012 A 
ATOM      4  C3A BZF d   1       1.561   2.685   0.462  0.00  0.00    -0.107 A 
ATOM      5  C4  BZF d   1       0.478   3.477   0.205  0.00  0.00     0.055 A 
ATOM      6  C5  BZF d   1       0.607   4.507  -0.671  0.00  0.00    -0.016 A 
ATOM      7  C6  BZF d   1       1.802   4.779  -1.303  0.00  0.00     0.022 A 
ATOM      8  C7  BZF d   1       2.903   4.019  -1.084  0.00  0.00     0.029 A 
ATOM      9  C7A BZF d   1       2.768   2.956  -0.224  0.00  0.00     0.058 A 
ENDROOT
TORSDOF 0
ENDMDL
