MODEL 1
REMARK minimizedAffinity 6.21466923
REMARK minimizedRMSD -1
REMARK  0 active torsions:
REMARK  status: ('A' for Active; 'I' for Inactive)
ROOT
ATOM      1  O1  BZF d   1      -3.868   0.780  -3.675  0.00  0.00    -0.204 OA
ATOM      2  C2  BZF d   1      -3.683  -0.586  -3.765  0.00  0.00     0.174 A 
ATOM      3  C3  BZF d   1      -2.980  -1.045  -2.709  0.00  0.00    -0.012 A 
ATOM      4  C3A BZF d   1      -2.789   0.092  -1.862  0.00  0.00    -0.107 A 
ATOM      5  C4  BZF d   1      -2.176   0.271  -0.655  0.00  0.00     0.055 A 
ATOM      6  C5  BZF d   1      -2.101   1.523  -0.131  0.00  0.00    -0.016 A 
ATOM      7  C6  BZF d   1      -2.621   2.618  -0.790  0.00  0.00     0.022 A 
ATOM      8  C7  BZF d   1      -3.242   2.489  -1.988  0.00  0.00     0.029 A 
ATOM      9  C7A BZF d   1      -3.349   1.221  -2.503  0.00  0.00     0.058 A 
ENDROOT
TORSDOF 0
ENDMDL
