MODEL 1
REMARK minimizedAffinity 12.4155474
REMARK minimizedRMSD -1
REMARK  0 active torsions:
REMARK  status: ('A' for Active; 'I' for Inactive)
ROOT
ATOM      1  O1  BZF d   1      -2.466   1.687  -0.361  0.00  0.00    -0.204 OA
ATOM      2  C2  BZF d   1      -2.524   1.299  -1.685  0.00  0.00     0.174 A 
ATOM      3  C3  BZF d   1      -3.674   1.712  -2.255  0.00  0.00    -0.012 A 
ATOM      4  C3A BZF d   1      -4.338   2.482  -1.248  0.00  0.00    -0.107 A 
ATOM      5  C4  BZF d   1      -5.518   3.168  -1.216  0.00  0.00     0.055 A 
ATOM      6  C5  BZF d   1      -5.911   3.752  -0.054  0.00  0.00    -0.016 A 
ATOM      7  C6  BZF d   1      -5.153   3.666   1.095  0.00  0.00     0.022 A 
ATOM      8  C7  BZF d   1      -3.972   3.000   1.111  0.00  0.00     0.029 A 
ATOM      9  C7A BZF d   1      -3.556   2.436  -0.070  0.00  0.00     0.058 A 
ENDROOT
TORSDOF 0
ENDMDL
