MODEL 1
REMARK minimizedAffinity 9.73608494
REMARK minimizedRMSD -1
REMARK  0 active torsions:
REMARK  status: ('A' for Active; 'I' for Inactive)
ROOT
ATOM      1  O1  BZF d   1       3.405  -4.476   4.105  0.00  0.00    -0.204 OA
ATOM      2  C2  BZF d   1       3.239  -3.839   2.890  0.00  0.00     0.174 A 
ATOM      3  C3  BZF d   1       1.959  -3.925   2.476  0.00  0.00    -0.012 A 
ATOM      4  C3A BZF d   1       1.263  -4.583   3.539  0.00  0.00    -0.107 A 
ATOM      5  C4  BZF d   1      -0.041  -4.943   3.725  0.00  0.00     0.055 A 
ATOM      6  C5  BZF d   1      -0.381  -5.637   4.843  0.00  0.00    -0.016 A 
ATOM      7  C6  BZF d   1       0.557  -5.993   5.790  0.00  0.00     0.022 A 
ATOM      8  C7  BZF d   1       1.861  -5.653   5.651  0.00  0.00     0.029 A 
ATOM      9  C7A BZF d   1       2.202  -4.923   4.539  0.00  0.00     0.058 A 
ENDROOT
TORSDOF 0
ENDMDL
