MODEL 1
REMARK minimizedAffinity 11.0895138
REMARK minimizedRMSD -1
REMARK  0 active torsions:
REMARK  status: ('A' for Active; 'I' for Inactive)
ROOT
ATOM      1  O1  BZF d   1       3.650  -4.342   4.475  0.00  0.00    -0.204 OA
ATOM      2  C2  BZF d   1       3.156  -5.569   4.076  0.00  0.00     0.174 A 
ATOM      3  C3  BZF d   1       2.180  -5.417   3.158  0.00  0.00    -0.012 A 
ATOM      4  C3A BZF d   1       2.120  -4.010   2.903  0.00  0.00    -0.107 A 
ATOM      5  C4  BZF d   1       1.358  -3.238   2.073  0.00  0.00     0.055 A 
ATOM      6  C5  BZF d   1       1.495  -1.887   2.116  0.00  0.00    -0.016 A 
ATOM      7  C6  BZF d   1       2.380  -1.275   2.980  0.00  0.00     0.022 A 
ATOM      8  C7  BZF d   1       3.161  -1.999   3.818  0.00  0.00     0.029 A 
ATOM      9  C7A BZF d   1       3.048  -3.366   3.753  0.00  0.00     0.058 A 
ENDROOT
TORSDOF 0
ENDMDL
