MODEL 1
REMARK minimizedAffinity 0.494437575
REMARK minimizedRMSD -1
REMARK  0 active torsions:
REMARK  status: ('A' for Active; 'I' for Inactive)
ROOT
ATOM      1  O1  BZF d   1       2.121  -5.966  -4.744  0.00  0.00    -0.204 OA
ATOM      2  C2  BZF d   1       2.692  -5.888  -6.000  0.00  0.00     0.174 A 
ATOM      3  C3  BZF d   1       4.033  -5.773  -5.909  0.00  0.00    -0.012 A 
ATOM      4  C3A BZF d   1       4.325  -5.873  -4.512  0.00  0.00    -0.107 A 
ATOM      5  C4  BZF d   1       5.485  -5.847  -3.792  0.00  0.00     0.055 A 
ATOM      6  C5  BZF d   1       5.421  -5.895  -2.435  0.00  0.00    -0.016 A 
ATOM      7  C6  BZF d   1       4.216  -5.965  -1.767  0.00  0.00     0.022 A 
ATOM      8  C7  BZF d   1       3.040  -5.999  -2.439  0.00  0.00     0.029 A 
ATOM      9  C7A BZF d   1       3.103  -5.983  -3.811  0.00  0.00     0.058 A 
ENDROOT
TORSDOF 0
ENDMDL
