MODEL 1
REMARK minimizedAffinity 7.31136703
REMARK minimizedRMSD -1
REMARK  0 active torsions:
REMARK  status: ('A' for Active; 'I' for Inactive)
ROOT
ATOM      1  O1  BZF d   1       1.741  -0.455   3.986  0.00  0.00    -0.204 OA
ATOM      2  C2  BZF d   1       1.702  -1.590   3.199  0.00  0.00     0.174 A 
ATOM      3  C3  BZF d   1       2.097  -1.313   1.940  0.00  0.00    -0.012 A 
ATOM      4  C3A BZF d   1       2.490   0.063   1.963  0.00  0.00    -0.107 A 
ATOM      5  C4  BZF d   1       2.989   0.913   1.018  0.00  0.00     0.055 A 
ATOM      6  C5  BZF d   1       3.200   2.215   1.345  0.00  0.00    -0.016 A 
ATOM      7  C6  BZF d   1       2.918   2.701   2.605  0.00  0.00     0.022 A 
ATOM      8  C7  BZF d   1       2.426   1.895   3.578  0.00  0.00     0.029 A 
ATOM      9  C7A BZF d   1       2.244   0.571   3.259  0.00  0.00     0.058 A 
ENDROOT
TORSDOF 0
ENDMDL
