MODEL 1
REMARK minimizedAffinity 0.93748486
REMARK minimizedRMSD -1
REMARK  0 active torsions:
REMARK  status: ('A' for Active; 'I' for Inactive)
ROOT
ATOM      1  O1  BZF d   1       0.145   4.873  -3.967  0.00  0.00    -0.204 OA
ATOM      2  C2  BZF d   1       0.311   5.368  -5.246  0.00  0.00     0.174 A 
ATOM      3  C3  BZF d   1      -0.780   5.125  -6.000  0.00  0.00    -0.012 A 
ATOM      4  C3A BZF d   1      -1.723   4.516  -5.111  0.00  0.00    -0.107 A 
ATOM      5  C4  BZF d   1      -3.000   4.060  -5.267  0.00  0.00     0.055 A 
ATOM      6  C5  BZF d   1      -3.617   3.453  -4.219  0.00  0.00    -0.016 A 
ATOM      7  C6  BZF d   1      -2.984   3.280  -3.005  0.00  0.00     0.022 A 
ATOM      8  C7  BZF d   1      -1.719   3.721  -2.801  0.00  0.00     0.029 A 
ATOM      9  C7A BZF d   1      -1.105   4.365  -3.848  0.00  0.00     0.058 A 
ENDROOT
TORSDOF 0
ENDMDL
