MODEL 1
REMARK minimizedAffinity -3.69037795
REMARK minimizedRMSD -1
REMARK  0 active torsions:
REMARK  status: ('A' for Active; 'I' for Inactive)
ROOT
ATOM      1  O1  BZF d   1      -1.599   5.258  -3.393  0.00  0.00    -0.204 OA
ATOM      2  C2  BZF d   1      -1.922   5.796  -4.624  0.00  0.00     0.174 A 
ATOM      3  C3  BZF d   1      -2.611   4.908  -5.369  0.00  0.00    -0.012 A 
ATOM      4  C3A BZF d   1      -2.805   3.774  -4.518  0.00  0.00    -0.107 A 
ATOM      5  C4  BZF d   1      -3.433   2.572  -4.684  0.00  0.00     0.055 A 
ATOM      6  C5  BZF d   1      -3.379   1.655  -3.683  0.00  0.00    -0.016 A 
ATOM      7  C6  BZF d   1      -2.702   1.903  -2.506  0.00  0.00     0.022 A 
ATOM      8  C7  BZF d   1      -2.068   3.082  -2.294  0.00  0.00     0.029 A 
ATOM      9  C7A BZF d   1      -2.149   4.024  -3.291  0.00  0.00     0.058 A 
ENDROOT
TORSDOF 0
ENDMDL
