MODEL 1
REMARK minimizedAffinity -3.99815941
REMARK minimizedRMSD -1
REMARK  0 active torsions:
REMARK  status: ('A' for Active; 'I' for Inactive)
ROOT
ATOM      1  O1  BZF d   1       0.093  -2.234   0.417  0.00  0.00    -0.204 OA
ATOM      2  C2  BZF d   1       1.263  -2.320   1.147  0.00  0.00     0.174 A 
ATOM      3  C3  BZF d   1       1.144  -1.669   2.322  0.00  0.00    -0.012 A 
ATOM      4  C3A BZF d   1      -0.214  -1.220   2.367  0.00  0.00    -0.107 A 
ATOM      5  C4  BZF d   1      -0.943  -0.526   3.289  0.00  0.00     0.055 A 
ATOM      6  C5  BZF d   1      -2.225  -0.184   2.997  0.00  0.00    -0.016 A 
ATOM      7  C6  BZF d   1      -2.807  -0.515   1.791  0.00  0.00     0.022 A 
ATOM      8  C7  BZF d   1      -2.125  -1.207   0.846  0.00  0.00     0.029 A 
ATOM      9  C7A BZF d   1      -0.840  -1.583   1.152  0.00  0.00     0.058 A 
ENDROOT
TORSDOF 0
ENDMDL
