MODEL 1
REMARK minimizedAffinity -2.41839194
REMARK minimizedRMSD -1
REMARK  0 active torsions:
REMARK  status: ('A' for Active; 'I' for Inactive)
ROOT
ATOM      1  O1  BZF d   1      -2.993   5.743  -3.860  0.00  0.00    -0.204 OA
ATOM      2  C2  BZF d   1      -2.223   5.292  -4.914  0.00  0.00     0.174 A 
ATOM      3  C3  BZF d   1      -1.745   4.056  -4.663  0.00  0.00    -0.012 A 
ATOM      4  C3A BZF d   1      -2.324   3.676  -3.411  0.00  0.00    -0.107 A 
ATOM      5  C4  BZF d   1      -2.243   2.550  -2.642  0.00  0.00     0.055 A 
ATOM      6  C5  BZF d   1      -2.872   2.526  -1.438  0.00  0.00    -0.016 A 
ATOM      7  C6  BZF d   1      -3.587   3.609  -0.970  0.00  0.00     0.022 A 
ATOM      8  C7  BZF d   1      -3.701   4.746  -1.700  0.00  0.00     0.029 A 
ATOM      9  C7A BZF d   1      -3.093   4.761  -2.932  0.00  0.00     0.058 A 
ENDROOT
TORSDOF 0
ENDMDL
