MODEL 1
REMARK minimizedAffinity -0.170975238
REMARK minimizedRMSD -1
REMARK  0 active torsions:
REMARK  status: ('A' for Active; 'I' for Inactive)
ROOT
ATOM      1  O1  BZF d   1       0.865  -1.154   2.615  0.00  0.00    -0.204 OA
ATOM      2  C2  BZF d   1       1.282  -1.828   1.483  0.00  0.00     0.174 A 
ATOM      3  C3  BZF d   1       0.261  -1.983   0.615  0.00  0.00    -0.012 A 
ATOM      4  C3A BZF d   1      -0.842  -1.287   1.204  0.00  0.00    -0.107 A 
ATOM      5  C4  BZF d   1      -2.131  -1.067   0.811  0.00  0.00     0.055 A 
ATOM      6  C5  BZF d   1      -2.974  -0.410   1.649  0.00  0.00    -0.016 A 
ATOM      7  C6  BZF d   1      -2.564   0.036   2.888  0.00  0.00     0.022 A 
ATOM      8  C7  BZF d   1      -1.294  -0.154   3.320  0.00  0.00     0.029 A 
ATOM      9  C7A BZF d   1      -0.430  -0.788   2.461  0.00  0.00     0.058 A 
ENDROOT
TORSDOF 0
ENDMDL
