MODEL 1
REMARK minimizedAffinity 2.70885324
REMARK minimizedRMSD -1
REMARK  0 active torsions:
REMARK  status: ('A' for Active; 'I' for Inactive)
ROOT
ATOM      1  O1  BZF d   1      -2.074   4.192  -4.025  0.00  0.00    -0.204 OA
ATOM      2  C2  BZF d   1      -2.948   5.098  -4.595  0.00  0.00     0.174 A 
ATOM      3  C3  BZF d   1      -4.156   5.037  -3.999  0.00  0.00    -0.012 A 
ATOM      4  C3A BZF d   1      -4.003   4.095  -2.933  0.00  0.00    -0.107 A 
ATOM      5  C4  BZF d   1      -4.849   3.619  -1.972  0.00  0.00     0.055 A 
ATOM      6  C5  BZF d   1      -4.409   2.650  -1.127  0.00  0.00    -0.016 A 
ATOM      7  C6  BZF d   1      -3.134   2.131  -1.217  0.00  0.00     0.022 A 
ATOM      8  C7  BZF d   1      -2.258   2.575  -2.151  0.00  0.00     0.029 A 
ATOM      9  C7A BZF d   1      -2.688   3.578  -2.986  0.00  0.00     0.058 A 
ENDROOT
TORSDOF 0
ENDMDL
