MODEL 1
REMARK minimizedAffinity 3.51067734
REMARK minimizedRMSD -1
REMARK  0 active torsions:
REMARK  status: ('A' for Active; 'I' for Inactive)
ROOT
ATOM      1  O1  BZF d   1       0.644  -2.145  -2.295  0.00  0.00    -0.204 OA
ATOM      2  C2  BZF d   1      -0.597  -1.784  -2.782  0.00  0.00     0.174 A 
ATOM      3  C3  BZF d   1      -1.451  -1.525  -1.771  0.00  0.00    -0.012 A 
ATOM      4  C3A BZF d   1      -0.671  -1.648  -0.578  0.00  0.00    -0.107 A 
ATOM      5  C4  BZF d   1      -0.953  -1.494   0.749  0.00  0.00     0.055 A 
ATOM      6  C5  BZF d   1       0.015  -1.758   1.665  0.00  0.00    -0.016 A 
ATOM      7  C6  BZF d   1       1.272  -2.183   1.291  0.00  0.00     0.022 A 
ATOM      8  C7  BZF d   1       1.601  -2.346  -0.014  0.00  0.00     0.029 A 
ATOM      9  C7A BZF d   1       0.636  -2.047  -0.944  0.00  0.00     0.058 A 
ENDROOT
TORSDOF 0
ENDMDL
