MODEL 1
REMARK minimizedAffinity 4.65590954
REMARK minimizedRMSD -1
REMARK  0 active torsions:
REMARK  status: ('A' for Active; 'I' for Inactive)
ROOT
ATOM      1  O1  BZF d   1      -0.259  -1.384  -3.402  0.00  0.00    -0.204 OA
ATOM      2  C2  BZF d   1       0.869  -1.654  -4.152  0.00  0.00     0.174 A 
ATOM      3  C3  BZF d   1       1.929  -1.893  -3.354  0.00  0.00    -0.012 A 
ATOM      4  C3A BZF d   1       1.412  -1.855  -2.020  0.00  0.00    -0.107 A 
ATOM      5  C4  BZF d   1       1.975  -2.034  -0.789  0.00  0.00     0.055 A 
ATOM      6  C5  BZF d   1       1.210  -1.857   0.320  0.00  0.00    -0.016 A 
ATOM      7  C6  BZF d   1      -0.119  -1.497   0.235  0.00  0.00     0.022 A 
ATOM      8  C7  BZF d   1      -0.723  -1.313  -0.964  0.00  0.00     0.029 A 
ATOM      9  C7A BZF d   1       0.039  -1.523  -2.087  0.00  0.00     0.058 A 
ENDROOT
TORSDOF 0
ENDMDL
