MODEL 1
REMARK minimizedAffinity 6.44332743
REMARK minimizedRMSD -1
REMARK  0 active torsions:
REMARK  status: ('A' for Active; 'I' for Inactive)
ROOT
ATOM      1  O1  BZF d   1       0.772  -2.200   0.149  0.00  0.00    -0.204 OA
ATOM      2  C2  BZF d   1       1.801  -2.586   0.987  0.00  0.00     0.174 A 
ATOM      3  C3  BZF d   1       1.579  -2.156   2.246  0.00  0.00    -0.012 A 
ATOM      4  C3A BZF d   1       0.289  -1.538   2.211  0.00  0.00    -0.107 A 
ATOM      5  C4  BZF d   1      -0.489  -0.934   3.157  0.00  0.00     0.055 A 
ATOM      6  C5  BZF d   1      -1.666  -0.368   2.781  0.00  0.00    -0.016 A 
ATOM      7  C6  BZF d   1      -2.092  -0.381   1.469  0.00  0.00     0.022 A 
ATOM      8  C7  BZF d   1      -1.357  -0.972   0.496  0.00  0.00     0.029 A 
ATOM      9  C7A BZF d   1      -0.183  -1.575   0.878  0.00  0.00     0.058 A 
ENDROOT
TORSDOF 0
ENDMDL
