MODEL 1
REMARK minimizedAffinity 4.23026609
REMARK minimizedRMSD -1
REMARK  0 active torsions:
REMARK  status: ('A' for Active; 'I' for Inactive)
ROOT
ATOM      1  O1  BZF d   1      -2.318   5.999  -2.783  0.00  0.00    -0.204 OA
ATOM      2  C2  BZF d   1      -1.997   5.972  -4.126  0.00  0.00     0.174 A 
ATOM      3  C3  BZF d   1      -2.034   4.710  -4.601  0.00  0.00    -0.012 A 
ATOM      4  C3A BZF d   1      -2.490   3.909  -3.507  0.00  0.00    -0.107 A 
ATOM      5  C4  BZF d   1      -2.746   2.576  -3.362  0.00  0.00     0.055 A 
ATOM      6  C5  BZF d   1      -3.110   2.102  -2.142  0.00  0.00    -0.016 A 
ATOM      7  C6  BZF d   1      -3.223   2.931  -1.045  0.00  0.00     0.022 A 
ATOM      8  C7  BZF d   1      -2.985   4.261  -1.141  0.00  0.00     0.029 A 
ATOM      9  C7A BZF d   1      -2.649   4.749  -2.380  0.00  0.00     0.058 A 
ENDROOT
TORSDOF 0
ENDMDL
