MODEL 1
REMARK minimizedAffinity -3.76927018
REMARK minimizedRMSD -1
REMARK  0 active torsions:
REMARK  status: ('A' for Active; 'I' for Inactive)
ROOT
ATOM      1  O1  BZF d   1       0.456   3.681  -3.776  0.00  0.00    -0.204 OA
ATOM      2  C2  BZF d   1       0.274   4.412  -4.934  0.00  0.00     0.174 A 
ATOM      3  C3  BZF d   1      -1.035   4.489  -5.250  0.00  0.00    -0.012 A 
ATOM      4  C3A BZF d   1      -1.720   3.838  -4.175  0.00  0.00    -0.107 A 
ATOM      5  C4  BZF d   1      -3.039   3.606  -3.907  0.00  0.00     0.055 A 
ATOM      6  C5  BZF d   1      -3.371   2.877  -2.808  0.00  0.00    -0.016 A 
ATOM      7  C6  BZF d   1      -2.411   2.363  -1.961  0.00  0.00     0.022 A 
ATOM      8  C7  BZF d   1      -1.091   2.571  -2.184  0.00  0.00     0.029 A 
ATOM      9  C7A BZF d   1      -0.753   3.335  -3.275  0.00  0.00     0.058 A 
ENDROOT
TORSDOF 0
ENDMDL
