MODEL 1
REMARK minimizedAffinity -2.20813704
REMARK minimizedRMSD -1
REMARK  0 active torsions:
REMARK  status: ('A' for Active; 'I' for Inactive)
ROOT
ATOM      1  O1  BZF d   1      -1.124   5.998  -5.484  0.00  0.00    -0.204 OA
ATOM      2  C2  BZF d   1      -0.073   5.264  -6.000  0.00  0.00     0.174 A 
ATOM      3  C3  BZF d   1       0.037   4.077  -5.369  0.00  0.00    -0.012 A 
ATOM      4  C3A BZF d   1      -1.068   4.030  -4.461  0.00  0.00    -0.107 A 
ATOM      5  C4  BZF d   1      -1.509   3.098  -3.566  0.00  0.00     0.055 A 
ATOM      6  C5  BZF d   1      -2.578   3.390  -2.780  0.00  0.00    -0.016 A 
ATOM      7  C6  BZF d   1      -3.226   4.606  -2.858  0.00  0.00     0.022 A 
ATOM      8  C7  BZF d   1      -2.828   5.561  -3.734  0.00  0.00     0.029 A 
ATOM      9  C7A BZF d   1      -1.769   5.255  -4.553  0.00  0.00     0.058 A 
ENDROOT
TORSDOF 0
ENDMDL
