MODEL 1
REMARK minimizedAffinity -2.88376641
REMARK minimizedRMSD -1
REMARK  0 active torsions:
REMARK  status: ('A' for Active; 'I' for Inactive)
ROOT
ATOM      1  O1  BZF d   1       0.755  -1.022   0.888  0.00  0.00    -0.204 OA
ATOM      2  C2  BZF d   1       1.034   0.269   0.483  0.00  0.00     0.174 A 
ATOM      3  C3  BZF d   1      -0.091   0.902   0.092  0.00  0.00    -0.012 A 
ATOM      4  C3A BZF d   1      -1.152  -0.023   0.352  0.00  0.00    -0.107 A 
ATOM      5  C4  BZF d   1      -2.507   0.033   0.189  0.00  0.00     0.055 A 
ATOM      6  C5  BZF d   1      -3.252  -1.068   0.471  0.00  0.00    -0.016 A 
ATOM      7  C6  BZF d   1      -2.676  -2.241   0.911  0.00  0.00     0.022 A 
ATOM      8  C7  BZF d   1      -1.336  -2.343   1.093  0.00  0.00     0.029 A 
ATOM      9  C7A BZF d   1      -0.584  -1.222   0.841  0.00  0.00     0.058 A 
ENDROOT
TORSDOF 0
ENDMDL
