MODEL 1
REMARK minimizedAffinity -5.68970537
REMARK minimizedRMSD -1
REMARK  0 active torsions:
REMARK  status: ('A' for Active; 'I' for Inactive)
ROOT
ATOM      1  O1  BZF d   1       0.789  -0.342   0.418  0.00  0.00    -0.204 OA
ATOM      2  C2  BZF d   1       0.756   0.564  -0.624  0.00  0.00     0.174 A 
ATOM      3  C3  BZF d   1      -0.430   0.513  -1.264  0.00  0.00    -0.012 A 
ATOM      4  C3A BZF d   1      -1.219  -0.421  -0.522  0.00  0.00    -0.107 A 
ATOM      5  C4  BZF d   1      -2.497  -0.885  -0.654  0.00  0.00     0.055 A 
ATOM      6  C5  BZF d   1      -2.941  -1.850   0.194  0.00  0.00    -0.016 A 
ATOM      7  C6  BZF d   1      -2.133  -2.376   1.181  0.00  0.00     0.022 A 
ATOM      8  C7  BZF d   1      -0.860  -1.944   1.355  0.00  0.00     0.029 A 
ATOM      9  C7A BZF d   1      -0.420  -0.946   0.520  0.00  0.00     0.058 A 
ENDROOT
TORSDOF 0
ENDMDL
