MODEL 1
REMARK minimizedAffinity -2.75685978
REMARK minimizedRMSD -1
REMARK  0 active torsions:
REMARK  status: ('A' for Active; 'I' for Inactive)
ROOT
ATOM      1  O1  BZF d   1       0.316   1.224   0.691  0.00  0.00    -0.204 OA
ATOM      2  C2  BZF d   1       1.399   0.745  -0.021  0.00  0.00     0.174 A 
ATOM      3  C3  BZF d   1       1.025  -0.251  -0.849  0.00  0.00    -0.012 A 
ATOM      4  C3A BZF d   1      -0.397  -0.342  -0.710  0.00  0.00    -0.107 A 
ATOM      5  C4  BZF d   1      -1.348  -1.134  -1.287  0.00  0.00     0.055 A 
ATOM      6  C5  BZF d   1      -2.639  -1.020  -0.879  0.00  0.00    -0.016 A 
ATOM      7  C6  BZF d   1      -3.013  -0.131   0.107  0.00  0.00     0.022 A 
ATOM      8  C7  BZF d   1      -2.106   0.680   0.706  0.00  0.00     0.029 A 
ATOM      9  C7A BZF d   1      -0.806   0.590   0.271  0.00  0.00     0.058 A 
ENDROOT
TORSDOF 0
ENDMDL
