MODEL 1
REMARK minimizedAffinity 1.93929493
REMARK minimizedRMSD -1
REMARK  0 active torsions:
REMARK  status: ('A' for Active; 'I' for Inactive)
ROOT
ATOM      1  O1  BZF d   1       0.227   0.240   0.368  0.00  0.00    -0.204 OA
ATOM      2  C2  BZF d   1       0.630   0.689  -0.874  0.00  0.00     0.174 A 
ATOM      3  C3  BZF d   1      -0.189   0.223  -1.840  0.00  0.00    -0.012 A 
ATOM      4  C3A BZF d   1      -1.218  -0.491  -1.148  0.00  0.00    -0.107 A 
ATOM      5  C4  BZF d   1      -2.331  -1.168  -1.560  0.00  0.00     0.055 A 
ATOM      6  C5  BZF d   1      -3.088  -1.816  -0.637  0.00  0.00    -0.016 A 
ATOM      7  C6  BZF d   1      -2.761  -1.814   0.703  0.00  0.00     0.022 A 
ATOM      8  C7  BZF d   1      -1.669  -1.152   1.160  0.00  0.00     0.029 A 
ATOM      9  C7A BZF d   1      -0.920  -0.469   0.234  0.00  0.00     0.058 A 
ENDROOT
TORSDOF 0
ENDMDL
