MODEL 1
REMARK minimizedAffinity -5.43538141
REMARK minimizedRMSD -1
REMARK  0 active torsions:
REMARK  status: ('A' for Active; 'I' for Inactive)
ROOT
ATOM      1  O1  BZF d   1       0.430  -1.366   1.040  0.00  0.00    -0.204 OA
ATOM      2  C2  BZF d   1       1.201  -0.539   0.247  0.00  0.00     0.174 A 
ATOM      3  C3  BZF d   1       0.444   0.065  -0.692  0.00  0.00    -0.012 A 
ATOM      4  C3A BZF d   1      -0.898  -0.343  -0.413  0.00  0.00    -0.107 A 
ATOM      5  C4  BZF d   1      -2.104  -0.062  -0.990  0.00  0.00     0.055 A 
ATOM      6  C5  BZF d   1      -3.220  -0.682  -0.523  0.00  0.00    -0.016 A 
ATOM      7  C6  BZF d   1      -3.166  -1.590   0.514  0.00  0.00     0.022 A 
ATOM      8  C7  BZF d   1      -1.993  -1.898   1.120  0.00  0.00     0.029 A 
ATOM      9  C7A BZF d   1      -0.869  -1.249   0.673  0.00  0.00     0.058 A 
ENDROOT
TORSDOF 0
ENDMDL
