MODEL 1
REMARK minimizedAffinity -3.3124938
REMARK minimizedRMSD -1
REMARK  0 active torsions:
REMARK  status: ('A' for Active; 'I' for Inactive)
ROOT
ATOM      1  O1  BZF d   1       0.770  -0.425   1.340  0.00  0.00    -0.204 OA
ATOM      2  C2  BZF d   1       1.647   0.364   0.622  0.00  0.00     0.174 A 
ATOM      3  C3  BZF d   1       1.134   0.673  -0.586  0.00  0.00    -0.012 A 
ATOM      4  C3A BZF d   1      -0.183   0.114  -0.590  0.00  0.00    -0.107 A 
ATOM      5  C4  BZF d   1      -1.194   0.101  -1.507  0.00  0.00     0.055 A 
ATOM      6  C5  BZF d   1      -2.328  -0.596  -1.231  0.00  0.00    -0.016 A 
ATOM      7  C6  BZF d   1      -2.481  -1.294  -0.051  0.00  0.00     0.022 A 
ATOM      8  C7  BZF d   1      -1.507  -1.306   0.892  0.00  0.00     0.029 A 
ATOM      9  C7A BZF d   1      -0.374  -0.576   0.629  0.00  0.00     0.058 A 
ENDROOT
TORSDOF 0
ENDMDL
