MODEL 1
REMARK minimizedAffinity -2.1620779
REMARK minimizedRMSD -1
REMARK  0 active torsions:
REMARK  status: ('A' for Active; 'I' for Inactive)
ROOT
ATOM      1  O1  BZF d   1      -2.401  -0.698  -1.523  0.00  0.00    -0.204 OA
ATOM      2  C2  BZF d   1      -3.033  -1.196  -0.400  0.00  0.00     0.174 A 
ATOM      3  C3  BZF d   1      -2.195  -1.206   0.657  0.00  0.00    -0.012 A 
ATOM      4  C3A BZF d   1      -0.990  -0.594   0.186  0.00  0.00    -0.107 A 
ATOM      5  C4  BZF d   1       0.207  -0.302   0.776  0.00  0.00     0.055 A 
ATOM      6  C5  BZF d   1       1.203   0.229   0.020  0.00  0.00    -0.016 A 
ATOM      7  C6  BZF d   1       1.039   0.477  -1.327  0.00  0.00     0.022 A 
ATOM      8  C7  BZF d   1      -0.131   0.209  -1.955  0.00  0.00     0.029 A 
ATOM      9  C7A BZF d   1      -1.151  -0.298  -1.187  0.00  0.00     0.058 A 
ENDROOT
TORSDOF 0
ENDMDL
