MODEL 1
REMARK minimizedAffinity -1.34524238
REMARK minimizedRMSD -1
REMARK  0 active torsions:
REMARK  status: ('A' for Active; 'I' for Inactive)
ROOT
ATOM      1  O1  BZF d   1      -0.556  -0.546   0.457  0.00  0.00    -0.204 OA
ATOM      2  C2  BZF d   1      -0.614  -0.537  -0.924  0.00  0.00     0.174 A 
ATOM      3  C3  BZF d   1       0.306   0.306  -1.435  0.00  0.00    -0.012 A 
ATOM      4  C3A BZF d   1       1.043   0.788  -0.307  0.00  0.00    -0.107 A 
ATOM      5  C4  BZF d   1       2.098   1.645  -0.172  0.00  0.00     0.055 A 
ATOM      6  C5  BZF d   1       2.535   1.962   1.075  0.00  0.00    -0.016 A 
ATOM      7  C6  BZF d   1       1.937   1.447   2.207  0.00  0.00     0.022 A 
ATOM      8  C7  BZF d   1       0.891   0.590   2.123  0.00  0.00     0.029 A 
ATOM      9  C7A BZF d   1       0.469   0.241   0.863  0.00  0.00     0.058 A 
ENDROOT
TORSDOF 0
ENDMDL
