MODEL 1
REMARK minimizedAffinity -3.06024623
REMARK minimizedRMSD -1
REMARK  0 active torsions:
REMARK  status: ('A' for Active; 'I' for Inactive)
ROOT
ATOM      1  O1  BZF d   1       0.467  -0.652   0.433  0.00  0.00    -0.204 OA
ATOM      2  C2  BZF d   1       0.563   0.443  -0.405  0.00  0.00     0.174 A 
ATOM      3  C3  BZF d   1      -0.599   0.650  -1.056  0.00  0.00    -0.012 A 
ATOM      4  C3A BZF d   1      -1.506  -0.322  -0.528  0.00  0.00    -0.107 A 
ATOM      5  C4  BZF d   1      -2.819  -0.609  -0.767  0.00  0.00     0.055 A 
ATOM      6  C5  BZF d   1      -3.389  -1.670  -0.137  0.00  0.00    -0.016 A 
ATOM      7  C6  BZF d   1      -2.675  -2.467   0.733  0.00  0.00     0.022 A 
ATOM      8  C7  BZF d   1      -1.371  -2.219   1.005  0.00  0.00     0.029 A 
ATOM      9  C7A BZF d   1      -0.801  -1.128   0.396  0.00  0.00     0.058 A 
ENDROOT
TORSDOF 0
ENDMDL
