MODEL 1
REMARK minimizedAffinity -4.3356185
REMARK minimizedRMSD -1
REMARK  0 active torsions:
REMARK  status: ('A' for Active; 'I' for Inactive)
ROOT
ATOM      1  O1  BZF d   1       0.070  -1.553   0.597  0.00  0.00    -0.204 OA
ATOM      2  C2  BZF d   1       1.021  -0.595   0.301  0.00  0.00     0.174 A 
ATOM      3  C3  BZF d   1       0.559   0.266  -0.628  0.00  0.00    -0.012 A 
ATOM      4  C3A BZF d   1      -0.796  -0.127  -0.866  0.00  0.00    -0.107 A 
ATOM      5  C4  BZF d   1      -1.785   0.354  -1.675  0.00  0.00     0.055 A 
ATOM      6  C5  BZF d   1      -2.974  -0.302  -1.727  0.00  0.00    -0.016 A 
ATOM      7  C6  BZF d   1      -3.205  -1.444  -0.989  0.00  0.00     0.022 A 
ATOM      8  C7  BZF d   1      -2.256  -1.957  -0.168  0.00  0.00     0.029 A 
ATOM      9  C7A BZF d   1      -1.066  -1.277  -0.088  0.00  0.00     0.058 A 
ENDROOT
TORSDOF 0
ENDMDL
