MODEL 1
REMARK minimizedAffinity -4.01888371
REMARK minimizedRMSD -1
REMARK  0 active torsions:
REMARK  status: ('A' for Active; 'I' for Inactive)
ROOT
ATOM      1  O1  BZF d   1      -0.862  -2.217   1.683  0.00  0.00    -0.204 OA
ATOM      2  C2  BZF d   1      -1.973  -3.022   1.524  0.00  0.00     0.174 A 
ATOM      3  C3  BZF d   1      -2.772  -2.546   0.547  0.00  0.00    -0.012 A 
ATOM      4  C3A BZF d   1      -2.073  -1.422   0.004  0.00  0.00    -0.107 A 
ATOM      5  C4  BZF d   1      -2.349  -0.543  -1.005  0.00  0.00     0.055 A 
ATOM      6  C5  BZF d   1      -1.492   0.487  -1.235  0.00  0.00    -0.016 A 
ATOM      7  C6  BZF d   1      -0.356   0.671  -0.475  0.00  0.00     0.022 A 
ATOM      8  C7  BZF d   1      -0.038  -0.178   0.532  0.00  0.00     0.029 A 
ATOM      9  C7A BZF d   1      -0.884  -1.239   0.747  0.00  0.00     0.058 A 
ENDROOT
TORSDOF 0
ENDMDL
