MODEL 1
REMARK minimizedAffinity -5.42869616
REMARK minimizedRMSD -1
REMARK  0 active torsions:
REMARK  status: ('A' for Active; 'I' for Inactive)
ROOT
ATOM      1  O1  BZF d   1       0.656  -0.765   0.826  0.00  0.00    -0.204 OA
ATOM      2  C2  BZF d   1       0.900   0.208  -0.124  0.00  0.00     0.174 A 
ATOM      3  C3  BZF d   1      -0.198   0.431  -0.874  0.00  0.00    -0.012 A 
ATOM      4  C3A BZF d   1      -1.219  -0.392  -0.301  0.00  0.00    -0.107 A 
ATOM      5  C4  BZF d   1      -2.536  -0.596  -0.596  0.00  0.00     0.055 A 
ATOM      6  C5  BZF d   1      -3.236  -1.521   0.112  0.00  0.00    -0.016 A 
ATOM      7  C6  BZF d   1      -2.650  -2.264   1.116  0.00  0.00     0.022 A 
ATOM      8  C7  BZF d   1      -1.347  -2.094   1.448  0.00  0.00     0.029 A 
ATOM      9  C7A BZF d   1      -0.645  -1.136   0.757  0.00  0.00     0.058 A 
ENDROOT
TORSDOF 0
ENDMDL
