MODEL 1
REMARK minimizedAffinity -4.47268581
REMARK minimizedRMSD -1
REMARK  0 active torsions:
REMARK  status: ('A' for Active; 'I' for Inactive)
ROOT
ATOM      1  O1  BZF d   1       0.344  -0.362   0.809  0.00  0.00    -0.204 OA
ATOM      2  C2  BZF d   1       0.403   0.621  -0.161  0.00  0.00     0.174 A 
ATOM      3  C3  BZF d   1      -0.672   0.557  -0.972  0.00  0.00    -0.012 A 
ATOM      4  C3A BZF d   1      -1.498  -0.475  -0.424  0.00  0.00    -0.107 A 
ATOM      5  C4  BZF d   1      -2.709  -0.996  -0.777  0.00  0.00     0.055 A 
ATOM      6  C5  BZF d   1      -3.207  -2.047  -0.075  0.00  0.00    -0.016 A 
ATOM      7  C6  BZF d   1      -2.518  -2.605   0.982  0.00  0.00     0.022 A 
ATOM      8  C7  BZF d   1      -1.315  -2.119   1.374  0.00  0.00     0.029 A 
ATOM      9  C7A BZF d   1      -0.825  -1.036   0.686  0.00  0.00     0.058 A 
ENDROOT
TORSDOF 0
ENDMDL
