MODEL 1
REMARK minimizedAffinity -6.33789682
REMARK minimizedRMSD -1
REMARK  0 active torsions:
REMARK  status: ('A' for Active; 'I' for Inactive)
ROOT
ATOM      1  O1  BZF d   1       0.645  -1.483   0.762  0.00  0.00    -0.204 OA
ATOM      2  C2  BZF d   1       0.937  -0.333   0.054  0.00  0.00     0.174 A 
ATOM      3  C3  BZF d   1      -0.182   0.193  -0.485  0.00  0.00    -0.012 A 
ATOM      4  C3A BZF d   1      -1.251  -0.632  -0.012  0.00  0.00    -0.107 A 
ATOM      5  C4  BZF d   1      -2.605  -0.607  -0.190  0.00  0.00     0.055 A 
ATOM      6  C5  BZF d   1      -3.360  -1.600   0.349  0.00  0.00    -0.016 A 
ATOM      7  C6  BZF d   1      -2.795  -2.634   1.066  0.00  0.00     0.022 A 
ATOM      8  C7  BZF d   1      -1.457  -2.699   1.274  0.00  0.00     0.029 A 
ATOM      9  C7A BZF d   1      -0.695  -1.679   0.758  0.00  0.00     0.058 A 
ENDROOT
TORSDOF 0
ENDMDL
