MODEL 1
REMARK minimizedAffinity -6.25352383
REMARK minimizedRMSD -1
REMARK  0 active torsions:
REMARK  status: ('A' for Active; 'I' for Inactive)
ROOT
ATOM      1  O1  BZF d   1       0.552  -0.660   0.670  0.00  0.00    -0.204 OA
ATOM      2  C2  BZF d   1       0.688   0.423  -0.177  0.00  0.00     0.174 A 
ATOM      3  C3  BZF d   1      -0.455   0.646  -0.856  0.00  0.00    -0.012 A 
ATOM      4  C3A BZF d   1      -1.392  -0.304  -0.338  0.00  0.00    -0.107 A 
ATOM      5  C4  BZF d   1      -2.705  -0.568  -0.604  0.00  0.00     0.055 A 
ATOM      6  C5  BZF d   1      -3.309  -1.611   0.024  0.00  0.00    -0.016 A 
ATOM      7  C6  BZF d   1      -2.629  -2.412   0.918  0.00  0.00     0.022 A 
ATOM      8  C7  BZF d   1      -1.327  -2.186   1.218  0.00  0.00     0.029 A 
ATOM      9  C7A BZF d   1      -0.723  -1.113   0.610  0.00  0.00     0.058 A 
ENDROOT
TORSDOF 0
ENDMDL
