MODEL 1
REMARK minimizedAffinity -4.59089565
REMARK minimizedRMSD -1
REMARK  0 active torsions:
REMARK  status: ('A' for Active; 'I' for Inactive)
ROOT
ATOM      1  O1  BZF d   1       0.348  -0.938   1.328  0.00  0.00    -0.204 OA
ATOM      2  C2  BZF d   1       1.507  -0.308   0.919  0.00  0.00     0.174 A 
ATOM      3  C3  BZF d   1       1.346   0.245  -0.301  0.00  0.00    -0.012 A 
ATOM      4  C3A BZF d   1      -0.026   0.021  -0.638  0.00  0.00    -0.107 A 
ATOM      5  C4  BZF d   1      -0.794   0.351  -1.718  0.00  0.00     0.055 A 
ATOM      6  C5  BZF d   1      -2.081  -0.081  -1.770  0.00  0.00    -0.016 A 
ATOM      7  C6  BZF d   1      -2.631  -0.847  -0.763  0.00  0.00     0.022 A 
ATOM      8  C7  BZF d   1      -1.911  -1.195   0.331  0.00  0.00     0.029 A 
ATOM      9  C7A BZF d   1      -0.619  -0.732   0.401  0.00  0.00     0.058 A 
ENDROOT
TORSDOF 0
ENDMDL
