MODEL 1
REMARK minimizedAffinity -2.77060843
REMARK minimizedRMSD -1
REMARK  0 active torsions:
REMARK  status: ('A' for Active; 'I' for Inactive)
ROOT
ATOM      1  O1  BZF d   1       0.075   1.190   1.506  0.00  0.00    -0.204 OA
ATOM      2  C2  BZF d   1       1.327   1.171   0.923  0.00  0.00     0.174 A 
ATOM      3  C3  BZF d   1       1.282   0.578  -0.288  0.00  0.00    -0.012 A 
ATOM      4  C3A BZF d   1      -0.100   0.284  -0.512  0.00  0.00    -0.107 A 
ATOM      5  C4  BZF d   1      -0.782  -0.292  -1.545  0.00  0.00     0.055 A 
ATOM      6  C5  BZF d   1      -2.119  -0.499  -1.420  0.00  0.00    -0.016 A 
ATOM      7  C6  BZF d   1      -2.804  -0.148  -0.275  0.00  0.00     0.022 A 
ATOM      8  C7  BZF d   1      -2.172   0.432   0.774  0.00  0.00     0.029 A 
ATOM      9  C7A BZF d   1      -0.827   0.672   0.638  0.00  0.00     0.058 A 
ENDROOT
TORSDOF 0
ENDMDL
