MODEL 1
REMARK minimizedAffinity -3.61657238
REMARK minimizedRMSD -1
REMARK  0 active torsions:
REMARK  status: ('A' for Active; 'I' for Inactive)
ROOT
ATOM      1  O1  BZF d   1      -2.619  -0.610  -1.597  0.00  0.00    -0.204 OA
ATOM      2  C2  BZF d   1      -3.137  -1.400  -0.589  0.00  0.00     0.174 A 
ATOM      3  C3  BZF d   1      -2.243  -1.548   0.410  0.00  0.00    -0.012 A 
ATOM      4  C3A BZF d   1      -1.129  -0.728   0.042  0.00  0.00    -0.107 A 
ATOM      5  C4  BZF d   1       0.067  -0.447   0.639  0.00  0.00     0.055 A 
ATOM      6  C5  BZF d   1       0.964   0.335  -0.017  0.00  0.00    -0.016 A 
ATOM      7  C6  BZF d   1       0.702   0.847  -1.271  0.00  0.00     0.022 A 
ATOM      8  C7  BZF d   1      -0.473   0.599  -1.901  0.00  0.00     0.029 A 
ATOM      9  C7A BZF d   1      -1.395  -0.163  -1.226  0.00  0.00     0.058 A 
ENDROOT
TORSDOF 0
ENDMDL
