MODEL 1
REMARK minimizedAffinity -5.92983103
REMARK minimizedRMSD -1
REMARK  0 active torsions:
REMARK  status: ('A' for Active; 'I' for Inactive)
ROOT
ATOM      1  O1  BZF d   1       0.670  -1.449   0.733  0.00  0.00    -0.204 OA
ATOM      2  C2  BZF d   1       0.866  -0.338  -0.065  0.00  0.00     0.174 A 
ATOM      3  C3  BZF d   1      -0.276   0.007  -0.693  0.00  0.00    -0.012 A 
ATOM      4  C3A BZF d   1      -1.269  -0.891  -0.189  0.00  0.00    -0.107 A 
ATOM      5  C4  BZF d   1      -2.607  -1.038  -0.422  0.00  0.00     0.055 A 
ATOM      6  C5  BZF d   1      -3.273  -2.061   0.176  0.00  0.00    -0.016 A 
ATOM      7  C6  BZF d   1      -2.633  -2.957   1.006  0.00  0.00     0.022 A 
ATOM      8  C7  BZF d   1      -1.308  -2.849   1.271  0.00  0.00     0.029 A 
ATOM      9  C7A BZF d   1      -0.639  -1.797   0.695  0.00  0.00     0.058 A 
ENDROOT
TORSDOF 0
ENDMDL
