MODEL 1
REMARK minimizedAffinity -6.14984512
REMARK minimizedRMSD -1
REMARK  3 active torsions:
REMARK  status: ('A' for Active; 'I' for Inactive)
REMARK    1  A    between atoms: C3'_2  and  C2'_3 
REMARK    2  A    between atoms: C2'_3  and  C1'_4 
REMARK    3  A    between atoms: C1'_4  and  C1_5 
ROOT
ATOM      1  C1  N4B d   1       0.011  -0.345   0.289  0.00  0.00    -0.075 A 
ATOM      2  C2  N4B d   1      -0.740  -0.512   1.473  0.00  0.00     0.002 A 
ATOM      3  C3  N4B d   1      -0.101  -0.781   2.659  0.00  0.00     0.002 A 
ATOM      4  C4  N4B d   1       1.280  -0.906   2.681  0.00  0.00    -0.004 A 
ATOM      5  C5  N4B d   1       2.000  -0.717   1.538  0.00  0.00     0.002 A 
ATOM      6  C6  N4B d   1       1.371  -0.443   0.340  0.00  0.00     0.002 A 
ENDROOT
BRANCH   1   7
ATOM      7  C1' N4B d   1      -0.649  -0.135  -1.046  0.00  0.00     0.057 C 
BRANCH   7   8
ATOM      8  C2' N4B d   1       0.053   1.004  -1.778  0.00  0.00     0.009 C 
BRANCH   8   9
ATOM      9  C3' N4B d   1      -0.933   2.020  -2.329  0.00  0.00     0.004 C 
ATOM     10  C4' N4B d   1      -0.282   3.317  -2.705  0.00  0.00     0.003 C 
ENDBRANCH   8   9
ENDBRANCH   7   8
ENDBRANCH   1   7
TORSDOF 3
ENDMDL
