MODEL 1
REMARK minimizedAffinity -6.87414312
REMARK minimizedRMSD -1
REMARK  3 active torsions:
REMARK  status: ('A' for Active; 'I' for Inactive)
REMARK    1  A    between atoms: C3'_2  and  C2'_3 
REMARK    2  A    between atoms: C2'_3  and  C1'_4 
REMARK    3  A    between atoms: C1'_4  and  C1_5 
ROOT
ATOM      1  C1  N4B d   1       0.910  -0.279   0.786  0.00  0.00    -0.075 A 
ATOM      2  C2  N4B d   1       0.954  -0.143   2.191  0.00  0.00     0.002 A 
ATOM      3  C3  N4B d   1       1.782  -0.950   2.933  0.00  0.00     0.002 A 
ATOM      4  C4  N4B d   1       2.556  -1.908   2.296  0.00  0.00    -0.004 A 
ATOM      5  C5  N4B d   1       2.527  -2.015   0.936  0.00  0.00     0.002 A 
ATOM      6  C6  N4B d   1       1.702  -1.208   0.178  0.00  0.00     0.002 A 
ENDROOT
BRANCH   1   7
ATOM      7  C1' N4B d   1      -0.043   0.522  -0.059  0.00  0.00     0.057 C 
BRANCH   7   8
ATOM      8  C2' N4B d   1      -0.274  -0.206  -1.380  0.00  0.00     0.009 C 
BRANCH   8   9
ATOM      9  C3' N4B d   1      -1.086   0.629  -2.354  0.00  0.00     0.004 C 
ATOM     10  C4' N4B d   1      -0.659   2.066  -2.384  0.00  0.00     0.003 C 
ENDBRANCH   8   9
ENDBRANCH   7   8
ENDBRANCH   1   7
TORSDOF 3
ENDMDL
