MODEL 1
REMARK minimizedAffinity -3.10002613
REMARK minimizedRMSD -1
REMARK  3 active torsions:
REMARK  status: ('A' for Active; 'I' for Inactive)
REMARK    1  A    between atoms: C3'_2  and  C2'_3 
REMARK    2  A    between atoms: C2'_3  and  C1'_4 
REMARK    3  A    between atoms: C1'_4  and  C1_5 
ROOT
ATOM      1  C1  N4B d   1      -0.290   0.939  -1.458  0.00  0.00    -0.075 A 
ATOM      2  C2  N4B d   1      -1.561   1.441  -1.816  0.00  0.00     0.002 A 
ATOM      3  C3  N4B d   1      -1.674   2.698  -2.359  0.00  0.00     0.002 A 
ATOM      4  C4  N4B d   1      -0.539   3.474  -2.534  0.00  0.00    -0.004 A 
ATOM      5  C5  N4B d   1       0.687   2.972  -2.209  0.00  0.00     0.002 A 
ATOM      6  C6  N4B d   1       0.817   1.710  -1.666  0.00  0.00     0.002 A 
ENDROOT
BRANCH   1   7
ATOM      7  C1' N4B d   1      -0.125  -0.394  -0.782  0.00  0.00     0.057 C 
BRANCH   7   8
ATOM      8  C2' N4B d   1      -1.201  -0.550   0.289  0.00  0.00     0.009 C 
BRANCH   8   9
ATOM      9  C3' N4B d   1      -0.868   0.234   1.547  0.00  0.00     0.004 C 
ATOM     10  C4' N4B d   1       0.026  -0.523   2.483  0.00  0.00     0.003 C 
ENDBRANCH   8   9
ENDBRANCH   7   8
ENDBRANCH   1   7
TORSDOF 3
ENDMDL
