MODEL 1
REMARK minimizedAffinity -5.72240305
REMARK minimizedRMSD -1
REMARK  3 active torsions:
REMARK  status: ('A' for Active; 'I' for Inactive)
REMARK    1  A    between atoms: C3'_2  and  C2'_3 
REMARK    2  A    between atoms: C2'_3  and  C1'_4 
REMARK    3  A    between atoms: C1'_4  and  C1_5 
ROOT
ATOM      1  C1  N4B d   1       0.543  -0.539  -0.135  0.00  0.00    -0.075 A 
ATOM      2  C2  N4B d   1       1.147  -1.742   0.291  0.00  0.00     0.002 A 
ATOM      3  C3  N4B d   1       2.035  -1.730   1.339  0.00  0.00     0.002 A 
ATOM      4  C4  N4B d   1       2.347  -0.530   1.960  0.00  0.00    -0.004 A 
ATOM      5  C5  N4B d   1       1.740   0.623   1.559  0.00  0.00     0.002 A 
ATOM      6  C6  N4B d   1       0.843   0.626   0.510  0.00  0.00     0.002 A 
ENDROOT
BRANCH   1   7
ATOM      7  C1' N4B d   1      -0.368  -0.488  -1.331  0.00  0.00     0.057 C 
BRANCH   7   8
ATOM      8  C2' N4B d   1      -0.053   0.762  -2.148  0.00  0.00     0.009 C 
BRANCH   8   9
ATOM      9  C3' N4B d   1      -1.311   1.518  -2.537  0.00  0.00     0.004 C 
ATOM     10  C4' N4B d   1      -1.027   2.912  -3.013  0.00  0.00     0.003 C 
ENDBRANCH   8   9
ENDBRANCH   7   8
ENDBRANCH   1   7
TORSDOF 3
ENDMDL
