MODEL 1
REMARK minimizedAffinity -5.47289181
REMARK minimizedRMSD -1
REMARK  3 active torsions:
REMARK  status: ('A' for Active; 'I' for Inactive)
REMARK    1  A    between atoms: C3'_2  and  C2'_3 
REMARK    2  A    between atoms: C2'_3  and  C1'_4 
REMARK    3  A    between atoms: C1'_4  and  C1_5 
ROOT
ATOM      1  C1  N4B d   1      -0.258   0.037  -0.231  0.00  0.00    -0.075 A 
ATOM      2  C2  N4B d   1       0.867  -0.611   0.323  0.00  0.00     0.002 A 
ATOM      3  C3  N4B d   1       0.834  -1.056   1.622  0.00  0.00     0.002 A 
ATOM      4  C4  N4B d   1      -0.303  -0.848   2.389  0.00  0.00    -0.004 A 
ATOM      5  C5  N4B d   1      -1.396  -0.244   1.839  0.00  0.00     0.002 A 
ATOM      6  C6  N4B d   1      -1.377   0.204   0.533  0.00  0.00     0.002 A 
ENDROOT
BRANCH   1   7
ATOM      7  C1' N4B d   1      -0.238   0.616  -1.619  0.00  0.00     0.057 C 
BRANCH   7   8
ATOM      8  C2' N4B d   1      -1.422   1.565  -1.783  0.00  0.00     0.009 C 
BRANCH   8   9
ATOM      9  C3' N4B d   1      -0.976   2.972  -2.142  0.00  0.00     0.004 C 
ATOM     10  C4' N4B d   1       0.481   3.050  -2.488  0.00  0.00     0.003 C 
ENDBRANCH   8   9
ENDBRANCH   7   8
ENDBRANCH   1   7
TORSDOF 3
ENDMDL
