MODEL 1
REMARK minimizedAffinity -2.68735456
REMARK minimizedRMSD -1
REMARK  3 active torsions:
REMARK  status: ('A' for Active; 'I' for Inactive)
REMARK    1  A    between atoms: C3'_2  and  C2'_3 
REMARK    2  A    between atoms: C2'_3  and  C1'_4 
REMARK    3  A    between atoms: C1'_4  and  C1_5 
ROOT
ATOM      1  C1  N4B d   1      -0.954   0.273  -1.245  0.00  0.00    -0.075 A 
ATOM      2  C2  N4B d   1       0.051  -0.698  -1.444  0.00  0.00     0.002 A 
ATOM      3  C3  N4B d   1       0.755  -1.188  -0.371  0.00  0.00     0.002 A 
ATOM      4  C4  N4B d   1       0.485  -0.709   0.903  0.00  0.00    -0.004 A 
ATOM      5  C5  N4B d   1      -0.505   0.211   1.089  0.00  0.00     0.002 A 
ATOM      6  C6  N4B d   1      -1.223   0.709   0.020  0.00  0.00     0.002 A 
ENDROOT
BRANCH   1   7
ATOM      7  C1' N4B d   1      -1.691   0.901  -2.396  0.00  0.00     0.057 C 
BRANCH   7   8
ATOM      8  C2' N4B d   1      -0.875   2.073  -2.934  0.00  0.00     0.009 C 
BRANCH   8   9
ATOM      9  C3' N4B d   1      -1.286   3.390  -2.300  0.00  0.00     0.004 C 
ATOM     10  C4' N4B d   1      -0.140   4.345  -2.150  0.00  0.00     0.003 C 
ENDBRANCH   8   9
ENDBRANCH   7   8
ENDBRANCH   1   7
TORSDOF 3
ENDMDL
