MODEL 1
REMARK minimizedAffinity 0.531906724
REMARK minimizedRMSD -1
REMARK  0 active torsions:
REMARK  status: ('A' for Active; 'I' for Inactive)
ROOT
ATOM      1  C   UNL d   1       0.038   2.783   1.201  0.00  0.00     0.077 C 
ATOM      2  C1  UNL d   1       0.080   1.395   0.633  0.00  0.00    -0.074 A 
ATOM      3  C2  UNL d   1      -1.011   0.872  -0.067  0.00  0.00    -0.005 A 
ATOM      4  C3  UNL d   1      -0.954  -0.417  -0.599  0.00  0.00     0.006 A 
ATOM      5  C4  UNL d   1       0.194  -1.193  -0.435  0.00  0.00    -0.005 A 
ATOM      6  C5  UNL d   1       1.296  -0.686   0.261  0.00  0.00    -0.074 A 
ATOM      7  C6  UNL d   1       2.540  -1.504   0.437  0.00  0.00     0.077 C 
ATOM      8  C7  UNL d   1       1.233   0.612   0.786  0.00  0.00    -0.001 A 
ENDROOT
TORSDOF 0
ENDMDL
