MODEL 1
REMARK minimizedAffinity -4.2195363
REMARK minimizedRMSD -1
REMARK  0 active torsions:
REMARK  status: ('A' for Active; 'I' for Inactive)
ROOT
ATOM      1  C   UNL d   1       1.851  -1.647   0.019  0.00  0.00     0.077 C 
ATOM      2  C1  UNL d   1       0.545  -0.937   0.224  0.00  0.00    -0.074 A 
ATOM      3  C2  UNL d   1      -0.627  -1.401  -0.381  0.00  0.00    -0.005 A 
ATOM      4  C3  UNL d   1      -1.836  -0.737  -0.174  0.00  0.00     0.006 A 
ATOM      5  C4  UNL d   1      -1.884   0.396   0.639  0.00  0.00    -0.005 A 
ATOM      6  C5  UNL d   1      -0.722   0.874   1.253  0.00  0.00    -0.074 A 
ATOM      7  C6  UNL d   1      -0.758   2.085   2.137  0.00  0.00     0.077 C 
ATOM      8  C7  UNL d   1       0.487   0.197   1.045  0.00  0.00    -0.001 A 
ENDROOT
TORSDOF 0
ENDMDL
