MODEL 1
REMARK minimizedAffinity -3.01046968
REMARK minimizedRMSD -1
REMARK  0 active torsions:
REMARK  status: ('A' for Active; 'I' for Inactive)
ROOT
ATOM      1  C   UNL d   1      -0.306   3.356   1.068  0.00  0.00     0.077 C 
ATOM      2  C1  UNL d   1      -0.192   1.961   1.606  0.00  0.00    -0.074 A 
ATOM      3  C2  UNL d   1      -1.169   1.437   2.459  0.00  0.00    -0.005 A 
ATOM      4  C3  UNL d   1      -1.055   0.134   2.944  0.00  0.00     0.006 A 
ATOM      5  C4  UNL d   1       0.035  -0.657   2.580  0.00  0.00    -0.005 A 
ATOM      6  C5  UNL d   1       1.021  -0.152   1.727  0.00  0.00    -0.074 A 
ATOM      7  C6  UNL d   1       2.194  -0.993   1.318  0.00  0.00     0.077 C 
ATOM      8  C7  UNL d   1       0.896   1.156   1.239  0.00  0.00    -0.001 A 
ENDROOT
TORSDOF 0
ENDMDL
