MODEL 1
REMARK minimizedAffinity 0.748061776
REMARK minimizedRMSD -1
REMARK  0 active torsions:
REMARK  status: ('A' for Active; 'I' for Inactive)
ROOT
ATOM      1  C   UNL d   1      -2.083   0.396   1.838  0.00  0.00     0.077 C 
ATOM      2  C1  UNL d   1      -0.828   0.027   1.105  0.00  0.00    -0.074 A 
ATOM      3  C2  UNL d   1       0.302  -0.423   1.796  0.00  0.00    -0.005 A 
ATOM      4  C3  UNL d   1       1.459  -0.772   1.100  0.00  0.00     0.006 A 
ATOM      5  C4  UNL d   1       1.498  -0.675  -0.292  0.00  0.00    -0.005 A 
ATOM      6  C5  UNL d   1       0.378  -0.228  -1.000  0.00  0.00    -0.074 A 
ATOM      7  C6  UNL d   1       0.400  -0.128  -2.496  0.00  0.00     0.077 C 
ATOM      8  C7  UNL d   1      -0.784   0.114  -0.294  0.00  0.00    -0.001 A 
ENDROOT
TORSDOF 0
ENDMDL
