MODEL 1
REMARK minimizedAffinity -0.115407914
REMARK minimizedRMSD -1
REMARK  0 active torsions:
REMARK  status: ('A' for Active; 'I' for Inactive)
ROOT
ATOM      1  C   UNL d   1       0.600   0.073   0.438  0.00  0.00     0.077 C 
ATOM      2  C1  UNL d   1       0.076   0.072   1.843  0.00  0.00    -0.074 A 
ATOM      3  C2  UNL d   1       0.834   0.600   2.893  0.00  0.00    -0.005 A 
ATOM      4  C3  UNL d   1       0.329   0.601   4.194  0.00  0.00     0.006 A 
ATOM      5  C4  UNL d   1      -0.936   0.074   4.456  0.00  0.00    -0.005 A 
ATOM      6  C5  UNL d   1      -1.709  -0.458   3.419  0.00  0.00    -0.074 A 
ATOM      7  C6  UNL d   1      -3.074  -1.019   3.682  0.00  0.00     0.077 C 
ATOM      8  C7  UNL d   1      -1.197  -0.449   2.114  0.00  0.00    -0.001 A 
ENDROOT
TORSDOF 0
ENDMDL
