MODEL 1
REMARK minimizedAffinity -4.7031045
REMARK minimizedRMSD -1
REMARK  0 active torsions:
REMARK  status: ('A' for Active; 'I' for Inactive)
ROOT
ATOM      1  C   UNL d   1       1.975  -1.493   0.414  0.00  0.00     0.077 C 
ATOM      2  C1  UNL d   1       0.747  -0.734   0.820  0.00  0.00    -0.074 A 
ATOM      3  C2  UNL d   1      -0.443  -0.851   0.094  0.00  0.00    -0.005 A 
ATOM      4  C3  UNL d   1      -1.580  -0.147   0.489  0.00  0.00     0.006 A 
ATOM      5  C4  UNL d   1      -1.539   0.681   1.612  0.00  0.00    -0.005 A 
ATOM      6  C5  UNL d   1      -0.358   0.810   2.351  0.00  0.00    -0.074 A 
ATOM      7  C6  UNL d   1      -0.300   1.687   3.566  0.00  0.00     0.077 C 
ATOM      8  C7  UNL d   1       0.778   0.093   1.952  0.00  0.00    -0.001 A 
ENDROOT
TORSDOF 0
ENDMDL
