MODEL 1
REMARK minimizedAffinity -2.42196012
REMARK minimizedRMSD -1
REMARK  0 active torsions:
REMARK  status: ('A' for Active; 'I' for Inactive)
ROOT
ATOM      1  C   UNL d   1      -0.628   1.998   2.867  0.00  0.00     0.077 C 
ATOM      2  C1  UNL d   1      -0.444   1.067   1.706  0.00  0.00    -0.074 A 
ATOM      3  C2  UNL d   1       0.825   0.837   1.163  0.00  0.00    -0.005 A 
ATOM      4  C3  UNL d   1       0.982  -0.039   0.089  0.00  0.00     0.006 A 
ATOM      5  C4  UNL d   1      -0.126  -0.692  -0.452  0.00  0.00    -0.005 A 
ATOM      6  C5  UNL d   1      -1.402  -0.475   0.078  0.00  0.00    -0.074 A 
ATOM      7  C6  UNL d   1      -2.601  -1.177  -0.486  0.00  0.00     0.077 C 
ATOM      8  C7  UNL d   1      -1.550   0.401   1.161  0.00  0.00    -0.001 A 
ENDROOT
TORSDOF 0
ENDMDL
