MODEL 1
REMARK minimizedAffinity 6.23147869
REMARK minimizedRMSD -1
REMARK  2 active torsions:
REMARK  status: ('A' for Active; 'I' for Inactive)
REMARK    1  A    between atoms: C2'_3  and  C1'_4 
REMARK    2  A    between atoms: C1'_4  and  C1_5 
ROOT
ATOM      1  C1  I4B d   1       0.950   3.469   1.239  0.00  0.00    -0.075 A 
ATOM      2  C2  I4B d   1       2.158   4.093   1.428  0.00  0.00     0.003 A 
ATOM      3  C3  I4B d   1       2.893   3.878   2.620  0.00  0.00     0.002 A 
ATOM      4  C4  I4B d   1       2.362   3.078   3.611  0.00  0.00    -0.004 A 
ATOM      5  C5  I4B d   1       1.148   2.428   3.408  0.00  0.00     0.002 A 
ATOM      6  C6  I4B d   1       0.443   2.615   2.210  0.00  0.00     0.003 A 
ENDROOT
BRANCH   1   7
ATOM      7  C1' I4B d   1       0.186   3.744  -0.017  0.00  0.00     0.060 C 
BRANCH   7   8
ATOM      8  C2' I4B d   1       0.388   5.201  -0.377  0.00  0.00    -0.013 C 
ATOM      9  C4' I4B d   1       0.359   5.403  -1.869  0.00  0.00     0.013 C 
ATOM     10  C3' I4B d   1      -0.688   5.998   0.298  0.00  0.00     0.013 C 
ENDBRANCH   7   8
ENDBRANCH   1   7
TORSDOF 2
ENDMDL
