MODEL 1
REMARK minimizedAffinity 10.4426155
REMARK minimizedRMSD -1
REMARK  2 active torsions:
REMARK  status: ('A' for Active; 'I' for Inactive)
REMARK    1  A    between atoms: C2'_3  and  C1'_4 
REMARK    2  A    between atoms: C1'_4  and  C1_5 
ROOT
ATOM      1  C1  I4B d   1       0.139   3.308   0.070  0.00  0.00    -0.075 A 
ATOM      2  C2  I4B d   1      -0.855   4.033   0.679  0.00  0.00     0.003 A 
ATOM      3  C3  I4B d   1      -1.052   5.394   0.343  0.00  0.00     0.002 A 
ATOM      4  C4  I4B d   1      -0.205   6.000  -0.563  0.00  0.00    -0.004 A 
ATOM      5  C5  I4B d   1       0.787   5.257  -1.196  0.00  0.00     0.002 A 
ATOM      6  C6  I4B d   1       0.953   3.899  -0.887  0.00  0.00     0.003 A 
ENDROOT
BRANCH   1   7
ATOM      7  C1' I4B d   1       0.340   1.881   0.472  0.00  0.00     0.060 C 
BRANCH   7   8
ATOM      8  C2' I4B d   1      -0.096   1.004  -0.684  0.00  0.00    -0.013 C 
ATOM      9  C4' I4B d   1       0.930  -0.058  -0.979  0.00  0.00     0.013 C 
ATOM     10  C3' I4B d   1      -1.420   0.395  -0.329  0.00  0.00     0.013 C 
ENDBRANCH   7   8
ENDBRANCH   1   7
TORSDOF 2
ENDMDL
