MODEL 1
REMARK minimizedAffinity 13.3624153
REMARK minimizedRMSD -1
REMARK  2 active torsions:
REMARK  status: ('A' for Active; 'I' for Inactive)
REMARK    1  A    between atoms: C2'_3  and  C1'_4 
REMARK    2  A    between atoms: C1'_4  and  C1_5 
ROOT
ATOM      1  C1  I4B d   1      -0.687  -2.149  -0.318  0.00  0.00    -0.075 A 
ATOM      2  C2  I4B d   1      -0.293  -1.264  -1.290  0.00  0.00     0.003 A 
ATOM      3  C3  I4B d   1       0.498  -0.139  -0.952  0.00  0.00     0.002 A 
ATOM      4  C4  I4B d   1       0.828   0.087   0.369  0.00  0.00    -0.004 A 
ATOM      5  C5  I4B d   1       0.447  -0.824   1.350  0.00  0.00     0.002 A 
ATOM      6  C6  I4B d   1      -0.305  -1.956   1.003  0.00  0.00     0.003 A 
ENDROOT
BRANCH   1   7
ATOM      7  C1' I4B d   1      -1.550  -3.308  -0.706  0.00  0.00     0.060 C 
BRANCH   7   8
ATOM      8  C2' I4B d   1      -0.743  -4.205  -1.621  0.00  0.00    -0.013 C 
ATOM      9  C4' I4B d   1       0.159  -5.119  -0.833  0.00  0.00     0.013 C 
ATOM     10  C3' I4B d   1      -1.703  -4.989  -2.465  0.00  0.00     0.013 C 
ENDBRANCH   7   8
ENDBRANCH   1   7
TORSDOF 2
ENDMDL
