MODEL 1
REMARK minimizedAffinity -5.0971427
REMARK minimizedRMSD -1
REMARK  0 active torsions:
REMARK  status: ('A' for Active; 'I' for Inactive)
ROOT
ATOM      1  C4' PXY d   1      -0.382  -3.097  -2.066  0.00  0.00     0.077 C 
ATOM      2  C1' PXY d   1       2.228   0.823   1.287  0.00  0.00     0.077 C 
ATOM      3  C1  PXY d   1       1.555  -0.208   0.402  0.00  0.00    -0.082 A 
ATOM      4  C2  PXY d   1       0.269  -0.086   0.117  0.00  0.00     0.003 A 
ATOM      5  C3  PXY d   1      -0.363  -1.026  -0.655  0.00  0.00     0.003 A 
ATOM      6  C4  PXY d   1       0.341  -2.074  -1.185  0.00  0.00    -0.082 A 
ATOM      7  C5  PXY d   1       1.656  -2.200  -0.908  0.00  0.00     0.003 A 
ATOM      8  C6  PXY d   1       2.270  -1.257  -0.088  0.00  0.00     0.003 A 
ENDROOT
TORSDOF 0
ENDMDL
