MODEL 1
REMARK minimizedAffinity -4.89537668
REMARK minimizedRMSD -1
REMARK  0 active torsions:
REMARK  status: ('A' for Active; 'I' for Inactive)
ROOT
ATOM      1  C4' PXY d   1      -2.236   0.357  -0.151  0.00  0.00     0.077 C 
ATOM      2  C1' PXY d   1       3.183  -1.426   0.783  0.00  0.00     0.077 C 
ATOM      3  C1  PXY d   1       1.760  -0.957   0.551  0.00  0.00    -0.082 A 
ATOM      4  C2  PXY d   1       1.120  -1.326  -0.546  0.00  0.00     0.003 A 
ATOM      5  C3  PXY d   1      -0.155  -0.885  -0.788  0.00  0.00     0.003 A 
ATOM      6  C4  PXY d   1      -0.802  -0.101   0.130  0.00  0.00    -0.082 A 
ATOM      7  C5  PXY d   1      -0.160   0.272   1.257  0.00  0.00     0.003 A 
ATOM      8  C6  PXY d   1       1.149  -0.153   1.464  0.00  0.00     0.003 A 
ENDROOT
TORSDOF 0
ENDMDL
