MODEL 1
REMARK minimizedAffinity -2.77293062
REMARK minimizedRMSD -1
REMARK  0 active torsions:
REMARK  status: ('A' for Active; 'I' for Inactive)
ROOT
ATOM      1  C4' PXY d   1      -2.524   0.952   0.348  0.00  0.00     0.077 C 
ATOM      2  C1' PXY d   1       2.422  -1.939  -0.421  0.00  0.00     0.077 C 
ATOM      3  C1  PXY d   1       1.131  -1.172  -0.213  0.00  0.00    -0.082 A 
ATOM      4  C2  PXY d   1      -0.027  -1.806  -0.296  0.00  0.00     0.003 A 
ATOM      5  C3  PXY d   1      -1.205  -1.121  -0.142  0.00  0.00     0.003 A 
ATOM      6  C4  PXY d   1      -1.196   0.216   0.154  0.00  0.00    -0.082 A 
ATOM      7  C5  PXY d   1      -0.017   0.868   0.251  0.00  0.00     0.003 A 
ATOM      8  C6  PXY d   1       1.166   0.163   0.050  0.00  0.00     0.003 A 
ENDROOT
TORSDOF 0
ENDMDL
