MODEL 1
REMARK minimizedAffinity -5.2312603
REMARK minimizedRMSD -1
REMARK  0 active torsions:
REMARK  status: ('A' for Active; 'I' for Inactive)
ROOT
ATOM      1  C4' PXY d   1      -0.381  -3.548  -1.073  0.00  0.00     0.077 C 
ATOM      2  C1' PXY d   1       1.970   1.290   1.042  0.00  0.00     0.077 C 
ATOM      3  C1  PXY d   1       1.342   0.027   0.489  0.00  0.00    -0.082 A 
ATOM      4  C2  PXY d   1       2.007  -1.116   0.551  0.00  0.00     0.003 A 
ATOM      5  C3  PXY d   1       1.466  -2.262   0.026  0.00  0.00     0.003 A 
ATOM      6  C4  PXY d   1       0.210  -2.249  -0.518  0.00  0.00    -0.082 A 
ATOM      7  C5  PXY d   1      -0.479  -1.090  -0.575  0.00  0.00     0.003 A 
ATOM      8  C6  PXY d   1       0.104   0.071  -0.074  0.00  0.00     0.003 A 
ENDROOT
TORSDOF 0
ENDMDL
