MODEL 1
REMARK minimizedAffinity -4.05410004
REMARK minimizedRMSD -1
REMARK  0 active torsions:
REMARK  status: ('A' for Active; 'I' for Inactive)
ROOT
ATOM      1  C4' PXY d   1      -2.398   1.474  -0.391  0.00  0.00     0.077 C 
ATOM      2  C1' PXY d   1       2.136  -2.111  -0.330  0.00  0.00     0.077 C 
ATOM      3  C1  PXY d   1       0.950  -1.166  -0.334  0.00  0.00    -0.082 A 
ATOM      4  C2  PXY d   1      -0.117  -1.459  -1.059  0.00  0.00     0.003 A 
ATOM      5  C3  PXY d   1      -1.185  -0.601  -1.099  0.00  0.00     0.003 A 
ATOM      6  C4  PXY d   1      -1.182   0.545  -0.349  0.00  0.00    -0.082 A 
ATOM      7  C5  PXY d   1      -0.101   0.846   0.401  0.00  0.00     0.003 A 
ATOM      8  C6  PXY d   1       0.990  -0.019   0.397  0.00  0.00     0.003 A 
ENDROOT
TORSDOF 0
ENDMDL
