MODEL 1
REMARK minimizedAffinity -4.29841661
REMARK minimizedRMSD -1
REMARK  0 active torsions:
REMARK  status: ('A' for Active; 'I' for Inactive)
ROOT
ATOM      1  C4' PXY d   1       2.193   1.463   1.168  0.00  0.00     0.077 C 
ATOM      2  C1' PXY d   1      -0.181  -2.967  -1.687  0.00  0.00     0.077 C 
ATOM      3  C1  PXY d   1       0.451  -1.813  -0.934  0.00  0.00    -0.082 A 
ATOM      4  C2  PXY d   1      -0.275  -0.746  -0.644  0.00  0.00     0.003 A 
ATOM      5  C3  PXY d   1       0.288   0.320   0.009  0.00  0.00     0.003 A 
ATOM      6  C4  PXY d   1       1.594   0.271   0.417  0.00  0.00    -0.082 A 
ATOM      7  C5  PXY d   1       2.339  -0.820   0.135  0.00  0.00     0.003 A 
ATOM      8  C6  PXY d   1       1.759  -1.874  -0.565  0.00  0.00     0.003 A 
ENDROOT
TORSDOF 0
ENDMDL
