MODEL 1
REMARK minimizedAffinity -1.9998014
REMARK minimizedRMSD -1
REMARK  0 active torsions:
REMARK  status: ('A' for Active; 'I' for Inactive)
ROOT
ATOM      1  C4' PXY d   1      -2.269   0.635   0.017  0.00  0.00     0.077 C 
ATOM      2  C1' PXY d   1       2.874  -1.893  -0.744  0.00  0.00     0.077 C 
ATOM      3  C1  PXY d   1       1.530  -1.223  -0.534  0.00  0.00    -0.082 A 
ATOM      4  C2  PXY d   1       0.431  -1.807  -0.984  0.00  0.00     0.003 A 
ATOM      5  C3  PXY d   1      -0.789  -1.200  -0.831  0.00  0.00     0.003 A 
ATOM      6  C4  PXY d   1      -0.892  -0.009  -0.164  0.00  0.00    -0.082 A 
ATOM      7  C5  PXY d   1       0.224   0.588   0.308  0.00  0.00     0.003 A 
ATOM      8  C6  PXY d   1       1.457  -0.025   0.106  0.00  0.00     0.003 A 
ENDROOT
TORSDOF 0
ENDMDL
