MODEL 1
REMARK minimizedAffinity -1.5213418
REMARK minimizedRMSD -1
REMARK  0 active torsions:
REMARK  status: ('A' for Active; 'I' for Inactive)
ROOT
ATOM      1  C4' PXY d   1      -1.466   0.767  -1.697  0.00  0.00     0.077 C 
ATOM      2  C1' PXY d   1       2.543  -3.219  -0.490  0.00  0.00     0.077 C 
ATOM      3  C1  PXY d   1       1.500  -2.164  -0.803  0.00  0.00    -0.082 A 
ATOM      4  C2  PXY d   1       0.218  -2.493  -0.808  0.00  0.00     0.003 A 
ATOM      5  C3  PXY d   1      -0.736  -1.560  -1.121  0.00  0.00     0.003 A 
ATOM      6  C4  PXY d   1      -0.379  -0.263  -1.378  0.00  0.00    -0.082 A 
ATOM      7  C5  PXY d   1       0.926   0.083  -1.363  0.00  0.00     0.003 A 
ATOM      8  C6  PXY d   1       1.882  -0.889  -1.084  0.00  0.00     0.003 A 
ENDROOT
TORSDOF 0
ENDMDL
