MODEL 1
REMARK minimizedAffinity 6.25313425
REMARK minimizedRMSD -1
REMARK  1 active torsions:
REMARK  status: ('A' for Active; 'I' for Inactive)
REMARK    1  A    between atoms: C1_2  and  C2_3 
ROOT
ATOM      1  C2  UNL d   1       4.684   0.866  -0.685  0.00  0.00    -0.073 A 
ATOM      2  C3  UNL d   1       3.529   1.579  -0.345  0.00  0.00    -0.002 A 
ATOM      3  C4  UNL d   1       2.320   0.911  -0.150  0.00  0.00     0.004 A 
ATOM      4  C5  UNL d   1       2.253  -0.475  -0.287  0.00  0.00    -0.004 A 
ATOM      5  C6  UNL d   1       3.399  -1.207  -0.615  0.00  0.00    -0.075 A 
ATOM      6  C7  UNL d   1       3.344  -2.699  -0.768  0.00  0.00     0.076 C 
ATOM      7  C8  UNL d   1       4.610  -0.529  -0.811  0.00  0.00     0.001 A 
ENDROOT
BRANCH   1   8
ATOM      8  C1  UNL d   1       5.994   1.582  -0.889  0.00  0.00     0.053 C 
ATOM      9  C   UNL d   1       5.999   2.957  -0.240  0.00  0.00     0.018 C 
ENDBRANCH   1   8
TORSDOF 1
ENDMDL
