MODEL 1
REMARK minimizedAffinity 15.5628109
REMARK minimizedRMSD -1
REMARK  1 active torsions:
REMARK  status: ('A' for Active; 'I' for Inactive)
REMARK    1  A    between atoms: C1_2  and  C2_3 
ROOT
ATOM      1  C2  UNL d   1       3.307  -1.083  -1.031  0.00  0.00    -0.073 A 
ATOM      2  C3  UNL d   1       2.680  -0.107  -0.247  0.00  0.00    -0.002 A 
ATOM      3  C4  UNL d   1       3.090   1.225  -0.319  0.00  0.00     0.004 A 
ATOM      4  C5  UNL d   1       4.123   1.596  -1.179  0.00  0.00    -0.004 A 
ATOM      5  C6  UNL d   1       4.754   0.638  -1.979  0.00  0.00    -0.075 A 
ATOM      6  C7  UNL d   1       5.869   1.020  -2.908  0.00  0.00     0.076 C 
ATOM      7  C8  UNL d   1       4.339  -0.698  -1.899  0.00  0.00     0.001 A 
ENDROOT
BRANCH   1   8
ATOM      8  C1  UNL d   1       2.864  -2.521  -0.961  0.00  0.00     0.053 C 
ATOM      9  C   UNL d   1       2.561  -3.092  -2.338  0.00  0.00     0.018 C 
ENDBRANCH   1   8
TORSDOF 1
ENDMDL
