MODEL 1
REMARK minimizedAffinity 8.83906269
REMARK minimizedRMSD -1
REMARK  1 active torsions:
REMARK  status: ('A' for Active; 'I' for Inactive)
REMARK    1  A    between atoms: C1_2  and  C2_3 
ROOT
ATOM      1  C2  UNL d   1       1.683   0.634   0.932  0.00  0.00    -0.073 A 
ATOM      2  C3  UNL d   1       1.358  -0.600   0.359  0.00  0.00    -0.002 A 
ATOM      3  C4  UNL d   1       2.151  -1.136  -0.657  0.00  0.00     0.004 A 
ATOM      4  C5  UNL d   1       3.279  -0.448  -1.104  0.00  0.00    -0.004 A 
ATOM      5  C6  UNL d   1       3.627   0.781  -0.535  0.00  0.00    -0.075 A 
ATOM      6  C7  UNL d   1       4.836   1.535  -1.007  0.00  0.00     0.076 C 
ATOM      7  C8  UNL d   1       2.824   1.314   0.482  0.00  0.00     0.001 A 
ENDROOT
BRANCH   1   8
ATOM      8  C1  UNL d   1       0.834   1.214   2.033  0.00  0.00     0.053 C 
ATOM      9  C   UNL d   1      -0.073   2.326   1.529  0.00  0.00     0.018 C 
ENDBRANCH   1   8
TORSDOF 1
ENDMDL
