MODEL 1
REMARK minimizedAffinity 11.272788
REMARK minimizedRMSD -1
REMARK  1 active torsions:
REMARK  status: ('A' for Active; 'I' for Inactive)
REMARK    1  A    between atoms: C1_2  and  C2_3 
ROOT
ATOM      1  C2  UNL d   1      -1.037   1.417  -0.489  0.00  0.00    -0.073 A 
ATOM      2  C3  UNL d   1      -2.339   1.021  -0.161  0.00  0.00    -0.002 A 
ATOM      3  C4  UNL d   1      -3.046   1.685   0.842  0.00  0.00     0.004 A 
ATOM      4  C5  UNL d   1      -2.463   2.755   1.521  0.00  0.00    -0.004 A 
ATOM      5  C6  UNL d   1      -1.168   3.173   1.200  0.00  0.00    -0.075 A 
ATOM      6  C7  UNL d   1      -0.525   4.321   1.922  0.00  0.00     0.076 C 
ATOM      7  C8  UNL d   1      -0.463   2.499   0.193  0.00  0.00     0.001 A 
ENDROOT
BRANCH   1   8
ATOM      8  C1  UNL d   1      -0.272   0.706  -1.575  0.00  0.00     0.053 C 
ATOM      9  C   UNL d   1      -1.104   0.530  -2.836  0.00  0.00     0.018 C 
ENDBRANCH   1   8
TORSDOF 1
ENDMDL
