MODEL 1
REMARK minimizedAffinity 11.3062506
REMARK minimizedRMSD -1
REMARK  1 active torsions:
REMARK  status: ('A' for Active; 'I' for Inactive)
REMARK    1  A    between atoms: C1_2  and  C2_3 
ROOT
ATOM      1  C2  UNL d   1       3.236   0.179  -0.517  0.00  0.00    -0.073 A 
ATOM      2  C3  UNL d   1       3.958   1.279  -0.994  0.00  0.00    -0.002 A 
ATOM      3  C4  UNL d   1       5.332   1.372  -0.768  0.00  0.00     0.004 A 
ATOM      4  C5  UNL d   1       5.999   0.365  -0.071  0.00  0.00    -0.004 A 
ATOM      5  C6  UNL d   1       5.297  -0.748   0.403  0.00  0.00    -0.075 A 
ATOM      6  C7  UNL d   1       5.999  -1.839   1.157  0.00  0.00     0.076 C 
ATOM      7  C8  UNL d   1       3.917  -0.833   0.175  0.00  0.00     0.001 A 
ENDROOT
BRANCH   1   8
ATOM      8  C1  UNL d   1       1.754   0.070  -0.764  0.00  0.00     0.053 C 
ATOM      9  C   UNL d   1       0.943   0.771   0.315  0.00  0.00     0.018 C 
ENDBRANCH   1   8
TORSDOF 1
ENDMDL
