MODEL 1
REMARK minimizedAffinity 16.9226036
REMARK minimizedRMSD -1
REMARK  0 active torsions:
REMARK  status: ('A' for Active; 'I' for Inactive)
ROOT
ATOM      1  C   UNL d   1       1.027   0.782   2.761  0.00  0.00    -0.002 A 
ATOM      2  C1  UNL d   1       1.133   0.849   1.379  0.00  0.00     0.010 A 
ATOM      3  C2  UNL d   1       0.517  -0.110   0.572  0.00  0.00     0.041 A 
ATOM      4  C3  UNL d   1      -0.214  -1.147   1.184  0.00  0.00    -0.075 A 
ATOM      5  S   UNL d   1      -1.052  -2.432   0.396  0.00  0.00     0.015 SA
ATOM      6  C4  UNL d   1      -1.571  -3.100   1.876  0.00  0.00     0.022 A 
ATOM      7  C5  UNL d   1      -1.125  -2.373   2.955  0.00  0.00     0.026 A 
ATOM      8  C6  UNL d   1      -0.336  -1.235   2.573  0.00  0.00    -0.082 A 
ATOM      9  C7  UNL d   1       0.300  -0.248   3.364  0.00  0.00     0.045 A 
ENDROOT
TORSDOF 0
ENDMDL
