MODEL 1
REMARK minimizedAffinity 14.9246874
REMARK minimizedRMSD -1
REMARK  0 active torsions:
REMARK  status: ('A' for Active; 'I' for Inactive)
ROOT
ATOM      1  C   UNL d   1       3.681  -0.001  -1.459  0.00  0.00    -0.002 A 
ATOM      2  C1  UNL d   1       3.601   1.301  -1.932  0.00  0.00     0.010 A 
ATOM      3  C2  UNL d   1       2.815   2.249  -1.272  0.00  0.00     0.041 A 
ATOM      4  C3  UNL d   1       2.106   1.862  -0.118  0.00  0.00    -0.075 A 
ATOM      5  S   UNL d   1       1.083   2.852   0.854  0.00  0.00     0.015 SA
ATOM      6  C4  UNL d   1       0.728   1.570   1.919  0.00  0.00     0.022 A 
ATOM      7  C5  UNL d   1       1.367   0.407   1.557  0.00  0.00     0.026 A 
ATOM      8  C6  UNL d   1       2.172   0.557   0.378  0.00  0.00    -0.082 A 
ATOM      9  C7  UNL d   1       2.976  -0.381  -0.314  0.00  0.00     0.045 A 
ENDROOT
TORSDOF 0
ENDMDL
