MODEL 1
REMARK minimizedAffinity 27.7316418
REMARK minimizedRMSD -1
REMARK  0 active torsions:
REMARK  status: ('A' for Active; 'I' for Inactive)
ROOT
ATOM      1  C   UNL d   1       4.895   2.261  -3.764  0.00  0.00    -0.002 A 
ATOM      2  C1  UNL d   1       3.529   2.038  -3.663  0.00  0.00     0.010 A 
ATOM      3  C2  UNL d   1       3.021   1.169  -2.695  0.00  0.00     0.041 A 
ATOM      4  C3  UNL d   1       3.918   0.523  -1.821  0.00  0.00    -0.075 A 
ATOM      5  S   UNL d   1       3.524  -0.583  -0.558  0.00  0.00     0.015 SA
ATOM      6  C4  UNL d   1       5.160  -0.784  -0.123  0.00  0.00     0.022 A 
ATOM      7  C5  UNL d   1       5.999  -0.033  -0.911  0.00  0.00     0.026 A 
ATOM      8  C6  UNL d   1       5.298   0.732  -1.903  0.00  0.00    -0.082 A 
ATOM      9  C7  UNL d   1       5.781   1.619  -2.895  0.00  0.00     0.045 A 
ENDROOT
TORSDOF 0
ENDMDL
