MODEL 1
REMARK minimizedAffinity 25.215992
REMARK minimizedRMSD -1
REMARK  0 active torsions:
REMARK  status: ('A' for Active; 'I' for Inactive)
ROOT
ATOM      1  C   UNL d   1       0.293   1.324   2.229  0.00  0.00    -0.002 A 
ATOM      2  C1  UNL d   1       1.391   1.439   1.388  0.00  0.00     0.010 A 
ATOM      3  C2  UNL d   1       1.712   0.415   0.495  0.00  0.00     0.041 A 
ATOM      4  C3  UNL d   1       0.903  -0.738   0.461  0.00  0.00    -0.075 A 
ATOM      5  S   UNL d   1       1.103  -2.119  -0.551  0.00  0.00     0.015 SA
ATOM      6  C4  UNL d   1      -0.264  -2.894   0.108  0.00  0.00     0.022 A 
ATOM      7  C5  UNL d   1      -0.871  -2.131   1.078  0.00  0.00     0.026 A 
ATOM      8  C6  UNL d   1      -0.209  -0.876   1.297  0.00  0.00    -0.082 A 
ATOM      9  C7  UNL d   1      -0.508   0.180   2.191  0.00  0.00     0.045 A 
ENDROOT
TORSDOF 0
ENDMDL
