MODEL 1
REMARK minimizedAffinity 16.7032757
REMARK minimizedRMSD -1
REMARK  0 active torsions:
REMARK  status: ('A' for Active; 'I' for Inactive)
ROOT
ATOM      1  C   UNL d   1      -5.326   4.184   1.636  0.00  0.00    -0.002 A 
ATOM      2  C1  UNL d   1      -6.000   5.272   2.173  0.00  0.00     0.010 A 
ATOM      3  C2  UNL d   1      -5.814   5.633   3.509  0.00  0.00     0.041 A 
ATOM      4  C3  UNL d   1      -4.929   4.877   4.303  0.00  0.00    -0.075 A 
ATOM      5  S   UNL d   1      -4.544   5.135   5.964  0.00  0.00     0.015 SA
ATOM      6  C4  UNL d   1      -3.475   3.807   5.999  0.00  0.00     0.022 A 
ATOM      7  C5  UNL d   1      -3.402   3.171   4.782  0.00  0.00     0.026 A 
ATOM      8  C6  UNL d   1      -4.239   3.778   3.784  0.00  0.00    -0.082 A 
ATOM      9  C7  UNL d   1      -4.450   3.436   2.427  0.00  0.00     0.045 A 
ENDROOT
TORSDOF 0
ENDMDL
