MODEL 1
REMARK minimizedAffinity 20.809557
REMARK minimizedRMSD -1
REMARK  0 active torsions:
REMARK  status: ('A' for Active; 'I' for Inactive)
ROOT
ATOM      1  C   UNL d   1      -5.264   5.720   5.940  0.00  0.00    -0.002 A 
ATOM      2  C1  UNL d   1      -6.000   5.795   4.765  0.00  0.00     0.010 A 
ATOM      3  C2  UNL d   1      -5.588   5.105   3.623  0.00  0.00     0.041 A 
ATOM      4  C3  UNL d   1      -4.414   4.329   3.683  0.00  0.00    -0.075 A 
ATOM      5  S   UNL d   1      -3.719   3.397   2.409  0.00  0.00     0.015 SA
ATOM      6  C4  UNL d   1      -2.429   2.876   3.394  0.00  0.00     0.022 A 
ATOM      7  C5  UNL d   1      -2.511   3.391   4.667  0.00  0.00     0.026 A 
ATOM      8  C6  UNL d   1      -3.657   4.236   4.854  0.00  0.00    -0.082 A 
ATOM      9  C7  UNL d   1      -4.100   4.948   5.994  0.00  0.00     0.045 A 
ENDROOT
TORSDOF 0
ENDMDL
