MODEL 1
REMARK minimizedAffinity -1.18444812
REMARK minimizedRMSD -1
REMARK  1 active torsions:
REMARK  status: ('A' for Active; 'I' for Inactive)
REMARK    1  A    between atoms: C1_2  and  C2_3 
ROOT
ATOM      1  C2  UNL d   1      -0.479   1.330   0.418  0.00  0.00    -0.076 A 
ATOM      2  C3  UNL d   1      -0.059   0.282   1.256  0.00  0.00     0.004 A 
ATOM      3  C4  UNL d   1       0.361  -0.937   0.726  0.00  0.00    -0.003 A 
ATOM      4  C5  UNL d   1       0.369  -1.127  -0.651  0.00  0.00     0.000 A 
ATOM      5  C6  UNL d   1      -0.027  -0.093  -1.499  0.00  0.00     0.000 A 
ATOM      6  C7  UNL d   1      -0.438   1.147  -0.981  0.00  0.00    -0.073 A 
ATOM      7  C8  UNL d   1      -0.860   2.226  -1.941  0.00  0.00     0.078 C 
ENDROOT
BRANCH   1   8
ATOM      8  C1  UNL d   1      -0.950   2.620   1.051  0.00  0.00     0.053 C 
ATOM      9  C   UNL d   1       0.114   3.260   1.929  0.00  0.00     0.018 C 
ENDBRANCH   1   8
TORSDOF 1
ENDMDL
