MODEL 1
REMARK minimizedAffinity -5.79073238
REMARK minimizedRMSD -1
REMARK  1 active torsions:
REMARK  status: ('A' for Active; 'I' for Inactive)
REMARK    1  A    between atoms: C1_2  and  C2_3 
ROOT
ATOM      1  C2  UNL d   1       0.136  -0.311  -0.363  0.00  0.00    -0.076 A 
ATOM      2  C3  UNL d   1      -0.672   0.592  -1.075  0.00  0.00     0.004 A 
ATOM      3  C4  UNL d   1      -1.248   1.692  -0.443  0.00  0.00    -0.003 A 
ATOM      4  C5  UNL d   1      -1.024   1.909   0.912  0.00  0.00     0.000 A 
ATOM      5  C6  UNL d   1      -0.210   1.034   1.630  0.00  0.00     0.000 A 
ATOM      6  C7  UNL d   1       0.391  -0.072   1.004  0.00  0.00    -0.073 A 
ATOM      7  C8  UNL d   1       1.255  -0.987   1.829  0.00  0.00     0.078 C 
ENDROOT
BRANCH   1   8
ATOM      8  C1  UNL d   1       0.712  -1.502  -1.096  0.00  0.00     0.053 C 
ATOM      9  C   UNL d   1      -0.357  -2.329  -1.793  0.00  0.00     0.018 C 
ENDBRANCH   1   8
TORSDOF 1
ENDMDL
