MODEL 1
REMARK minimizedAffinity -4.07825327
REMARK minimizedRMSD -1
REMARK  1 active torsions:
REMARK  status: ('A' for Active; 'I' for Inactive)
REMARK    1  A    between atoms: C1_2  and  C2_3 
ROOT
ATOM      1  C2  UNL d   1       0.020   0.236   0.135  0.00  0.00    -0.076 A 
ATOM      2  C3  UNL d   1       0.210  -0.009   1.506  0.00  0.00     0.004 A 
ATOM      3  C4  UNL d   1      -0.254   0.888   2.467  0.00  0.00    -0.003 A 
ATOM      4  C5  UNL d   1      -0.917   2.045   2.072  0.00  0.00     0.000 A 
ATOM      5  C6  UNL d   1      -1.130   2.295   0.716  0.00  0.00     0.000 A 
ATOM      6  C7  UNL d   1      -0.683   1.393  -0.264  0.00  0.00    -0.073 A 
ATOM      7  C8  UNL d   1      -0.935   1.716  -1.711  0.00  0.00     0.078 C 
ENDROOT
BRANCH   1   8
ATOM      8  C1  UNL d   1       0.569  -0.759  -0.861  0.00  0.00     0.053 C 
ATOM      9  C   UNL d   1      -0.356  -1.948  -1.068  0.00  0.00     0.018 C 
ENDBRANCH   1   8
TORSDOF 1
ENDMDL
