MODEL 1
REMARK minimizedAffinity -3.19123673
REMARK minimizedRMSD -1
REMARK  1 active torsions:
REMARK  status: ('A' for Active; 'I' for Inactive)
REMARK    1  A    between atoms: C1_2  and  C2_3 
ROOT
ATOM      1  C2  UNL d   1      -0.022  -0.050  -0.381  0.00  0.00    -0.076 A 
ATOM      2  C3  UNL d   1      -0.765   0.891  -1.116  0.00  0.00     0.004 A 
ATOM      3  C4  UNL d   1      -1.349   1.990  -0.489  0.00  0.00    -0.003 A 
ATOM      4  C5  UNL d   1      -1.200   2.167   0.882  0.00  0.00     0.000 A 
ATOM      5  C6  UNL d   1      -0.452   1.252   1.623  0.00  0.00     0.000 A 
ATOM      6  C7  UNL d   1       0.157   0.148   1.004  0.00  0.00    -0.073 A 
ATOM      7  C8  UNL d   1       0.948  -0.810   1.853  0.00  0.00     0.078 C 
ENDROOT
BRANCH   1   8
ATOM      8  C1  UNL d   1       0.565  -1.237  -1.111  0.00  0.00     0.053 C 
ATOM      9  C   UNL d   1      -0.498  -2.097  -1.777  0.00  0.00     0.018 C 
ENDBRANCH   1   8
TORSDOF 1
ENDMDL
