MODEL 1
REMARK minimizedAffinity -3.50603294
REMARK minimizedRMSD -1
REMARK  1 active torsions:
REMARK  status: ('A' for Active; 'I' for Inactive)
REMARK    1  A    between atoms: C1_2  and  C2_3 
ROOT
ATOM      1  C2  UNL d   1       0.004   0.471  -0.065  0.00  0.00    -0.076 A 
ATOM      2  C3  UNL d   1      -1.014   1.245  -0.649  0.00  0.00     0.004 A 
ATOM      3  C4  UNL d   1      -1.696   2.209   0.091  0.00  0.00    -0.003 A 
ATOM      4  C5  UNL d   1      -1.371   2.416   1.427  0.00  0.00     0.000 A 
ATOM      5  C6  UNL d   1      -0.351   1.670   2.018  0.00  0.00     0.000 A 
ATOM      6  C7  UNL d   1       0.357   0.705   1.281  0.00  0.00    -0.073 A 
ATOM      7  C8  UNL d   1       1.443  -0.076   1.970  0.00  0.00     0.078 C 
ENDROOT
BRANCH   1   8
ATOM      8  C1  UNL d   1       0.690  -0.579  -0.909  0.00  0.00     0.053 C 
ATOM      9  C   UNL d   1      -0.176  -1.810  -1.126  0.00  0.00     0.018 C 
ENDBRANCH   1   8
TORSDOF 1
ENDMDL
