MODEL 1
REMARK minimizedAffinity -5.05875015
REMARK minimizedRMSD -1
REMARK  1 active torsions:
REMARK  status: ('A' for Active; 'I' for Inactive)
REMARK    1  A    between atoms: C1_2  and  C2_3 
ROOT
ATOM      1  C2  UNL d   1      -0.257   0.586  -0.315  0.00  0.00    -0.076 A 
ATOM      2  C3  UNL d   1      -1.204   1.398  -0.962  0.00  0.00     0.004 A 
ATOM      3  C4  UNL d   1      -1.946   2.341  -0.252  0.00  0.00    -0.003 A 
ATOM      4  C5  UNL d   1      -1.752   2.487   1.117  0.00  0.00     0.000 A 
ATOM      5  C6  UNL d   1      -0.804   1.702   1.772  0.00  0.00     0.000 A 
ATOM      6  C7  UNL d   1      -0.036   0.759   1.068  0.00  0.00    -0.073 A 
ATOM      7  C8  UNL d   1       0.968  -0.065   1.827  0.00  0.00     0.078 C 
ENDROOT
BRANCH   1   8
ATOM      8  C1  UNL d   1       0.499  -0.438  -1.132  0.00  0.00     0.053 C 
ATOM      9  C   UNL d   1      -0.294  -1.719  -1.337  0.00  0.00     0.018 C 
ENDBRANCH   1   8
TORSDOF 1
ENDMDL
