MODEL 1
REMARK minimizedAffinity -0.577448785
REMARK minimizedRMSD -1
REMARK  1 active torsions:
REMARK  status: ('A' for Active; 'I' for Inactive)
REMARK    1  A    between atoms: C1_2  and  C2_3 
ROOT
ATOM      1  C2  UNL d   1       0.193   1.593   0.690  0.00  0.00    -0.076 A 
ATOM      2  C3  UNL d   1      -0.177   2.085  -0.574  0.00  0.00     0.004 A 
ATOM      3  C4  UNL d   1      -0.147   1.264  -1.700  0.00  0.00    -0.003 A 
ATOM      4  C5  UNL d   1       0.253  -0.062  -1.580  0.00  0.00     0.000 A 
ATOM      5  C6  UNL d   1       0.607  -0.572  -0.331  0.00  0.00     0.000 A 
ATOM      6  C7  UNL d   1       0.566   0.238   0.817  0.00  0.00    -0.073 A 
ATOM      7  C8  UNL d   1       0.964  -0.362   2.138  0.00  0.00     0.078 C 
ENDROOT
BRANCH   1   8
ATOM      8  C1  UNL d   1       0.167   2.537   1.871  0.00  0.00     0.053 C 
ATOM      9  C   UNL d   1      -1.094   3.387   1.910  0.00  0.00     0.018 C 
ENDBRANCH   1   8
TORSDOF 1
ENDMDL
