MODEL 1
REMARK minimizedAffinity -3.47168326
REMARK minimizedRMSD -1
REMARK  2 active torsions:
REMARK  status: ('A' for Active; 'I' for Inactive)
REMARK    1  A    between atoms: C1_2  and  C2_3 
REMARK    2  A    between atoms: C2_3  and  C3_4 
ROOT
ATOM      1  C3  UNL d   1      -0.450   0.323  -3.258  0.00  0.00    -0.075 A 
ATOM      2  C4  UNL d   1      -1.439   0.600  -4.212  0.00  0.00     0.002 A 
ATOM      3  C5  UNL d   1      -1.163   0.482  -5.575  0.00  0.00     0.002 A 
ATOM      4  C6  UNL d   1       0.107   0.096  -6.000  0.00  0.00    -0.004 A 
ATOM      5  C7  UNL d   1       1.102  -0.166  -5.061  0.00  0.00     0.002 A 
ATOM      6  C8  UNL d   1       0.827  -0.053  -3.697  0.00  0.00     0.002 A 
ENDROOT
BRANCH   1   7
ATOM      7  C2  UNL d   1      -0.752   0.420  -1.781  0.00  0.00     0.056 C 
BRANCH   7   8
ATOM      8  C1  UNL d   1      -0.094  -0.676  -0.937  0.00  0.00     0.007 C 
ATOM      9  C   UNL d   1      -0.524  -0.648   0.524  0.00  0.00     0.009 C 
ENDBRANCH   7   8
ENDBRANCH   1   7
TORSDOF 2
ENDMDL
