MODEL 1
REMARK minimizedAffinity -0.767428398
REMARK minimizedRMSD -1
REMARK  2 active torsions:
REMARK  status: ('A' for Active; 'I' for Inactive)
REMARK    1  A    between atoms: C1_2  and  C2_3 
REMARK    2  A    between atoms: C2_3  and  C3_4 
ROOT
ATOM      1  C3  UNL d   1      -0.017  -0.838  -4.766  0.00  0.00    -0.075 A 
ATOM      2  C4  UNL d   1       0.173  -2.223  -4.868  0.00  0.00     0.002 A 
ATOM      3  C5  UNL d   1       0.347  -3.001  -3.723  0.00  0.00     0.002 A 
ATOM      4  C6  UNL d   1       0.344  -2.403  -2.464  0.00  0.00    -0.004 A 
ATOM      5  C7  UNL d   1       0.173  -1.025  -2.352  0.00  0.00     0.002 A 
ATOM      6  C8  UNL d   1      -0.006  -0.245  -3.496  0.00  0.00     0.002 A 
ENDROOT
BRANCH   1   7
ATOM      7  C2  UNL d   1      -0.236   0.005  -6.000  0.00  0.00     0.056 C 
BRANCH   7   8
ATOM      8  C1  UNL d   1      -1.558   0.779  -6.000  0.00  0.00     0.007 C 
ATOM      9  C   UNL d   1      -2.607   0.177  -5.074  0.00  0.00     0.009 C 
ENDBRANCH   7   8
ENDBRANCH   1   7
TORSDOF 2
ENDMDL
