MODEL 1
REMARK minimizedAffinity 0.692309916
REMARK minimizedRMSD -1
REMARK  2 active torsions:
REMARK  status: ('A' for Active; 'I' for Inactive)
REMARK    1  A    between atoms: C1_2  and  C2_3 
REMARK    2  A    between atoms: C2_3  and  C3_4 
ROOT
ATOM      1  C3  UNL d   1      -0.344  -1.258  -3.393  0.00  0.00    -0.075 A 
ATOM      2  C4  UNL d   1      -0.229  -1.990  -4.584  0.00  0.00     0.002 A 
ATOM      3  C5  UNL d   1      -0.568  -1.410  -5.807  0.00  0.00     0.002 A 
ATOM      4  C6  UNL d   1      -1.035  -0.099  -5.854  0.00  0.00    -0.004 A 
ATOM      5  C7  UNL d   1      -1.169   0.632  -4.675  0.00  0.00     0.002 A 
ATOM      6  C8  UNL d   1      -0.826   0.056  -3.451  0.00  0.00     0.002 A 
ENDROOT
BRANCH   1   7
ATOM      7  C2  UNL d   1       0.049  -1.869  -2.069  0.00  0.00     0.056 C 
BRANCH   7   8
ATOM      8  C1  UNL d   1      -0.975  -2.864  -1.513  0.00  0.00     0.007 C 
ATOM      9  C   UNL d   1      -1.832  -2.283  -0.396  0.00  0.00     0.009 C 
ENDBRANCH   7   8
ENDBRANCH   1   7
TORSDOF 2
ENDMDL
