MODEL 1
REMARK minimizedAffinity 9.12624168
REMARK minimizedRMSD -1
REMARK  0 active torsions:
REMARK  status: ('A' for Active; 'I' for Inactive)
ROOT
ATOM      1  N1  IND d   1       0.798  -1.255   1.420  0.00  0.00    -0.196 N 
ATOM      2  C2  IND d   1      -0.415  -0.916   0.890  0.00  0.00     0.054 A 
ATOM      3  C3  IND d   1      -1.416  -1.384   1.669  0.00  0.00    -0.031 A 
ATOM      4  C4  IND d   1      -1.292  -2.643   3.911  0.00  0.00     0.051 A 
ATOM      5  C5  IND d   1      -0.403  -3.212   4.779  0.00  0.00    -0.031 A 
ATOM      6  C6  IND d   1       0.960  -3.155   4.569  0.00  0.00     0.015 A 
ATOM      7  C7  IND d   1       1.487  -2.513   3.484  0.00  0.00    -0.016 A 
ATOM      8  C8  IND d   1       0.587  -1.940   2.597  0.00  0.00    -0.047 A 
ATOM      9  C9  IND d   1      -0.799  -2.032   2.783  0.00  0.00    -0.096 A 
ATOM     10  HN1 IND d   1       1.565  -1.072   1.076  0.00  0.00     0.298 HD
ENDROOT
TORSDOF 0
ENDMDL
