MODEL 1
REMARK minimizedAffinity 14.3497715
REMARK minimizedRMSD -1
REMARK  0 active torsions:
REMARK  status: ('A' for Active; 'I' for Inactive)
ROOT
ATOM      1  N1  IND d   1      -1.257  -3.755  -3.245  0.00  0.00    -0.196 N 
ATOM      2  C2  IND d   1      -0.552  -4.892  -2.966  0.00  0.00     0.054 A 
ATOM      3  C3  IND d   1      -1.040  -5.934  -3.675  0.00  0.00    -0.031 A 
ATOM      4  C4  IND d   1      -2.924  -5.979  -5.429  0.00  0.00     0.051 A 
ATOM      5  C5  IND d   1      -3.886  -5.192  -5.997  0.00  0.00    -0.031 A 
ATOM      6  C6  IND d   1      -4.023  -3.858  -5.672  0.00  0.00     0.015 A 
ATOM      7  C7  IND d   1      -3.190  -3.256  -4.771  0.00  0.00    -0.016 A 
ATOM      8  C8  IND d   1      -2.216  -4.054  -4.188  0.00  0.00    -0.047 A 
ATOM      9  C9  IND d   1      -2.100  -5.418  -4.482  0.00  0.00    -0.096 A 
ATOM     10  HN1 IND d   1      -1.124  -2.982  -2.892  0.00  0.00     0.298 HD
ENDROOT
TORSDOF 0
ENDMDL
