MODEL 1
REMARK minimizedAffinity 3.91173196
REMARK minimizedRMSD -1
REMARK  0 active torsions:
REMARK  status: ('A' for Active; 'I' for Inactive)
ROOT
ATOM      1  N1  IND d   1      -3.698   4.836  -2.730  0.00  0.00    -0.196 N 
ATOM      2  C2  IND d   1      -4.084   4.474  -1.470  0.00  0.00     0.054 A 
ATOM      3  C3  IND d   1      -3.149   3.681  -0.901  0.00  0.00    -0.031 A 
ATOM      4  C4  IND d   1      -0.862   2.933  -1.817  0.00  0.00     0.051 A 
ATOM      5  C5  IND d   1      -0.083   2.981  -2.938  0.00  0.00    -0.031 A 
ATOM      6  C6  IND d   1      -0.476   3.666  -4.070  0.00  0.00     0.015 A 
ATOM      7  C7  IND d   1      -1.663   4.341  -4.118  0.00  0.00    -0.016 A 
ATOM      8  C8  IND d   1      -2.460   4.288  -2.983  0.00  0.00    -0.047 A 
ATOM      9  C9  IND d   1      -2.085   3.560  -1.847  0.00  0.00    -0.096 A 
ATOM     10  HN1 IND d   1      -4.153   5.324  -3.273  0.00  0.00     0.298 HD
ENDROOT
TORSDOF 0
ENDMDL
