MODEL 1
REMARK minimizedAffinity 2.86156034
REMARK minimizedRMSD -1
REMARK  0 active torsions:
REMARK  status: ('A' for Active; 'I' for Inactive)
ROOT
ATOM      1  N1  IND d   1       0.400  -5.262  -3.225  0.00  0.00    -0.196 N 
ATOM      2  C2  IND d   1      -0.032  -5.375  -1.933  0.00  0.00     0.054 A 
ATOM      3  C3  IND d   1      -1.359  -5.628  -1.901  0.00  0.00    -0.031 A 
ATOM      4  C4  IND d   1      -3.001  -5.999  -3.849  0.00  0.00     0.051 A 
ATOM      5  C5  IND d   1      -3.081  -5.959  -5.213  0.00  0.00    -0.031 A 
ATOM      6  C6  IND d   1      -1.981  -5.683  -6.000  0.00  0.00     0.015 A 
ATOM      7  C7  IND d   1      -0.753  -5.445  -5.450  0.00  0.00    -0.016 A 
ATOM      8  C8  IND d   1      -0.670  -5.477  -4.065  0.00  0.00    -0.047 A 
ATOM      9  C9  IND d   1      -1.791  -5.716  -3.260  0.00  0.00    -0.096 A 
ATOM     10  HN1 IND d   1       1.205  -5.086  -3.472  0.00  0.00     0.298 HD
ENDROOT
TORSDOF 0
ENDMDL
