MODEL 1
REMARK minimizedAffinity -0.16481398
REMARK minimizedRMSD -1
REMARK  0 active torsions:
REMARK  status: ('A' for Active; 'I' for Inactive)
ROOT
ATOM      1  N1  IND d   1       1.481  -3.159   3.038  0.00  0.00    -0.196 N 
ATOM      2  C2  IND d   1       0.601  -3.462   4.040  0.00  0.00     0.054 A 
ATOM      3  C3  IND d   1      -0.553  -2.779   3.875  0.00  0.00    -0.031 A 
ATOM      4  C4  IND d   1      -1.255  -1.187   1.977  0.00  0.00     0.051 A 
ATOM      5  C5  IND d   1      -0.776  -0.572   0.855  0.00  0.00    -0.031 A 
ATOM      6  C6  IND d   1       0.505  -0.794   0.392  0.00  0.00     0.015 A 
ATOM      7  C7  IND d   1       1.354  -1.653   1.031  0.00  0.00    -0.016 A 
ATOM      8  C8  IND d   1       0.873  -2.274   2.175  0.00  0.00    -0.047 A 
ATOM      9  C9  IND d   1      -0.411  -2.020   2.673  0.00  0.00    -0.096 A 
ATOM     10  HN1 IND d   1       2.279  -3.470   2.960  0.00  0.00     0.298 HD
ENDROOT
TORSDOF 0
ENDMDL
