MODEL 1
REMARK minimizedAffinity 6.14514208
REMARK minimizedRMSD -1
REMARK  0 active torsions:
REMARK  status: ('A' for Active; 'I' for Inactive)
ROOT
ATOM      1  N1  IND d   1       0.587  -5.842  -4.446  0.00  0.00    -0.196 N 
ATOM      2  C2  IND d   1       0.709  -5.801  -3.085  0.00  0.00     0.054 A 
ATOM      3  C3  IND d   1      -0.512  -5.768  -2.504  0.00  0.00    -0.031 A 
ATOM      4  C4  IND d   1      -2.843  -5.876  -3.590  0.00  0.00     0.051 A 
ATOM      5  C5  IND d   1      -3.465  -5.884  -4.807  0.00  0.00    -0.031 A 
ATOM      6  C6  IND d   1      -2.754  -5.881  -5.990  0.00  0.00     0.015 A 
ATOM      7  C7  IND d   1      -1.388  -5.881  -5.999  0.00  0.00    -0.016 A 
ATOM      8  C8  IND d   1      -0.753  -5.866  -4.765  0.00  0.00    -0.047 A 
ATOM      9  C9  IND d   1      -1.469  -5.826  -3.562  0.00  0.00    -0.096 A 
ATOM     10  HN1 IND d   1       1.238  -5.851  -5.008  0.00  0.00     0.298 HD
ENDROOT
TORSDOF 0
ENDMDL
