MODEL 1
REMARK minimizedAffinity 14.5937681
REMARK minimizedRMSD -1
REMARK  0 active torsions:
REMARK  status: ('A' for Active; 'I' for Inactive)
ROOT
ATOM      1  N1  IND d   1       0.425   0.808   0.350  0.00  0.00    -0.196 N 
ATOM      2  C2  IND d   1      -0.381  -0.248   0.027  0.00  0.00     0.054 A 
ATOM      3  C3  IND d   1       0.292  -1.412   0.163  0.00  0.00    -0.031 A 
ATOM      4  C4  IND d   1       2.691  -1.827   1.000  0.00  0.00     0.051 A 
ATOM      5  C5  IND d   1       3.828  -1.170   1.378  0.00  0.00    -0.031 A 
ATOM      6  C6  IND d   1       3.890   0.207   1.436  0.00  0.00     0.015 A 
ATOM      7  C7  IND d   1       2.808   0.982   1.128  0.00  0.00    -0.016 A 
ATOM      8  C8  IND d   1       1.653   0.319   0.737  0.00  0.00    -0.047 A 
ATOM      9  C9  IND d   1       1.598  -1.077   0.635  0.00  0.00    -0.096 A 
ATOM     10  HN1 IND d   1       0.202   1.638   0.317  0.00  0.00     0.298 HD
ENDROOT
TORSDOF 0
ENDMDL
