MODEL 1
REMARK minimizedAffinity 18.5469894
REMARK minimizedRMSD -1
REMARK  0 active torsions:
REMARK  status: ('A' for Active; 'I' for Inactive)
ROOT
ATOM      1  N1  IND d   1      -0.900  -1.506   1.469  0.00  0.00    -0.196 N 
ATOM      2  C2  IND d   1      -0.066  -1.277   0.410  0.00  0.00     0.054 A 
ATOM      3  C3  IND d   1       1.142  -1.844   0.632  0.00  0.00    -0.031 A 
ATOM      4  C4  IND d   1       1.935  -3.280   2.616  0.00  0.00     0.051 A 
ATOM      5  C5  IND d   1       1.539  -3.734   3.843  0.00  0.00    -0.031 A 
ATOM      6  C6  IND d   1       0.284  -3.466   4.350  0.00  0.00     0.015 A 
ATOM      7  C7  IND d   1      -0.630  -2.740   3.641  0.00  0.00    -0.016 A 
ATOM      8  C8  IND d   1      -0.230  -2.271   2.398  0.00  0.00    -0.047 A 
ATOM      9  C9  IND d   1       1.057  -2.504   1.896  0.00  0.00    -0.096 A 
ATOM     10  HN1 IND d   1      -1.708  -1.221   1.541  0.00  0.00     0.298 HD
ENDROOT
TORSDOF 0
ENDMDL
