MODEL 1
REMARK minimizedAffinity 4.51097012
REMARK minimizedRMSD -1
REMARK  0 active torsions:
REMARK  status: ('A' for Active; 'I' for Inactive)
ROOT
ATOM      1  N1  IND d   1      -4.190  -5.995  -3.836  0.00  0.00    -0.196 N 
ATOM      2  C2  IND d   1      -4.672  -6.000  -5.115  0.00  0.00     0.054 A 
ATOM      3  C3  IND d   1      -3.658  -5.874  -6.000  0.00  0.00    -0.031 A 
ATOM      4  C4  IND d   1      -1.122  -5.749  -5.575  0.00  0.00     0.051 A 
ATOM      5  C5  IND d   1      -0.201  -5.672  -4.568  0.00  0.00    -0.031 A 
ATOM      6  C6  IND d   1      -0.570  -5.701  -3.238  0.00  0.00     0.015 A 
ATOM      7  C7  IND d   1      -1.879  -5.822  -2.865  0.00  0.00    -0.016 A 
ATOM      8  C8  IND d   1      -2.817  -5.893  -3.885  0.00  0.00    -0.047 A 
ATOM      9  C9  IND d   1      -2.452  -5.821  -5.235  0.00  0.00    -0.096 A 
ATOM     10  HN1 IND d   1      -4.665  -6.047  -3.121  0.00  0.00     0.298 HD
ENDROOT
TORSDOF 0
ENDMDL
