MODEL 1
REMARK minimizedAffinity 2.09279537
REMARK minimizedRMSD -1
REMARK  0 active torsions:
REMARK  status: ('A' for Active; 'I' for Inactive)
ROOT
ATOM      1  N1  IND d   1       1.222   1.203   0.658  0.00  0.00    -0.196 N 
ATOM      2  C2  IND d   1       0.236   0.465   0.063  0.00  0.00     0.054 A 
ATOM      3  C3  IND d   1       0.662  -0.800  -0.153  0.00  0.00    -0.031 A 
ATOM      4  C4  IND d   1       2.901  -1.903   0.480  0.00  0.00     0.051 A 
ATOM      5  C5  IND d   1       4.130  -1.620   1.006  0.00  0.00    -0.031 A 
ATOM      6  C6  IND d   1       4.458  -0.357   1.454  0.00  0.00     0.015 A 
ATOM      7  C7  IND d   1       3.562   0.672   1.404  0.00  0.00    -0.016 A 
ATOM      8  C8  IND d   1       2.315   0.391   0.864  0.00  0.00    -0.047 A 
ATOM      9  C9  IND d   1       1.990  -0.879   0.368  0.00  0.00    -0.096 A 
ATOM     10  HN1 IND d   1       1.167   2.035   0.868  0.00  0.00     0.298 HD
ENDROOT
TORSDOF 0
ENDMDL
