MODEL 1
REMARK minimizedAffinity 0.589026809
REMARK minimizedRMSD -1
REMARK  0 active torsions:
REMARK  status: ('A' for Active; 'I' for Inactive)
ROOT
ATOM      1  N1  IND d   1      -5.972  -1.511  -2.330  0.00  0.00    -0.196 N 
ATOM      2  C2  IND d   1      -5.943  -0.403  -1.530  0.00  0.00     0.054 A 
ATOM      3  C3  IND d   1      -5.910   0.720  -2.283  0.00  0.00    -0.031 A 
ATOM      4  C4  IND d   1      -6.000   0.976  -4.843  0.00  0.00     0.051 A 
ATOM      5  C5  IND d   1      -5.996   0.247  -5.999  0.00  0.00    -0.031 A 
ATOM      6  C6  IND d   1      -5.986  -1.132  -5.991  0.00  0.00     0.015 A 
ATOM      7  C7  IND d   1      -5.992  -1.838  -4.822  0.00  0.00    -0.016 A 
ATOM      8  C8  IND d   1      -5.989  -1.102  -3.646  0.00  0.00    -0.047 A 
ATOM      9  C9  IND d   1      -5.955   0.299  -3.647  0.00  0.00    -0.096 A 
ATOM     10  HN1 IND d   1      -5.979  -2.326  -2.058  0.00  0.00     0.298 HD
ENDROOT
TORSDOF 0
ENDMDL
