MODEL 1
REMARK minimizedAffinity -0.231093466
REMARK minimizedRMSD -1
REMARK  0 active torsions:
REMARK  status: ('A' for Active; 'I' for Inactive)
ROOT
ATOM      1  N1  IND d   1      -3.214  -3.505  -3.078  0.00  0.00    -0.196 N 
ATOM      2  C2  IND d   1      -2.875  -3.855  -4.355  0.00  0.00     0.054 A 
ATOM      3  C3  IND d   1      -3.601  -3.143  -5.246  0.00  0.00    -0.031 A 
ATOM      4  C4  IND d   1      -5.328  -1.279  -4.832  0.00  0.00     0.051 A 
ATOM      5  C5  IND d   1      -5.997  -0.634  -3.830  0.00  0.00    -0.031 A 
ATOM      6  C6  IND d   1      -5.766  -0.917  -2.499  0.00  0.00     0.015 A 
ATOM      7  C7  IND d   1      -4.845  -1.851  -2.119  0.00  0.00    -0.016 A 
ATOM      8  C8  IND d   1      -4.169  -2.513  -3.134  0.00  0.00    -0.047 A 
ATOM      9  C9  IND d   1      -4.429  -2.260  -4.487  0.00  0.00    -0.096 A 
ATOM     10  HN1 IND d   1      -2.886  -3.846  -2.360  0.00  0.00     0.298 HD
ENDROOT
TORSDOF 0
ENDMDL
