MODEL 1
REMARK minimizedAffinity -0.672381043
REMARK minimizedRMSD -1
REMARK  0 active torsions:
REMARK  status: ('A' for Active; 'I' for Inactive)
ROOT
ATOM      1  N1  IND d   1      -4.714  -2.537  -5.983  0.00  0.00    -0.196 N 
ATOM      2  C2  IND d   1      -5.986  -3.036  -5.982  0.00  0.00     0.054 A 
ATOM      3  C3  IND d   1      -5.961  -4.388  -6.000  0.00  0.00    -0.031 A 
ATOM      4  C4  IND d   1      -3.945  -5.987  -5.931  0.00  0.00     0.051 A 
ATOM      5  C5  IND d   1      -2.579  -6.000  -5.962  0.00  0.00    -0.031 A 
ATOM      6  C6  IND d   1      -1.839  -4.835  -5.999  0.00  0.00     0.015 A 
ATOM      7  C7  IND d   1      -2.441  -3.609  -5.996  0.00  0.00    -0.016 A 
ATOM      8  C8  IND d   1      -3.829  -3.592  -5.972  0.00  0.00    -0.047 A 
ATOM      9  C9  IND d   1      -4.585  -4.771  -5.977  0.00  0.00    -0.096 A 
ATOM     10  HN1 IND d   1      -4.502  -1.703  -5.990  0.00  0.00     0.298 HD
ENDROOT
TORSDOF 0
ENDMDL
