MODEL 1
REMARK minimizedAffinity 12.0865059
REMARK minimizedRMSD -1
REMARK  0 active torsions:
REMARK  status: ('A' for Active; 'I' for Inactive)
ROOT
ATOM      1  N1  IND d   1       0.211   0.237   0.509  0.00  0.00    -0.196 N 
ATOM      2  C2  IND d   1       0.315  -1.115   0.683  0.00  0.00     0.054 A 
ATOM      3  C3  IND d   1      -0.803  -1.733   0.242  0.00  0.00    -0.031 A 
ATOM      4  C4  IND d   1      -2.886  -0.733  -0.894  0.00  0.00     0.051 A 
ATOM      5  C5  IND d   1      -3.457   0.460  -1.238  0.00  0.00    -0.031 A 
ATOM      6  C6  IND d   1      -2.821   1.664  -1.014  0.00  0.00     0.015 A 
ATOM      7  C7  IND d   1      -1.579   1.719  -0.447  0.00  0.00    -0.016 A 
ATOM      8  C8  IND d   1      -0.999   0.510  -0.091  0.00  0.00    -0.047 A 
ATOM      9  C9  IND d   1      -1.658  -0.712  -0.276  0.00  0.00    -0.096 A 
ATOM     10  HN1 IND d   1       0.802   0.819   0.736  0.00  0.00     0.298 HD
ENDROOT
TORSDOF 0
ENDMDL
