MODEL 1
REMARK minimizedAffinity 8.68408489
REMARK minimizedRMSD -1
REMARK  0 active torsions:
REMARK  status: ('A' for Active; 'I' for Inactive)
ROOT
ATOM      1  N1  IND d   1      -5.998  -0.318  -4.218  0.00  0.00    -0.196 N 
ATOM      2  C2  IND d   1      -5.027  -0.636  -5.126  0.00  0.00     0.054 A 
ATOM      3  C3  IND d   1      -3.842  -0.824  -4.502  0.00  0.00    -0.031 A 
ATOM      4  C4  IND d   1      -3.290  -0.760  -1.989  0.00  0.00     0.051 A 
ATOM      5  C5  IND d   1      -3.841  -0.474  -0.771  0.00  0.00    -0.031 A 
ATOM      6  C6  IND d   1      -5.168  -0.117  -0.638  0.00  0.00     0.015 A 
ATOM      7  C7  IND d   1      -5.998  -0.044  -1.720  0.00  0.00    -0.016 A 
ATOM      8  C8  IND d   1      -5.439  -0.326  -2.959  0.00  0.00    -0.047 A 
ATOM      9  C9  IND d   1      -4.084  -0.647  -3.105  0.00  0.00    -0.096 A 
ATOM     10  HN1 IND d   1      -6.819  -0.142  -4.402  0.00  0.00     0.298 HD
ENDROOT
TORSDOF 0
ENDMDL
