MODEL 1
REMARK minimizedAffinity -1.13504374
REMARK minimizedRMSD -1
REMARK  0 active torsions:
REMARK  status: ('A' for Active; 'I' for Inactive)
ROOT
ATOM      1  N1  IND d   1      -1.658  -3.792  -5.780  0.00  0.00    -0.196 N 
ATOM      2  C2  IND d   1      -0.990  -4.971  -5.599  0.00  0.00     0.054 A 
ATOM      3  C3  IND d   1      -1.863  -5.999  -5.514  0.00  0.00    -0.031 A 
ATOM      4  C4  IND d   1      -4.427  -5.991  -5.748  0.00  0.00     0.051 A 
ATOM      5  C5  IND d   1      -5.493  -5.147  -5.885  0.00  0.00    -0.031 A 
ATOM      6  C6  IND d   1      -5.332  -3.781  -6.000  0.00  0.00     0.015 A 
ATOM      7  C7  IND d   1      -4.093  -3.207  -5.993  0.00  0.00    -0.016 A 
ATOM      8  C8  IND d   1      -3.008  -4.060  -5.846  0.00  0.00    -0.047 A 
ATOM      9  C9  IND d   1      -3.168  -5.442  -5.687  0.00  0.00    -0.096 A 
ATOM     10  HN1 IND d   1      -1.296  -3.015  -5.843  0.00  0.00     0.298 HD
ENDROOT
TORSDOF 0
ENDMDL
