MODEL 1
REMARK minimizedAffinity -0.451805443
REMARK minimizedRMSD -1
REMARK  0 active torsions:
REMARK  status: ('A' for Active; 'I' for Inactive)
ROOT
ATOM      1  N1  IND d   1      -2.770  -3.768  -3.438  0.00  0.00    -0.196 N 
ATOM      2  C2  IND d   1      -2.513  -4.018  -4.757  0.00  0.00     0.054 A 
ATOM      3  C3  IND d   1      -3.288  -3.238  -5.544  0.00  0.00    -0.031 A 
ATOM      4  C4  IND d   1      -4.974  -1.410  -4.881  0.00  0.00     0.051 A 
ATOM      5  C5  IND d   1      -5.577  -0.844  -3.792  0.00  0.00    -0.031 A 
ATOM      6  C6  IND d   1      -5.267  -1.230  -2.504  0.00  0.00     0.015 A 
ATOM      7  C7  IND d   1      -4.330  -2.192  -2.255  0.00  0.00    -0.016 A 
ATOM      8  C8  IND d   1      -3.721  -2.774  -3.358  0.00  0.00    -0.047 A 
ATOM      9  C9  IND d   1      -4.062  -2.416  -4.669  0.00  0.00    -0.096 A 
ATOM     10  HN1 IND d   1      -2.401  -4.165  -2.771  0.00  0.00     0.298 HD
ENDROOT
TORSDOF 0
ENDMDL
