MODEL 1
REMARK minimizedAffinity 3.2637527
REMARK minimizedRMSD -1
REMARK  1 active torsions:
REMARK  status: ('A' for Active; 'I' for Inactive)
REMARK    1  A    between atoms: C1_2  and  C2_3 
ROOT
ATOM      1  C2  UNL d   1       3.427  -0.786   1.937  0.00  0.00    -0.073 A 
ATOM      2  C3  UNL d   1       2.547  -1.505   2.754  0.00  0.00    -0.002 A 
ATOM      3  C4  UNL d   1       1.187  -1.559   2.449  0.00  0.00     0.004 A 
ATOM      4  C5  UNL d   1       0.694  -0.902   1.322  0.00  0.00    -0.004 A 
ATOM      5  C6  UNL d   1       1.559  -0.188   0.487  0.00  0.00    -0.075 A 
ATOM      6  C7  UNL d   1       1.044   0.527  -0.728  0.00  0.00     0.076 C 
ATOM      7  C8  UNL d   1       2.923  -0.136   0.801  0.00  0.00     0.001 A 
ENDROOT
BRANCH   1   8
ATOM      8  C1  UNL d   1       4.898  -0.730   2.259  0.00  0.00     0.053 C 
ATOM      9  C   UNL d   1       5.150  -0.586   3.752  0.00  0.00     0.018 C 
ENDBRANCH   1   8
TORSDOF 1
ENDMDL
