MODEL 1
REMARK minimizedAffinity 1.30791581
REMARK minimizedRMSD -1
REMARK  1 active torsions:
REMARK  status: ('A' for Active; 'I' for Inactive)
REMARK    1  A    between atoms: C1_2  and  C2_3 
ROOT
ATOM      1  C2  UNL d   1      -1.504   2.388  -3.877  0.00  0.00    -0.073 A 
ATOM      2  C3  UNL d   1      -0.539   1.516  -3.360  0.00  0.00    -0.002 A 
ATOM      3  C4  UNL d   1      -0.916   0.460  -2.529  0.00  0.00     0.004 A 
ATOM      4  C5  UNL d   1      -2.259   0.260  -2.213  0.00  0.00    -0.004 A 
ATOM      5  C6  UNL d   1      -3.240   1.113  -2.729  0.00  0.00    -0.075 A 
ATOM      6  C7  UNL d   1      -4.689   0.914  -2.396  0.00  0.00     0.076 C 
ATOM      7  C8  UNL d   1      -2.853   2.173  -3.560  0.00  0.00     0.001 A 
ENDROOT
BRANCH   1   8
ATOM      8  C1  UNL d   1      -1.103   3.525  -4.779  0.00  0.00     0.053 C 
ATOM      9  C   UNL d   1      -0.216   4.533  -4.066  0.00  0.00     0.018 C 
ENDBRANCH   1   8
TORSDOF 1
ENDMDL
