MODEL 1
REMARK minimizedAffinity -3.28740263
REMARK minimizedRMSD -1
REMARK  1 active torsions:
REMARK  status: ('A' for Active; 'I' for Inactive)
REMARK    1  A    between atoms: C1_2  and  C2_3 
ROOT
ATOM      1  C2  UNL d   1       1.608  -1.275   2.134  0.00  0.00    -0.073 A 
ATOM      2  C3  UNL d   1       0.394  -0.604   1.946  0.00  0.00    -0.002 A 
ATOM      3  C4  UNL d   1       0.203   0.208   0.828  0.00  0.00     0.004 A 
ATOM      4  C5  UNL d   1       1.219   0.351  -0.117  0.00  0.00    -0.004 A 
ATOM      5  C6  UNL d   1       2.435  -0.320   0.047  0.00  0.00    -0.075 A 
ATOM      6  C7  UNL d   1       3.539  -0.174  -0.959  0.00  0.00     0.076 C 
ATOM      7  C8  UNL d   1       2.620  -1.132   1.174  0.00  0.00     0.001 A 
ENDROOT
BRANCH   1   8
ATOM      8  C1  UNL d   1       1.816  -2.158   3.337  0.00  0.00     0.053 C 
ATOM      9  C   UNL d   1       1.380  -1.479   4.625  0.00  0.00     0.018 C 
ENDBRANCH   1   8
TORSDOF 1
ENDMDL
