MODEL 1
REMARK minimizedAffinity 8.17157841
REMARK minimizedRMSD -1
REMARK  1 active torsions:
REMARK  status: ('A' for Active; 'I' for Inactive)
REMARK    1  A    between atoms: C1_2  and  C2_3 
ROOT
ATOM      1  C2  UNL d   1       2.619  -0.546   0.817  0.00  0.00    -0.073 A 
ATOM      2  C3  UNL d   1       2.516   0.587   0.002  0.00  0.00    -0.002 A 
ATOM      3  C4  UNL d   1       1.350   0.829  -0.726  0.00  0.00     0.004 A 
ATOM      4  C5  UNL d   1       0.274  -0.053  -0.640  0.00  0.00    -0.004 A 
ATOM      5  C6  UNL d   1       0.352  -1.185   0.178  0.00  0.00    -0.075 A 
ATOM      6  C7  UNL d   1      -0.796  -2.145   0.280  0.00  0.00     0.076 C 
ATOM      7  C8  UNL d   1       1.528  -1.422   0.903  0.00  0.00     0.001 A 
ENDROOT
BRANCH   1   8
ATOM      8  C1  UNL d   1       3.874  -0.808   1.609  0.00  0.00     0.053 C 
ATOM      9  C   UNL d   1       3.589  -0.959   3.095  0.00  0.00     0.018 C 
ENDBRANCH   1   8
TORSDOF 1
ENDMDL
