MODEL 1
REMARK minimizedAffinity 5.10341883
REMARK minimizedRMSD -1
REMARK  1 active torsions:
REMARK  status: ('A' for Active; 'I' for Inactive)
REMARK    1  A    between atoms: C1_2  and  C2_3 
ROOT
ATOM      1  C2  UNL d   1      -0.756  -5.615  -4.628  0.00  0.00    -0.073 A 
ATOM      2  C3  UNL d   1      -2.076  -6.000  -4.367  0.00  0.00    -0.002 A 
ATOM      3  C4  UNL d   1      -2.624  -5.819  -3.096  0.00  0.00     0.004 A 
ATOM      4  C5  UNL d   1      -1.862  -5.247  -2.078  0.00  0.00    -0.004 A 
ATOM      5  C6  UNL d   1      -0.545  -4.845  -2.322  0.00  0.00    -0.075 A 
ATOM      6  C7  UNL d   1       0.288  -4.229  -1.237  0.00  0.00     0.076 C 
ATOM      7  C8  UNL d   1      -0.001  -5.032  -3.600  0.00  0.00     0.001 A 
ENDROOT
BRANCH   1   8
ATOM      8  C1  UNL d   1      -0.161  -5.802  -6.000  0.00  0.00     0.053 C 
ATOM      9  C   UNL d   1       1.348  -5.981  -5.947  0.00  0.00     0.018 C 
ENDBRANCH   1   8
TORSDOF 1
ENDMDL
