MODEL 1
REMARK minimizedAffinity 3.99891782
REMARK minimizedRMSD -1
REMARK  1 active torsions:
REMARK  status: ('A' for Active; 'I' for Inactive)
REMARK    1  A    between atoms: C1_2  and  C2_3 
ROOT
ATOM      1  C2  UNL d   1      -2.064  -4.549   1.135  0.00  0.00    -0.073 A 
ATOM      2  C3  UNL d   1      -1.508  -4.933   2.360  0.00  0.00    -0.002 A 
ATOM      3  C4  UNL d   1      -2.268  -5.652   3.284  0.00  0.00     0.004 A 
ATOM      4  C5  UNL d   1      -3.586  -6.000   2.990  0.00  0.00    -0.004 A 
ATOM      5  C6  UNL d   1      -4.156  -5.635   1.766  0.00  0.00    -0.075 A 
ATOM      6  C7  UNL d   1      -5.573  -6.000   1.436  0.00  0.00     0.076 C 
ATOM      7  C8  UNL d   1      -3.388  -4.911   0.845  0.00  0.00     0.001 A 
ENDROOT
BRANCH   1   8
ATOM      8  C1  UNL d   1      -1.246  -3.778   0.131  0.00  0.00     0.053 C 
ATOM      9  C   UNL d   1       0.042  -3.244   0.735  0.00  0.00     0.018 C 
ENDBRANCH   1   8
TORSDOF 1
ENDMDL
