MODEL 1
REMARK minimizedAffinity -3.54564071
REMARK minimizedRMSD -1
REMARK  1 active torsions:
REMARK  status: ('A' for Active; 'I' for Inactive)
REMARK    1  A    between atoms: C1_2  and  C2_3 
ROOT
ATOM      1  C2  UNL d   1      -1.408  -5.677  -2.640  0.00  0.00    -0.073 A 
ATOM      2  C3  UNL d   1      -2.697  -5.957  -3.110  0.00  0.00    -0.002 A 
ATOM      3  C4  UNL d   1      -2.953  -6.000  -4.481  0.00  0.00     0.004 A 
ATOM      4  C5  UNL d   1      -1.925  -5.771  -5.395  0.00  0.00    -0.004 A 
ATOM      5  C6  UNL d   1      -0.628  -5.502  -4.945  0.00  0.00    -0.075 A 
ATOM      6  C7  UNL d   1       0.489  -5.251  -5.915  0.00  0.00     0.076 C 
ATOM      7  C8  UNL d   1      -0.379  -5.457  -3.567  0.00  0.00     0.001 A 
ENDROOT
BRANCH   1   8
ATOM      8  C1  UNL d   1      -1.125  -5.635  -1.160  0.00  0.00     0.053 C 
ATOM      9  C   UNL d   1      -2.351  -5.994  -0.335  0.00  0.00     0.018 C 
ENDBRANCH   1   8
TORSDOF 1
ENDMDL
