MODEL 1
REMARK minimizedAffinity 5.0433917
REMARK minimizedRMSD -1
REMARK  1 active torsions:
REMARK  status: ('A' for Active; 'I' for Inactive)
REMARK    1  A    between atoms: C1_2  and  C2_3 
ROOT
ATOM      1  C2  UNL d   1      -1.726   2.549  -3.259  0.00  0.00    -0.073 A 
ATOM      2  C3  UNL d   1      -2.852   2.924  -3.999  0.00  0.00    -0.002 A 
ATOM      3  C4  UNL d   1      -4.120   2.467  -3.635  0.00  0.00     0.004 A 
ATOM      4  C5  UNL d   1      -4.275   1.637  -2.525  0.00  0.00    -0.004 A 
ATOM      5  C6  UNL d   1      -3.163   1.260  -1.765  0.00  0.00    -0.075 A 
ATOM      6  C7  UNL d   1      -3.312   0.366  -0.570  0.00  0.00     0.076 C 
ATOM      7  C8  UNL d   1      -1.893   1.721  -2.139  0.00  0.00     0.001 A 
ENDROOT
BRANCH   1   8
ATOM      8  C1  UNL d   1      -0.356   3.045  -3.644  0.00  0.00     0.053 C 
ATOM      9  C   UNL d   1      -0.425   4.295  -4.507  0.00  0.00     0.018 C 
ENDBRANCH   1   8
TORSDOF 1
ENDMDL
