MODEL 1
REMARK minimizedAffinity -3.6245966
REMARK minimizedRMSD -1
REMARK  0 active torsions:
REMARK  status: ('A' for Active; 'I' for Inactive)
ROOT
ATOM      1  C2' OXE d   1       3.188  -2.145  -0.341  0.00  0.00     0.078 C 
ATOM      2  C1' OXE d   1       1.524  -4.401  -0.190  0.00  0.00     0.078 C 
ATOM      3  C1  OXE d   1       1.330  -3.460  -1.353  0.00  0.00    -0.078 A 
ATOM      4  C2  OXE d   1       2.117  -2.335  -1.394  0.00  0.00    -0.078 A 
ATOM      5  C3  OXE d   1       2.018  -1.462  -2.474  0.00  0.00     0.003 A 
ATOM      6  C4  OXE d   1       1.018  -1.639  -3.438  0.00  0.00    -0.002 A 
ATOM      7  C5  OXE d   1       0.179  -2.758  -3.393  0.00  0.00    -0.002 A 
ATOM      8  C6  OXE d   1       0.350  -3.698  -2.383  0.00  0.00     0.003 A 
ENDROOT
TORSDOF 0
ENDMDL
