MODEL 1
REMARK minimizedAffinity 6.3718915
REMARK minimizedRMSD -1
REMARK  0 active torsions:
REMARK  status: ('A' for Active; 'I' for Inactive)
ROOT
ATOM      1  C2' OXE d   1       4.147  -6.000  -1.332  0.00  0.00     0.078 C 
ATOM      2  C1' OXE d   1       4.800  -6.000  -4.062  0.00  0.00     0.078 C 
ATOM      3  C1  OXE d   1       4.306  -4.710  -3.457  0.00  0.00    -0.078 A 
ATOM      4  C2  OXE d   1       3.944  -4.731  -2.131  0.00  0.00    -0.078 A 
ATOM      5  C3  OXE d   1       3.534  -3.555  -1.510  0.00  0.00     0.003 A 
ATOM      6  C4  OXE d   1       3.339  -2.388  -2.259  0.00  0.00    -0.002 A 
ATOM      7  C5  OXE d   1       3.664  -2.355  -3.619  0.00  0.00    -0.002 A 
ATOM      8  C6  OXE d   1       4.187  -3.494  -4.222  0.00  0.00     0.003 A 
ENDROOT
TORSDOF 0
ENDMDL
