MODEL 1
REMARK minimizedAffinity -0.895645916
REMARK minimizedRMSD -1
REMARK  0 active torsions:
REMARK  status: ('A' for Active; 'I' for Inactive)
ROOT
ATOM      1  C2' OXE d   1       4.792  -2.043  -0.240  0.00  0.00     0.078 C 
ATOM      2  C1' OXE d   1       5.741  -4.680  -0.389  0.00  0.00     0.078 C 
ATOM      3  C1  OXE d   1       4.904  -4.168  -1.535  0.00  0.00    -0.078 A 
ATOM      4  C2  OXE d   1       4.405  -2.892  -1.432  0.00  0.00    -0.078 A 
ATOM      5  C3  OXE d   1       3.672  -2.351  -2.484  0.00  0.00     0.003 A 
ATOM      6  C4  OXE d   1       3.310  -3.147  -3.578  0.00  0.00    -0.002 A 
ATOM      7  C5  OXE d   1       3.775  -4.462  -3.684  0.00  0.00    -0.002 A 
ATOM      8  C6  OXE d   1       4.606  -4.973  -2.694  0.00  0.00     0.003 A 
ENDROOT
TORSDOF 0
ENDMDL
