MODEL 1
REMARK minimizedAffinity 1.49947226
REMARK minimizedRMSD -1
REMARK  0 active torsions:
REMARK  status: ('A' for Active; 'I' for Inactive)
ROOT
ATOM      1  C2' OXE d   1       4.820  -6.000  -1.328  0.00  0.00     0.078 C 
ATOM      2  C1' OXE d   1       4.948  -5.965  -4.132  0.00  0.00     0.078 C 
ATOM      3  C1  OXE d   1       4.600  -4.678  -3.427  0.00  0.00    -0.078 A 
ATOM      4  C2  OXE d   1       4.494  -4.715  -2.058  0.00  0.00    -0.078 A 
ATOM      5  C3  OXE d   1       4.230  -3.543  -1.355  0.00  0.00     0.003 A 
ATOM      6  C4  OXE d   1       3.919  -2.361  -2.039  0.00  0.00    -0.002 A 
ATOM      7  C5  OXE d   1       3.983  -2.311  -3.435  0.00  0.00    -0.002 A 
ATOM      8  C6  OXE d   1       4.362  -3.447  -4.141  0.00  0.00     0.003 A 
ENDROOT
TORSDOF 0
ENDMDL
