MODEL 1
REMARK minimizedAffinity 3.2316463
REMARK minimizedRMSD -1
REMARK  0 active torsions:
REMARK  status: ('A' for Active; 'I' for Inactive)
ROOT
ATOM      1  C2' OXE d   1       5.999  -3.267  -0.708  0.00  0.00     0.078 C 
ATOM      2  C1' OXE d   1       3.229  -2.950  -0.381  0.00  0.00     0.078 C 
ATOM      3  C1  OXE d   1       3.839  -2.503  -1.686  0.00  0.00    -0.078 A 
ATOM      4  C2  OXE d   1       5.202  -2.619  -1.819  0.00  0.00    -0.078 A 
ATOM      5  C3  OXE d   1       5.809  -2.272  -3.023  0.00  0.00     0.003 A 
ATOM      6  C4  OXE d   1       5.066  -1.664  -4.042  0.00  0.00    -0.002 A 
ATOM      7  C5  OXE d   1       3.683  -1.500  -3.911  0.00  0.00    -0.002 A 
ATOM      8  C6  OXE d   1       3.049  -1.952  -2.759  0.00  0.00     0.003 A 
ENDROOT
TORSDOF 0
ENDMDL
