MODEL 1
REMARK minimizedAffinity 8.38976097
REMARK minimizedRMSD -1
REMARK  0 active torsions:
REMARK  status: ('A' for Active; 'I' for Inactive)
ROOT
ATOM      1  C2' OXE d   1       5.270  -4.064  -0.452  0.00  0.00     0.078 C 
ATOM      2  C1' OXE d   1       3.707  -1.754  -0.128  0.00  0.00     0.078 C 
ATOM      3  C1  OXE d   1       4.118  -2.135  -1.528  0.00  0.00    -0.078 A 
ATOM      4  C2  OXE d   1       4.922  -3.240  -1.673  0.00  0.00    -0.078 A 
ATOM      5  C3  OXE d   1       5.284  -3.666  -2.947  0.00  0.00     0.003 A 
ATOM      6  C4  OXE d   1       4.967  -2.893  -4.071  0.00  0.00    -0.002 A 
ATOM      7  C5  OXE d   1       4.183  -1.742  -3.941  0.00  0.00    -0.002 A 
ATOM      8  C6  OXE d   1       3.716  -1.373  -2.685  0.00  0.00     0.003 A 
ENDROOT
TORSDOF 0
ENDMDL
