MODEL 1
REMARK minimizedAffinity 9.83835316
REMARK minimizedRMSD -1
REMARK  0 active torsions:
REMARK  status: ('A' for Active; 'I' for Inactive)
ROOT
ATOM      1  C2' OXE d   1       3.362  -2.913   0.493  0.00  0.00     0.078 C 
ATOM      2  C1' OXE d   1       5.818  -4.153  -0.063  0.00  0.00     0.078 C 
ATOM      3  C1  OXE d   1       5.215  -3.276  -1.131  0.00  0.00    -0.078 A 
ATOM      4  C2  OXE d   1       3.990  -2.711  -0.869  0.00  0.00    -0.078 A 
ATOM      5  C3  OXE d   1       3.415  -1.849  -1.798  0.00  0.00     0.003 A 
ATOM      6  C4  OXE d   1       3.998  -1.676  -3.059  0.00  0.00    -0.002 A 
ATOM      7  C5  OXE d   1       5.226  -2.274  -3.362  0.00  0.00    -0.002 A 
ATOM      8  C6  OXE d   1       5.867  -3.041  -2.396  0.00  0.00     0.003 A 
ENDROOT
TORSDOF 0
ENDMDL
