MODEL 1
REMARK minimizedAffinity 7.88518286
REMARK minimizedRMSD -1
REMARK  0 active torsions:
REMARK  status: ('A' for Active; 'I' for Inactive)
ROOT
ATOM      1  C2' OXE d   1       4.470  -3.503  -3.401  0.00  0.00     0.078 C 
ATOM      2  C1' OXE d   1       4.486  -1.926  -1.079  0.00  0.00     0.078 C 
ATOM      3  C1  OXE d   1       3.551  -3.109  -1.119  0.00  0.00    -0.078 A 
ATOM      4  C2  OXE d   1       3.516  -3.848  -2.278  0.00  0.00    -0.078 A 
ATOM      5  C3  OXE d   1       2.711  -4.981  -2.348  0.00  0.00     0.003 A 
ATOM      6  C4  OXE d   1       1.825  -5.287  -1.308  0.00  0.00    -0.002 A 
ATOM      7  C5  OXE d   1       1.816  -4.524  -0.135  0.00  0.00    -0.002 A 
ATOM      8  C6  OXE d   1       2.701  -3.459  -0.008  0.00  0.00     0.003 A 
ENDROOT
TORSDOF 0
ENDMDL
