MODEL 1
REMARK minimizedAffinity -3.45783424
REMARK minimizedRMSD -1
REMARK  0 active torsions:
REMARK  status: ('A' for Active; 'I' for Inactive)
ROOT
ATOM      1  C2' OXE d   1       4.677  -2.181  -0.534  0.00  0.00     0.078 C 
ATOM      2  C1' OXE d   1       5.811  -4.739  -0.313  0.00  0.00     0.078 C 
ATOM      3  C1  OXE d   1       5.024  -4.425  -1.560  0.00  0.00    -0.078 A 
ATOM      4  C2  OXE d   1       4.433  -3.186  -1.639  0.00  0.00    -0.078 A 
ATOM      5  C3  OXE d   1       3.741  -2.825  -2.792  0.00  0.00     0.003 A 
ATOM      6  C4  OXE d   1       3.512  -3.764  -3.805  0.00  0.00    -0.002 A 
ATOM      7  C5  OXE d   1       4.071  -5.044  -3.726  0.00  0.00    -0.002 A 
ATOM      8  C6  OXE d   1       4.864  -5.375  -2.633  0.00  0.00     0.003 A 
ENDROOT
TORSDOF 0
ENDMDL
