MODEL 1
REMARK minimizedAffinity -4.26836491
REMARK minimizedRMSD -1
REMARK  1 active torsions:
REMARK  status: ('A' for Active; 'I' for Inactive)
REMARK    1  A    between atoms: C1_2  and  C2_3 
ROOT
ATOM      1  C2  UNL d   1       0.080  -0.215  -0.367  0.00  0.00    -0.073 A 
ATOM      2  C3  UNL d   1      -1.182  -0.753  -0.641  0.00  0.00    -0.002 A 
ATOM      3  C4  UNL d   1      -2.303  -0.316   0.067  0.00  0.00     0.004 A 
ATOM      4  C5  UNL d   1      -2.175   0.665   1.049  0.00  0.00    -0.004 A 
ATOM      5  C6  UNL d   1      -0.924   1.224   1.329  0.00  0.00    -0.075 A 
ATOM      6  C7  UNL d   1      -0.768   2.279   2.385  0.00  0.00     0.076 C 
ATOM      7  C8  UNL d   1       0.198   0.779   0.616  0.00  0.00     0.001 A 
ENDROOT
BRANCH   1   8
ATOM      8  C1  UNL d   1       1.292  -0.678  -1.133  0.00  0.00     0.053 C 
ATOM      9  C   UNL d   1       1.221  -0.291  -2.602  0.00  0.00     0.018 C 
ENDBRANCH   1   8
TORSDOF 1
ENDMDL
