MODEL 1
REMARK minimizedAffinity -3.57771659
REMARK minimizedRMSD -1
REMARK  1 active torsions:
REMARK  status: ('A' for Active; 'I' for Inactive)
REMARK    1  A    between atoms: C1_2  and  C2_3 
ROOT
ATOM      1  C2  UNL d   1       0.365  -0.205  -1.630  0.00  0.00    -0.073 A 
ATOM      2  C3  UNL d   1      -1.023  -0.260  -1.458  0.00  0.00    -0.002 A 
ATOM      3  C4  UNL d   1      -1.583  -0.105  -0.189  0.00  0.00     0.004 A 
ATOM      4  C5  UNL d   1      -0.763   0.113   0.918  0.00  0.00    -0.004 A 
ATOM      5  C6  UNL d   1       0.625   0.184   0.765  0.00  0.00    -0.075 A 
ATOM      6  C7  UNL d   1       1.521   0.416   1.946  0.00  0.00     0.076 C 
ATOM      7  C8  UNL d   1       1.180   0.024  -0.512  0.00  0.00     0.001 A 
ENDROOT
BRANCH   1   8
ATOM      8  C1  UNL d   1       0.974  -0.365  -2.999  0.00  0.00     0.053 C 
ATOM      9  C   UNL d   1       1.875   0.805  -3.362  0.00  0.00     0.018 C 
ENDBRANCH   1   8
TORSDOF 1
ENDMDL
