MODEL 1
REMARK minimizedAffinity -4.77518797
REMARK minimizedRMSD -1
REMARK  1 active torsions:
REMARK  status: ('A' for Active; 'I' for Inactive)
REMARK    1  A    between atoms: C1_2  and  C2_3 
ROOT
ATOM      1  C2  UNL d   1       0.600  -0.426  -0.602  0.00  0.00    -0.073 A 
ATOM      2  C3  UNL d   1       1.839  -0.956  -0.226  0.00  0.00    -0.002 A 
ATOM      3  C4  UNL d   1       2.375  -0.676   1.031  0.00  0.00     0.004 A 
ATOM      4  C5  UNL d   1       1.674   0.131   1.928  0.00  0.00    -0.004 A 
ATOM      5  C6  UNL d   1       0.429   0.661   1.576  0.00  0.00    -0.075 A 
ATOM      6  C7  UNL d   1      -0.336   1.533   2.528  0.00  0.00     0.076 C 
ATOM      7  C8  UNL d   1      -0.101   0.377   0.310  0.00  0.00     0.001 A 
ENDROOT
BRANCH   1   8
ATOM      8  C1  UNL d   1       0.015  -0.731  -1.956  0.00  0.00     0.053 C 
ATOM      9  C   UNL d   1       0.930  -0.285  -3.086  0.00  0.00     0.018 C 
ENDBRANCH   1   8
TORSDOF 1
ENDMDL
