MODEL 1
REMARK minimizedAffinity -3.17835808
REMARK minimizedRMSD -1
REMARK  1 active torsions:
REMARK  status: ('A' for Active; 'I' for Inactive)
REMARK    1  A    between atoms: C1_2  and  C2_3 
ROOT
ATOM      1  C2  UNL d   1      -0.563   0.136   1.265  0.00  0.00    -0.073 A 
ATOM      2  C3  UNL d   1       0.599  -0.115   2.003  0.00  0.00    -0.002 A 
ATOM      3  C4  UNL d   1       1.734  -0.630   1.375  0.00  0.00     0.004 A 
ATOM      4  C5  UNL d   1       1.721  -0.893   0.005  0.00  0.00    -0.004 A 
ATOM      5  C6  UNL d   1       0.573  -0.637  -0.751  0.00  0.00    -0.075 A 
ATOM      6  C7  UNL d   1       0.542  -0.916  -2.225  0.00  0.00     0.076 C 
ATOM      7  C8  UNL d   1      -0.564  -0.123  -0.113  0.00  0.00     0.001 A 
ENDROOT
BRANCH   1   8
ATOM      8  C1  UNL d   1      -1.789   0.698   1.937  0.00  0.00     0.053 C 
ATOM      9  C   UNL d   1      -3.050   0.445   1.126  0.00  0.00     0.018 C 
ENDBRANCH   1   8
TORSDOF 1
ENDMDL
