MODEL 1
REMARK minimizedAffinity -3.14770079
REMARK minimizedRMSD -1
REMARK  1 active torsions:
REMARK  status: ('A' for Active; 'I' for Inactive)
REMARK    1  A    between atoms: C1_2  and  C2_3 
ROOT
ATOM      1  C2  UNL d   1       0.925  -0.815  -2.777  0.00  0.00    -0.073 A 
ATOM      2  C3  UNL d   1       1.947  -0.004  -3.282  0.00  0.00    -0.002 A 
ATOM      3  C4  UNL d   1       1.828   0.575  -4.546  0.00  0.00     0.004 A 
ATOM      4  C5  UNL d   1       0.684   0.356  -5.314  0.00  0.00    -0.004 A 
ATOM      5  C6  UNL d   1      -0.354  -0.442  -4.822  0.00  0.00    -0.075 A 
ATOM      6  C7  UNL d   1      -1.589  -0.690  -5.636  0.00  0.00     0.076 C 
ATOM      7  C8  UNL d   1      -0.225  -1.023  -3.553  0.00  0.00     0.001 A 
ENDROOT
BRANCH   1   8
ATOM      8  C1  UNL d   1       1.046  -1.438  -1.410  0.00  0.00     0.053 C 
ATOM      9  C   UNL d   1       1.044  -0.393  -0.306  0.00  0.00     0.018 C 
ENDBRANCH   1   8
TORSDOF 1
ENDMDL
