MODEL 1
REMARK minimizedAffinity -4.78794622
REMARK minimizedRMSD -1
REMARK  1 active torsions:
REMARK  status: ('A' for Active; 'I' for Inactive)
REMARK    1  A    between atoms: C1_2  and  C2_3 
ROOT
ATOM      1  C2  UNL d   1      -0.241  -0.196  -0.532  0.00  0.00    -0.073 A 
ATOM      2  C3  UNL d   1      -1.531  -0.737  -0.490  0.00  0.00    -0.002 A 
ATOM      3  C4  UNL d   1      -2.378  -0.457   0.583  0.00  0.00     0.004 A 
ATOM      4  C5  UNL d   1      -1.948   0.371   1.619  0.00  0.00    -0.004 A 
ATOM      5  C6  UNL d   1      -0.667   0.931   1.589  0.00  0.00    -0.075 A 
ATOM      6  C7  UNL d   1      -0.188   1.822   2.698  0.00  0.00     0.076 C 
ATOM      7  C8  UNL d   1       0.179   0.643   0.510  0.00  0.00     0.001 A 
ENDROOT
BRANCH   1   8
ATOM      8  C1  UNL d   1       0.675  -0.490  -1.692  0.00  0.00     0.053 C 
ATOM      9  C   UNL d   1       1.038   0.768  -2.465  0.00  0.00     0.018 C 
ENDBRANCH   1   8
TORSDOF 1
ENDMDL
