MODEL 1
REMARK minimizedAffinity -1.73842955
REMARK minimizedRMSD -1
REMARK  1 active torsions:
REMARK  status: ('A' for Active; 'I' for Inactive)
REMARK    1  A    between atoms: C1_2  and  C2_3 
ROOT
ATOM      1  C2  UNL d   1      -0.986   0.043   2.602  0.00  0.00    -0.073 A 
ATOM      2  C3  UNL d   1      -0.419   1.188   3.174  0.00  0.00    -0.002 A 
ATOM      3  C4  UNL d   1       0.304   2.085   2.386  0.00  0.00     0.004 A 
ATOM      4  C5  UNL d   1       0.461   1.851   1.020  0.00  0.00    -0.004 A 
ATOM      5  C6  UNL d   1      -0.108   0.719   0.428  0.00  0.00    -0.075 A 
ATOM      6  C7  UNL d   1       0.054   0.452  -1.039  0.00  0.00     0.076 C 
ATOM      7  C8  UNL d   1      -0.830  -0.179   1.227  0.00  0.00     0.001 A 
ENDROOT
BRANCH   1   8
ATOM      8  C1  UNL d   1      -1.772  -0.925   3.448  0.00  0.00     0.053 C 
ATOM      9  C   UNL d   1      -3.220  -1.032   2.994  0.00  0.00     0.018 C 
ENDBRANCH   1   8
TORSDOF 1
ENDMDL
