MODEL 1
REMARK minimizedAffinity 1.04820251
REMARK minimizedRMSD -1
REMARK  2 active torsions:
REMARK  status: ('A' for Active; 'I' for Inactive)
REMARK    1  A    between atoms: C2'_3  and  C1'_4 
REMARK    2  A    between atoms: C1'_4  and  C1_5 
ROOT
ATOM      1  C1  I4B d   1      -1.226   0.993  -1.288  0.00  0.00    -0.075 A 
ATOM      2  C2  I4B d   1      -2.373   1.729  -1.125  0.00  0.00     0.003 A 
ATOM      3  C3  I4B d   1      -3.545   1.390  -1.844  0.00  0.00     0.002 A 
ATOM      4  C4  I4B d   1      -3.511   0.345  -2.745  0.00  0.00    -0.004 A 
ATOM      5  C5  I4B d   1      -2.354  -0.414  -2.892  0.00  0.00     0.002 A 
ATOM      6  C6  I4B d   1      -1.207  -0.096  -2.149  0.00  0.00     0.003 A 
ENDROOT
BRANCH   1   7
ATOM      7  C1' I4B d   1       0.003   1.400  -0.538  0.00  0.00     0.060 C 
BRANCH   7   8
ATOM      8  C2' I4B d   1      -0.018   0.701   0.806  0.00  0.00    -0.013 C 
ATOM      9  C4' I4B d   1       1.135  -0.259   0.940  0.00  0.00     0.013 C 
ATOM     10  C3' I4B d   1       0.027   1.753   1.874  0.00  0.00     0.013 C 
ENDBRANCH   7   8
ENDBRANCH   1   7
TORSDOF 2
ENDMDL
