MODEL 1
REMARK minimizedAffinity -0.798275113
REMARK minimizedRMSD -1
REMARK  2 active torsions:
REMARK  status: ('A' for Active; 'I' for Inactive)
REMARK    1  A    between atoms: C2'_3  and  C1'_4 
REMARK    2  A    between atoms: C1'_4  and  C1_5 
ROOT
ATOM      1  C1  I4B d   1       0.538   0.571   0.437  0.00  0.00    -0.075 A 
ATOM      2  C2  I4B d   1       0.137   1.590   1.263  0.00  0.00     0.003 A 
ATOM      3  C3  I4B d   1       0.241   1.452   2.668  0.00  0.00     0.002 A 
ATOM      4  C4  I4B d   1       0.700   0.265   3.202  0.00  0.00    -0.004 A 
ATOM      5  C5  I4B d   1       1.128  -0.759   2.362  0.00  0.00     0.002 A 
ATOM      6  C6  I4B d   1       1.058  -0.602   0.971  0.00  0.00     0.003 A 
ENDROOT
BRANCH   1   7
ATOM      7  C1' I4B d   1       0.384   0.738  -1.042  0.00  0.00     0.060 C 
BRANCH   7   8
ATOM      8  C2' I4B d   1      -0.838   1.598  -1.289  0.00  0.00    -0.013 C 
ATOM      9  C4' I4B d   1      -0.482   2.844  -2.056  0.00  0.00     0.013 C 
ATOM     10  C3' I4B d   1      -1.842   0.771  -2.036  0.00  0.00     0.013 C 
ENDBRANCH   7   8
ENDBRANCH   1   7
TORSDOF 2
ENDMDL
