MODEL 1
REMARK minimizedAffinity -6.26924896
REMARK minimizedRMSD -1
REMARK  2 active torsions:
REMARK  status: ('A' for Active; 'I' for Inactive)
REMARK    1  A    between atoms: C2'_3  and  C1'_4 
REMARK    2  A    between atoms: C1'_4  and  C1_5 
ROOT
ATOM      1  C1  I4B d   1      -0.446   2.820  -0.731  0.00  0.00    -0.075 A 
ATOM      2  C2  I4B d   1      -1.037   2.920  -1.966  0.00  0.00     0.003 A 
ATOM      3  C3  I4B d   1      -1.064   4.162  -2.645  0.00  0.00     0.002 A 
ATOM      4  C4  I4B d   1      -0.537   5.282  -2.034  0.00  0.00    -0.004 A 
ATOM      5  C5  I4B d   1       0.082   5.174  -0.792  0.00  0.00     0.002 A 
ATOM      6  C6  I4B d   1       0.139   3.934  -0.142  0.00  0.00     0.003 A 
ENDROOT
BRANCH   1   7
ATOM      7  C1' I4B d   1      -0.464   1.500  -0.028  0.00  0.00     0.060 C 
BRANCH   7   8
ATOM      8  C2' I4B d   1       0.121   1.700   1.356  0.00  0.00    -0.013 C 
ATOM      9  C4' I4B d   1      -0.927   2.177   2.327  0.00  0.00     0.013 C 
ATOM     10  C3' I4B d   1       0.717   0.398   1.799  0.00  0.00     0.013 C 
ENDBRANCH   7   8
ENDBRANCH   1   7
TORSDOF 2
ENDMDL
