MODEL 1
REMARK minimizedAffinity 10.9650621
REMARK minimizedRMSD -1
REMARK  3 active torsions:
REMARK  status: ('A' for Active; 'I' for Inactive)
REMARK    1  A    between atoms: C3'_2  and  C2'_3 
REMARK    2  A    between atoms: C2'_3  and  C1'_4 
REMARK    3  A    between atoms: C1'_4  and  C1_5 
ROOT
ATOM      1  C1  N4B d   1      -3.697   0.859  -5.080  0.00  0.00    -0.075 A 
ATOM      2  C2  N4B d   1      -2.787  -0.219  -5.147  0.00  0.00     0.002 A 
ATOM      3  C3  N4B d   1      -3.152  -1.456  -4.676  0.00  0.00     0.002 A 
ATOM      4  C4  N4B d   1      -4.410  -1.635  -4.120  0.00  0.00    -0.004 A 
ATOM      5  C5  N4B d   1      -5.292  -0.595  -4.083  0.00  0.00     0.002 A 
ATOM      6  C6  N4B d   1      -4.940   0.653  -4.555  0.00  0.00     0.002 A 
ENDROOT
BRANCH   1   7
ATOM      7  C1' N4B d   1      -3.312   2.250  -5.503  0.00  0.00     0.057 C 
BRANCH   7   8
ATOM      8  C2' N4B d   1      -3.738   3.238  -4.421  0.00  0.00     0.009 C 
BRANCH   8   9
ATOM      9  C3' N4B d   1      -2.652   3.441  -3.379  0.00  0.00     0.004 C 
ATOM     10  C4' N4B d   1      -2.871   2.619  -2.144  0.00  0.00     0.003 C 
ENDBRANCH   8   9
ENDBRANCH   7   8
ENDBRANCH   1   7
TORSDOF 3
ENDMDL
