MODEL 1
REMARK minimizedAffinity -2.46655321
REMARK minimizedRMSD -1
REMARK  3 active torsions:
REMARK  status: ('A' for Active; 'I' for Inactive)
REMARK    1  A    between atoms: C3'_2  and  C2'_3 
REMARK    2  A    between atoms: C2'_3  and  C1'_4 
REMARK    3  A    between atoms: C1'_4  and  C1_5 
ROOT
ATOM      1  C1  N4B d   1      -3.709  -0.915  -3.577  0.00  0.00    -0.075 A 
ATOM      2  C2  N4B d   1      -5.049  -0.661  -3.945  0.00  0.00     0.002 A 
ATOM      3  C3  N4B d   1      -5.329  -0.072  -5.154  0.00  0.00     0.002 A 
ATOM      4  C4  N4B d   1      -4.290   0.287  -5.999  0.00  0.00    -0.004 A 
ATOM      5  C5  N4B d   1      -3.000   0.015  -5.647  0.00  0.00     0.002 A 
ATOM      6  C6  N4B d   1      -2.704  -0.580  -4.437  0.00  0.00     0.002 A 
ENDROOT
BRANCH   1   7
ATOM      7  C1' N4B d   1      -3.349  -1.479  -2.230  0.00  0.00     0.057 C 
BRANCH   7   8
ATOM      8  C2' N4B d   1      -2.681  -0.391  -1.394  0.00  0.00     0.009 C 
BRANCH   8   9
ATOM      9  C3' N4B d   1      -3.467   0.908  -1.421  0.00  0.00     0.004 C 
ATOM     10  C4' N4B d   1      -2.811   1.966  -2.257  0.00  0.00     0.003 C 
ENDBRANCH   8   9
ENDBRANCH   7   8
ENDBRANCH   1   7
TORSDOF 3
ENDMDL
