MODEL 1
REMARK minimizedAffinity -1.38201869
REMARK minimizedRMSD -1
REMARK  3 active torsions:
REMARK  status: ('A' for Active; 'I' for Inactive)
REMARK    1  A    between atoms: C3'_2  and  C2'_3 
REMARK    2  A    between atoms: C2'_3  and  C1'_4 
REMARK    3  A    between atoms: C1'_4  and  C1_5 
ROOT
ATOM      1  C1  N4B d   1      -3.413   2.511  -5.029  0.00  0.00    -0.075 A 
ATOM      2  C2  N4B d   1      -2.511   3.237  -5.839  0.00  0.00     0.002 A 
ATOM      3  C3  N4B d   1      -2.546   4.610  -5.846  0.00  0.00     0.002 A 
ATOM      4  C4  N4B d   1      -3.483   5.275  -5.069  0.00  0.00    -0.004 A 
ATOM      5  C5  N4B d   1      -4.333   4.568  -4.271  0.00  0.00     0.002 A 
ATOM      6  C6  N4B d   1      -4.306   3.188  -4.251  0.00  0.00     0.002 A 
ENDROOT
BRANCH   1   7
ATOM      7  C1' N4B d   1      -3.469   1.008  -5.053  0.00  0.00     0.057 C 
BRANCH   7   8
ATOM      8  C2' N4B d   1      -4.204   0.515  -3.811  0.00  0.00     0.009 C 
BRANCH   8   9
ATOM      9  C3' N4B d   1      -3.469  -0.629  -3.132  0.00  0.00     0.004 C 
ATOM     10  C4' N4B d   1      -4.389  -1.723  -2.681  0.00  0.00     0.003 C 
ENDBRANCH   8   9
ENDBRANCH   7   8
ENDBRANCH   1   7
TORSDOF 3
ENDMDL
