MODEL 1
REMARK minimizedAffinity -0.20010896
REMARK minimizedRMSD -1
REMARK  3 active torsions:
REMARK  status: ('A' for Active; 'I' for Inactive)
REMARK    1  A    between atoms: C3'_2  and  C2'_3 
REMARK    2  A    between atoms: C2'_3  and  C1'_4 
REMARK    3  A    between atoms: C1'_4  and  C1_5 
ROOT
ATOM      1  C1  N4B d   1      -4.011   0.766  -4.937  0.00  0.00    -0.075 A 
ATOM      2  C2  N4B d   1      -3.048   0.357  -5.886  0.00  0.00     0.002 A 
ATOM      3  C3  N4B d   1      -2.292  -0.766  -5.656  0.00  0.00     0.002 A 
ATOM      4  C4  N4B d   1      -2.466  -1.482  -4.481  0.00  0.00    -0.004 A 
ATOM      5  C5  N4B d   1      -3.415  -1.094  -3.581  0.00  0.00     0.002 A 
ATOM      6  C6  N4B d   1      -4.185   0.030  -3.801  0.00  0.00     0.002 A 
ENDROOT
BRANCH   1   7
ATOM      7  C1' N4B d   1      -4.801   2.035  -5.104  0.00  0.00     0.057 C 
BRANCH   7   8
ATOM      8  C2' N4B d   1      -4.081   3.172  -4.386  0.00  0.00     0.009 C 
BRANCH   8   9
ATOM      9  C3' N4B d   1      -4.731   4.518  -4.657  0.00  0.00     0.004 C 
ATOM     10  C4' N4B d   1      -6.000   4.401  -5.449  0.00  0.00     0.003 C 
ENDBRANCH   8   9
ENDBRANCH   7   8
ENDBRANCH   1   7
TORSDOF 3
ENDMDL
