MODEL 1
REMARK minimizedAffinity -4.26430178
REMARK minimizedRMSD -1
REMARK  0 active torsions:
REMARK  status: ('A' for Active; 'I' for Inactive)
ROOT
ATOM      1  C   UNL d   1      -1.245   0.220   3.305  0.00  0.00     0.023 A 
ATOM      2  C1  UNL d   1      -1.338   0.626   1.974  0.00  0.00     0.003 A 
ATOM      3  C2  UNL d   1      -0.250   0.462   1.114  0.00  0.00     0.048 A 
ATOM      4  C3  UNL d   1       0.928  -0.110   1.593  0.00  0.00     0.023 A 
ATOM      5  C4  UNL d   1       1.026  -0.519   2.924  0.00  0.00     0.048 A 
ATOM      6  C5  UNL d   1      -0.064  -0.352   3.779  0.00  0.00     0.003 A 
ATOM      7  I   UNL d   1       2.549  -0.356   0.315  0.00  0.00    -0.146 I 
ENDROOT
TORSDOF 0
ENDMDL
