MODEL 1
REMARK minimizedAffinity -2.02947998
REMARK minimizedRMSD -1
REMARK  0 active torsions:
REMARK  status: ('A' for Active; 'I' for Inactive)
ROOT
ATOM      1  C   UNL d   1      -1.568   0.137   0.664  0.00  0.00     0.023 A 
ATOM      2  C1  UNL d   1      -0.237  -0.272   0.574  0.00  0.00     0.003 A 
ATOM      3  C2  UNL d   1       0.485  -0.564   1.733  0.00  0.00     0.048 A 
ATOM      4  C3  UNL d   1      -0.131  -0.446   2.979  0.00  0.00     0.023 A 
ATOM      5  C4  UNL d   1      -1.462  -0.038   3.074  0.00  0.00     0.048 A 
ATOM      6  C5  UNL d   1      -2.180   0.254   1.912  0.00  0.00     0.003 A 
ATOM      7  I   UNL d   1       0.942  -0.881   4.705  0.00  0.00    -0.146 I 
ENDROOT
TORSDOF 0
ENDMDL
