MODEL 1
REMARK minimizedAffinity 1.73698497
REMARK minimizedRMSD -1
REMARK  0 active torsions:
REMARK  status: ('A' for Active; 'I' for Inactive)
ROOT
ATOM      1  C   UNL d   1      -2.124   0.089   3.468  0.00  0.00     0.023 A 
ATOM      2  C1  UNL d   1      -0.935  -0.634   3.570  0.00  0.00     0.003 A 
ATOM      3  C2  UNL d   1      -0.143  -0.840   2.438  0.00  0.00     0.048 A 
ATOM      4  C3  UNL d   1      -0.545  -0.319   1.209  0.00  0.00     0.023 A 
ATOM      5  C4  UNL d   1      -1.733   0.406   1.103  0.00  0.00     0.048 A 
ATOM      6  C5  UNL d   1      -2.522   0.608   2.237  0.00  0.00     0.003 A 
ATOM      7  I   UNL d   1       0.632  -0.624  -0.477  0.00  0.00    -0.146 I 
ENDROOT
TORSDOF 0
ENDMDL
