MODEL 1
REMARK minimizedAffinity -0.591526031
REMARK minimizedRMSD -1
REMARK  0 active torsions:
REMARK  status: ('A' for Active; 'I' for Inactive)
ROOT
ATOM      1  C   UNL d   1      -0.425   0.397   1.617  0.00  0.00     0.023 A 
ATOM      2  C1  UNL d   1      -0.426   0.434   0.222  0.00  0.00     0.003 A 
ATOM      3  C2  UNL d   1      -1.580   0.090  -0.486  0.00  0.00     0.048 A 
ATOM      4  C3  UNL d   1      -2.729  -0.289   0.207  0.00  0.00     0.023 A 
ATOM      5  C4  UNL d   1      -2.733  -0.327   1.603  0.00  0.00     0.048 A 
ATOM      6  C5  UNL d   1      -1.577   0.017   2.306  0.00  0.00     0.003 A 
ATOM      7  I   UNL d   1      -4.447  -0.802  -0.844  0.00  0.00    -0.146 I 
ENDROOT
TORSDOF 0
ENDMDL
