MODEL 1
REMARK minimizedAffinity -0.854028344
REMARK minimizedRMSD -1
REMARK  0 active torsions:
REMARK  status: ('A' for Active; 'I' for Inactive)
ROOT
ATOM      1  C   UNL d   1       4.523   0.947  -2.800  0.00  0.00     0.023 A 
ATOM      2  C1  UNL d   1       4.385   2.291  -2.454  0.00  0.00     0.003 A 
ATOM      3  C2  UNL d   1       3.875   2.643  -1.203  0.00  0.00     0.048 A 
ATOM      4  C3  UNL d   1       3.506   1.645  -0.302  0.00  0.00     0.023 A 
ATOM      5  C4  UNL d   1       3.643   0.299  -0.643  0.00  0.00     0.048 A 
ATOM      6  C5  UNL d   1       4.152  -0.048  -1.896  0.00  0.00     0.003 A 
ATOM      7  I   UNL d   1       2.747   2.166   1.562  0.00  0.00    -0.146 I 
ENDROOT
TORSDOF 0
ENDMDL
