MODEL 1
REMARK minimizedAffinity 5.69397688
REMARK minimizedRMSD -1
REMARK  0 active torsions:
REMARK  status: ('A' for Active; 'I' for Inactive)
ROOT
ATOM      1  C   UNL d   1      -2.249  -1.205  -1.122  0.00  0.00     0.023 A 
ATOM      2  C1  UNL d   1      -0.901  -1.123  -0.771  0.00  0.00     0.003 A 
ATOM      3  C2  UNL d   1      -0.463  -0.116   0.091  0.00  0.00     0.048 A 
ATOM      4  C3  UNL d   1      -1.379   0.806   0.598  0.00  0.00     0.023 A 
ATOM      5  C4  UNL d   1      -2.728   0.727   0.250  0.00  0.00     0.048 A 
ATOM      6  C5  UNL d   1      -3.161  -0.281  -0.613  0.00  0.00     0.003 A 
ATOM      7  I   UNL d   1      -0.729   2.307   1.882  0.00  0.00    -0.146 I 
ENDROOT
TORSDOF 0
ENDMDL
