MODEL 1
REMARK minimizedAffinity -1.42227209
REMARK minimizedRMSD -1
REMARK  0 active torsions:
REMARK  status: ('A' for Active; 'I' for Inactive)
ROOT
ATOM      1  C   UNL d   1      -1.844  -0.237   2.749  0.00  0.00     0.023 A 
ATOM      2  C1  UNL d   1      -0.659  -0.612   3.382  0.00  0.00     0.003 A 
ATOM      3  C2  UNL d   1       0.521  -0.729   2.646  0.00  0.00     0.048 A 
ATOM      4  C3  UNL d   1       0.510  -0.469   1.276  0.00  0.00     0.023 A 
ATOM      5  C4  UNL d   1      -0.673  -0.092   0.638  0.00  0.00     0.048 A 
ATOM      6  C5  UNL d   1      -1.851   0.023   1.378  0.00  0.00     0.003 A 
ATOM      7  I   UNL d   1       2.266  -0.642   0.177  0.00  0.00    -0.146 I 
ENDROOT
TORSDOF 0
ENDMDL
