MODEL 1
REMARK minimizedAffinity -1.67016327
REMARK minimizedRMSD -1
REMARK  0 active torsions:
REMARK  status: ('A' for Active; 'I' for Inactive)
ROOT
ATOM      1  C   UNL d   1      -1.849  -0.469   1.791  0.00  0.00     0.023 A 
ATOM      2  C1  UNL d   1      -0.805  -0.206   2.678  0.00  0.00     0.003 A 
ATOM      3  C2  UNL d   1       0.491  -0.014   2.195  0.00  0.00     0.048 A 
ATOM      4  C3  UNL d   1       0.736  -0.085   0.824  0.00  0.00     0.023 A 
ATOM      5  C4  UNL d   1      -0.306  -0.347  -0.067  0.00  0.00     0.048 A 
ATOM      6  C5  UNL d   1      -1.600  -0.539   0.421  0.00  0.00     0.003 A 
ATOM      7  I   UNL d   1       2.664   0.200   0.103  0.00  0.00    -0.146 I 
ENDROOT
TORSDOF 0
ENDMDL
