MODEL 1
REMARK minimizedAffinity -4.53273535
REMARK minimizedRMSD -1
REMARK  0 active torsions:
REMARK  status: ('A' for Active; 'I' for Inactive)
ROOT
ATOM      1  N1  IND d   1      -1.676   0.118   1.627  0.00  0.00    -0.196 N 
ATOM      2  C2  IND d   1      -1.046  -0.080   2.824  0.00  0.00     0.054 A 
ATOM      3  C3  IND d   1       0.253  -0.398   2.625  0.00  0.00    -0.031 A 
ATOM      4  C4  IND d   1       1.581  -0.551   0.424  0.00  0.00     0.051 A 
ATOM      5  C5  IND d   1       1.428  -0.490  -0.932  0.00  0.00    -0.031 A 
ATOM      6  C6  IND d   1       0.209  -0.215  -1.517  0.00  0.00     0.015 A 
ATOM      7  C7  IND d   1      -0.906   0.021  -0.763  0.00  0.00    -0.016 A 
ATOM      8  C8  IND d   1      -0.756  -0.047   0.615  0.00  0.00    -0.047 A 
ATOM      9  C9  IND d   1       0.469  -0.367   1.213  0.00  0.00    -0.096 A 
ATOM     10  HN1 IND d   1      -2.507   0.312   1.523  0.00  0.00     0.298 HD
ENDROOT
TORSDOF 0
ENDMDL
