MODEL 1
REMARK minimizedAffinity -2.5316577
REMARK minimizedRMSD -1
REMARK  0 active torsions:
REMARK  status: ('A' for Active; 'I' for Inactive)
ROOT
ATOM      1  N1  IND d   1      -2.755   0.306   0.891  0.00  0.00    -0.196 N 
ATOM      2  C2  IND d   1      -3.369   0.371   2.111  0.00  0.00     0.054 A 
ATOM      3  C3  IND d   1      -2.513  -0.001   3.089  0.00  0.00    -0.031 A 
ATOM      4  C4  IND d   1      -0.029  -0.657   2.926  0.00  0.00     0.051 A 
ATOM      5  C5  IND d   1       0.965  -0.897   2.019  0.00  0.00    -0.031 A 
ATOM      6  C6  IND d   1       0.766  -0.743   0.662  0.00  0.00     0.015 A 
ATOM      7  C7  IND d   1      -0.436  -0.330   0.160  0.00  0.00    -0.016 A 
ATOM      8  C8  IND d   1      -1.449  -0.092   1.078  0.00  0.00    -0.047 A 
ATOM      9  C9  IND d   1      -1.266  -0.287   2.453  0.00  0.00    -0.096 A 
ATOM     10  HN1 IND d   1      -3.122   0.483   0.134  0.00  0.00     0.298 HD
ENDROOT
TORSDOF 0
ENDMDL
