MODEL 1
REMARK minimizedAffinity -0.364347458
REMARK minimizedRMSD -1
REMARK  0 active torsions:
REMARK  status: ('A' for Active; 'I' for Inactive)
ROOT
ATOM      1  N1  IND d   1      -0.738   0.205   2.440  0.00  0.00    -0.196 N 
ATOM      2  C2  IND d   1       0.549   0.107   2.889  0.00  0.00     0.054 A 
ATOM      3  C3  IND d   1       1.410   0.086   1.847  0.00  0.00    -0.031 A 
ATOM      4  C4  IND d   1       0.933   0.304  -0.673  0.00  0.00     0.051 A 
ATOM      5  C5  IND d   1      -0.094   0.379  -1.573  0.00  0.00    -0.031 A 
ATOM      6  C6  IND d   1      -1.414   0.402  -1.172  0.00  0.00     0.015 A 
ATOM      7  C7  IND d   1      -1.758   0.364   0.149  0.00  0.00    -0.016 A 
ATOM      8  C8  IND d   1      -0.719   0.281   1.065  0.00  0.00    -0.047 A 
ATOM      9  C9  IND d   1       0.621   0.214   0.663  0.00  0.00    -0.096 A 
ATOM     10  HN1 IND d   1      -1.442   0.218   2.934  0.00  0.00     0.298 HD
ENDROOT
TORSDOF 0
ENDMDL
