MODEL 1
REMARK minimizedAffinity -3.63327265
REMARK minimizedRMSD -1
REMARK  0 active torsions:
REMARK  status: ('A' for Active; 'I' for Inactive)
ROOT
ATOM      1  N1  IND d   1       0.044   0.160   0.261  0.00  0.00    -0.196 N 
ATOM      2  C2  IND d   1       0.842  -0.533   1.127  0.00  0.00     0.054 A 
ATOM      3  C3  IND d   1       1.650  -1.378   0.448  0.00  0.00    -0.031 A 
ATOM      4  C4  IND d   1       1.902  -1.713  -2.092  0.00  0.00     0.051 A 
ATOM      5  C5  IND d   1       1.362  -1.330  -3.288  0.00  0.00    -0.031 A 
ATOM      6  C6  IND d   1       0.336  -0.410  -3.363  0.00  0.00     0.015 A 
ATOM      7  C7  IND d   1      -0.183   0.172  -2.241  0.00  0.00    -0.016 A 
ATOM      8  C8  IND d   1       0.358  -0.220  -1.025  0.00  0.00    -0.047 A 
ATOM      9  C9  IND d   1       1.371  -1.184  -0.939  0.00  0.00    -0.096 A 
ATOM     10  HN1 IND d   1      -0.554   0.737   0.483  0.00  0.00     0.298 HD
ENDROOT
TORSDOF 0
ENDMDL
