MODEL 1
REMARK minimizedAffinity -2.06351805
REMARK minimizedRMSD -1
REMARK  0 active torsions:
REMARK  status: ('A' for Active; 'I' for Inactive)
ROOT
ATOM      1  N1  IND d   1      -0.630   0.212   2.254  0.00  0.00    -0.196 N 
ATOM      2  C2  IND d   1       0.616  -0.230   2.600  0.00  0.00     0.054 A 
ATOM      3  C3  IND d   1       1.376  -0.406   1.496  0.00  0.00    -0.031 A 
ATOM      4  C4  IND d   1       0.810   0.065  -0.971  0.00  0.00     0.051 A 
ATOM      5  C5  IND d   1      -0.219   0.443  -1.787  0.00  0.00    -0.031 A 
ATOM      6  C6  IND d   1      -1.462   0.773  -1.287  0.00  0.00     0.015 A 
ATOM      7  C7  IND d   1      -1.720   0.747   0.054  0.00  0.00    -0.016 A 
ATOM      8  C8  IND d   1      -0.680   0.357   0.885  0.00  0.00    -0.047 A 
ATOM      9  C9  IND d   1       0.572  -0.020   0.380  0.00  0.00    -0.096 A 
ATOM     10  HN1 IND d   1      -1.275   0.371   2.800  0.00  0.00     0.298 HD
ENDROOT
TORSDOF 0
ENDMDL
