MODEL 1
REMARK minimizedAffinity -2.05425334
REMARK minimizedRMSD -1
REMARK  0 active torsions:
REMARK  status: ('A' for Active; 'I' for Inactive)
ROOT
ATOM      1  N1  IND d   1      -0.343  -1.317  -0.752  0.00  0.00    -0.196 N 
ATOM      2  C2  IND d   1      -0.145  -0.153  -0.062  0.00  0.00     0.054 A 
ATOM      3  C3  IND d   1       0.667   0.674  -0.758  0.00  0.00    -0.031 A 
ATOM      4  C4  IND d   1       1.703   0.365  -3.094  0.00  0.00     0.051 A 
ATOM      5  C5  IND d   1       1.837  -0.550  -4.101  0.00  0.00    -0.031 A 
ATOM      6  C6  IND d   1       1.237  -1.791  -4.042  0.00  0.00     0.015 A 
ATOM      7  C7  IND d   1       0.468  -2.161  -2.975  0.00  0.00    -0.016 A 
ATOM      8  C8  IND d   1       0.335  -1.237  -1.948  0.00  0.00    -0.047 A 
ATOM      9  C9  IND d   1       0.976   0.008  -1.983  0.00  0.00    -0.096 A 
ATOM     10  HN1 IND d   1      -0.812  -1.986  -0.483  0.00  0.00     0.298 HD
ENDROOT
TORSDOF 0
ENDMDL
