MODEL 1
REMARK minimizedAffinity -1.30508792
REMARK minimizedRMSD -1
REMARK  0 active torsions:
REMARK  status: ('A' for Active; 'I' for Inactive)
ROOT
ATOM      1  N1  IND d   1      -0.552   0.179   2.125  0.00  0.00    -0.196 N 
ATOM      2  C2  IND d   1       0.709  -0.159   2.530  0.00  0.00     0.054 A 
ATOM      3  C3  IND d   1       1.520  -0.320   1.461  0.00  0.00    -0.031 A 
ATOM      4  C4  IND d   1       1.015   0.022  -1.041  0.00  0.00     0.051 A 
ATOM      5  C5  IND d   1      -0.006   0.297  -1.905  0.00  0.00    -0.031 A 
ATOM      6  C6  IND d   1      -1.288   0.555  -1.462  0.00  0.00     0.015 A 
ATOM      7  C7  IND d   1      -1.593   0.558  -0.131  0.00  0.00    -0.016 A 
ATOM      8  C8  IND d   1      -0.560   0.273   0.750  0.00  0.00    -0.047 A 
ATOM      9  C9  IND d   1       0.733  -0.031   0.304  0.00  0.00    -0.096 A 
ATOM     10  HN1 IND d   1      -1.226   0.312   2.641  0.00  0.00     0.298 HD
ENDROOT
TORSDOF 0
ENDMDL
