MODEL 1
REMARK minimizedAffinity -2.75440478
REMARK minimizedRMSD -1
REMARK  0 active torsions:
REMARK  status: ('A' for Active; 'I' for Inactive)
ROOT
ATOM      1  N1  IND d   1      -1.156  -1.005   2.579  0.00  0.00    -0.196 N 
ATOM      2  C2  IND d   1      -0.552  -0.378   3.633  0.00  0.00     0.054 A 
ATOM      3  C3  IND d   1       0.439   0.430   3.195  0.00  0.00    -0.031 A 
ATOM      4  C4  IND d   1       1.177   0.953   0.784  0.00  0.00     0.051 A 
ATOM      5  C5  IND d   1       0.947   0.594  -0.514  0.00  0.00    -0.031 A 
ATOM      6  C6  IND d   1      -0.016  -0.333  -0.855  0.00  0.00     0.015 A 
ATOM      7  C7  IND d   1      -0.798  -0.930   0.093  0.00  0.00    -0.016 A 
ATOM      8  C8  IND d   1      -0.563  -0.573   1.414  0.00  0.00    -0.047 A 
ATOM      9  C9  IND d   1       0.443   0.335   1.769  0.00  0.00    -0.096 A 
ATOM     10  HN1 IND d   1      -1.799  -1.574   2.635  0.00  0.00     0.298 HD
ENDROOT
TORSDOF 0
ENDMDL
