MODEL 1
REMARK minimizedAffinity -1.69488692
REMARK minimizedRMSD -1
REMARK  0 active torsions:
REMARK  status: ('A' for Active; 'I' for Inactive)
ROOT
ATOM      1  N1  IND d   1      -1.219  -0.948  -1.633  0.00  0.00    -0.196 N 
ATOM      2  C2  IND d   1      -0.933   0.243  -1.025  0.00  0.00     0.054 A 
ATOM      3  C3  IND d   1       0.236   0.739  -1.490  0.00  0.00    -0.031 A 
ATOM      4  C4  IND d   1       1.792  -0.186  -3.320  0.00  0.00     0.051 A 
ATOM      5  C5  IND d   1       1.970  -1.266  -4.139  0.00  0.00    -0.031 A 
ATOM      6  C6  IND d   1       1.073  -2.315  -4.167  0.00  0.00     0.015 A 
ATOM      7  C7  IND d   1      -0.045  -2.317  -3.382  0.00  0.00    -0.016 A 
ATOM      8  C8  IND d   1      -0.224  -1.226  -2.544  0.00  0.00    -0.047 A 
ATOM      9  C9  IND d   1       0.704  -0.179  -2.480  0.00  0.00    -0.096 A 
ATOM     10  HN1 IND d   1      -1.906  -1.440  -1.473  0.00  0.00     0.298 HD
ENDROOT
TORSDOF 0
ENDMDL
