MODEL 1
REMARK minimizedAffinity -2.13957572
REMARK minimizedRMSD -1
REMARK  0 active torsions:
REMARK  status: ('A' for Active; 'I' for Inactive)
ROOT
ATOM      1  N1  IND d   1      -0.376  -1.043  -0.351  0.00  0.00    -0.196 N 
ATOM      2  C2  IND d   1       0.023   0.020   0.410  0.00  0.00     0.054 A 
ATOM      3  C3  IND d   1       0.940   0.758  -0.257  0.00  0.00    -0.031 A 
ATOM      4  C4  IND d   1       1.854   0.462  -2.645  0.00  0.00     0.051 A 
ATOM      5  C5  IND d   1       1.814  -0.386  -3.717  0.00  0.00    -0.031 A 
ATOM      6  C6  IND d   1       1.023  -1.517  -3.722  0.00  0.00     0.015 A 
ATOM      7  C7  IND d   1       0.232  -1.838  -2.656  0.00  0.00    -0.016 A 
ATOM      8  C8  IND d   1       0.275  -0.984  -1.564  0.00  0.00    -0.047 A 
ATOM      9  C9  IND d   1       1.107   0.143  -1.535  0.00  0.00    -0.096 A 
ATOM     10  HN1 IND d   1      -0.940  -1.647  -0.113  0.00  0.00     0.298 HD
ENDROOT
TORSDOF 0
ENDMDL
