MODEL 1
REMARK minimizedAffinity -5.10862303
REMARK minimizedRMSD -1
REMARK  0 active torsions:
REMARK  status: ('A' for Active; 'I' for Inactive)
ROOT
ATOM      1  N1  IND d   1       0.176  -1.199  -0.690  0.00  0.00    -0.196 N 
ATOM      2  C2  IND d   1       0.525   0.059  -1.096  0.00  0.00     0.054 A 
ATOM      3  C3  IND d   1       0.432   0.929  -0.066  0.00  0.00    -0.031 A 
ATOM      4  C4  IND d   1      -0.176   0.490   2.396  0.00  0.00     0.051 A 
ATOM      5  C5  IND d   1      -0.608  -0.495   3.240  0.00  0.00    -0.031 A 
ATOM      6  C6  IND d   1      -0.801  -1.791   2.809  0.00  0.00     0.015 A 
ATOM      7  C7  IND d   1      -0.558  -2.155   1.515  0.00  0.00    -0.016 A 
ATOM      8  C8  IND d   1      -0.127  -1.157   0.654  0.00  0.00    -0.047 A 
ATOM      9  C9  IND d   1       0.030   0.170   1.075  0.00  0.00    -0.096 A 
ATOM     10  HN1 IND d   1       0.150  -1.899  -1.189  0.00  0.00     0.298 HD
ENDROOT
TORSDOF 0
ENDMDL
