MODEL 1
REMARK minimizedAffinity -4.25130463
REMARK minimizedRMSD -1
REMARK  0 active torsions:
REMARK  status: ('A' for Active; 'I' for Inactive)
ROOT
ATOM      1  N1  IND d   1       0.591  -1.811  -3.223  0.00  0.00    -0.196 N 
ATOM      2  C2  IND d   1       0.543  -0.918  -4.257  0.00  0.00     0.054 A 
ATOM      3  C3  IND d   1       0.429   0.343  -3.784  0.00  0.00    -0.031 A 
ATOM      4  C4  IND d   1       0.407   1.182  -1.350  0.00  0.00     0.051 A 
ATOM      5  C5  IND d   1       0.391   0.738  -0.058  0.00  0.00    -0.031 A 
ATOM      6  C6  IND d   1       0.444  -0.606   0.252  0.00  0.00     0.015 A 
ATOM      7  C7  IND d   1       0.528  -1.559  -0.723  0.00  0.00    -0.016 A 
ATOM      8  C8  IND d   1       0.538  -1.112  -2.037  0.00  0.00    -0.047 A 
ATOM      9  C9  IND d   1       0.440   0.248  -2.359  0.00  0.00    -0.096 A 
ATOM     10  HN1 IND d   1       0.646  -2.666  -3.300  0.00  0.00     0.298 HD
ENDROOT
TORSDOF 0
ENDMDL
