MODEL 1
REMARK minimizedAffinity -0.407614172
REMARK minimizedRMSD -1
REMARK  0 active torsions:
REMARK  status: ('A' for Active; 'I' for Inactive)
ROOT
ATOM      1  N1  IND d   1      -1.649   0.494   2.544  0.00  0.00    -0.196 N 
ATOM      2  C2  IND d   1      -0.830   0.080   3.557  0.00  0.00     0.054 A 
ATOM      3  C3  IND d   1       0.360  -0.328   3.063  0.00  0.00    -0.031 A 
ATOM      4  C4  IND d   1       1.217  -0.308   0.636  0.00  0.00     0.051 A 
ATOM      5  C5  IND d   1       0.817  -0.052  -0.646  0.00  0.00    -0.031 A 
ATOM      6  C6  IND d   1      -0.450   0.412  -0.935  0.00  0.00     0.015 A 
ATOM      7  C7  IND d   1      -1.365   0.648   0.052  0.00  0.00    -0.016 A 
ATOM      8  C8  IND d   1      -0.965   0.382   1.354  0.00  0.00    -0.047 A 
ATOM      9  C9  IND d   1       0.306  -0.129   1.650  0.00  0.00    -0.096 A 
ATOM     10  HN1 IND d   1      -2.456   0.777   2.635  0.00  0.00     0.298 HD
ENDROOT
TORSDOF 0
ENDMDL
