MODEL 1
REMARK minimizedAffinity -3.73349786
REMARK minimizedRMSD -1
REMARK  0 active torsions:
REMARK  status: ('A' for Active; 'I' for Inactive)
ROOT
ATOM      1  N1  IND d   1      -0.965   0.372   1.724  0.00  0.00    -0.196 N 
ATOM      2  C2  IND d   1      -0.457   0.056   2.954  0.00  0.00     0.054 A 
ATOM      3  C3  IND d   1       0.678  -0.667   2.822  0.00  0.00    -0.031 A 
ATOM      4  C4  IND d   1       1.939  -1.357   0.687  0.00  0.00     0.051 A 
ATOM      5  C5  IND d   1       1.844  -1.330  -0.677  0.00  0.00    -0.031 A 
ATOM      6  C6  IND d   1       0.789  -0.719  -1.322  0.00  0.00     0.015 A 
ATOM      7  C7  IND d   1      -0.210  -0.100  -0.625  0.00  0.00    -0.016 A 
ATOM      8  C8  IND d   1      -0.121  -0.132   0.759  0.00  0.00    -0.047 A 
ATOM      9  C9  IND d   1       0.925  -0.787   1.420  0.00  0.00    -0.096 A 
ATOM     10  HN1 IND d   1      -1.689   0.812   1.579  0.00  0.00     0.298 HD
ENDROOT
TORSDOF 0
ENDMDL
