MODEL 1
REMARK minimizedAffinity 1.399997
REMARK minimizedRMSD -1
REMARK  1 active torsions:
REMARK  status: ('A' for Active; 'I' for Inactive)
REMARK    1  A    between atoms: C1_2  and  C2_3 
ROOT
ATOM      1  C2  UNL d   1      -2.701   1.347  -3.593  0.00  0.00    -0.081 A 
ATOM      2  C3  UNL d   1      -1.463   1.182  -2.958  0.00  0.00     0.006 A 
ATOM      3  C4  UNL d   1      -0.430   2.098  -3.173  0.00  0.00     0.002 A 
ATOM      4  C5  UNL d   1      -0.620   3.197  -4.017  0.00  0.00    -0.080 A 
ATOM      5  C6  UNL d   1       0.471   4.204  -4.232  0.00  0.00     0.076 C 
ATOM      6  C7  UNL d   1      -1.850   3.352  -4.665  0.00  0.00     0.002 A 
ATOM      7  C8  UNL d   1      -2.883   2.437  -4.452  0.00  0.00     0.006 A 
ENDROOT
BRANCH   1   8
ATOM      8  C1  UNL d   1      -3.838   0.397  -3.313  0.00  0.00     0.054 C 
ATOM      9  C   UNL d   1      -4.600   0.801  -2.060  0.00  0.00     0.018 C 
ENDBRANCH   1   8
TORSDOF 1
ENDMDL
