MODEL 1
REMARK minimizedAffinity -1.15122116
REMARK minimizedRMSD -1
REMARK  1 active torsions:
REMARK  status: ('A' for Active; 'I' for Inactive)
REMARK    1  A    between atoms: C1_2  and  C2_3 
ROOT
ATOM      1  C2  UNL d   1      -0.785  -5.777  -3.233  0.00  0.00    -0.081 A 
ATOM      2  C3  UNL d   1      -1.029  -5.541  -4.591  0.00  0.00     0.006 A 
ATOM      3  C4  UNL d   1       0.033  -5.395  -5.486  0.00  0.00     0.002 A 
ATOM      4  C5  UNL d   1       1.355  -5.491  -5.040  0.00  0.00    -0.080 A 
ATOM      5  C6  UNL d   1       2.505  -5.366  -5.996  0.00  0.00     0.076 C 
ATOM      6  C7  UNL d   1       1.599  -5.708  -3.680  0.00  0.00     0.002 A 
ATOM      7  C8  UNL d   1       0.538  -5.854  -2.784  0.00  0.00     0.006 A 
ENDROOT
BRANCH   1   8
ATOM      8  C1  UNL d   1      -1.929  -5.998  -2.276  0.00  0.00     0.054 C 
ATOM      9  C   UNL d   1      -3.272  -5.864  -2.979  0.00  0.00     0.018 C 
ENDBRANCH   1   8
TORSDOF 1
ENDMDL
