MODEL 1
REMARK minimizedAffinity 7.15559816
REMARK minimizedRMSD -1
REMARK  1 active torsions:
REMARK  status: ('A' for Active; 'I' for Inactive)
REMARK    1  A    between atoms: C1_2  and  C2_3 
ROOT
ATOM      1  C2  UNL d   1       1.006  -0.569   0.244  0.00  0.00    -0.081 A 
ATOM      2  C3  UNL d   1      -0.163  -0.062   0.825  0.00  0.00     0.006 A 
ATOM      3  C4  UNL d   1      -1.331  -0.828   0.852  0.00  0.00     0.002 A 
ATOM      4  C5  UNL d   1      -1.347  -2.117   0.307  0.00  0.00    -0.080 A 
ATOM      5  C6  UNL d   1      -2.585  -2.962   0.356  0.00  0.00     0.076 C 
ATOM      6  C7  UNL d   1      -0.184  -2.617  -0.289  0.00  0.00     0.002 A 
ATOM      7  C8  UNL d   1       0.983  -1.851  -0.317  0.00  0.00     0.006 A 
ENDROOT
BRANCH   1   8
ATOM      8  C1  UNL d   1       2.284   0.229   0.271  0.00  0.00     0.054 C 
ATOM      9  C   UNL d   1       3.375  -0.498   1.044  0.00  0.00     0.018 C 
ENDBRANCH   1   8
TORSDOF 1
ENDMDL
