MODEL 1
REMARK minimizedAffinity -3.35101795
REMARK minimizedRMSD -1
REMARK  1 active torsions:
REMARK  status: ('A' for Active; 'I' for Inactive)
REMARK    1  A    between atoms: C1_2  and  C2_3 
ROOT
ATOM      1  C2  UNL d   1      -1.366  -5.688  -4.392  0.00  0.00    -0.081 A 
ATOM      2  C3  UNL d   1      -2.698  -5.917  -4.026  0.00  0.00     0.006 A 
ATOM      3  C4  UNL d   1      -3.058  -6.000  -2.679  0.00  0.00     0.002 A 
ATOM      4  C5  UNL d   1      -2.095  -5.848  -1.676  0.00  0.00    -0.080 A 
ATOM      5  C6  UNL d   1      -2.473  -5.904  -0.226  0.00  0.00     0.076 C 
ATOM      6  C7  UNL d   1      -0.761  -5.637  -2.041  0.00  0.00     0.002 A 
ATOM      7  C8  UNL d   1      -0.400  -5.554  -3.388  0.00  0.00     0.006 A 
ENDROOT
BRANCH   1   8
ATOM      8  C1  UNL d   1      -0.985  -5.533  -5.842  0.00  0.00     0.054 C 
ATOM      9  C   UNL d   1       0.505  -5.267  -5.997  0.00  0.00     0.018 C 
ENDBRANCH   1   8
TORSDOF 1
ENDMDL
