MODEL 1
REMARK minimizedAffinity -1.22076082
REMARK minimizedRMSD -1
REMARK  1 active torsions:
REMARK  status: ('A' for Active; 'I' for Inactive)
REMARK    1  A    between atoms: C1_2  and  C2_3 
ROOT
ATOM      1  C2  UNL d   1      -0.909  -5.892  -4.122  0.00  0.00    -0.081 A 
ATOM      2  C3  UNL d   1      -1.148  -5.932  -2.743  0.00  0.00     0.006 A 
ATOM      3  C4  UNL d   1      -2.455  -5.955  -2.251  0.00  0.00     0.002 A 
ATOM      4  C5  UNL d   1      -3.544  -5.945  -3.129  0.00  0.00    -0.080 A 
ATOM      5  C6  UNL d   1      -4.952  -6.000  -2.615  0.00  0.00     0.076 C 
ATOM      6  C7  UNL d   1      -3.305  -5.887  -4.506  0.00  0.00     0.002 A 
ATOM      7  C8  UNL d   1      -1.999  -5.864  -4.999  0.00  0.00     0.006 A 
ENDROOT
BRANCH   1   8
ATOM      8  C1  UNL d   1       0.500  -5.933  -4.657  0.00  0.00     0.054 C 
ATOM      9  C   UNL d   1       0.712  -4.883  -5.738  0.00  0.00     0.018 C 
ENDBRANCH   1   8
TORSDOF 1
ENDMDL
