MODEL 1
REMARK minimizedAffinity 6.31053734
REMARK minimizedRMSD -1
REMARK  1 active torsions:
REMARK  status: ('A' for Active; 'I' for Inactive)
REMARK    1  A    between atoms: C1_2  and  C2_3 
ROOT
ATOM      1  C2  UNL d   1      -1.781  -5.294  -2.572  0.00  0.00    -0.081 A 
ATOM      2  C3  UNL d   1      -2.242  -5.895  -3.750  0.00  0.00     0.006 A 
ATOM      3  C4  UNL d   1      -1.407  -5.999  -4.866  0.00  0.00     0.002 A 
ATOM      4  C5  UNL d   1      -0.097  -5.511  -4.820  0.00  0.00    -0.080 A 
ATOM      5  C6  UNL d   1       0.819  -5.643  -6.000  0.00  0.00     0.076 C 
ATOM      6  C7  UNL d   1       0.358  -4.895  -3.649  0.00  0.00     0.002 A 
ATOM      7  C8  UNL d   1      -0.476  -4.790  -2.533  0.00  0.00     0.006 A 
ENDROOT
BRANCH   1   8
ATOM      8  C1  UNL d   1      -2.657  -5.239  -1.347  0.00  0.00     0.054 C 
ATOM      9  C   UNL d   1      -1.872  -4.779  -0.126  0.00  0.00     0.018 C 
ENDBRANCH   1   8
TORSDOF 1
ENDMDL
