MODEL 1
REMARK minimizedAffinity 4.75167036
REMARK minimizedRMSD -1
REMARK  1 active torsions:
REMARK  status: ('A' for Active; 'I' for Inactive)
REMARK    1  A    between atoms: C1_2  and  C2_3 
ROOT
ATOM      1  C2  UNL d   1      -1.245  -4.125   0.871  0.00  0.00    -0.081 A 
ATOM      2  C3  UNL d   1      -1.436  -4.387   2.233  0.00  0.00     0.006 A 
ATOM      3  C4  UNL d   1      -2.617  -4.982   2.681  0.00  0.00     0.002 A 
ATOM      4  C5  UNL d   1      -3.624  -5.332   1.774  0.00  0.00    -0.080 A 
ATOM      5  C6  UNL d   1      -4.884  -6.000   2.238  0.00  0.00     0.076 C 
ATOM      6  C7  UNL d   1      -3.440  -5.054   0.415  0.00  0.00     0.002 A 
ATOM      7  C8  UNL d   1      -2.259  -4.458  -0.033  0.00  0.00     0.006 A 
ENDROOT
BRANCH   1   8
ATOM      8  C1  UNL d   1       0.055  -3.542   0.377  0.00  0.00     0.054 C 
ATOM      9  C   UNL d   1       0.362  -2.217   1.060  0.00  0.00     0.018 C 
ENDBRANCH   1   8
TORSDOF 1
ENDMDL
