MODEL 1
REMARK minimizedAffinity 0.932587922
REMARK minimizedRMSD -1
REMARK  1 active torsions:
REMARK  status: ('A' for Active; 'I' for Inactive)
REMARK    1  A    between atoms: C1_2  and  C2_3 
ROOT
ATOM      1  C2  UNL d   1      -2.282  -5.661  -4.020  0.00  0.00    -0.081 A 
ATOM      2  C3  UNL d   1      -1.175  -5.182  -3.309  0.00  0.00     0.006 A 
ATOM      3  C4  UNL d   1       0.063  -5.037  -3.940  0.00  0.00     0.002 A 
ATOM      4  C5  UNL d   1       0.212  -5.359  -5.293  0.00  0.00    -0.080 A 
ATOM      5  C6  UNL d   1       1.528  -5.178  -5.989  0.00  0.00     0.076 C 
ATOM      6  C7  UNL d   1      -0.890  -5.853  -5.999  0.00  0.00     0.002 A 
ATOM      7  C8  UNL d   1      -2.127  -6.000  -5.369  0.00  0.00     0.006 A 
ENDROOT
BRANCH   1   8
ATOM      8  C1  UNL d   1      -3.634  -5.758  -3.360  0.00  0.00     0.054 C 
ATOM      9  C   UNL d   1      -4.734  -5.999  -4.384  0.00  0.00     0.018 C 
ENDBRANCH   1   8
TORSDOF 1
ENDMDL
