MODEL 1
REMARK minimizedAffinity 4.87703085
REMARK minimizedRMSD -1
REMARK  1 active torsions:
REMARK  status: ('A' for Active; 'I' for Inactive)
REMARK    1  A    between atoms: C1_2  and  C2_3 
ROOT
ATOM      1  C2  UNL d   1      -0.587  -1.215  -0.295  0.00  0.00    -0.081 A 
ATOM      2  C3  UNL d   1      -1.984  -1.147  -0.239  0.00  0.00     0.006 A 
ATOM      3  C4  UNL d   1      -2.731  -2.254   0.173  0.00  0.00     0.002 A 
ATOM      4  C5  UNL d   1      -2.093  -3.443   0.543  0.00  0.00    -0.080 A 
ATOM      5  C6  UNL d   1      -2.880  -4.628   1.017  0.00  0.00     0.076 C 
ATOM      6  C7  UNL d   1      -0.697  -3.516   0.471  0.00  0.00     0.002 A 
ATOM      7  C8  UNL d   1       0.049  -2.410   0.058  0.00  0.00     0.006 A 
ENDROOT
BRANCH   1   8
ATOM      8  C1  UNL d   1       0.224  -0.003  -0.677  0.00  0.00     0.054 C 
ATOM      9  C   UNL d   1       1.322   0.272   0.341  0.00  0.00     0.018 C 
ENDBRANCH   1   8
TORSDOF 1
ENDMDL
