MODEL 1
REMARK minimizedAffinity 4.04931736
REMARK minimizedRMSD -1
REMARK  1 active torsions:
REMARK  status: ('A' for Active; 'I' for Inactive)
REMARK    1  A    between atoms: C1_2  and  C2_3 
ROOT
ATOM      1  C2  UNL d   1       1.208  -1.134   1.122  0.00  0.00    -0.081 A 
ATOM      2  C3  UNL d   1       2.334  -0.786   0.366  0.00  0.00     0.006 A 
ATOM      3  C4  UNL d   1       3.590  -0.688   0.970  0.00  0.00     0.002 A 
ATOM      4  C5  UNL d   1       3.742  -0.945   2.337  0.00  0.00    -0.080 A 
ATOM      5  C6  UNL d   1       5.090  -0.873   2.992  0.00  0.00     0.076 C 
ATOM      6  C7  UNL d   1       2.614  -1.276   3.096  0.00  0.00     0.002 A 
ATOM      7  C8  UNL d   1       1.358  -1.373   2.493  0.00  0.00     0.006 A 
ENDROOT
BRANCH   1   8
ATOM      8  C1  UNL d   1      -0.137  -1.304   0.462  0.00  0.00     0.054 C 
ATOM      9  C   UNL d   1      -0.431  -2.769   0.173  0.00  0.00     0.018 C 
ENDBRANCH   1   8
TORSDOF 1
ENDMDL
