MODEL 1
REMARK minimizedAffinity -5.04104757
REMARK minimizedRMSD -1
REMARK  0 active torsions:
REMARK  status: ('A' for Active; 'I' for Inactive)
ROOT
ATOM      1  C   UNL d   1       0.744  -2.378   2.250  0.00  0.00     0.023 A 
ATOM      2  C1  UNL d   1       1.380  -2.079   1.045  0.00  0.00     0.003 A 
ATOM      3  C2  UNL d   1       0.836  -1.123   0.185  0.00  0.00     0.048 A 
ATOM      4  C3  UNL d   1      -0.344  -0.468   0.537  0.00  0.00     0.023 A 
ATOM      5  C4  UNL d   1      -0.984  -0.764   1.742  0.00  0.00     0.048 A 
ATOM      6  C5  UNL d   1      -0.436  -1.722   2.598  0.00  0.00     0.003 A 
ATOM      7  I   UNL d   1      -1.156   0.956  -0.740  0.00  0.00    -0.146 I 
ENDROOT
TORSDOF 0
ENDMDL
