MODEL 1
REMARK minimizedAffinity -1.88794661
REMARK minimizedRMSD -1
REMARK  0 active torsions:
REMARK  status: ('A' for Active; 'I' for Inactive)
ROOT
ATOM      1  C   UNL d   1      -2.386   2.609  -2.672  0.00  0.00     0.023 A 
ATOM      2  C1  UNL d   1      -2.984   1.475  -2.124  0.00  0.00     0.003 A 
ATOM      3  C2  UNL d   1      -2.248   0.628  -1.293  0.00  0.00     0.048 A 
ATOM      4  C3  UNL d   1      -0.914   0.922  -1.013  0.00  0.00     0.023 A 
ATOM      5  C4  UNL d   1      -0.311   2.057  -1.558  0.00  0.00     0.048 A 
ATOM      6  C5  UNL d   1      -1.051   2.900  -2.390  0.00  0.00     0.003 A 
ATOM      7  I   UNL d   1       0.184  -0.336   0.224  0.00  0.00    -0.146 I 
ENDROOT
TORSDOF 0
ENDMDL
