MODEL 1
REMARK minimizedAffinity -2.62687874
REMARK minimizedRMSD -1
REMARK  0 active torsions:
REMARK  status: ('A' for Active; 'I' for Inactive)
ROOT
ATOM      1  C   UNL d   1       2.063  -2.525   1.195  0.00  0.00     0.023 A 
ATOM      2  C1  UNL d   1       2.618  -1.396   0.591  0.00  0.00     0.003 A 
ATOM      3  C2  UNL d   1       1.788  -0.395   0.083  0.00  0.00     0.048 A 
ATOM      4  C3  UNL d   1       0.403  -0.528   0.183  0.00  0.00     0.023 A 
ATOM      5  C4  UNL d   1      -0.156  -1.655   0.787  0.00  0.00     0.048 A 
ATOM      6  C5  UNL d   1       0.678  -2.654   1.292  0.00  0.00     0.003 A 
ATOM      7  I   UNL d   1      -0.835   0.961  -0.572  0.00  0.00    -0.146 I 
ENDROOT
TORSDOF 0
ENDMDL
