MODEL 1
REMARK minimizedAffinity -3.57487416
REMARK minimizedRMSD -1
REMARK  0 active torsions:
REMARK  status: ('A' for Active; 'I' for Inactive)
ROOT
ATOM      1  C   UNL d   1       1.526  -2.906   1.134  0.00  0.00     0.023 A 
ATOM      2  C1  UNL d   1       2.215  -1.918   0.431  0.00  0.00     0.003 A 
ATOM      3  C2  UNL d   1       1.566  -0.738   0.065  0.00  0.00     0.048 A 
ATOM      4  C3  UNL d   1       0.227  -0.551   0.406  0.00  0.00     0.023 A 
ATOM      5  C4  UNL d   1      -0.467  -1.536   1.111  0.00  0.00     0.048 A 
ATOM      6  C5  UNL d   1       0.186  -2.715   1.474  0.00  0.00     0.003 A 
ATOM      7  I   UNL d   1      -0.742   1.206  -0.137  0.00  0.00    -0.146 I 
ENDROOT
TORSDOF 0
ENDMDL
