MODEL 1
REMARK minimizedAffinity -4.77088785
REMARK minimizedRMSD -1
REMARK  0 active torsions:
REMARK  status: ('A' for Active; 'I' for Inactive)
ROOT
ATOM      1  C   UNL d   1       1.147  -2.904   2.500  0.00  0.00     0.023 A 
ATOM      2  C1  UNL d   1       1.638  -2.470   1.268  0.00  0.00     0.003 A 
ATOM      3  C2  UNL d   1       0.987  -1.445   0.578  0.00  0.00     0.048 A 
ATOM      4  C3  UNL d   1      -0.152  -0.857   1.126  0.00  0.00     0.023 A 
ATOM      5  C4  UNL d   1      -0.646  -1.287   2.359  0.00  0.00     0.048 A 
ATOM      6  C5  UNL d   1       0.007  -2.313   3.045  0.00  0.00     0.003 A 
ATOM      7  I   UNL d   1      -1.122   0.669   0.101  0.00  0.00    -0.146 I 
ENDROOT
TORSDOF 0
ENDMDL
