MODEL 1
REMARK minimizedAffinity -2.76222301
REMARK minimizedRMSD -1
REMARK  0 active torsions:
REMARK  status: ('A' for Active; 'I' for Inactive)
ROOT
ATOM      1  C   UNL d   1      -1.406   1.011   0.010  0.00  0.00     0.023 A 
ATOM      2  C1  UNL d   1      -0.237   0.835  -0.730  0.00  0.00     0.003 A 
ATOM      3  C2  UNL d   1       0.670  -0.167  -0.378  0.00  0.00     0.048 A 
ATOM      4  C3  UNL d   1       0.401  -0.990   0.715  0.00  0.00     0.023 A 
ATOM      5  C4  UNL d   1      -0.768  -0.818   1.458  0.00  0.00     0.048 A 
ATOM      6  C5  UNL d   1      -1.671   0.185   1.103  0.00  0.00     0.003 A 
ATOM      7  I   UNL d   1       1.750  -2.482   1.241  0.00  0.00    -0.146 I 
ENDROOT
TORSDOF 0
ENDMDL
