MODEL 1
REMARK minimizedAffinity -2.33466816
REMARK minimizedRMSD -1
REMARK  0 active torsions:
REMARK  status: ('A' for Active; 'I' for Inactive)
ROOT
ATOM      1  C   UNL d   1       2.339  -2.079   1.277  0.00  0.00     0.023 A 
ATOM      2  C1  UNL d   1       2.705  -1.446   0.088  0.00  0.00     0.003 A 
ATOM      3  C2  UNL d   1       1.842  -0.525  -0.508  0.00  0.00     0.048 A 
ATOM      4  C3  UNL d   1       0.615  -0.239   0.090  0.00  0.00     0.023 A 
ATOM      5  C4  UNL d   1       0.246  -0.868   1.280  0.00  0.00     0.048 A 
ATOM      6  C5  UNL d   1       1.111  -1.790   1.872  0.00  0.00     0.003 A 
ATOM      7  I   UNL d   1      -0.670   1.133  -0.795  0.00  0.00    -0.146 I 
ENDROOT
TORSDOF 0
ENDMDL
