MODEL 1
REMARK minimizedAffinity -0.972361088
REMARK minimizedRMSD -1
REMARK  0 active torsions:
REMARK  status: ('A' for Active; 'I' for Inactive)
ROOT
ATOM      1  C   UNL d   1       1.394  -2.109   1.392  0.00  0.00     0.023 A 
ATOM      2  C1  UNL d   1       0.004  -2.192   1.302  0.00  0.00     0.003 A 
ATOM      3  C2  UNL d   1      -0.711  -1.219   0.601  0.00  0.00     0.048 A 
ATOM      4  C3  UNL d   1      -0.030  -0.165  -0.007  0.00  0.00     0.023 A 
ATOM      5  C4  UNL d   1       1.360  -0.078   0.080  0.00  0.00     0.048 A 
ATOM      6  C5  UNL d   1       2.071  -1.053   0.782  0.00  0.00     0.003 A 
ATOM      7  I   UNL d   1      -1.092   1.285  -1.051  0.00  0.00    -0.146 I 
ENDROOT
TORSDOF 0
ENDMDL
