MODEL 1
REMARK minimizedAffinity -1.01065409
REMARK minimizedRMSD -1
REMARK  0 active torsions:
REMARK  status: ('A' for Active; 'I' for Inactive)
ROOT
ATOM      1  C   UNL d   1      -0.872   1.687   0.768  0.00  0.00     0.023 A 
ATOM      2  C1  UNL d   1      -1.450   0.733   1.606  0.00  0.00     0.003 A 
ATOM      3  C2  UNL d   1      -0.965  -0.576   1.615  0.00  0.00     0.048 A 
ATOM      4  C3  UNL d   1       0.099  -0.925   0.784  0.00  0.00     0.023 A 
ATOM      5  C4  UNL d   1       0.682   0.026  -0.055  0.00  0.00     0.048 A 
ATOM      6  C5  UNL d   1       0.192   1.334  -0.062  0.00  0.00     0.003 A 
ATOM      7  I   UNL d   1       0.823  -2.873   0.797  0.00  0.00    -0.146 I 
ENDROOT
TORSDOF 0
ENDMDL
