MODEL 1
REMARK minimizedAffinity -3.22942948
REMARK minimizedRMSD -1
REMARK  0 active torsions:
REMARK  status: ('A' for Active; 'I' for Inactive)
ROOT
ATOM      1  C   UNL d   1      -0.786   1.602  -0.142  0.00  0.00     0.023 A 
ATOM      2  C1  UNL d   1      -1.406   0.706   0.729  0.00  0.00     0.003 A 
ATOM      3  C2  UNL d   1      -0.793  -0.511   1.033  0.00  0.00     0.048 A 
ATOM      4  C3  UNL d   1       0.440  -0.826   0.463  0.00  0.00     0.023 A 
ATOM      5  C4  UNL d   1       1.065   0.068  -0.408  0.00  0.00     0.048 A 
ATOM      6  C5  UNL d   1       0.448   1.284  -0.710  0.00  0.00     0.003 A 
ATOM      7  I   UNL d   1       1.355  -2.637   0.913  0.00  0.00    -0.146 I 
ENDROOT
TORSDOF 0
ENDMDL
