MODEL 1
REMARK minimizedAffinity -4.15766478
REMARK minimizedRMSD -1
REMARK  0 active torsions:
REMARK  status: ('A' for Active; 'I' for Inactive)
ROOT
ATOM      1  C   UNL d   1       1.737  -2.428   1.636  0.00  0.00     0.023 A 
ATOM      2  C1  UNL d   1       2.545  -1.409   1.131  0.00  0.00     0.003 A 
ATOM      3  C2  UNL d   1       1.974  -0.345   0.430  0.00  0.00     0.048 A 
ATOM      4  C3  UNL d   1       0.593  -0.305   0.240  0.00  0.00     0.023 A 
ATOM      5  C4  UNL d   1      -0.220  -1.321   0.745  0.00  0.00     0.048 A 
ATOM      6  C5  UNL d   1       0.356  -2.383   1.443  0.00  0.00     0.003 A 
ATOM      7  I   UNL d   1      -0.260   1.278  -0.802  0.00  0.00    -0.146 I 
ENDROOT
TORSDOF 0
ENDMDL
