MODEL 1
REMARK minimizedAffinity -4.89378166
REMARK minimizedRMSD -1
REMARK  0 active torsions:
REMARK  status: ('A' for Active; 'I' for Inactive)
ROOT
ATOM      1  C   UNL d   1       1.572  -2.754   0.649  0.00  0.00     0.023 A 
ATOM      2  C1  UNL d   1       0.179  -2.812   0.690  0.00  0.00     0.003 A 
ATOM      3  C2  UNL d   1      -0.578  -1.674   0.399  0.00  0.00     0.048 A 
ATOM      4  C3  UNL d   1       0.066  -0.483   0.067  0.00  0.00     0.023 A 
ATOM      5  C4  UNL d   1       1.460  -0.421   0.023  0.00  0.00     0.048 A 
ATOM      6  C5  UNL d   1       2.211  -1.560   0.316  0.00  0.00     0.003 A 
ATOM      7  I   UNL d   1      -1.057   1.211  -0.366  0.00  0.00    -0.146 I 
ENDROOT
TORSDOF 0
ENDMDL
