MODEL 1
REMARK minimizedAffinity -2.5631361
REMARK minimizedRMSD -1
REMARK  0 active torsions:
REMARK  status: ('A' for Active; 'I' for Inactive)
ROOT
ATOM      1  C   UNL d   1      -0.632   1.387  -0.245  0.00  0.00     0.023 A 
ATOM      2  C1  UNL d   1       0.652   1.089  -0.702  0.00  0.00     0.003 A 
ATOM      3  C2  UNL d   1       1.284  -0.087  -0.294  0.00  0.00     0.048 A 
ATOM      4  C3  UNL d   1       0.626  -0.962   0.571  0.00  0.00     0.023 A 
ATOM      5  C4  UNL d   1      -0.659  -0.668   1.030  0.00  0.00     0.048 A 
ATOM      6  C5  UNL d   1      -1.287   0.510   0.619  0.00  0.00     0.003 A 
ATOM      7  I   UNL d   1       1.565  -2.713   1.180  0.00  0.00    -0.146 I 
ENDROOT
TORSDOF 0
ENDMDL
