MODEL 1
REMARK minimizedAffinity 6.76982737
REMARK minimizedRMSD -1
REMARK  1 active torsions:
REMARK  status: ('A' for Active; 'I' for Inactive)
REMARK    1  A    between atoms: C1_2  and  C2_3 
ROOT
ATOM      1  C2  UNL d   1       1.109  -0.397  -0.720  0.00  0.00    -0.076 A 
ATOM      2  C3  UNL d   1       2.242  -0.439   0.112  0.00  0.00     0.004 A 
ATOM      3  C4  UNL d   1       2.257  -1.222   1.265  0.00  0.00    -0.003 A 
ATOM      4  C5  UNL d   1       1.139  -1.977   1.605  0.00  0.00     0.000 A 
ATOM      5  C6  UNL d   1       0.013  -1.961   0.782  0.00  0.00     0.000 A 
ATOM      6  C7  UNL d   1      -0.012  -1.189  -0.392  0.00  0.00    -0.073 A 
ATOM      7  C8  UNL d   1      -1.255  -1.205  -1.239  0.00  0.00     0.078 C 
ENDROOT
BRANCH   1   8
ATOM      8  C1  UNL d   1       1.141   0.491  -1.943  0.00  0.00     0.053 C 
ATOM      9  C   UNL d   1       2.223   0.083  -2.931  0.00  0.00     0.018 C 
ENDBRANCH   1   8
TORSDOF 1
ENDMDL
