MODEL 1
REMARK minimizedAffinity 7.66471577
REMARK minimizedRMSD -1
REMARK  1 active torsions:
REMARK  status: ('A' for Active; 'I' for Inactive)
REMARK    1  A    between atoms: C1_2  and  C2_3 
ROOT
ATOM      1  C2  UNL d   1      -3.662   3.392  -5.348  0.00  0.00    -0.076 A 
ATOM      2  C3  UNL d   1      -2.967   2.209  -5.654  0.00  0.00     0.004 A 
ATOM      3  C4  UNL d   1      -1.611   2.236  -5.975  0.00  0.00    -0.003 A 
ATOM      4  C5  UNL d   1      -0.928   3.446  -5.996  0.00  0.00     0.000 A 
ATOM      5  C6  UNL d   1      -1.597   4.628  -5.679  0.00  0.00     0.000 A 
ATOM      6  C7  UNL d   1      -2.960   4.616  -5.336  0.00  0.00    -0.073 A 
ATOM      7  C8  UNL d   1      -3.633   5.921  -5.009  0.00  0.00     0.078 C 
ENDROOT
BRANCH   1   8
ATOM      8  C1  UNL d   1      -5.138   3.304  -5.033  0.00  0.00     0.053 C 
ATOM      9  C   UNL d   1      -5.983   4.173  -5.953  0.00  0.00     0.018 C 
ENDBRANCH   1   8
TORSDOF 1
ENDMDL
