MODEL 1
REMARK minimizedAffinity 6.14818621
REMARK minimizedRMSD -1
REMARK  1 active torsions:
REMARK  status: ('A' for Active; 'I' for Inactive)
REMARK    1  A    between atoms: C1_2  and  C2_3 
ROOT
ATOM      1  C2  UNL d   1       3.243  -3.094   1.777  0.00  0.00    -0.076 A 
ATOM      2  C3  UNL d   1       2.653  -1.819   1.831  0.00  0.00     0.004 A 
ATOM      3  C4  UNL d   1       1.269  -1.667   1.786  0.00  0.00    -0.003 A 
ATOM      4  C5  UNL d   1       0.451  -2.787   1.687  0.00  0.00     0.000 A 
ATOM      5  C6  UNL d   1       1.018  -4.060   1.650  0.00  0.00     0.000 A 
ATOM      6  C7  UNL d   1       2.412  -4.232   1.711  0.00  0.00    -0.073 A 
ATOM      7  C8  UNL d   1       2.970  -5.628   1.662  0.00  0.00     0.078 C 
ENDROOT
BRANCH   1   8
ATOM      8  C1  UNL d   1       4.752  -3.195   1.802  0.00  0.00     0.053 C 
ATOM      9  C   UNL d   1       5.429  -1.956   1.238  0.00  0.00     0.018 C 
ENDBRANCH   1   8
TORSDOF 1
ENDMDL
