MODEL 1
REMARK minimizedAffinity 9.58612061
REMARK minimizedRMSD -1
REMARK  1 active torsions:
REMARK  status: ('A' for Active; 'I' for Inactive)
REMARK    1  A    between atoms: C1_2  and  C2_3 
ROOT
ATOM      1  C2  UNL d   1      -0.110  -1.996   3.052  0.00  0.00    -0.076 A 
ATOM      2  C3  UNL d   1      -1.167  -2.470   2.256  0.00  0.00     0.004 A 
ATOM      3  C4  UNL d   1      -2.399  -1.817   2.236  0.00  0.00    -0.003 A 
ATOM      4  C5  UNL d   1      -2.592  -0.678   3.010  0.00  0.00     0.000 A 
ATOM      5  C6  UNL d   1      -1.549  -0.184   3.792  0.00  0.00     0.000 A 
ATOM      6  C7  UNL d   1      -0.296  -0.821   3.812  0.00  0.00    -0.073 A 
ATOM      7  C8  UNL d   1       0.792  -0.248   4.678  0.00  0.00     0.078 C 
ENDROOT
BRANCH   1   8
ATOM      8  C1  UNL d   1       1.194  -2.761   3.055  0.00  0.00     0.053 C 
ATOM      9  C   UNL d   1       1.768  -2.940   1.658  0.00  0.00     0.018 C 
ENDBRANCH   1   8
TORSDOF 1
ENDMDL
