MODEL 1
REMARK minimizedAffinity 12.7191954
REMARK minimizedRMSD -1
REMARK  1 active torsions:
REMARK  status: ('A' for Active; 'I' for Inactive)
REMARK    1  A    between atoms: C1_2  and  C2_3 
ROOT
ATOM      1  C2  UNL d   1       1.045  -0.739   0.667  0.00  0.00    -0.076 A 
ATOM      2  C3  UNL d   1       0.122  -1.010  -0.358  0.00  0.00     0.004 A 
ATOM      3  C4  UNL d   1      -0.064  -0.116  -1.411  0.00  0.00    -0.003 A 
ATOM      4  C5  UNL d   1       0.670   1.064  -1.456  0.00  0.00     0.000 A 
ATOM      5  C6  UNL d   1       1.603   1.341  -0.458  0.00  0.00     0.000 A 
ATOM      6  C7  UNL d   1       1.814   0.443   0.602  0.00  0.00    -0.073 A 
ATOM      7  C8  UNL d   1       2.829   0.796   1.656  0.00  0.00     0.078 C 
ENDROOT
BRANCH   1   8
ATOM      8  C1  UNL d   1       1.185  -1.733   1.798  0.00  0.00     0.053 C 
ATOM      9  C   UNL d   1       1.981  -2.965   1.396  0.00  0.00     0.018 C 
ENDBRANCH   1   8
TORSDOF 1
ENDMDL
