MODEL 1
REMARK minimizedAffinity 14.3726702
REMARK minimizedRMSD -1
REMARK  1 active torsions:
REMARK  status: ('A' for Active; 'I' for Inactive)
REMARK    1  A    between atoms: C1_2  and  C2_3 
ROOT
ATOM      1  C2  UNL d   1       1.328  -0.638   0.375  0.00  0.00    -0.076 A 
ATOM      2  C3  UNL d   1       0.459  -1.156  -0.602  0.00  0.00     0.004 A 
ATOM      3  C4  UNL d   1       0.216  -0.462  -1.786  0.00  0.00    -0.003 A 
ATOM      4  C5  UNL d   1       0.839   0.760  -2.013  0.00  0.00     0.000 A 
ATOM      5  C6  UNL d   1       1.717   1.280  -1.063  0.00  0.00     0.000 A 
ATOM      6  C7  UNL d   1       1.986   0.586   0.129  0.00  0.00    -0.073 A 
ATOM      7  C8  UNL d   1       2.937   1.196   1.121  0.00  0.00     0.078 C 
ENDROOT
BRANCH   1   8
ATOM      8  C1  UNL d   1       1.532  -1.422   1.651  0.00  0.00     0.053 C 
ATOM      9  C   UNL d   1       1.601  -2.922   1.409  0.00  0.00     0.018 C 
ENDBRANCH   1   8
TORSDOF 1
ENDMDL
