MODEL 1
REMARK minimizedAffinity 12.0611916
REMARK minimizedRMSD -1
REMARK  1 active torsions:
REMARK  status: ('A' for Active; 'I' for Inactive)
REMARK    1  A    between atoms: C1_2  and  C2_3 
ROOT
ATOM      1  C2  UNL d   1       1.028  -0.893   0.504  0.00  0.00    -0.076 A 
ATOM      2  C3  UNL d   1       2.064   0.026   0.745  0.00  0.00     0.004 A 
ATOM      3  C4  UNL d   1       2.236   1.144  -0.068  0.00  0.00    -0.003 A 
ATOM      4  C5  UNL d   1       1.374   1.363  -1.137  0.00  0.00     0.000 A 
ATOM      5  C6  UNL d   1       0.330   0.471  -1.381  0.00  0.00     0.000 A 
ATOM      6  C7  UNL d   1       0.133  -0.653  -0.560  0.00  0.00    -0.073 A 
ATOM      7  C8  UNL d   1      -1.006  -1.584  -0.873  0.00  0.00     0.078 C 
ENDROOT
BRANCH   1   8
ATOM      8  C1  UNL d   1       0.908  -2.102   1.403  0.00  0.00     0.053 C 
ATOM      9  C   UNL d   1       1.961  -2.120   2.500  0.00  0.00     0.018 C 
ENDBRANCH   1   8
TORSDOF 1
ENDMDL
