MODEL 1
REMARK minimizedAffinity -4.98837566
REMARK minimizedRMSD -1
REMARK  1 active torsions:
REMARK  status: ('A' for Active; 'I' for Inactive)
REMARK    1  A    between atoms: C1_2  and  C2_3 
ROOT
ATOM      1  C2  UNL d   1       0.960   0.276   0.086  0.00  0.00    -0.081 A 
ATOM      2  C3  UNL d   1       0.342   0.574  -1.135  0.00  0.00     0.006 A 
ATOM      3  C4  UNL d   1      -0.979   0.186  -1.373  0.00  0.00     0.002 A 
ATOM      4  C5  UNL d   1      -1.706  -0.497  -0.392  0.00  0.00    -0.080 A 
ATOM      5  C6  UNL d   1      -3.134  -0.892  -0.624  0.00  0.00     0.076 C 
ATOM      6  C7  UNL d   1      -1.083  -0.810   0.821  0.00  0.00     0.002 A 
ATOM      7  C8  UNL d   1       0.238  -0.424   1.059  0.00  0.00     0.006 A 
ENDROOT
BRANCH   1   8
ATOM      8  C1  UNL d   1       2.363   0.749   0.371  0.00  0.00     0.054 C 
ATOM      9  C   UNL d   1       2.364   1.941   1.317  0.00  0.00     0.018 C 
ENDBRANCH   1   8
TORSDOF 1
ENDMDL
