MODEL 1
REMARK minimizedAffinity -4.97229242
REMARK minimizedRMSD -1
REMARK  1 active torsions:
REMARK  status: ('A' for Active; 'I' for Inactive)
REMARK    1  A    between atoms: C1_2  and  C2_3 
ROOT
ATOM      1  C2  UNL d   1       0.904   0.451   0.194  0.00  0.00    -0.081 A 
ATOM      2  C3  UNL d   1       0.305   0.596  -1.063  0.00  0.00     0.006 A 
ATOM      3  C4  UNL d   1      -0.984   0.108  -1.294  0.00  0.00     0.002 A 
ATOM      4  C5  UNL d   1      -1.697  -0.525  -0.270  0.00  0.00    -0.080 A 
ATOM      5  C6  UNL d   1      -3.092  -1.026  -0.496  0.00  0.00     0.076 C 
ATOM      6  C7  UNL d   1      -1.092  -0.685   0.981  0.00  0.00     0.002 A 
ATOM      7  C8  UNL d   1       0.197  -0.198   1.212  0.00  0.00     0.006 A 
ENDROOT
BRANCH   1   8
ATOM      8  C1  UNL d   1       2.268   1.034   0.465  0.00  0.00     0.054 C 
ATOM      9  C   UNL d   1       2.271   1.867   1.739  0.00  0.00     0.018 C 
ENDBRANCH   1   8
TORSDOF 1
ENDMDL
