MODEL 1
REMARK minimizedAffinity -5.56499577
REMARK minimizedRMSD -1
REMARK  1 active torsions:
REMARK  status: ('A' for Active; 'I' for Inactive)
REMARK    1  A    between atoms: C1_2  and  C2_3 
ROOT
ATOM      1  C2  UNL d   1       0.810   0.141   0.105  0.00  0.00    -0.081 A 
ATOM      2  C3  UNL d   1       0.120   0.320  -1.100  0.00  0.00     0.006 A 
ATOM      3  C4  UNL d   1      -1.229  -0.027  -1.202  0.00  0.00     0.002 A 
ATOM      4  C5  UNL d   1      -1.913  -0.551  -0.099  0.00  0.00    -0.080 A 
ATOM      5  C6  UNL d   1      -3.369  -0.899  -0.186  0.00  0.00     0.076 C 
ATOM      6  C7  UNL d   1      -1.219  -0.746   1.100  0.00  0.00     0.002 A 
ATOM      7  C8  UNL d   1       0.131  -0.399   1.202  0.00  0.00     0.006 A 
ENDROOT
BRANCH   1   8
ATOM      8  C1  UNL d   1       2.248   0.575   0.236  0.00  0.00     0.054 C 
ATOM      9  C   UNL d   1       2.357   1.925   0.929  0.00  0.00     0.018 C 
ENDBRANCH   1   8
TORSDOF 1
ENDMDL
