MODEL 1
REMARK minimizedAffinity -5.75907707
REMARK minimizedRMSD -1
REMARK  1 active torsions:
REMARK  status: ('A' for Active; 'I' for Inactive)
REMARK    1  A    between atoms: C1_2  and  C2_3 
ROOT
ATOM      1  C2  UNL d   1       0.805   0.658   0.047  0.00  0.00    -0.081 A 
ATOM      2  C3  UNL d   1       0.187   0.946  -1.176  0.00  0.00     0.006 A 
ATOM      3  C4  UNL d   1      -1.126   0.535  -1.421  0.00  0.00     0.002 A 
ATOM      4  C5  UNL d   1      -1.844  -0.163  -0.445  0.00  0.00    -0.080 A 
ATOM      5  C6  UNL d   1      -3.264  -0.584  -0.684  0.00  0.00     0.076 C 
ATOM      6  C7  UNL d   1      -1.221  -0.467   0.770  0.00  0.00     0.002 A 
ATOM      7  C8  UNL d   1       0.091  -0.057   1.015  0.00  0.00     0.006 A 
ENDROOT
BRANCH   1   8
ATOM      8  C1  UNL d   1       2.197   1.156   0.339  0.00  0.00     0.054 C 
ATOM      9  C   UNL d   1       2.233   1.980   1.618  0.00  0.00     0.018 C 
ENDBRANCH   1   8
TORSDOF 1
ENDMDL
