MODEL 1
REMARK minimizedAffinity -5.79737902
REMARK minimizedRMSD -1
REMARK  1 active torsions:
REMARK  status: ('A' for Active; 'I' for Inactive)
REMARK    1  A    between atoms: C1_2  and  C2_3 
ROOT
ATOM      1  C2  UNL d   1       0.107  -0.204   0.305  0.00  0.00    -0.081 A 
ATOM      2  C3  UNL d   1      -0.142  -1.345   1.078  0.00  0.00     0.006 A 
ATOM      3  C4  UNL d   1      -1.406  -1.940   1.075  0.00  0.00     0.002 A 
ATOM      4  C5  UNL d   1      -2.439  -1.409   0.294  0.00  0.00    -0.080 A 
ATOM      5  C6  UNL d   1      -3.791  -2.056   0.258  0.00  0.00     0.076 C 
ATOM      6  C7  UNL d   1      -2.194  -0.259  -0.465  0.00  0.00     0.002 A 
ATOM      7  C8  UNL d   1      -0.931   0.336  -0.462  0.00  0.00     0.006 A 
ENDROOT
BRANCH   1   8
ATOM      8  C1  UNL d   1       1.487   0.402   0.255  0.00  0.00     0.054 C 
ATOM      9  C   UNL d   1       1.582   1.632   1.146  0.00  0.00     0.018 C 
ENDBRANCH   1   8
TORSDOF 1
ENDMDL
