MODEL 1
REMARK minimizedAffinity -1.75533605
REMARK minimizedRMSD -1
REMARK  1 active torsions:
REMARK  status: ('A' for Active; 'I' for Inactive)
REMARK    1  A    between atoms: C1_2  and  C2_3 
ROOT
ATOM      1  C2  UNL d   1       0.751   0.277  -0.196  0.00  0.00    -0.081 A 
ATOM      2  C3  UNL d   1      -0.062   0.506  -1.314  0.00  0.00     0.006 A 
ATOM      3  C4  UNL d   1      -1.401   0.108  -1.310  0.00  0.00     0.002 A 
ATOM      4  C5  UNL d   1      -1.951  -0.519  -0.187  0.00  0.00    -0.080 A 
ATOM      5  C6  UNL d   1      -3.395  -0.925  -0.158  0.00  0.00     0.076 C 
ATOM      6  C7  UNL d   1      -1.135  -0.765   0.923  0.00  0.00     0.002 A 
ATOM      7  C8  UNL d   1       0.204  -0.367   0.919  0.00  0.00     0.006 A 
ENDROOT
BRANCH   1   8
ATOM      8  C1  UNL d   1       2.177   0.763  -0.173  0.00  0.00     0.054 C 
ATOM      9  C   UNL d   1       2.404   1.758   0.957  0.00  0.00     0.018 C 
ENDBRANCH   1   8
TORSDOF 1
ENDMDL
