MODEL 1
REMARK minimizedAffinity -5.02096558
REMARK minimizedRMSD -1
REMARK  1 active torsions:
REMARK  status: ('A' for Active; 'I' for Inactive)
REMARK    1  A    between atoms: C1_2  and  C2_3 
ROOT
ATOM      1  C2  UNL d   1       0.671   0.282   0.240  0.00  0.00    -0.081 A 
ATOM      2  C3  UNL d   1      -0.042   0.532  -0.939  0.00  0.00     0.006 A 
ATOM      3  C4  UNL d   1      -1.355   0.077  -1.083  0.00  0.00     0.002 A 
ATOM      4  C5  UNL d   1      -1.979  -0.627  -0.048  0.00  0.00    -0.080 A 
ATOM      5  C6  UNL d   1      -3.399  -1.094  -0.178  0.00  0.00     0.076 C 
ATOM      6  C7  UNL d   1      -1.262  -0.892   1.123  0.00  0.00     0.002 A 
ATOM      7  C8  UNL d   1       0.052  -0.438   1.267  0.00  0.00     0.006 A 
ENDROOT
BRANCH   1   8
ATOM      8  C1  UNL d   1       2.064   0.827   0.423  0.00  0.00     0.054 C 
ATOM      9  C   UNL d   1       2.089   1.951   1.449  0.00  0.00     0.018 C 
ENDBRANCH   1   8
TORSDOF 1
ENDMDL
