MODEL 1
REMARK minimizedAffinity -4.38411713
REMARK minimizedRMSD -1
REMARK  1 active torsions:
REMARK  status: ('A' for Active; 'I' for Inactive)
REMARK    1  A    between atoms: C1_2  and  C2_3 
ROOT
ATOM      1  C2  UNL d   1      -1.535  -0.739  -0.298  0.00  0.00    -0.081 A 
ATOM      2  C3  UNL d   1      -0.803  -1.124   0.832  0.00  0.00     0.006 A 
ATOM      3  C4  UNL d   1       0.454  -0.569   1.085  0.00  0.00     0.002 A 
ATOM      4  C5  UNL d   1       0.996   0.384   0.216  0.00  0.00    -0.080 A 
ATOM      5  C6  UNL d   1       2.331   1.010   0.492  0.00  0.00     0.076 C 
ATOM      6  C7  UNL d   1       0.273   0.755  -0.923  0.00  0.00     0.002 A 
ATOM      7  C8  UNL d   1      -0.983   0.200  -1.176  0.00  0.00     0.006 A 
ENDROOT
BRANCH   1   8
ATOM      8  C1  UNL d   1      -2.918  -1.288  -0.539  0.00  0.00     0.054 C 
ATOM      9  C   UNL d   1      -2.867  -2.598  -1.311  0.00  0.00     0.018 C 
ENDBRANCH   1   8
TORSDOF 1
ENDMDL
