MODEL 1
REMARK minimizedAffinity -4.97932673
REMARK minimizedRMSD -1
REMARK  1 active torsions:
REMARK  status: ('A' for Active; 'I' for Inactive)
REMARK    1  A    between atoms: C1_2  and  C2_3 
ROOT
ATOM      1  C2  UNL d   1      -0.797  -0.218  -0.432  0.00  0.00    -0.081 A 
ATOM      2  C3  UNL d   1      -0.568   1.128  -0.745  0.00  0.00     0.006 A 
ATOM      3  C4  UNL d   1       0.657   1.727  -0.440  0.00  0.00     0.002 A 
ATOM      4  C5  UNL d   1       1.675   0.990   0.175  0.00  0.00    -0.080 A 
ATOM      5  C6  UNL d   1       3.004   1.613   0.480  0.00  0.00     0.076 C 
ATOM      6  C7  UNL d   1       1.439  -0.350   0.503  0.00  0.00     0.002 A 
ATOM      7  C8  UNL d   1       0.215  -0.949   0.200  0.00  0.00     0.006 A 
ENDROOT
BRANCH   1   8
ATOM      8  C1  UNL d   1      -2.093  -0.884  -0.817  0.00  0.00     0.054 C 
ATOM      9  C   UNL d   1      -3.261  -0.327  -0.017  0.00  0.00     0.018 C 
ENDBRANCH   1   8
TORSDOF 1
ENDMDL
