MODEL 1
REMARK minimizedAffinity -4.68061924
REMARK minimizedRMSD -1
REMARK  1 active torsions:
REMARK  status: ('A' for Active; 'I' for Inactive)
REMARK    1  A    between atoms: C1_2  and  C2_3 
ROOT
ATOM      1  C2  UNL d   1       0.033  -0.028  -0.219  0.00  0.00    -0.081 A 
ATOM      2  C3  UNL d   1      -0.810   0.102  -1.329  0.00  0.00     0.006 A 
ATOM      3  C4  UNL d   1      -2.152  -0.277  -1.247  0.00  0.00     0.002 A 
ATOM      4  C5  UNL d   1      -2.674  -0.786  -0.053  0.00  0.00    -0.080 A 
ATOM      5  C6  UNL d   1      -4.120  -1.168   0.056  0.00  0.00     0.076 C 
ATOM      6  C7  UNL d   1      -1.828  -0.932   1.051  0.00  0.00     0.002 A 
ATOM      7  C8  UNL d   1      -0.486  -0.554   0.970  0.00  0.00     0.006 A 
ENDROOT
BRANCH   1   8
ATOM      8  C1  UNL d   1       1.465   0.440  -0.284  0.00  0.00     0.054 C 
ATOM      9  C   UNL d   1       1.747   1.505   0.767  0.00  0.00     0.018 C 
ENDBRANCH   1   8
TORSDOF 1
ENDMDL
