MODEL 1
REMARK minimizedAffinity 1.47204006
REMARK minimizedRMSD -1
REMARK  0 active torsions:
REMARK  status: ('A' for Active; 'I' for Inactive)
ROOT
ATOM      1  C   UNL d   1      -1.238   1.129   2.508  0.00  0.00    -0.002 A 
ATOM      2  C1  UNL d   1      -0.886  -0.210   2.605  0.00  0.00     0.010 A 
ATOM      3  C2  UNL d   1      -0.212  -0.844   1.560  0.00  0.00     0.041 A 
ATOM      4  C3  UNL d   1       0.108  -0.103   0.405  0.00  0.00    -0.075 A 
ATOM      5  S   UNL d   1       0.931  -0.670  -0.999  0.00  0.00     0.015 SA
ATOM      6  C4  UNL d   1       0.837   0.852  -1.760  0.00  0.00     0.022 A 
ATOM      7  C5  UNL d   1       0.196   1.782  -0.976  0.00  0.00     0.026 A 
ATOM      8  C6  UNL d   1      -0.234   1.247   0.285  0.00  0.00    -0.082 A 
ATOM      9  C7  UNL d   1      -0.918   1.862   1.362  0.00  0.00     0.045 A 
ENDROOT
TORSDOF 0
ENDMDL
