MODEL 1
REMARK minimizedAffinity -3.89488649
REMARK minimizedRMSD -1
REMARK  0 active torsions:
REMARK  status: ('A' for Active; 'I' for Inactive)
ROOT
ATOM      1  C   UNL d   1      -1.065  -0.527   2.317  0.00  0.00    -0.002 A 
ATOM      2  C1  UNL d   1      -1.714   0.661   2.013  0.00  0.00     0.010 A 
ATOM      3  C2  UNL d   1      -1.354   1.399   0.884  0.00  0.00     0.041 A 
ATOM      4  C3  UNL d   1      -0.322   0.917   0.056  0.00  0.00    -0.075 A 
ATOM      5  S   UNL d   1       0.288   1.652  -1.380  0.00  0.00     0.015 SA
ATOM      6  C4  UNL d   1       1.424   0.405  -1.625  0.00  0.00     0.022 A 
ATOM      7  C5  UNL d   1       1.354  -0.556  -0.644  0.00  0.00     0.026 A 
ATOM      8  C6  UNL d   1       0.347  -0.277   0.340  0.00  0.00    -0.082 A 
ATOM      9  C7  UNL d   1      -0.041  -1.002   1.493  0.00  0.00     0.045 A 
ENDROOT
TORSDOF 0
ENDMDL
