MODEL 1
REMARK minimizedAffinity -3.27447224
REMARK minimizedRMSD -1
REMARK  0 active torsions:
REMARK  status: ('A' for Active; 'I' for Inactive)
ROOT
ATOM      1  C   UNL d   1      -1.771  -0.119   0.928  0.00  0.00    -0.002 A 
ATOM      2  C1  UNL d   1      -1.172   1.110   0.693  0.00  0.00     0.010 A 
ATOM      3  C2  UNL d   1      -0.005   1.198  -0.069  0.00  0.00     0.041 A 
ATOM      4  C3  UNL d   1       0.555   0.018  -0.597  0.00  0.00    -0.075 A 
ATOM      5  S   UNL d   1       1.979  -0.116  -1.559  0.00  0.00     0.015 SA
ATOM      6  C4  UNL d   1       1.826  -1.809  -1.681  0.00  0.00     0.022 A 
ATOM      7  C5  UNL d   1       0.721  -2.277  -1.010  0.00  0.00     0.026 A 
ATOM      8  C6  UNL d   1      -0.030  -1.232  -0.374  0.00  0.00    -0.082 A 
ATOM      9  C7  UNL d   1      -1.212  -1.288   0.403  0.00  0.00     0.045 A 
ENDROOT
TORSDOF 0
ENDMDL
