MODEL 1
REMARK minimizedAffinity 0.137445867
REMARK minimizedRMSD -1
REMARK  0 active torsions:
REMARK  status: ('A' for Active; 'I' for Inactive)
ROOT
ATOM      1  C   UNL d   1      -2.418   2.664   0.368  0.00  0.00    -0.002 A 
ATOM      2  C1  UNL d   1      -1.860   2.714   1.638  0.00  0.00     0.010 A 
ATOM      3  C2  UNL d   1      -1.045   1.677   2.097  0.00  0.00     0.041 A 
ATOM      4  C3  UNL d   1      -0.795   0.580   1.249  0.00  0.00    -0.075 A 
ATOM      5  S   UNL d   1       0.172  -0.804   1.596  0.00  0.00     0.015 SA
ATOM      6  C4  UNL d   1      -0.131  -1.493   0.067  0.00  0.00     0.022 A 
ATOM      7  C5  UNL d   1      -0.948  -0.700  -0.703  0.00  0.00     0.026 A 
ATOM      8  C6  UNL d   1      -1.345   0.508  -0.035  0.00  0.00    -0.082 A 
ATOM      9  C7  UNL d   1      -2.168   1.574  -0.470  0.00  0.00     0.045 A 
ENDROOT
TORSDOF 0
ENDMDL
