MODEL 1
REMARK minimizedAffinity -4.6104002
REMARK minimizedRMSD -1
REMARK  0 active torsions:
REMARK  status: ('A' for Active; 'I' for Inactive)
ROOT
ATOM      1  C   UNL d   1      -2.708   2.590   1.257  0.00  0.00    -0.002 A 
ATOM      2  C1  UNL d   1      -1.851   3.455   0.590  0.00  0.00     0.010 A 
ATOM      3  C2  UNL d   1      -0.712   2.970  -0.055  0.00  0.00     0.041 A 
ATOM      4  C3  UNL d   1      -0.446   1.587  -0.020  0.00  0.00    -0.075 A 
ATOM      5  S   UNL d   1       0.888   0.767  -0.740  0.00  0.00     0.015 SA
ATOM      6  C4  UNL d   1       0.353  -0.752  -0.182  0.00  0.00     0.022 A 
ATOM      7  C5  UNL d   1      -0.814  -0.654   0.539  0.00  0.00     0.026 A 
ATOM      8  C6  UNL d   1      -1.294   0.696   0.643  0.00  0.00    -0.082 A 
ATOM      9  C7  UNL d   1      -2.441   1.219   1.288  0.00  0.00     0.045 A 
ENDROOT
TORSDOF 0
ENDMDL
