MODEL 1
REMARK minimizedAffinity -2.99189806
REMARK minimizedRMSD -1
REMARK  0 active torsions:
REMARK  status: ('A' for Active; 'I' for Inactive)
ROOT
ATOM      1  C   UNL d   1      -2.766   1.485   0.986  0.00  0.00    -0.002 A 
ATOM      2  C1  UNL d   1      -1.782   2.449   0.819  0.00  0.00     0.010 A 
ATOM      3  C2  UNL d   1      -0.512   2.096   0.360  0.00  0.00     0.041 A 
ATOM      4  C3  UNL d   1      -0.244   0.745   0.066  0.00  0.00    -0.075 A 
ATOM      5  S   UNL d   1       1.238   0.080  -0.511  0.00  0.00     0.015 SA
ATOM      6  C4  UNL d   1       0.600  -1.500  -0.551  0.00  0.00     0.022 A 
ATOM      7  C5  UNL d   1      -0.710  -1.538  -0.137  0.00  0.00     0.026 A 
ATOM      8  C6  UNL d   1      -1.219  -0.245   0.224  0.00  0.00    -0.082 A 
ATOM      9  C7  UNL d   1      -2.497   0.145   0.693  0.00  0.00     0.045 A 
ENDROOT
TORSDOF 0
ENDMDL
