MODEL 1
REMARK minimizedAffinity -3.81914711
REMARK minimizedRMSD -1
REMARK  0 active torsions:
REMARK  status: ('A' for Active; 'I' for Inactive)
ROOT
ATOM      1  C   UNL d   1      -1.432   2.619   1.871  0.00  0.00    -0.002 A 
ATOM      2  C1  UNL d   1      -1.326   1.283   2.234  0.00  0.00     0.010 A 
ATOM      3  C2  UNL d   1      -0.507   0.414   1.510  0.00  0.00     0.041 A 
ATOM      4  C3  UNL d   1       0.211   0.914   0.406  0.00  0.00    -0.075 A 
ATOM      5  S   UNL d   1       1.275   0.034  -0.626  0.00  0.00     0.015 SA
ATOM      6  C4  UNL d   1       1.615   1.411  -1.572  0.00  0.00     0.022 A 
ATOM      7  C5  UNL d   1       0.942   2.523  -1.126  0.00  0.00     0.026 A 
ATOM      8  C6  UNL d   1       0.122   2.255   0.023  0.00  0.00    -0.082 A 
ATOM      9  C7  UNL d   1      -0.717   3.111   0.776  0.00  0.00     0.045 A 
ENDROOT
TORSDOF 0
ENDMDL
