MODEL 1
REMARK minimizedAffinity -4.87011433
REMARK minimizedRMSD -1
REMARK  0 active torsions:
REMARK  status: ('A' for Active; 'I' for Inactive)
ROOT
ATOM      1  C   UNL d   1      -1.936   2.844   0.722  0.00  0.00    -0.002 A 
ATOM      2  C1  UNL d   1      -0.914   3.483   0.035  0.00  0.00     0.010 A 
ATOM      3  C2  UNL d   1       0.108   2.745  -0.565  0.00  0.00     0.041 A 
ATOM      4  C3  UNL d   1       0.084   1.340  -0.465  0.00  0.00    -0.075 A 
ATOM      5  S   UNL d   1       1.229   0.231  -1.121  0.00  0.00     0.015 SA
ATOM      6  C4  UNL d   1       0.387  -1.117  -0.507  0.00  0.00     0.022 A 
ATOM      7  C5  UNL d   1      -0.742  -0.749   0.186  0.00  0.00     0.026 A 
ATOM      8  C6  UNL d   1      -0.936   0.674   0.221  0.00  0.00    -0.082 A 
ATOM      9  C7  UNL d   1      -1.957   1.450   0.820  0.00  0.00     0.045 A 
ENDROOT
TORSDOF 0
ENDMDL
