MODEL 1
REMARK minimizedAffinity -3.96149421
REMARK minimizedRMSD -1
REMARK  0 active torsions:
REMARK  status: ('A' for Active; 'I' for Inactive)
ROOT
ATOM      1  C   UNL d   1       0.393  -0.391   1.898  0.00  0.00    -0.002 A 
ATOM      2  C1  UNL d   1       0.938  -0.402   0.622  0.00  0.00     0.010 A 
ATOM      3  C2  UNL d   1       0.610   0.594  -0.300  0.00  0.00     0.041 A 
ATOM      4  C3  UNL d   1      -0.282   1.613   0.088  0.00  0.00    -0.075 A 
ATOM      5  S   UNL d   1      -0.827   2.938  -0.872  0.00  0.00     0.015 SA
ATOM      6  C4  UNL d   1      -1.796   3.550   0.389  0.00  0.00     0.022 A 
ATOM      7  C5  UNL d   1      -1.717   2.776   1.522  0.00  0.00     0.026 A 
ATOM      8  C6  UNL d   1      -0.843   1.647   1.367  0.00  0.00    -0.082 A 
ATOM      9  C7  UNL d   1      -0.492   0.622   2.278  0.00  0.00     0.045 A 
ENDROOT
TORSDOF 0
ENDMDL
