MODEL 1
REMARK minimizedAffinity 12.0335026
REMARK minimizedRMSD -1
REMARK  1 active torsions:
REMARK  status: ('A' for Active; 'I' for Inactive)
REMARK    1  A    between atoms: C1_2  and  C2_3 
ROOT
ATOM      1  C2  UNL d   1      -5.093   2.854  -0.758  0.00  0.00    -0.073 A 
ATOM      2  C3  UNL d   1      -3.783   2.360  -0.760  0.00  0.00    -0.002 A 
ATOM      3  C4  UNL d   1      -2.949   2.571   0.339  0.00  0.00     0.004 A 
ATOM      4  C5  UNL d   1      -3.416   3.270   1.452  0.00  0.00    -0.004 A 
ATOM      5  C6  UNL d   1      -4.726   3.760   1.478  0.00  0.00    -0.075 A 
ATOM      6  C7  UNL d   1      -5.243   4.516   2.666  0.00  0.00     0.076 C 
ATOM      7  C8  UNL d   1      -5.557   3.547   0.370  0.00  0.00     0.001 A 
ENDROOT
BRANCH   1   8
ATOM      8  C1  UNL d   1      -6.000   2.624  -1.939  0.00  0.00     0.053 C 
ATOM      9  C   UNL d   1      -5.222   2.243  -3.189  0.00  0.00     0.018 C 
ENDBRANCH   1   8
TORSDOF 1
ENDMDL
