MODEL 1
REMARK minimizedAffinity 0.724198461
REMARK minimizedRMSD -1
REMARK  1 active torsions:
REMARK  status: ('A' for Active; 'I' for Inactive)
REMARK    1  A    between atoms: C1_2  and  C2_3 
ROOT
ATOM      1  C2  UNL d   1       4.456  -2.235   4.014  0.00  0.00    -0.073 A 
ATOM      2  C3  UNL d   1       4.282  -1.318   2.972  0.00  0.00    -0.002 A 
ATOM      3  C4  UNL d   1       3.001  -1.003   2.516  0.00  0.00     0.004 A 
ATOM      4  C5  UNL d   1       1.882  -1.596   3.102  0.00  0.00    -0.004 A 
ATOM      5  C6  UNL d   1       2.035  -2.506   4.154  0.00  0.00    -0.075 A 
ATOM      6  C7  UNL d   1       0.843  -3.154   4.793  0.00  0.00     0.076 C 
ATOM      7  C8  UNL d   1       3.325  -2.818   4.603  0.00  0.00     0.001 A 
ENDROOT
BRANCH   1   8
ATOM      8  C1  UNL d   1       5.837  -2.573   4.514  0.00  0.00     0.053 C 
ATOM      9  C   UNL d   1       5.999  -2.264   5.994  0.00  0.00     0.018 C 
ENDBRANCH   1   8
TORSDOF 1
ENDMDL
