MODEL 1
REMARK minimizedAffinity 0.561707437
REMARK minimizedRMSD -1
REMARK  1 active torsions:
REMARK  status: ('A' for Active; 'I' for Inactive)
REMARK    1  A    between atoms: C1_2  and  C2_3 
ROOT
ATOM      1  C2  UNL d   1       3.542  -2.306   4.505  0.00  0.00    -0.073 A 
ATOM      2  C3  UNL d   1       2.283  -2.916   4.505  0.00  0.00    -0.002 A 
ATOM      3  C4  UNL d   1       1.234  -2.368   3.764  0.00  0.00     0.004 A 
ATOM      4  C5  UNL d   1       1.436  -1.210   3.012  0.00  0.00    -0.004 A 
ATOM      5  C6  UNL d   1       2.691  -0.593   2.990  0.00  0.00    -0.075 A 
ATOM      6  C7  UNL d   1       2.923   0.653   2.188  0.00  0.00     0.076 C 
ATOM      7  C8  UNL d   1       3.738  -1.148   3.738  0.00  0.00     0.001 A 
ENDROOT
BRANCH   1   8
ATOM      8  C1  UNL d   1       4.679  -2.897   5.297  0.00  0.00     0.053 C 
ATOM      9  C   UNL d   1       6.000  -2.203   5.005  0.00  0.00     0.018 C 
ENDBRANCH   1   8
TORSDOF 1
ENDMDL
