MODEL 1
REMARK minimizedAffinity 14.3194876
REMARK minimizedRMSD -1
REMARK  1 active torsions:
REMARK  status: ('A' for Active; 'I' for Inactive)
REMARK    1  A    between atoms: C1_2  and  C2_3 
ROOT
ATOM      1  C2  UNL d   1       5.278  -1.847   3.527  0.00  0.00    -0.073 A 
ATOM      2  C3  UNL d   1       5.987  -1.399   2.407  0.00  0.00    -0.002 A 
ATOM      3  C4  UNL d   1       5.315  -0.796   1.343  0.00  0.00     0.004 A 
ATOM      4  C5  UNL d   1       3.931  -0.629   1.390  0.00  0.00    -0.004 A 
ATOM      5  C6  UNL d   1       3.207  -1.059   2.506  0.00  0.00    -0.075 A 
ATOM      6  C7  UNL d   1       1.717  -0.889   2.572  0.00  0.00     0.076 C 
ATOM      7  C8  UNL d   1       3.888  -1.666   3.570  0.00  0.00     0.001 A 
ENDROOT
BRANCH   1   8
ATOM      8  C1  UNL d   1       5.999  -2.493   4.682  0.00  0.00     0.053 C 
ATOM      9  C   UNL d   1       5.736  -1.772   5.994  0.00  0.00     0.018 C 
ENDBRANCH   1   8
TORSDOF 1
ENDMDL
