MODEL 1
REMARK minimizedAffinity 1.94773638
REMARK minimizedRMSD -1
REMARK  0 active torsions:
REMARK  status: ('A' for Active; 'I' for Inactive)
ROOT
ATOM      1  C   UNL d   1       0.341   0.803   0.537  0.00  0.00     0.078 C 
ATOM      2  C1  UNL d   1       1.413  -0.033  -0.096  0.00  0.00    -0.077 A 
ATOM      3  C2  UNL d   1       2.643   0.527  -0.462  0.00  0.00    -0.001 A 
ATOM      4  C3  UNL d   1       3.628  -0.261  -1.059  0.00  0.00     0.003 A 
ATOM      5  C4  UNL d   1       3.393  -1.614  -1.296  0.00  0.00    -0.005 A 
ATOM      6  C5  UNL d   1       2.172  -2.180  -0.937  0.00  0.00     0.003 A 
ATOM      7  C6  UNL d   1       1.185  -1.393  -0.340  0.00  0.00    -0.001 A 
ENDROOT
TORSDOF 0
ENDMDL
