MODEL 1
REMARK minimizedAffinity 1.33287656
REMARK minimizedRMSD -1
REMARK  0 active torsions:
REMARK  status: ('A' for Active; 'I' for Inactive)
ROOT
ATOM      1  C   UNL d   1       3.728   3.336   2.974  0.00  0.00     0.078 C 
ATOM      2  C1  UNL d   1       2.479   2.552   2.702  0.00  0.00    -0.077 A 
ATOM      3  C2  UNL d   1       1.899   2.539   1.427  0.00  0.00    -0.001 A 
ATOM      4  C3  UNL d   1       0.731   1.813   1.191  0.00  0.00     0.003 A 
ATOM      5  C4  UNL d   1       0.131   1.095   2.224  0.00  0.00    -0.005 A 
ATOM      6  C5  UNL d   1       0.700   1.104   3.496  0.00  0.00     0.003 A 
ATOM      7  C6  UNL d   1       1.868   1.830   3.735  0.00  0.00    -0.001 A 
ENDROOT
TORSDOF 0
ENDMDL
