MODEL 1
REMARK minimizedAffinity 6.57557678
REMARK minimizedRMSD -1
REMARK  0 active torsions:
REMARK  status: ('A' for Active; 'I' for Inactive)
ROOT
ATOM      1  C   UNL d   1       0.370   1.001   0.070  0.00  0.00     0.078 C 
ATOM      2  C1  UNL d   1      -0.015  -0.313  -0.540  0.00  0.00    -0.077 A 
ATOM      3  C2  UNL d   1       0.712  -1.478  -0.263  0.00  0.00    -0.001 A 
ATOM      4  C3  UNL d   1       0.347  -2.693  -0.846  0.00  0.00     0.003 A 
ATOM      5  C4  UNL d   1      -0.745  -2.755  -1.710  0.00  0.00    -0.005 A 
ATOM      6  C5  UNL d   1      -1.473  -1.601  -1.993  0.00  0.00     0.003 A 
ATOM      7  C6  UNL d   1      -1.109  -0.385  -1.411  0.00  0.00    -0.001 A 
ENDROOT
TORSDOF 0
ENDMDL
