MODEL 1
REMARK minimizedAffinity -1.79341817
REMARK minimizedRMSD -1
REMARK  0 active torsions:
REMARK  status: ('A' for Active; 'I' for Inactive)
ROOT
ATOM      1  C   UNL d   1       3.225   1.253  -0.372  0.00  0.00     0.078 C 
ATOM      2  C1  UNL d   1       2.152   1.738   0.557  0.00  0.00    -0.077 A 
ATOM      3  C2  UNL d   1       0.848   1.963   0.098  0.00  0.00    -0.001 A 
ATOM      4  C3  UNL d   1      -0.139   2.423   0.971  0.00  0.00     0.003 A 
ATOM      5  C4  UNL d   1       0.169   2.665   2.309  0.00  0.00    -0.005 A 
ATOM      6  C5  UNL d   1       1.464   2.447   2.774  0.00  0.00     0.003 A 
ATOM      7  C6  UNL d   1       2.451   1.986   1.902  0.00  0.00    -0.001 A 
ENDROOT
TORSDOF 0
ENDMDL
