MODEL 1
REMARK minimizedAffinity 4.60786152
REMARK minimizedRMSD -1
REMARK  0 active torsions:
REMARK  status: ('A' for Active; 'I' for Inactive)
ROOT
ATOM      1  C   UNL d   1      -0.356   1.856  -0.255  0.00  0.00     0.078 C 
ATOM      2  C1  UNL d   1      -0.256   0.389  -0.551  0.00  0.00    -0.077 A 
ATOM      3  C2  UNL d   1       0.839  -0.363  -0.108  0.00  0.00    -0.001 A 
ATOM      4  C3  UNL d   1       0.923  -1.725  -0.399  0.00  0.00     0.003 A 
ATOM      5  C4  UNL d   1      -0.083  -2.347  -1.135  0.00  0.00    -0.005 A 
ATOM      6  C5  UNL d   1      -1.175  -1.607  -1.582  0.00  0.00     0.003 A 
ATOM      7  C6  UNL d   1      -1.262  -0.244  -1.292  0.00  0.00    -0.001 A 
ENDROOT
TORSDOF 0
ENDMDL
