MODEL 1
REMARK minimizedAffinity 7.81304979
REMARK minimizedRMSD -1
REMARK  0 active torsions:
REMARK  status: ('A' for Active; 'I' for Inactive)
ROOT
ATOM      1  C   UNL d   1       5.255  -4.869   0.168  0.00  0.00     0.172 C 
ATOM      2  N   UNL d   1       5.177  -3.532  -0.371  0.00  0.00    -0.070 N 
ATOM      3  C1  UNL d   1       6.000  -3.011  -1.334  0.00  0.00    -0.004 A 
ATOM      4  C2  UNL d   1       5.601  -1.713  -1.573  0.00  0.00    -0.047 A 
ATOM      5  C3  UNL d   1       4.500  -1.446  -0.724  0.00  0.00    -0.047 A 
ATOM      6  C4  UNL d   1       4.259  -2.588   0.009  0.00  0.00    -0.004 A 
ENDROOT
TORSDOF 0
ENDMDL
