MODEL 1
REMARK minimizedAffinity 4.00212383
REMARK minimizedRMSD -1
REMARK  0 active torsions:
REMARK  status: ('A' for Active; 'I' for Inactive)
ROOT
ATOM      1  C   UNL d   1       2.745   5.717   1.346  0.00  0.00     0.172 C 
ATOM      2  N   UNL d   1       1.648   4.962   0.789  0.00  0.00    -0.070 N 
ATOM      3  C1  UNL d   1       1.190   3.758   1.254  0.00  0.00    -0.004 A 
ATOM      4  C2  UNL d   1       0.136   3.370   0.454  0.00  0.00    -0.047 A 
ATOM      5  C3  UNL d   1      -0.044   4.375  -0.526  0.00  0.00    -0.047 A 
ATOM      6  C4  UNL d   1       0.905   5.348  -0.296  0.00  0.00    -0.004 A 
ENDROOT
TORSDOF 0
ENDMDL
