MODEL 1
REMARK minimizedAffinity 7.73945713
REMARK minimizedRMSD -1
REMARK  0 active torsions:
REMARK  status: ('A' for Active; 'I' for Inactive)
ROOT
ATOM      1  C   UNL d   1       5.653  -3.702  -4.710  0.00  0.00     0.172 C 
ATOM      2  N   UNL d   1       5.642  -3.292  -3.326  0.00  0.00    -0.070 N 
ATOM      3  C1  UNL d   1       5.997  -2.056  -2.857  0.00  0.00    -0.004 A 
ATOM      4  C2  UNL d   1       5.850  -2.066  -1.486  0.00  0.00    -0.047 A 
ATOM      5  C3  UNL d   1       5.391  -3.353  -1.119  0.00  0.00    -0.047 A 
ATOM      6  C4  UNL d   1       5.271  -4.092  -2.277  0.00  0.00    -0.004 A 
ENDROOT
TORSDOF 0
ENDMDL
