MODEL 1
REMARK minimizedAffinity 6.6546607
REMARK minimizedRMSD -1
REMARK  0 active torsions:
REMARK  status: ('A' for Active; 'I' for Inactive)
ROOT
ATOM      1  C   UNL d   1      -2.447  -0.375   3.771  0.00  0.00     0.172 C 
ATOM      2  N   UNL d   1      -3.891  -0.407   3.766  0.00  0.00    -0.070 N 
ATOM      3  C1  UNL d   1      -4.684  -0.803   4.810  0.00  0.00    -0.004 A 
ATOM      4  C2  UNL d   1      -5.998  -0.687   4.409  0.00  0.00    -0.047 A 
ATOM      5  C3  UNL d   1      -5.994  -0.205   3.079  0.00  0.00    -0.047 A 
ATOM      6  C4  UNL d   1      -4.677  -0.040   2.706  0.00  0.00    -0.004 A 
ENDROOT
TORSDOF 0
ENDMDL
