MODEL 1
REMARK minimizedAffinity 7.56572199
REMARK minimizedRMSD -1
REMARK  0 active torsions:
REMARK  status: ('A' for Active; 'I' for Inactive)
ROOT
ATOM      1  C   UNL d   1       3.097   4.933   1.835  0.00  0.00     0.172 C 
ATOM      2  N   UNL d   1       1.899   4.683   1.068  0.00  0.00    -0.070 N 
ATOM      3  C1  UNL d   1       1.179   3.518   1.070  0.00  0.00    -0.004 A 
ATOM      4  C2  UNL d   1       0.113   3.679   0.213  0.00  0.00    -0.047 A 
ATOM      5  C3  UNL d   1       0.195   4.986  -0.325  0.00  0.00    -0.047 A 
ATOM      6  C4  UNL d   1       1.311   5.585   0.222  0.00  0.00    -0.004 A 
ENDROOT
TORSDOF 0
ENDMDL
