MODEL 1
REMARK minimizedAffinity 5.2389183
REMARK minimizedRMSD -1
REMARK  0 active torsions:
REMARK  status: ('A' for Active; 'I' for Inactive)
ROOT
ATOM      1  C   UNL d   1       2.754   4.509   2.167  0.00  0.00     0.172 C 
ATOM      2  N   UNL d   1       1.643   4.459   1.246  0.00  0.00    -0.070 N 
ATOM      3  C1  UNL d   1       1.254   5.470   0.408  0.00  0.00    -0.004 A 
ATOM      4  C2  UNL d   1       0.159   5.030  -0.304  0.00  0.00    -0.047 A 
ATOM      5  C3  UNL d   1      -0.121   3.710   0.122  0.00  0.00    -0.047 A 
ATOM      6  C4  UNL d   1       0.813   3.381   1.082  0.00  0.00    -0.004 A 
ENDROOT
TORSDOF 0
ENDMDL
