MODEL 1
REMARK minimizedAffinity 1.91539991
REMARK minimizedRMSD -1
REMARK  0 active torsions:
REMARK  status: ('A' for Active; 'I' for Inactive)
ROOT
ATOM      1  C   UNL d   1       0.374   2.615   0.683  0.00  0.00     0.172 C 
ATOM      2  N   UNL d   1       0.257   3.980   0.229  0.00  0.00    -0.070 N 
ATOM      3  C1  UNL d   1       1.290   4.772  -0.197  0.00  0.00    -0.004 A 
ATOM      4  C2  UNL d   1       0.767   5.999  -0.544  0.00  0.00    -0.047 A 
ATOM      5  C3  UNL d   1      -0.629   5.943  -0.318  0.00  0.00    -0.047 A 
ATOM      6  C4  UNL d   1      -0.918   4.683   0.160  0.00  0.00    -0.004 A 
ENDROOT
TORSDOF 0
ENDMDL
