MODEL 1
REMARK minimizedAffinity 0.150514394
REMARK minimizedRMSD -1
REMARK  0 active torsions:
REMARK  status: ('A' for Active; 'I' for Inactive)
ROOT
ATOM      1  C   UNL d   1       5.994  -5.988  -0.160  0.00  0.00     0.172 C 
ATOM      2  N   UNL d   1       5.619  -5.203  -1.312  0.00  0.00    -0.070 N 
ATOM      3  C1  UNL d   1       4.842  -5.634  -2.354  0.00  0.00    -0.004 A 
ATOM      4  C2  UNL d   1       4.717  -4.592  -3.247  0.00  0.00    -0.047 A 
ATOM      5  C3  UNL d   1       5.445  -3.496  -2.724  0.00  0.00    -0.047 A 
ATOM      6  C4  UNL d   1       5.993  -3.902  -1.526  0.00  0.00    -0.004 A 
ENDROOT
TORSDOF 0
ENDMDL
