MODEL 1
REMARK minimizedAffinity 9.46952534
REMARK minimizedRMSD -1
REMARK  0 active torsions:
REMARK  status: ('A' for Active; 'I' for Inactive)
ROOT
ATOM      1  C   UNL d   1       2.308  -2.841   3.374  0.00  0.00     0.172 C 
ATOM      2  N   UNL d   1       2.122  -1.456   3.738  0.00  0.00    -0.070 N 
ATOM      3  C1  UNL d   1       1.205  -0.983   4.638  0.00  0.00    -0.004 A 
ATOM      4  C2  UNL d   1       1.345   0.386   4.703  0.00  0.00    -0.047 A 
ATOM      5  C3  UNL d   1       2.381   0.749   3.811  0.00  0.00    -0.047 A 
ATOM      6  C4  UNL d   1       2.845  -0.410   3.226  0.00  0.00    -0.004 A 
ENDROOT
TORSDOF 0
ENDMDL
