MODEL 1
REMARK minimizedAffinity 7.49307585
REMARK minimizedRMSD -1
REMARK  0 active torsions:
REMARK  status: ('A' for Active; 'I' for Inactive)
ROOT
ATOM      1  C   UNL d   1       5.661  -3.300  -4.365  0.00  0.00     0.172 C 
ATOM      2  N   UNL d   1       5.749  -3.024  -2.951  0.00  0.00    -0.070 N 
ATOM      3  C1  UNL d   1       5.994  -1.799  -2.390  0.00  0.00    -0.004 A 
ATOM      4  C2  UNL d   1       5.999  -1.955  -1.021  0.00  0.00    -0.047 A 
ATOM      5  C3  UNL d   1       5.749  -3.321  -0.749  0.00  0.00    -0.047 A 
ATOM      6  C4  UNL d   1       5.599  -3.960  -1.962  0.00  0.00    -0.004 A 
ENDROOT
TORSDOF 0
ENDMDL
