MODEL 1
REMARK minimizedAffinity 8.96480465
REMARK minimizedRMSD -1
REMARK  0 active torsions:
REMARK  status: ('A' for Active; 'I' for Inactive)
ROOT
ATOM      1  C   UNL d   1       5.284  -1.609  -0.755  0.00  0.00     0.172 C 
ATOM      2  N   UNL d   1       5.447  -2.885  -1.411  0.00  0.00    -0.070 N 
ATOM      3  C1  UNL d   1       5.830  -4.051  -0.804  0.00  0.00    -0.004 A 
ATOM      4  C2  UNL d   1       5.866  -5.036  -1.768  0.00  0.00    -0.047 A 
ATOM      5  C3  UNL d   1       5.493  -4.441  -2.996  0.00  0.00    -0.047 A 
ATOM      6  C4  UNL d   1       5.239  -3.109  -2.747  0.00  0.00    -0.004 A 
ENDROOT
TORSDOF 0
ENDMDL
