MODEL 1
REMARK minimizedAffinity 2.73644781
REMARK minimizedRMSD -1
REMARK  0 active torsions:
REMARK  status: ('A' for Active; 'I' for Inactive)
ROOT
ATOM      1  C   UNL d   1      -1.108   2.691  -0.430  0.00  0.00     0.077 C 
ATOM      2  C1  UNL d   1      -2.211   1.882   0.186  0.00  0.00    -0.074 A 
ATOM      3  C2  UNL d   1      -1.933   0.705   0.888  0.00  0.00    -0.005 A 
ATOM      4  C3  UNL d   1      -2.968  -0.031   1.464  0.00  0.00     0.006 A 
ATOM      5  C4  UNL d   1      -4.289   0.401   1.344  0.00  0.00    -0.005 A 
ATOM      6  C5  UNL d   1      -4.586   1.576   0.646  0.00  0.00    -0.074 A 
ATOM      7  C6  UNL d   1      -6.000   2.060   0.516  0.00  0.00     0.077 C 
ATOM      8  C7  UNL d   1      -3.540   2.314   0.076  0.00  0.00    -0.001 A 
ENDROOT
TORSDOF 0
ENDMDL
