MODEL 1
REMARK minimizedAffinity 9.65838432
REMARK minimizedRMSD -1
REMARK  0 active torsions:
REMARK  status: ('A' for Active; 'I' for Inactive)
ROOT
ATOM      1  C   UNL d   1      -3.787  -0.130   1.077  0.00  0.00     0.077 C 
ATOM      2  C1  UNL d   1      -3.011   0.983   0.438  0.00  0.00    -0.074 A 
ATOM      3  C2  UNL d   1      -3.656   1.966  -0.320  0.00  0.00    -0.005 A 
ATOM      4  C3  UNL d   1      -2.922   3.001  -0.900  0.00  0.00     0.006 A 
ATOM      5  C4  UNL d   1      -1.538   3.063  -0.728  0.00  0.00    -0.005 A 
ATOM      6  C5  UNL d   1      -0.877   2.090   0.028  0.00  0.00    -0.074 A 
ATOM      7  C6  UNL d   1       0.608   2.147   0.231  0.00  0.00     0.077 C 
ATOM      8  C7  UNL d   1      -1.622   1.057   0.613  0.00  0.00    -0.001 A 
ENDROOT
TORSDOF 0
ENDMDL
