MODEL 1
REMARK minimizedAffinity -5.50029039
REMARK minimizedRMSD -1
REMARK  0 active torsions:
REMARK  status: ('A' for Active; 'I' for Inactive)
ROOT
ATOM      1  C   UNL d   1       0.495   2.175  -0.050  0.00  0.00     0.077 C 
ATOM      2  C1  UNL d   1      -0.693   1.416   0.462  0.00  0.00    -0.074 A 
ATOM      3  C2  UNL d   1      -0.534   0.206   1.144  0.00  0.00    -0.005 A 
ATOM      4  C3  UNL d   1      -1.649  -0.484   1.622  0.00  0.00     0.006 A 
ATOM      5  C4  UNL d   1      -2.931   0.029   1.423  0.00  0.00    -0.005 A 
ATOM      6  C5  UNL d   1      -3.110   1.239   0.744  0.00  0.00    -0.074 A 
ATOM      7  C6  UNL d   1      -4.480   1.809   0.530  0.00  0.00     0.077 C 
ATOM      8  C7  UNL d   1      -1.984   1.929   0.273  0.00  0.00    -0.001 A 
ENDROOT
TORSDOF 0
ENDMDL
