MODEL 1
REMARK minimizedAffinity 1.09327853
REMARK minimizedRMSD -1
REMARK  0 active torsions:
REMARK  status: ('A' for Active; 'I' for Inactive)
ROOT
ATOM      1  C   UNL d   1       0.866   1.915  -0.040  0.00  0.00     0.077 C 
ATOM      2  C1  UNL d   1      -0.534   1.413   0.157  0.00  0.00    -0.074 A 
ATOM      3  C2  UNL d   1      -0.787   0.263   0.911  0.00  0.00    -0.005 A 
ATOM      4  C3  UNL d   1      -2.095  -0.185   1.093  0.00  0.00     0.006 A 
ATOM      5  C4  UNL d   1      -3.162   0.510   0.523  0.00  0.00    -0.005 A 
ATOM      6  C5  UNL d   1      -2.929   1.663  -0.234  0.00  0.00    -0.074 A 
ATOM      7  C6  UNL d   1      -4.065   2.428  -0.845  0.00  0.00     0.077 C 
ATOM      8  C7  UNL d   1      -1.612   2.111  -0.406  0.00  0.00    -0.001 A 
ENDROOT
TORSDOF 0
ENDMDL
