MODEL 1
REMARK minimizedAffinity -0.138642862
REMARK minimizedRMSD -1
REMARK  0 active torsions:
REMARK  status: ('A' for Active; 'I' for Inactive)
ROOT
ATOM      1  C   UNL d   1      -3.417  -0.550   0.681  0.00  0.00     0.077 C 
ATOM      2  C1  UNL d   1      -2.425   0.548   0.442  0.00  0.00    -0.074 A 
ATOM      3  C2  UNL d   1      -2.818   1.757  -0.143  0.00  0.00    -0.005 A 
ATOM      4  C3  UNL d   1      -1.885   2.773  -0.350  0.00  0.00     0.006 A 
ATOM      5  C4  UNL d   1      -0.553   2.592   0.024  0.00  0.00    -0.005 A 
ATOM      6  C5  UNL d   1      -0.142   1.391   0.610  0.00  0.00    -0.074 A 
ATOM      7  C6  UNL d   1       1.283   1.184   1.027  0.00  0.00     0.077 C 
ATOM      8  C7  UNL d   1      -1.087   0.377   0.822  0.00  0.00    -0.001 A 
ENDROOT
TORSDOF 0
ENDMDL
