MODEL 1
REMARK minimizedAffinity -1.79772544
REMARK minimizedRMSD -1
REMARK  0 active torsions:
REMARK  status: ('A' for Active; 'I' for Inactive)
ROOT
ATOM      1  C   UNL d   1      -3.017   2.753  -0.563  0.00  0.00     0.077 C 
ATOM      2  C1  UNL d   1      -1.891   1.942   0.005  0.00  0.00    -0.074 A 
ATOM      3  C2  UNL d   1      -0.565   2.370  -0.115  0.00  0.00    -0.005 A 
ATOM      4  C3  UNL d   1       0.471   1.609   0.427  0.00  0.00     0.006 A 
ATOM      5  C4  UNL d   1       0.193   0.414   1.091  0.00  0.00    -0.005 A 
ATOM      6  C5  UNL d   1      -1.127  -0.029   1.221  0.00  0.00    -0.074 A 
ATOM      7  C6  UNL d   1      -1.445  -1.306   1.941  0.00  0.00     0.077 C 
ATOM      8  C7  UNL d   1      -2.163   0.744   0.681  0.00  0.00    -0.001 A 
ENDROOT
TORSDOF 0
ENDMDL
