MODEL 1
REMARK minimizedAffinity -2.21361256
REMARK minimizedRMSD -1
REMARK  0 active torsions:
REMARK  status: ('A' for Active; 'I' for Inactive)
ROOT
ATOM      1  C   UNL d   1       0.755   1.072   0.045  0.00  0.00     0.077 C 
ATOM      2  C1  UNL d   1      -0.726   1.201   0.242  0.00  0.00    -0.074 A 
ATOM      3  C2  UNL d   1      -1.421   2.315  -0.239  0.00  0.00    -0.005 A 
ATOM      4  C3  UNL d   1      -2.800   2.417  -0.056  0.00  0.00     0.006 A 
ATOM      5  C4  UNL d   1      -3.496   1.408   0.610  0.00  0.00    -0.005 A 
ATOM      6  C5  UNL d   1      -2.819   0.286   1.097  0.00  0.00    -0.074 A 
ATOM      7  C6  UNL d   1      -3.554  -0.812   1.806  0.00  0.00     0.077 C 
ATOM      8  C7  UNL d   1      -1.434   0.188   0.903  0.00  0.00    -0.001 A 
ENDROOT
TORSDOF 0
ENDMDL
