MODEL 1
REMARK minimizedAffinity 3.88289523
REMARK minimizedRMSD -1
REMARK  0 active torsions:
REMARK  status: ('A' for Active; 'I' for Inactive)
ROOT
ATOM      1  C   UNL d   1       0.117  -5.611  -3.308  0.00  0.00     0.077 C 
ATOM      2  C1  UNL d   1      -0.833  -4.776  -2.502  0.00  0.00    -0.074 A 
ATOM      3  C2  UNL d   1      -1.255  -5.189  -1.235  0.00  0.00    -0.005 A 
ATOM      4  C3  UNL d   1      -2.131  -4.398  -0.492  0.00  0.00     0.006 A 
ATOM      5  C4  UNL d   1      -2.594  -3.187  -1.009  0.00  0.00    -0.005 A 
ATOM      6  C5  UNL d   1      -2.182  -2.757  -2.275  0.00  0.00    -0.074 A 
ATOM      7  C6  UNL d   1      -2.661  -1.453  -2.841  0.00  0.00     0.077 C 
ATOM      8  C7  UNL d   1      -1.295  -3.554  -3.011  0.00  0.00    -0.001 A 
ENDROOT
TORSDOF 0
ENDMDL
