MODEL 1
REMARK minimizedAffinity 1.2689029
REMARK minimizedRMSD -1
REMARK  0 active torsions:
REMARK  status: ('A' for Active; 'I' for Inactive)
ROOT
ATOM      1  C   UNL d   1      -3.570  -0.647   1.652  0.00  0.00     0.077 C 
ATOM      2  C1  UNL d   1      -2.707   0.380   0.980  0.00  0.00    -0.074 A 
ATOM      3  C2  UNL d   1      -3.267   1.357   0.151  0.00  0.00    -0.005 A 
ATOM      4  C3  UNL d   1      -2.454   2.311  -0.460  0.00  0.00     0.006 A 
ATOM      5  C4  UNL d   1      -1.075   2.298  -0.248  0.00  0.00    -0.005 A 
ATOM      6  C5  UNL d   1      -0.497   1.330   0.579  0.00  0.00    -0.074 A 
ATOM      7  C6  UNL d   1       0.982   1.308   0.826  0.00  0.00     0.077 C 
ATOM      8  C7  UNL d   1      -1.322   0.379   1.195  0.00  0.00    -0.001 A 
ENDROOT
TORSDOF 0
ENDMDL
