MODEL 1
REMARK minimizedAffinity 8.49545383
REMARK minimizedRMSD -1
REMARK  0 active torsions:
REMARK  status: ('A' for Active; 'I' for Inactive)
ROOT
ATOM      1  C   UNL d   1      -3.357  -0.754   1.181  0.00  0.00     0.077 C 
ATOM      2  C1  UNL d   1      -2.545   0.397   0.666  0.00  0.00    -0.074 A 
ATOM      3  C2  UNL d   1      -3.106   1.344  -0.196  0.00  0.00    -0.005 A 
ATOM      4  C3  UNL d   1      -2.341   2.415  -0.659  0.00  0.00     0.006 A 
ATOM      5  C4  UNL d   1      -1.009   2.547  -0.267  0.00  0.00    -0.005 A 
ATOM      6  C5  UNL d   1      -0.430   1.610   0.595  0.00  0.00    -0.074 A 
ATOM      7  C6  UNL d   1       0.998   1.743   1.034  0.00  0.00     0.077 C 
ATOM      8  C7  UNL d   1      -1.208   0.541   1.062  0.00  0.00    -0.001 A 
ENDROOT
TORSDOF 0
ENDMDL
