MODEL 1
REMARK minimizedAffinity 0.587354839
REMARK minimizedRMSD -1
REMARK  0 active torsions:
REMARK  status: ('A' for Active; 'I' for Inactive)
ROOT
ATOM      1  C   UNL d   1      -3.604  -0.736   1.682  0.00  0.00     0.077 C 
ATOM      2  C1  UNL d   1      -2.670   0.251   1.048  0.00  0.00    -0.074 A 
ATOM      3  C2  UNL d   1      -3.160   1.348   0.333  0.00  0.00    -0.005 A 
ATOM      4  C3  UNL d   1      -2.279   2.263  -0.243  0.00  0.00     0.006 A 
ATOM      5  C4  UNL d   1      -0.901   2.090  -0.110  0.00  0.00    -0.005 A 
ATOM      6  C5  UNL d   1      -0.392   1.000   0.602  0.00  0.00    -0.074 A 
ATOM      7  C6  UNL d   1       1.087   0.806   0.763  0.00  0.00     0.077 C 
ATOM      8  C7  UNL d   1      -1.284   0.089   1.184  0.00  0.00    -0.001 A 
ENDROOT
TORSDOF 0
ENDMDL
