MODEL 1
REMARK minimizedAffinity 2.1732893
REMARK minimizedRMSD -1
REMARK  0 active torsions:
REMARK  status: ('A' for Active; 'I' for Inactive)
ROOT
ATOM      1  C   UNL d   1       0.838   1.500   1.857  0.00  0.00     0.077 C 
ATOM      2  C1  UNL d   1      -0.472   1.684   1.150  0.00  0.00    -0.074 A 
ATOM      3  C2  UNL d   1      -0.612   2.631   0.131  0.00  0.00    -0.005 A 
ATOM      4  C3  UNL d   1      -1.834   2.785  -0.523  0.00  0.00     0.006 A 
ATOM      5  C4  UNL d   1      -2.927   1.994  -0.166  0.00  0.00    -0.005 A 
ATOM      6  C5  UNL d   1      -2.806   1.041   0.850  0.00  0.00    -0.074 A 
ATOM      7  C6  UNL d   1      -3.967   0.176   1.240  0.00  0.00     0.077 C 
ATOM      8  C7  UNL d   1      -1.572   0.888   1.498  0.00  0.00    -0.001 A 
ENDROOT
TORSDOF 0
ENDMDL
