MODEL 1
REMARK minimizedAffinity -0.419348419
REMARK minimizedRMSD -1
REMARK  0 active torsions:
REMARK  status: ('A' for Active; 'I' for Inactive)
ROOT
ATOM      1  C   UNL d   1       0.643   0.337   1.093  0.00  0.00     0.077 C 
ATOM      2  C1  UNL d   1      -0.621   1.078   0.772  0.00  0.00    -0.074 A 
ATOM      3  C2  UNL d   1      -0.582   2.388   0.285  0.00  0.00    -0.005 A 
ATOM      4  C3  UNL d   1      -1.765   3.062  -0.019  0.00  0.00     0.006 A 
ATOM      5  C4  UNL d   1      -2.998   2.432   0.161  0.00  0.00    -0.005 A 
ATOM      6  C5  UNL d   1      -3.056   1.122   0.646  0.00  0.00    -0.074 A 
ATOM      7  C6  UNL d   1      -4.372   0.427   0.836  0.00  0.00     0.077 C 
ATOM      8  C7  UNL d   1      -1.863   0.450   0.942  0.00  0.00    -0.001 A 
ENDROOT
TORSDOF 0
ENDMDL
