MODEL 1
REMARK minimizedAffinity 2.08536625
REMARK minimizedRMSD -1
REMARK  0 active torsions:
REMARK  status: ('A' for Active; 'I' for Inactive)
ROOT
ATOM      1  C   UNL d   1      -0.321   2.716   3.068  0.00  0.00     0.077 C 
ATOM      2  C1  UNL d   1       0.626   2.107   2.077  0.00  0.00    -0.074 A 
ATOM      3  C2  UNL d   1       0.155   1.311   1.028  0.00  0.00    -0.005 A 
ATOM      4  C3  UNL d   1       1.047   0.759   0.109  0.00  0.00     0.006 A 
ATOM      5  C4  UNL d   1       2.417   0.996   0.229  0.00  0.00    -0.005 A 
ATOM      6  C5  UNL d   1       2.906   1.789   1.272  0.00  0.00    -0.074 A 
ATOM      7  C6  UNL d   1       4.375   2.062   1.410  0.00  0.00     0.077 C 
ATOM      8  C7  UNL d   1       2.003   2.347   2.187  0.00  0.00    -0.001 A 
ENDROOT
TORSDOF 0
ENDMDL
