MODEL 1
REMARK minimizedAffinity 4.9541254
REMARK minimizedRMSD -1
REMARK  0 active torsions:
REMARK  status: ('A' for Active; 'I' for Inactive)
ROOT
ATOM      1  C   UNL d   1      -6.000   1.861   0.027  0.00  0.00     0.077 C 
ATOM      2  C1  UNL d   1      -4.566   1.557   0.348  0.00  0.00    -0.074 A 
ATOM      3  C2  UNL d   1      -3.527   2.267  -0.263  0.00  0.00    -0.005 A 
ATOM      4  C3  UNL d   1      -2.199   1.980   0.054  0.00  0.00     0.006 A 
ATOM      5  C4  UNL d   1      -1.898   0.982   0.982  0.00  0.00    -0.005 A 
ATOM      6  C5  UNL d   1      -2.924   0.263   1.603  0.00  0.00    -0.074 A 
ATOM      7  C6  UNL d   1      -2.617  -0.805   2.611  0.00  0.00     0.077 C 
ATOM      8  C7  UNL d   1      -4.256   0.562   1.286  0.00  0.00    -0.001 A 
ENDROOT
TORSDOF 0
ENDMDL
