MODEL 1
REMARK minimizedAffinity -0.721358716
REMARK minimizedRMSD -1
REMARK  0 active torsions:
REMARK  status: ('A' for Active; 'I' for Inactive)
ROOT
ATOM      1  C   UNL d   1       3.181   1.804   1.246  0.00  0.00     0.077 C 
ATOM      2  C1  UNL d   1       1.685   1.727   1.173  0.00  0.00    -0.074 A 
ATOM      3  C2  UNL d   1       1.052   0.870   0.267  0.00  0.00    -0.005 A 
ATOM      4  C3  UNL d   1      -0.340   0.802   0.217  0.00  0.00     0.006 A 
ATOM      5  C4  UNL d   1      -1.113   1.591   1.071  0.00  0.00    -0.005 A 
ATOM      6  C5  UNL d   1      -0.498   2.453   1.984  0.00  0.00    -0.074 A 
ATOM      7  C6  UNL d   1      -1.313   3.300   2.915  0.00  0.00     0.077 C 
ATOM      8  C7  UNL d   1       0.902   2.510   2.033  0.00  0.00    -0.001 A 
ENDROOT
TORSDOF 0
ENDMDL
