MODEL 1
REMARK minimizedAffinity 8.00927734
REMARK minimizedRMSD -1
REMARK  0 active torsions:
REMARK  status: ('A' for Active; 'I' for Inactive)
ROOT
ATOM      1  C   UNL d   1      -2.980  -1.346   0.316  0.00  0.00     0.077 C 
ATOM      2  C1  UNL d   1      -1.502  -1.173   0.501  0.00  0.00    -0.074 A 
ATOM      3  C2  UNL d   1      -0.737  -2.157   1.136  0.00  0.00    -0.005 A 
ATOM      4  C3  UNL d   1       0.638  -1.986   1.292  0.00  0.00     0.006 A 
ATOM      5  C4  UNL d   1       1.262  -0.832   0.817  0.00  0.00    -0.005 A 
ATOM      6  C5  UNL d   1       0.513   0.162   0.179  0.00  0.00    -0.074 A 
ATOM      7  C6  UNL d   1       1.169   1.404  -0.347  0.00  0.00     0.077 C 
ATOM      8  C7  UNL d   1      -0.867  -0.020   0.019  0.00  0.00    -0.001 A 
ENDROOT
TORSDOF 0
ENDMDL
