MODEL 1
REMARK minimizedAffinity 4.60258818
REMARK minimizedRMSD -1
REMARK  1 active torsions:
REMARK  status: ('A' for Active; 'I' for Inactive)
REMARK    1  A    between atoms: N_2  and  C1_3 
ROOT
ATOM      1  C1  UNL d   1       0.975   4.239  -3.991  0.00  0.00     0.143 A 
ATOM      2  C2  UNL d   1       1.434   5.044  -5.038  0.00  0.00    -0.057 A 
ATOM      3  C3  UNL d   1       0.553   5.563  -5.995  0.00  0.00     0.033 A 
ATOM      4  C4  UNL d   1      -0.803   5.262  -5.936  0.00  0.00    -0.042 A 
ATOM      5  C5  UNL d   1      -1.278   4.443  -4.917  0.00  0.00     0.033 A 
ATOM      6  C6  UNL d   1      -0.395   3.933  -3.962  0.00  0.00    -0.057 A 
ENDROOT
BRANCH   1   7
ATOM      7  N   UNL d   1       1.814   3.612  -3.066  0.00  0.00    -0.732 N 
ATOM      8  C   UNL d   1       1.377   2.427  -2.359  0.00  0.00     0.284 C 
ATOM      9  H3  UNL d   1       2.781   3.575  -3.382  0.00  0.00     0.395 HD
ENDBRANCH   1   7
TORSDOF 1
ENDMDL
