MODEL 1
REMARK minimizedAffinity 8.31340599
REMARK minimizedRMSD -1
REMARK  1 active torsions:
REMARK  status: ('A' for Active; 'I' for Inactive)
REMARK    1  A    between atoms: N_2  and  C1_3 
ROOT
ATOM      1  C1  UNL d   1       0.186   4.562  -4.956  0.00  0.00     0.143 A 
ATOM      2  C2  UNL d   1      -0.223   4.154  -3.682  0.00  0.00    -0.057 A 
ATOM      3  C3  UNL d   1       0.707   3.775  -2.708  0.00  0.00     0.033 A 
ATOM      4  C4  UNL d   1       2.067   3.769  -3.001  0.00  0.00    -0.042 A 
ATOM      5  C5  UNL d   1       2.495   4.147  -4.268  0.00  0.00     0.033 A 
ATOM      6  C6  UNL d   1       1.561   4.531  -5.235  0.00  0.00    -0.057 A 
ENDROOT
BRANCH   1   7
ATOM      7  N   UNL d   1      -0.696   4.857  -5.999  0.00  0.00    -0.732 N 
ATOM      8  C   UNL d   1      -2.078   5.185  -5.725  0.00  0.00     0.284 C 
ATOM      9  H3  UNL d   1      -0.266   5.433  -6.720  0.00  0.00     0.395 HD
ENDBRANCH   1   7
TORSDOF 1
ENDMDL
