MODEL 1
REMARK minimizedAffinity 5.0167675
REMARK minimizedRMSD -1
REMARK  1 active torsions:
REMARK  status: ('A' for Active; 'I' for Inactive)
REMARK    1  A    between atoms: N_2  and  C1_3 
ROOT
ATOM      1  C1  UNL d   1       0.864   4.543  -3.959  0.00  0.00     0.143 A 
ATOM      2  C2  UNL d   1       1.515   5.214  -5.000  0.00  0.00    -0.057 A 
ATOM      3  C3  UNL d   1       0.793   5.877  -6.000  0.00  0.00     0.033 A 
ATOM      4  C4  UNL d   1      -0.598   5.855  -5.992  0.00  0.00    -0.042 A 
ATOM      5  C5  UNL d   1      -1.266   5.172  -4.981  0.00  0.00     0.033 A 
ATOM      6  C6  UNL d   1      -0.539   4.518  -3.982  0.00  0.00    -0.057 A 
ENDROOT
BRANCH   1   7
ATOM      7  N   UNL d   1       1.525   3.783  -2.990  0.00  0.00    -0.732 N 
ATOM      8  C   UNL d   1       1.044   2.466  -2.633  0.00  0.00     0.284 C 
ATOM      9  H3  UNL d   1       2.537   3.849  -3.069  0.00  0.00     0.395 HD
ENDBRANCH   1   7
TORSDOF 1
ENDMDL
