MODEL 1
REMARK minimizedAffinity 1.35826468
REMARK minimizedRMSD -1
REMARK  1 active torsions:
REMARK  status: ('A' for Active; 'I' for Inactive)
REMARK    1  A    between atoms: N_2  and  C1_3 
ROOT
ATOM      1  C1  UNL d   1       0.654   4.281  -3.614  0.00  0.00     0.143 A 
ATOM      2  C2  UNL d   1       1.272   4.841  -4.737  0.00  0.00    -0.057 A 
ATOM      3  C3  UNL d   1       0.550   5.106  -5.907  0.00  0.00     0.033 A 
ATOM      4  C4  UNL d   1      -0.802   4.788  -5.984  0.00  0.00    -0.042 A 
ATOM      5  C5  UNL d   1      -1.431   4.207  -4.889  0.00  0.00     0.033 A 
ATOM      6  C6  UNL d   1      -0.706   3.951  -3.721  0.00  0.00    -0.057 A 
ENDROOT
BRANCH   1   7
ATOM      7  N   UNL d   1       1.339   3.903  -2.457  0.00  0.00    -0.732 N 
ATOM      8  C   UNL d   1       1.210   2.561  -1.929  0.00  0.00     0.284 C 
ATOM      9  H3  UNL d   1       2.287   4.271  -2.429  0.00  0.00     0.395 HD
ENDBRANCH   1   7
TORSDOF 1
ENDMDL
