MODEL 1
REMARK minimizedAffinity 3.00781989
REMARK minimizedRMSD -1
REMARK  1 active torsions:
REMARK  status: ('A' for Active; 'I' for Inactive)
REMARK    1  A    between atoms: N_2  and  C1_3 
ROOT
ATOM      1  C1  UNL d   1       1.026   4.679  -3.971  0.00  0.00     0.143 A 
ATOM      2  C2  UNL d   1       1.294   5.608  -4.982  0.00  0.00    -0.057 A 
ATOM      3  C3  UNL d   1       0.353   5.887  -5.980  0.00  0.00     0.033 A 
ATOM      4  C4  UNL d   1      -0.867   5.218  -6.000  0.00  0.00    -0.042 A 
ATOM      5  C5  UNL d   1      -1.145   4.273  -5.019  0.00  0.00     0.033 A 
ATOM      6  C6  UNL d   1      -0.203   4.003  -4.022  0.00  0.00    -0.057 A 
ENDROOT
BRANCH   1   7
ATOM      7  N   UNL d   1       1.960   4.286  -3.008  0.00  0.00    -0.732 N 
ATOM      8  C   UNL d   1       1.871   2.983  -2.385  0.00  0.00     0.284 C 
ATOM      9  H3  UNL d   1       2.907   4.568  -3.248  0.00  0.00     0.395 HD
ENDBRANCH   1   7
TORSDOF 1
ENDMDL
