MODEL 1
REMARK minimizedAffinity 4.47766876
REMARK minimizedRMSD -1
REMARK  1 active torsions:
REMARK  status: ('A' for Active; 'I' for Inactive)
REMARK    1  A    between atoms: N_2  and  C1_3 
ROOT
ATOM      1  C1  UNL d   1       0.254   4.213  -3.998  0.00  0.00     0.143 A 
ATOM      2  C2  UNL d   1      -1.115   4.500  -3.982  0.00  0.00    -0.057 A 
ATOM      3  C3  UNL d   1      -1.700   5.304  -4.968  0.00  0.00     0.033 A 
ATOM      4  C4  UNL d   1      -0.918   5.859  -5.975  0.00  0.00    -0.042 A 
ATOM      5  C5  UNL d   1       0.449   5.607  -5.997  0.00  0.00     0.033 A 
ATOM      6  C6  UNL d   1       1.026   4.799  -5.013  0.00  0.00    -0.057 A 
ENDROOT
BRANCH   1   7
ATOM      7  N   UNL d   1       0.911   3.502  -2.991  0.00  0.00    -0.732 N 
ATOM      8  C   UNL d   1       0.369   2.256  -2.494  0.00  0.00     0.284 C 
ATOM      9  H3  UNL d   1       1.921   3.496  -3.116  0.00  0.00     0.395 HD
ENDBRANCH   1   7
TORSDOF 1
ENDMDL
