MODEL 1
REMARK minimizedAffinity 6.97981644
REMARK minimizedRMSD -1
REMARK  1 active torsions:
REMARK  status: ('A' for Active; 'I' for Inactive)
REMARK    1  A    between atoms: N_2  and  C1_3 
ROOT
ATOM      1  C1  UNL d   1       0.792   4.568  -3.708  0.00  0.00     0.143 A 
ATOM      2  C2  UNL d   1      -0.580   4.842  -3.705  0.00  0.00    -0.057 A 
ATOM      3  C3  UNL d   1      -1.217   5.369  -4.835  0.00  0.00     0.033 A 
ATOM      4  C4  UNL d   1      -0.486   5.659  -5.982  0.00  0.00    -0.042 A 
ATOM      5  C5  UNL d   1       0.884   5.418  -5.999  0.00  0.00     0.033 A 
ATOM      6  C6  UNL d   1       1.513   4.886  -4.870  0.00  0.00    -0.057 A 
ENDROOT
BRANCH   1   7
ATOM      7  N   UNL d   1       1.501   4.136  -2.585  0.00  0.00    -0.732 N 
ATOM      8  C   UNL d   1       1.525   2.736  -2.221  0.00  0.00     0.284 C 
ATOM      9  H3  UNL d   1       2.399   4.606  -2.488  0.00  0.00     0.395 HD
ENDBRANCH   1   7
TORSDOF 1
ENDMDL
