MODEL 1
REMARK minimizedAffinity -0.097261481
REMARK minimizedRMSD -1
REMARK  0 active torsions:
REMARK  status: ('A' for Active; 'I' for Inactive)
ROOT
ATOM      1  C   UNL d   1       3.028  -0.470  -0.704  0.00  0.00     0.023 A 
ATOM      2  C1  UNL d   1       2.138  -1.537  -0.584  0.00  0.00     0.003 A 
ATOM      3  C2  UNL d   1       0.782  -1.295  -0.354  0.00  0.00     0.048 A 
ATOM      4  C3  UNL d   1       0.323   0.017  -0.245  0.00  0.00     0.023 A 
ATOM      5  C4  UNL d   1       1.210   1.088  -0.365  0.00  0.00     0.048 A 
ATOM      6  C5  UNL d   1       2.564   0.841  -0.595  0.00  0.00     0.003 A 
ATOM      7  I   UNL d   1      -1.694   0.380   0.098  0.00  0.00    -0.146 I 
ENDROOT
TORSDOF 0
ENDMDL
