MODEL 1
REMARK minimizedAffinity -4.08363247
REMARK minimizedRMSD -1
REMARK  0 active torsions:
REMARK  status: ('A' for Active; 'I' for Inactive)
ROOT
ATOM      1  C   UNL d   1       2.756  -0.274  -0.139  0.00  0.00     0.023 A 
ATOM      2  C1  UNL d   1       2.404   1.074  -0.076  0.00  0.00     0.003 A 
ATOM      3  C2  UNL d   1       1.058   1.446  -0.065  0.00  0.00     0.048 A 
ATOM      4  C3  UNL d   1       0.069   0.464  -0.116  0.00  0.00     0.023 A 
ATOM      5  C4  UNL d   1       0.417  -0.886  -0.178  0.00  0.00     0.048 A 
ATOM      6  C5  UNL d   1       1.764  -1.253  -0.190  0.00  0.00     0.003 A 
ATOM      7  I   UNL d   1      -1.935   1.015  -0.098  0.00  0.00    -0.146 I 
ENDROOT
TORSDOF 0
ENDMDL
