MODEL 1
REMARK minimizedAffinity -4.09478617
REMARK minimizedRMSD -1
REMARK  0 active torsions:
REMARK  status: ('A' for Active; 'I' for Inactive)
ROOT
ATOM      1  C   UNL d   1       2.334  -1.494   0.518  0.00  0.00     0.023 A 
ATOM      2  C1  UNL d   1       1.474  -2.086  -0.408  0.00  0.00     0.003 A 
ATOM      3  C2  UNL d   1       0.243  -1.494  -0.696  0.00  0.00     0.048 A 
ATOM      4  C3  UNL d   1      -0.122  -0.310  -0.056  0.00  0.00     0.023 A 
ATOM      5  C4  UNL d   1       0.736   0.286   0.870  0.00  0.00     0.048 A 
ATOM      6  C5  UNL d   1       1.966  -0.310   1.156  0.00  0.00     0.003 A 
ATOM      7  I   UNL d   1      -1.954   0.573  -0.483  0.00  0.00    -0.146 I 
ENDROOT
TORSDOF 0
ENDMDL
