MODEL 1
REMARK minimizedAffinity -2.99547529
REMARK minimizedRMSD -1
REMARK  0 active torsions:
REMARK  status: ('A' for Active; 'I' for Inactive)
ROOT
ATOM      1  C   UNL d   1       2.444  -1.613   0.205  0.00  0.00     0.023 A 
ATOM      2  C1  UNL d   1       2.278  -0.365   0.806  0.00  0.00     0.003 A 
ATOM      3  C2  UNL d   1       1.088   0.344   0.629  0.00  0.00     0.048 A 
ATOM      4  C3  UNL d   1       0.068  -0.201  -0.149  0.00  0.00     0.023 A 
ATOM      5  C4  UNL d   1       0.229  -1.450  -0.751  0.00  0.00     0.048 A 
ATOM      6  C5  UNL d   1       1.420  -2.155  -0.572  0.00  0.00     0.003 A 
ATOM      7  I   UNL d   1      -1.704   0.852  -0.414  0.00  0.00    -0.146 I 
ENDROOT
TORSDOF 0
ENDMDL
