MODEL 1
REMARK minimizedAffinity -3.19049788
REMARK minimizedRMSD -1
REMARK  0 active torsions:
REMARK  status: ('A' for Active; 'I' for Inactive)
ROOT
ATOM      1  C   UNL d   1       3.704   0.375   0.549  0.00  0.00     0.023 A 
ATOM      2  C1  UNL d   1       2.967   1.556   0.465  0.00  0.00     0.003 A 
ATOM      3  C2  UNL d   1       1.605   1.511   0.161  0.00  0.00     0.048 A 
ATOM      4  C3  UNL d   1       0.986   0.281  -0.058  0.00  0.00     0.023 A 
ATOM      5  C4  UNL d   1       1.719  -0.904   0.026  0.00  0.00     0.048 A 
ATOM      6  C5  UNL d   1       3.081  -0.854   0.329  0.00  0.00     0.003 A 
ATOM      7  I   UNL d   1      -1.042   0.210  -0.510  0.00  0.00    -0.146 I 
ENDROOT
TORSDOF 0
ENDMDL
