MODEL 1
REMARK minimizedAffinity -2.17211461
REMARK minimizedRMSD -1
REMARK  0 active torsions:
REMARK  status: ('A' for Active; 'I' for Inactive)
ROOT
ATOM      1  C   UNL d   1      -1.191   0.769  -0.284  0.00  0.00     0.023 A 
ATOM      2  C1  UNL d   1      -1.207  -0.598  -0.566  0.00  0.00     0.003 A 
ATOM      3  C2  UNL d   1      -0.046  -1.357  -0.410  0.00  0.00     0.048 A 
ATOM      4  C3  UNL d   1       1.127  -0.744   0.030  0.00  0.00     0.023 A 
ATOM      5  C4  UNL d   1       1.147   0.622   0.314  0.00  0.00     0.048 A 
ATOM      6  C5  UNL d   1      -0.016   1.378   0.155  0.00  0.00     0.003 A 
ATOM      7  I   UNL d   1       2.857  -1.873   0.264  0.00  0.00    -0.146 I 
ENDROOT
TORSDOF 0
ENDMDL
