MODEL 1
REMARK minimizedAffinity -0.883610964
REMARK minimizedRMSD -1
REMARK  0 active torsions:
REMARK  status: ('A' for Active; 'I' for Inactive)
ROOT
ATOM      1  C   UNL d   1      -0.916   1.130  -1.037  0.00  0.00     0.023 A 
ATOM      2  C1  UNL d   1       0.037   1.859  -0.325  0.00  0.00     0.003 A 
ATOM      3  C2  UNL d   1       1.082   1.199   0.324  0.00  0.00     0.048 A 
ATOM      4  C3  UNL d   1       1.169  -0.192   0.256  0.00  0.00     0.023 A 
ATOM      5  C4  UNL d   1       0.218  -0.925  -0.456  0.00  0.00     0.048 A 
ATOM      6  C5  UNL d   1      -0.826  -0.260  -1.102  0.00  0.00     0.003 A 
ATOM      7  I   UNL d   1       2.723  -1.177   1.221  0.00  0.00    -0.146 I 
ENDROOT
TORSDOF 0
ENDMDL
