MODEL 1
REMARK minimizedAffinity -2.23730087
REMARK minimizedRMSD -1
REMARK  0 active torsions:
REMARK  status: ('A' for Active; 'I' for Inactive)
ROOT
ATOM      1  C   UNL d   1       0.032  -1.879  -0.476  0.00  0.00     0.023 A 
ATOM      2  C1  UNL d   1      -0.383  -0.548  -0.522  0.00  0.00     0.003 A 
ATOM      3  C2  UNL d   1       0.544   0.480  -0.338  0.00  0.00     0.048 A 
ATOM      4  C3  UNL d   1       1.884   0.170  -0.109  0.00  0.00     0.023 A 
ATOM      5  C4  UNL d   1       2.304  -1.160  -0.063  0.00  0.00     0.048 A 
ATOM      6  C5  UNL d   1       1.373  -2.185  -0.247  0.00  0.00     0.003 A 
ATOM      7  I   UNL d   1       3.265   1.699   0.166  0.00  0.00    -0.146 I 
ENDROOT
TORSDOF 0
ENDMDL
