MODEL 1
REMARK minimizedAffinity -2.21625328
REMARK minimizedRMSD -1
REMARK  0 active torsions:
REMARK  status: ('A' for Active; 'I' for Inactive)
ROOT
ATOM      1  C   UNL d   1       3.744  -0.169   0.545  0.00  0.00     0.023 A 
ATOM      2  C1  UNL d   1       3.320   1.159   0.494  0.00  0.00     0.003 A 
ATOM      3  C2  UNL d   1       1.974   1.456   0.274  0.00  0.00     0.048 A 
ATOM      4  C3  UNL d   1       1.056   0.419   0.106  0.00  0.00     0.023 A 
ATOM      5  C4  UNL d   1       1.476  -0.911   0.157  0.00  0.00     0.048 A 
ATOM      6  C5  UNL d   1       2.823  -1.203   0.377  0.00  0.00     0.003 A 
ATOM      7  I   UNL d   1      -0.949   0.858  -0.222  0.00  0.00    -0.146 I 
ENDROOT
TORSDOF 0
ENDMDL
