MODEL 1
REMARK minimizedAffinity -2.96451735
REMARK minimizedRMSD -1
REMARK  0 active torsions:
REMARK  status: ('A' for Active; 'I' for Inactive)
ROOT
ATOM      1  C   UNL d   1      -1.106   1.303  -0.778  0.00  0.00     0.023 A 
ATOM      2  C1  UNL d   1      -0.817   0.063  -0.209  0.00  0.00     0.003 A 
ATOM      3  C2  UNL d   1       0.498  -0.262   0.132  0.00  0.00     0.048 A 
ATOM      4  C3  UNL d   1       1.519   0.660  -0.097  0.00  0.00     0.023 A 
ATOM      5  C4  UNL d   1       1.235   1.903  -0.665  0.00  0.00     0.048 A 
ATOM      6  C5  UNL d   1      -0.081   2.222  -1.005  0.00  0.00     0.003 A 
ATOM      7  I   UNL d   1       3.476   0.179   0.409  0.00  0.00    -0.146 I 
ENDROOT
TORSDOF 0
ENDMDL
