MODEL 1
REMARK minimizedAffinity -4.24923468
REMARK minimizedRMSD -1
REMARK  0 active torsions:
REMARK  status: ('A' for Active; 'I' for Inactive)
ROOT
ATOM      1  C   UNL d   1       3.422  -1.598   0.452  0.00  0.00     0.023 A 
ATOM      2  C1  UNL d   1       3.473  -0.205   0.387  0.00  0.00     0.003 A 
ATOM      3  C2  UNL d   1       2.306   0.529   0.169  0.00  0.00     0.048 A 
ATOM      4  C3  UNL d   1       1.089  -0.136   0.018  0.00  0.00     0.023 A 
ATOM      5  C4  UNL d   1       1.032  -1.529   0.083  0.00  0.00     0.048 A 
ATOM      6  C5  UNL d   1       2.203  -2.259   0.300  0.00  0.00     0.003 A 
ATOM      7  I   UNL d   1      -0.650   0.954  -0.305  0.00  0.00    -0.146 I 
ENDROOT
TORSDOF 0
ENDMDL
