MODEL 1
REMARK minimizedAffinity 12.4488907
REMARK minimizedRMSD -1
REMARK  3 active torsions:
REMARK  status: ('A' for Active; 'I' for Inactive)
REMARK    1  A    between atoms: C3'_2  and  C2'_3 
REMARK    2  A    between atoms: C2'_3  and  C1'_4 
REMARK    3  A    between atoms: C1'_4  and  C1_5 
ROOT
ATOM      1  C1  N4B d   1      -2.673   1.882  -3.070  0.00  0.00    -0.075 A 
ATOM      2  C2  N4B d   1      -3.754   1.571  -2.217  0.00  0.00     0.002 A 
ATOM      3  C3  N4B d   1      -3.722   0.427  -1.457  0.00  0.00     0.002 A 
ATOM      4  C4  N4B d   1      -2.633  -0.426  -1.548  0.00  0.00    -0.004 A 
ATOM      5  C5  N4B d   1      -1.581  -0.105  -2.356  0.00  0.00     0.002 A 
ATOM      6  C6  N4B d   1      -1.598   1.043  -3.122  0.00  0.00     0.002 A 
ENDROOT
BRANCH   1   7
ATOM      7  C1' N4B d   1      -2.701   3.077  -3.984  0.00  0.00     0.057 C 
BRANCH   7   8
ATOM      8  C2' N4B d   1      -4.151   3.473  -4.247  0.00  0.00     0.009 C 
BRANCH   8   9
ATOM      9  C3' N4B d   1      -4.700   2.817  -5.503  0.00  0.00     0.004 C 
ATOM     10  C4' N4B d   1      -5.977   3.445  -5.974  0.00  0.00     0.003 C 
ENDBRANCH   8   9
ENDBRANCH   7   8
ENDBRANCH   1   7
TORSDOF 3
ENDMDL
