MODEL 1
REMARK minimizedAffinity 8.47019482
REMARK minimizedRMSD -1
REMARK  3 active torsions:
REMARK  status: ('A' for Active; 'I' for Inactive)
REMARK    1  A    between atoms: C3'_2  and  C2'_3 
REMARK    2  A    between atoms: C2'_3  and  C1'_4 
REMARK    3  A    between atoms: C1'_4  and  C1_5 
ROOT
ATOM      1  C1  N4B d   1      -1.948   4.541   4.497  0.00  0.00    -0.075 A 
ATOM      2  C2  N4B d   1      -1.987   3.606   3.439  0.00  0.00     0.002 A 
ATOM      3  C3  N4B d   1      -2.335   2.301   3.688  0.00  0.00     0.002 A 
ATOM      4  C4  N4B d   1      -2.630   1.906   4.984  0.00  0.00    -0.004 A 
ATOM      5  C5  N4B d   1      -2.615   2.820   5.996  0.00  0.00     0.002 A 
ATOM      6  C6  N4B d   1      -2.270   4.136   5.760  0.00  0.00     0.002 A 
ENDROOT
BRANCH   1   7
ATOM      7  C1' N4B d   1      -1.489   5.958   4.288  0.00  0.00     0.057 C 
BRANCH   7   8
ATOM      8  C2' N4B d   1       0.036   5.996   4.286  0.00  0.00     0.009 C 
BRANCH   8   9
ATOM      9  C3' N4B d   1       0.606   5.990   5.694  0.00  0.00     0.004 C 
ATOM     10  C4' N4B d   1       2.103   5.899   5.715  0.00  0.00     0.003 C 
ENDBRANCH   8   9
ENDBRANCH   7   8
ENDBRANCH   1   7
TORSDOF 3
ENDMDL
