MODEL 1
REMARK minimizedAffinity 5.28383923
REMARK minimizedRMSD -1
REMARK  3 active torsions:
REMARK  status: ('A' for Active; 'I' for Inactive)
REMARK    1  A    between atoms: C3'_2  and  C2'_3 
REMARK    2  A    between atoms: C2'_3  and  C1'_4 
REMARK    3  A    between atoms: C1'_4  and  C1_5 
ROOT
ATOM      1  C1  N4B d   1       3.367  -4.414   0.745  0.00  0.00    -0.075 A 
ATOM      2  C2  N4B d   1       3.699  -5.692   0.243  0.00  0.00     0.002 A 
ATOM      3  C3  N4B d   1       5.007  -6.000  -0.041  0.00  0.00     0.002 A 
ATOM      4  C4  N4B d   1       5.994  -5.044   0.152  0.00  0.00    -0.004 A 
ATOM      5  C5  N4B d   1       5.668  -3.822   0.662  0.00  0.00     0.002 A 
ATOM      6  C6  N4B d   1       4.358  -3.500   0.955  0.00  0.00     0.002 A 
ENDROOT
BRANCH   1   7
ATOM      7  C1' N4B d   1       1.941  -4.002   0.989  0.00  0.00     0.057 C 
BRANCH   7   8
ATOM      8  C2' N4B d   1       1.719  -2.605   0.417  0.00  0.00     0.009 C 
BRANCH   8   9
ATOM      9  C3' N4B d   1       1.184  -1.642   1.462  0.00  0.00     0.004 C 
ATOM     10  C4' N4B d   1      -0.287  -1.801   1.701  0.00  0.00     0.003 C 
ENDBRANCH   8   9
ENDBRANCH   7   8
ENDBRANCH   1   7
TORSDOF 3
ENDMDL
