MODEL 1
REMARK minimizedAffinity 16.4040203
REMARK minimizedRMSD -1
REMARK  3 active torsions:
REMARK  status: ('A' for Active; 'I' for Inactive)
REMARK    1  A    between atoms: C3'_2  and  C2'_3 
REMARK    2  A    between atoms: C2'_3  and  C1'_4 
REMARK    3  A    between atoms: C1'_4  and  C1_5 
ROOT
ATOM      1  C1  N4B d   1      -4.338   0.657   1.202  0.00  0.00    -0.075 A 
ATOM      2  C2  N4B d   1      -3.840  -0.665   1.223  0.00  0.00     0.002 A 
ATOM      3  C3  N4B d   1      -3.468  -1.277   0.051  0.00  0.00     0.002 A 
ATOM      4  C4  N4B d   1      -3.601  -0.597  -1.150  0.00  0.00    -0.004 A 
ATOM      5  C5  N4B d   1      -4.058   0.688  -1.159  0.00  0.00     0.002 A 
ATOM      6  C6  N4B d   1      -4.432   1.317   0.011  0.00  0.00     0.002 A 
ENDROOT
BRANCH   1   7
ATOM      7  C1' N4B d   1      -4.838   1.337   2.447  0.00  0.00     0.057 C 
BRANCH   7   8
ATOM      8  C2' N4B d   1      -3.722   1.361   3.487  0.00  0.00     0.009 C 
BRANCH   8   9
ATOM      9  C3' N4B d   1      -4.031   2.313   4.630  0.00  0.00     0.004 C 
ATOM     10  C4' N4B d   1      -4.453   1.603   5.881  0.00  0.00     0.003 C 
ENDBRANCH   8   9
ENDBRANCH   7   8
ENDBRANCH   1   7
TORSDOF 3
ENDMDL
