MODEL 1
REMARK minimizedAffinity -0.0627730116
REMARK minimizedRMSD -1
REMARK  3 active torsions:
REMARK  status: ('A' for Active; 'I' for Inactive)
REMARK    1  A    between atoms: C3'_2  and  C2'_3 
REMARK    2  A    between atoms: C2'_3  and  C1'_4 
REMARK    3  A    between atoms: C1'_4  and  C1_5 
ROOT
ATOM      1  C1  N4B d   1       1.540  -1.523   2.181  0.00  0.00    -0.075 A 
ATOM      2  C2  N4B d   1       1.733  -1.025   0.874  0.00  0.00     0.002 A 
ATOM      3  C3  N4B d   1       2.493  -1.733  -0.025  0.00  0.00     0.002 A 
ATOM      4  C4  N4B d   1       3.082  -2.926   0.364  0.00  0.00    -0.004 A 
ATOM      5  C5  N4B d   1       2.870  -3.413   1.621  0.00  0.00     0.002 A 
ATOM      6  C6  N4B d   1       2.105  -2.714   2.534  0.00  0.00     0.002 A 
ENDROOT
BRANCH   1   7
ATOM      7  C1' N4B d   1       0.789  -0.743   3.225  0.00  0.00     0.057 C 
BRANCH   7   8
ATOM      8  C2' N4B d   1      -0.706  -0.818   2.927  0.00  0.00     0.009 C 
BRANCH   8   9
ATOM      9  C3' N4B d   1      -1.117  -2.191   2.423  0.00  0.00     0.004 C 
ATOM     10  C4' N4B d   1      -1.838  -2.999   3.460  0.00  0.00     0.003 C 
ENDBRANCH   8   9
ENDBRANCH   7   8
ENDBRANCH   1   7
TORSDOF 3
ENDMDL
