MODEL 1
REMARK minimizedAffinity 4.69712305
REMARK minimizedRMSD -1
REMARK  0 active torsions:
REMARK  status: ('A' for Active; 'I' for Inactive)
ROOT
ATOM      1  C   UNL d   1       1.169  -1.477   1.319  0.00  0.00    -0.002 A 
ATOM      2  C1  UNL d   1       2.312  -1.497   0.533  0.00  0.00     0.010 A 
ATOM      3  C2  UNL d   1       3.565  -1.250   1.096  0.00  0.00     0.041 A 
ATOM      4  C3  UNL d   1       3.652  -0.982   2.477  0.00  0.00    -0.075 A 
ATOM      5  S   UNL d   1       5.080  -0.652   3.384  0.00  0.00     0.015 SA
ATOM      6  C4  UNL d   1       4.206  -0.477   4.837  0.00  0.00     0.022 A 
ATOM      7  C5  UNL d   1       2.856  -0.663   4.652  0.00  0.00     0.026 A 
ATOM      8  C6  UNL d   1       2.515  -0.958   3.289  0.00  0.00    -0.082 A 
ATOM      9  C7  UNL d   1       1.258  -1.211   2.688  0.00  0.00     0.045 A 
ENDROOT
TORSDOF 0
ENDMDL
