MODEL 1
REMARK minimizedAffinity 3.89671612
REMARK minimizedRMSD -1
REMARK  0 active torsions:
REMARK  status: ('A' for Active; 'I' for Inactive)
ROOT
ATOM      1  C   UNL d   1       0.740   0.482  -1.208  0.00  0.00    -0.002 A 
ATOM      2  C1  UNL d   1       0.407   0.246   0.118  0.00  0.00     0.010 A 
ATOM      3  C2  UNL d   1      -0.924   0.294   0.536  0.00  0.00     0.041 A 
ATOM      4  C3  UNL d   1      -1.926   0.585  -0.411  0.00  0.00    -0.075 A 
ATOM      5  S   UNL d   1      -3.623   0.696  -0.129  0.00  0.00     0.015 SA
ATOM      6  C4  UNL d   1      -3.946   1.059  -1.763  0.00  0.00     0.022 A 
ATOM      7  C5  UNL d   1      -2.799   1.099  -2.519  0.00  0.00     0.026 A 
ATOM      8  C6  UNL d   1      -1.616   0.826  -1.753  0.00  0.00    -0.082 A 
ATOM      9  C7  UNL d   1      -0.256   0.770  -2.145  0.00  0.00     0.045 A 
ENDROOT
TORSDOF 0
ENDMDL
