MODEL 1
REMARK minimizedAffinity -1.81340027
REMARK minimizedRMSD -1
REMARK  0 active torsions:
REMARK  status: ('A' for Active; 'I' for Inactive)
ROOT
ATOM      1  C   UNL d   1       0.327  -5.400  -5.577  0.00  0.00    -0.002 A 
ATOM      2  C1  UNL d   1       0.609  -5.218  -4.231  0.00  0.00     0.010 A 
ATOM      3  C2  UNL d   1      -0.408  -5.292  -3.276  0.00  0.00     0.041 A 
ATOM      4  C3  UNL d   1      -1.724  -5.557  -3.702  0.00  0.00    -0.075 A 
ATOM      5  S   UNL d   1      -3.129  -5.693  -2.712  0.00  0.00     0.015 SA
ATOM      6  C4  UNL d   1      -4.136  -5.997  -4.053  0.00  0.00     0.022 A 
ATOM      7  C5  UNL d   1      -3.434  -5.998  -5.235  0.00  0.00     0.026 A 
ATOM      8  C6  UNL d   1      -2.032  -5.744  -5.052  0.00  0.00    -0.082 A 
ATOM      9  C7  UNL d   1      -0.980  -5.662  -5.996  0.00  0.00     0.045 A 
ENDROOT
TORSDOF 0
ENDMDL
