MODEL 1
REMARK minimizedAffinity 7.33495998
REMARK minimizedRMSD -1
REMARK  0 active torsions:
REMARK  status: ('A' for Active; 'I' for Inactive)
ROOT
ATOM      1  C   UNL d   1       5.228  -1.011   2.887  0.00  0.00    -0.002 A 
ATOM      2  C1  UNL d   1       4.281  -1.127   3.894  0.00  0.00     0.010 A 
ATOM      3  C2  UNL d   1       2.918  -1.087   3.595  0.00  0.00     0.041 A 
ATOM      4  C3  UNL d   1       2.519  -0.928   2.253  0.00  0.00    -0.075 A 
ATOM      5  S   UNL d   1       0.905  -0.853   1.650  0.00  0.00     0.015 SA
ATOM      6  C4  UNL d   1       1.436  -0.665   0.041  0.00  0.00     0.022 A 
ATOM      7  C5  UNL d   1       2.807  -0.658  -0.052  0.00  0.00     0.026 A 
ATOM      8  C6  UNL d   1       3.454  -0.810   1.221  0.00  0.00    -0.082 A 
ATOM      9  C7  UNL d   1       4.829  -0.853   1.557  0.00  0.00     0.045 A 
ENDROOT
TORSDOF 0
ENDMDL
