MODEL 1
REMARK minimizedAffinity 8.25248814
REMARK minimizedRMSD -1
REMARK  0 active torsions:
REMARK  status: ('A' for Active; 'I' for Inactive)
ROOT
ATOM      1  C   UNL d   1       3.931  -1.372   2.109  0.00  0.00    -0.002 A 
ATOM      2  C1  UNL d   1       2.884  -1.567   2.998  0.00  0.00     0.010 A 
ATOM      3  C2  UNL d   1       1.589  -1.159   2.671  0.00  0.00     0.041 A 
ATOM      4  C3  UNL d   1       1.362  -0.547   1.423  0.00  0.00    -0.075 A 
ATOM      5  S   UNL d   1      -0.140   0.033   0.807  0.00  0.00     0.015 SA
ATOM      6  C4  UNL d   1       0.573   0.552  -0.652  0.00  0.00     0.022 A 
ATOM      7  C5  UNL d   1       1.924   0.297  -0.685  0.00  0.00     0.026 A 
ATOM      8  C6  UNL d   1       2.401  -0.341   0.510  0.00  0.00    -0.082 A 
ATOM      9  C7  UNL d   1       3.702  -0.765   0.871  0.00  0.00     0.045 A 
ENDROOT
TORSDOF 0
ENDMDL
