MODEL 1
REMARK minimizedAffinity 6.10643482
REMARK minimizedRMSD -1
REMARK  0 active torsions:
REMARK  status: ('A' for Active; 'I' for Inactive)
ROOT
ATOM      1  C   UNL d   1      -2.005  -5.984  -5.200  0.00  0.00    -0.002 A 
ATOM      2  C1  UNL d   1      -1.915  -5.778  -3.830  0.00  0.00     0.010 A 
ATOM      3  C2  UNL d   1      -0.676  -5.568  -3.223  0.00  0.00     0.041 A 
ATOM      4  C3  UNL d   1       0.483  -5.565  -4.024  0.00  0.00    -0.075 A 
ATOM      5  S   UNL d   1       2.108  -5.327  -3.500  0.00  0.00     0.015 SA
ATOM      6  C4  UNL d   1       2.722  -5.491  -5.082  0.00  0.00     0.022 A 
ATOM      7  C5  UNL d   1       1.725  -5.723  -6.000  0.00  0.00     0.026 A 
ATOM      8  C6  UNL d   1       0.418  -5.769  -5.405  0.00  0.00    -0.082 A 
ATOM      9  C7  UNL d   1      -0.853  -5.981  -5.991  0.00  0.00     0.045 A 
ENDROOT
TORSDOF 0
ENDMDL
