MODEL 1
REMARK minimizedAffinity 14.902442
REMARK minimizedRMSD -1
REMARK  0 active torsions:
REMARK  status: ('A' for Active; 'I' for Inactive)
ROOT
ATOM      1  C   UNL d   1       0.377  -0.708  -0.213  0.00  0.00    -0.002 A 
ATOM      2  C1  UNL d   1       1.707  -0.846  -0.584  0.00  0.00     0.010 A 
ATOM      3  C2  UNL d   1       2.538   0.271  -0.677  0.00  0.00     0.041 A 
ATOM      4  C3  UNL d   1       2.006   1.543  -0.387  0.00  0.00    -0.075 A 
ATOM      5  S   UNL d   1       2.836   3.053  -0.434  0.00  0.00     0.015 SA
ATOM      6  C4  UNL d   1       1.445   3.918   0.038  0.00  0.00     0.022 A 
ATOM      7  C5  UNL d   1       0.365   3.090   0.230  0.00  0.00     0.026 A 
ATOM      8  C6  UNL d   1       0.670   1.708  -0.011  0.00  0.00    -0.082 A 
ATOM      9  C7  UNL d   1      -0.148   0.555   0.074  0.00  0.00     0.045 A 
ENDROOT
TORSDOF 0
ENDMDL
