MODEL 1
REMARK minimizedAffinity 9.35547447
REMARK minimizedRMSD -1
REMARK  0 active torsions:
REMARK  status: ('A' for Active; 'I' for Inactive)
ROOT
ATOM      1  C   UNL d   1       2.380  -5.539  -5.217  0.00  0.00    -0.002 A 
ATOM      2  C1  UNL d   1       2.252  -5.265  -3.863  0.00  0.00     0.010 A 
ATOM      3  C2  UNL d   1       0.993  -5.235  -3.260  0.00  0.00     0.041 A 
ATOM      4  C3  UNL d   1      -0.146  -5.489  -4.049  0.00  0.00    -0.075 A 
ATOM      5  S   UNL d   1      -1.789  -5.506  -3.527  0.00  0.00     0.015 SA
ATOM      6  C4  UNL d   1      -2.360  -5.878  -5.089  0.00  0.00     0.022 A 
ATOM      7  C5  UNL d   1      -1.335  -5.990  -5.999  0.00  0.00     0.026 A 
ATOM      8  C6  UNL d   1      -0.043  -5.768  -5.414  0.00  0.00    -0.082 A 
ATOM      9  C7  UNL d   1       1.248  -5.790  -5.996  0.00  0.00     0.045 A 
ENDROOT
TORSDOF 0
ENDMDL
