MODEL 1
REMARK minimizedAffinity 4.93667316
REMARK minimizedRMSD -1
REMARK  0 active torsions:
REMARK  status: ('A' for Active; 'I' for Inactive)
ROOT
ATOM      1  C   UNL d   1      -0.121   3.118  -3.865  0.00  0.00    -0.002 A 
ATOM      2  C1  UNL d   1      -0.977   4.091  -4.360  0.00  0.00     0.010 A 
ATOM      3  C2  UNL d   1      -2.358   3.884  -4.371  0.00  0.00     0.041 A 
ATOM      4  C3  UNL d   1      -2.869   2.671  -3.869  0.00  0.00    -0.075 A 
ATOM      5  S   UNL d   1      -4.524   2.198  -3.781  0.00  0.00     0.015 SA
ATOM      6  C4  UNL d   1      -4.134   0.693  -3.082  0.00  0.00     0.022 A 
ATOM      7  C5  UNL d   1      -2.779   0.539  -2.913  0.00  0.00     0.026 A 
ATOM      8  C6  UNL d   1      -2.027   1.676  -3.364  0.00  0.00    -0.082 A 
ATOM      9  C7  UNL d   1      -0.632   1.916  -3.367  0.00  0.00     0.045 A 
ENDROOT
TORSDOF 0
ENDMDL
