MODEL 1
REMARK minimizedAffinity 5.80704069
REMARK minimizedRMSD -1
REMARK  0 active torsions:
REMARK  status: ('A' for Active; 'I' for Inactive)
ROOT
ATOM      1  C   UNL d   1       2.454  -4.573  -4.363  0.00  0.00    -0.002 A 
ATOM      2  C1  UNL d   1       2.498  -5.454  -5.435  0.00  0.00     0.010 A 
ATOM      3  C2  UNL d   1       1.318  -5.945  -5.998  0.00  0.00     0.041 A 
ATOM      4  C3  UNL d   1       0.083  -5.530  -5.464  0.00  0.00    -0.075 A 
ATOM      5  S   UNL d   1      -1.489  -6.000  -5.993  0.00  0.00     0.015 SA
ATOM      6  C4  UNL d   1      -2.255  -5.041  -4.810  0.00  0.00     0.022 A 
ATOM      7  C5  UNL d   1      -1.349  -4.373  -4.022  0.00  0.00     0.026 A 
ATOM      8  C6  UNL d   1       0.014  -4.643  -4.386  0.00  0.00    -0.082 A 
ATOM      9  C7  UNL d   1       1.227  -4.164  -3.835  0.00  0.00     0.045 A 
ENDROOT
TORSDOF 0
ENDMDL
