MODEL 1
REMARK minimizedAffinity -3.03371
REMARK minimizedRMSD -1
REMARK  1 active torsions:
REMARK  status: ('A' for Active; 'I' for Inactive)
REMARK    1  A    between atoms: C1_2  and  C2_3 
ROOT
ATOM      1  C2  UNL d   1      -0.622   0.781  -1.384  0.00  0.00    -0.073 A 
ATOM      2  C3  UNL d   1       0.186  -0.055  -2.162  0.00  0.00    -0.002 A 
ATOM      3  C4  UNL d   1       1.306  -0.672  -1.603  0.00  0.00     0.004 A 
ATOM      4  C5  UNL d   1       1.625  -0.466  -0.261  0.00  0.00    -0.004 A 
ATOM      5  C6  UNL d   1       0.823   0.357   0.536  0.00  0.00    -0.075 A 
ATOM      6  C7  UNL d   1       1.154   0.591   1.981  0.00  0.00     0.076 C 
ATOM      7  C8  UNL d   1      -0.298   0.976  -0.033  0.00  0.00     0.001 A 
ENDROOT
BRANCH   1   8
ATOM      8  C1  UNL d   1      -1.835   1.445  -1.981  0.00  0.00     0.053 C 
ATOM      9  C   UNL d   1      -1.553   2.879  -2.400  0.00  0.00     0.018 C 
ENDBRANCH   1   8
TORSDOF 1
ENDMDL
