MODEL 1
REMARK minimizedAffinity -0.69665724
REMARK minimizedRMSD -1
REMARK  1 active torsions:
REMARK  status: ('A' for Active; 'I' for Inactive)
REMARK    1  A    between atoms: C1_2  and  C2_3 
ROOT
ATOM      1  C2  UNL d   1      -0.133  -1.144   1.980  0.00  0.00    -0.073 A 
ATOM      2  C3  UNL d   1       1.155  -0.766   2.377  0.00  0.00    -0.002 A 
ATOM      3  C4  UNL d   1       2.048  -0.227   1.451  0.00  0.00     0.004 A 
ATOM      4  C5  UNL d   1       1.663  -0.054   0.122  0.00  0.00    -0.004 A 
ATOM      5  C6  UNL d   1       0.376  -0.415  -0.292  0.00  0.00    -0.075 A 
ATOM      6  C7  UNL d   1      -0.054  -0.237  -1.719  0.00  0.00     0.076 C 
ATOM      7  C8  UNL d   1      -0.515  -0.958   0.644  0.00  0.00     0.001 A 
ENDROOT
BRANCH   1   8
ATOM      8  C1  UNL d   1      -1.104  -1.720   2.978  0.00  0.00     0.053 C 
ATOM      9  C   UNL d   1      -0.880  -3.208   3.197  0.00  0.00     0.018 C 
ENDBRANCH   1   8
TORSDOF 1
ENDMDL
