MODEL 1
REMARK minimizedAffinity -3.73092079
REMARK minimizedRMSD -1
REMARK  1 active torsions:
REMARK  status: ('A' for Active; 'I' for Inactive)
REMARK    1  A    between atoms: C1_2  and  C2_3 
ROOT
ATOM      1  C2  UNL d   1       0.454   0.340   0.557  0.00  0.00    -0.073 A 
ATOM      2  C3  UNL d   1       0.075  -0.892   0.010  0.00  0.00    -0.002 A 
ATOM      3  C4  UNL d   1      -0.430  -0.960  -1.288  0.00  0.00     0.004 A 
ATOM      4  C5  UNL d   1      -0.556   0.198  -2.055  0.00  0.00    -0.004 A 
ATOM      5  C6  UNL d   1      -0.171   1.436  -1.531  0.00  0.00    -0.075 A 
ATOM      6  C7  UNL d   1      -0.302   2.692  -2.342  0.00  0.00     0.076 C 
ATOM      7  C8  UNL d   1       0.333   1.497  -0.225  0.00  0.00     0.001 A 
ENDROOT
BRANCH   1   8
ATOM      8  C1  UNL d   1       1.007   0.418   1.957  0.00  0.00     0.053 C 
ATOM      9  C   UNL d   1       1.015  -0.938   2.643  0.00  0.00     0.018 C 
ENDBRANCH   1   8
TORSDOF 1
ENDMDL
