MODEL 1
REMARK minimizedAffinity -4.49152613
REMARK minimizedRMSD -1
REMARK  1 active torsions:
REMARK  status: ('A' for Active; 'I' for Inactive)
REMARK    1  A    between atoms: C1_2  and  C2_3 
ROOT
ATOM      1  C2  UNL d   1       0.542  -0.847   0.869  0.00  0.00    -0.073 A 
ATOM      2  C3  UNL d   1       1.405  -1.643   0.106  0.00  0.00    -0.002 A 
ATOM      3  C4  UNL d   1       1.383  -1.570  -1.287  0.00  0.00     0.004 A 
ATOM      4  C5  UNL d   1       0.506  -0.698  -1.931  0.00  0.00    -0.004 A 
ATOM      5  C6  UNL d   1      -0.355   0.114  -1.186  0.00  0.00    -0.075 A 
ATOM      6  C7  UNL d   1      -1.307   1.056  -1.864  0.00  0.00     0.076 C 
ATOM      7  C8  UNL d   1      -0.330   0.033   0.213  0.00  0.00     0.001 A 
ENDROOT
BRANCH   1   8
ATOM      8  C1  UNL d   1       0.567  -0.918   2.374  0.00  0.00     0.053 C 
ATOM      9  C   UNL d   1       1.815  -0.272   2.955  0.00  0.00     0.018 C 
ENDBRANCH   1   8
TORSDOF 1
ENDMDL
