MODEL 1
REMARK minimizedAffinity -5.16825676
REMARK minimizedRMSD -1
REMARK  1 active torsions:
REMARK  status: ('A' for Active; 'I' for Inactive)
REMARK    1  A    between atoms: C1_2  and  C2_3 
ROOT
ATOM      1  C2  UNL d   1       0.823  -0.059   0.574  0.00  0.00    -0.073 A 
ATOM      2  C3  UNL d   1       1.603  -1.046  -0.040  0.00  0.00    -0.002 A 
ATOM      3  C4  UNL d   1       1.445  -1.327  -1.397  0.00  0.00     0.004 A 
ATOM      4  C5  UNL d   1       0.511  -0.622  -2.156  0.00  0.00    -0.004 A 
ATOM      5  C6  UNL d   1      -0.269   0.376  -1.564  0.00  0.00    -0.075 A 
ATOM      6  C7  UNL d   1      -1.280   1.143  -2.366  0.00  0.00     0.076 C 
ATOM      7  C8  UNL d   1      -0.106   0.651  -0.200  0.00  0.00     0.001 A 
ENDROOT
BRANCH   1   8
ATOM      8  C1  UNL d   1       0.995   0.253   2.038  0.00  0.00     0.053 C 
ATOM      9  C   UNL d   1       1.516  -0.944   2.818  0.00  0.00     0.018 C 
ENDBRANCH   1   8
TORSDOF 1
ENDMDL
