MODEL 1
REMARK minimizedAffinity 8.62670517
REMARK minimizedRMSD -1
REMARK  0 active torsions:
REMARK  status: ('A' for Active; 'I' for Inactive)
ROOT
ATOM      1  C   UNL d   1       1.221  -5.084  -5.719  0.00  0.00    -0.002 A 
ATOM      2  C1  UNL d   1       1.666  -3.864  -5.229  0.00  0.00     0.010 A 
ATOM      3  C2  UNL d   1       0.770  -2.816  -5.011  0.00  0.00     0.041 A 
ATOM      4  C3  UNL d   1      -0.596  -3.017  -5.296  0.00  0.00    -0.075 A 
ATOM      5  S   UNL d   1      -1.876  -1.878  -5.106  0.00  0.00     0.015 SA
ATOM      6  C4  UNL d   1      -3.043  -2.983  -5.670  0.00  0.00     0.022 A 
ATOM      7  C5  UNL d   1      -2.488  -4.197  -6.000  0.00  0.00     0.026 A 
ATOM      8  C6  UNL d   1      -1.068  -4.237  -5.789  0.00  0.00    -0.082 A 
ATOM      9  C7  UNL d   1      -0.134  -5.279  -6.000  0.00  0.00     0.045 A 
ENDROOT
TORSDOF 0
ENDMDL
