MODEL 1
REMARK minimizedAffinity 7.99788237
REMARK minimizedRMSD -1
REMARK  0 active torsions:
REMARK  status: ('A' for Active; 'I' for Inactive)
ROOT
ATOM      1  C   UNL d   1       1.328   4.981  -5.919  0.00  0.00    -0.002 A 
ATOM      2  C1  UNL d   1       2.622   5.482  -5.952  0.00  0.00     0.010 A 
ATOM      3  C2  UNL d   1       3.718   4.618  -5.970  0.00  0.00     0.041 A 
ATOM      4  C3  UNL d   1       3.490   3.228  -5.957  0.00  0.00    -0.075 A 
ATOM      5  S   UNL d   1       4.679   1.979  -5.976  0.00  0.00     0.015 SA
ATOM      6  C4  UNL d   1       3.498   0.751  -5.943  0.00  0.00     0.022 A 
ATOM      7  C5  UNL d   1       2.222   1.263  -5.917  0.00  0.00     0.026 A 
ATOM      8  C6  UNL d   1       2.197   2.699  -5.926  0.00  0.00    -0.082 A 
ATOM      9  C7  UNL d   1       1.106   3.601  -5.907  0.00  0.00     0.045 A 
ENDROOT
TORSDOF 0
ENDMDL
