MODEL 1
REMARK minimizedAffinity 14.5656166
REMARK minimizedRMSD -1
REMARK  0 active torsions:
REMARK  status: ('A' for Active; 'I' for Inactive)
ROOT
ATOM      1  C   UNL d   1      -1.362  -2.956  -1.559  0.00  0.00    -0.002 A 
ATOM      2  C1  UNL d   1      -1.104  -1.721  -2.137  0.00  0.00     0.010 A 
ATOM      3  C2  UNL d   1      -1.275  -1.530  -3.510  0.00  0.00     0.041 A 
ATOM      4  C3  UNL d   1      -1.716  -2.610  -4.299  0.00  0.00    -0.075 A 
ATOM      5  S   UNL d   1      -1.997  -2.608  -6.000  0.00  0.00     0.015 SA
ATOM      6  C4  UNL d   1      -2.467  -4.247  -5.999  0.00  0.00     0.022 A 
ATOM      7  C5  UNL d   1      -2.416  -4.797  -4.741  0.00  0.00     0.026 A 
ATOM      8  C6  UNL d   1      -1.984  -3.863  -3.740  0.00  0.00    -0.082 A 
ATOM      9  C7  UNL d   1      -1.800  -4.026  -2.345  0.00  0.00     0.045 A 
ENDROOT
TORSDOF 0
ENDMDL
