MODEL 1
REMARK minimizedAffinity 9.75569057
REMARK minimizedRMSD -1
REMARK  0 active torsions:
REMARK  status: ('A' for Active; 'I' for Inactive)
ROOT
ATOM      1  C   UNL d   1      -1.931  -3.469   3.529  0.00  0.00    -0.002 A 
ATOM      2  C1  UNL d   1      -2.144  -2.098   3.507  0.00  0.00     0.010 A 
ATOM      3  C2  UNL d   1      -1.594  -1.311   2.494  0.00  0.00     0.041 A 
ATOM      4  C3  UNL d   1      -0.820  -1.930   1.493  0.00  0.00    -0.075 A 
ATOM      5  S   UNL d   1      -0.049  -1.167   0.154  0.00  0.00     0.015 SA
ATOM      6  C4  UNL d   1       0.581  -2.643  -0.421  0.00  0.00     0.022 A 
ATOM      7  C5  UNL d   1       0.221  -3.702   0.377  0.00  0.00     0.026 A 
ATOM      8  C6  UNL d   1      -0.593  -3.310   1.493  0.00  0.00    -0.082 A 
ATOM      9  C7  UNL d   1      -1.164  -4.081   2.535  0.00  0.00     0.045 A 
ENDROOT
TORSDOF 0
ENDMDL
