MODEL 1
REMARK minimizedAffinity -1.12206376
REMARK minimizedRMSD -1
REMARK  0 active torsions:
REMARK  status: ('A' for Active; 'I' for Inactive)
ROOT
ATOM      1  C   UNL d   1       1.573   2.960  -5.888  0.00  0.00    -0.002 A 
ATOM      2  C1  UNL d   1       1.203   4.294  -5.791  0.00  0.00     0.010 A 
ATOM      3  C2  UNL d   1       2.171   5.299  -5.765  0.00  0.00     0.041 A 
ATOM      4  C3  UNL d   1       3.531   4.938  -5.840  0.00  0.00    -0.075 A 
ATOM      5  S   UNL d   1       4.890   5.999  -5.826  0.00  0.00     0.015 SA
ATOM      6  C4  UNL d   1       5.994   4.706  -5.948  0.00  0.00     0.022 A 
ATOM      7  C5  UNL d   1       5.358   3.488  -6.000  0.00  0.00     0.026 A 
ATOM      8  C6  UNL d   1       3.928   3.602  -5.938  0.00  0.00    -0.082 A 
ATOM      9  C7  UNL d   1       2.923   2.606  -5.962  0.00  0.00     0.045 A 
ENDROOT
TORSDOF 0
ENDMDL
