MODEL 1
REMARK minimizedAffinity 11.6108952
REMARK minimizedRMSD -1
REMARK  0 active torsions:
REMARK  status: ('A' for Active; 'I' for Inactive)
ROOT
ATOM      1  C   UNL d   1       3.366   3.735  -1.688  0.00  0.00    -0.002 A 
ATOM      2  C1  UNL d   1       3.357   2.466  -2.249  0.00  0.00     0.010 A 
ATOM      3  C2  UNL d   1       2.982   2.281  -3.582  0.00  0.00     0.041 A 
ATOM      4  C3  UNL d   1       2.614   3.404  -4.348  0.00  0.00    -0.075 A 
ATOM      5  S   UNL d   1       2.120   3.418  -6.000  0.00  0.00     0.015 SA
ATOM      6  C4  UNL d   1       1.909   5.109  -6.000  0.00  0.00     0.022 A 
ATOM      7  C5  UNL d   1       2.204   5.666  -4.778  0.00  0.00     0.026 A 
ATOM      8  C6  UNL d   1       2.616   4.692  -3.806  0.00  0.00    -0.082 A 
ATOM      9  C7  UNL d   1       3.000   4.846  -2.452  0.00  0.00     0.045 A 
ENDROOT
TORSDOF 0
ENDMDL
