MODEL 1
REMARK minimizedAffinity 15.0450115
REMARK minimizedRMSD -1
REMARK  0 active torsions:
REMARK  status: ('A' for Active; 'I' for Inactive)
ROOT
ATOM      1  C   UNL d   1      -1.252  -2.631  -5.998  0.00  0.00    -0.002 A 
ATOM      2  C1  UNL d   1      -2.316  -3.522  -5.998  0.00  0.00     0.010 A 
ATOM      3  C2  UNL d   1      -3.022  -3.785  -4.823  0.00  0.00     0.041 A 
ATOM      4  C3  UNL d   1      -2.638  -3.131  -3.636  0.00  0.00    -0.075 A 
ATOM      5  S   UNL d   1      -3.357  -3.297  -2.078  0.00  0.00     0.015 SA
ATOM      6  C4  UNL d   1      -2.269  -2.189  -1.375  0.00  0.00     0.022 A 
ATOM      7  C5  UNL d   1      -1.372  -1.695  -2.293  0.00  0.00     0.026 A 
ATOM      8  C6  UNL d   1      -1.570  -2.229  -3.611  0.00  0.00    -0.082 A 
ATOM      9  C7  UNL d   1      -0.874  -1.983  -4.819  0.00  0.00     0.045 A 
ENDROOT
TORSDOF 0
ENDMDL
