MODEL 1
REMARK minimizedAffinity -0.49447462
REMARK minimizedRMSD -1
REMARK  0 active torsions:
REMARK  status: ('A' for Active; 'I' for Inactive)
ROOT
ATOM      1  C   UNL d   1       4.809  -0.489   2.872  0.00  0.00    -0.002 A 
ATOM      2  C1  UNL d   1       6.000   0.129   2.519  0.00  0.00     0.010 A 
ATOM      3  C2  UNL d   1       5.996   1.264   1.705  0.00  0.00     0.041 A 
ATOM      4  C3  UNL d   1       4.764   1.772   1.249  0.00  0.00    -0.075 A 
ATOM      5  S   UNL d   1       4.516   3.150   0.243  0.00  0.00     0.015 SA
ATOM      6  C4  UNL d   1       2.823   2.951   0.260  0.00  0.00     0.022 A 
ATOM      7  C5  UNL d   1       2.439   1.864   1.010  0.00  0.00     0.026 A 
ATOM      8  C6  UNL d   1       3.552   1.167   1.593  0.00  0.00    -0.082 A 
ATOM      9  C7  UNL d   1       3.588   0.018   2.419  0.00  0.00     0.045 A 
ENDROOT
TORSDOF 0
ENDMDL
