MODEL 1
REMARK minimizedAffinity 2.33347106
REMARK minimizedRMSD -1
REMARK  0 active torsions:
REMARK  status: ('A' for Active; 'I' for Inactive)
ROOT
ATOM      1  C   UNL d   1       1.510   1.731   1.716  0.00  0.00    -0.002 A 
ATOM      2  C1  UNL d   1       2.133   2.779   1.052  0.00  0.00     0.010 A 
ATOM      3  C2  UNL d   1       3.523   2.815   0.928  0.00  0.00     0.041 A 
ATOM      4  C3  UNL d   1       4.284   1.769   1.486  0.00  0.00    -0.075 A 
ATOM      5  S   UNL d   1       6.000   1.601   1.456  0.00  0.00     0.015 SA
ATOM      6  C4  UNL d   1       5.947   0.135   2.323  0.00  0.00     0.022 A 
ATOM      7  C5  UNL d   1       4.659  -0.233   2.636  0.00  0.00     0.026 A 
ATOM      8  C6  UNL d   1       3.680   0.703   2.158  0.00  0.00    -0.082 A 
ATOM      9  C7  UNL d   1       2.269   0.696   2.268  0.00  0.00     0.045 A 
ENDROOT
TORSDOF 0
ENDMDL
