MODEL 1
REMARK minimizedAffinity 2.59284902
REMARK minimizedRMSD -1
REMARK  0 active torsions:
REMARK  status: ('A' for Active; 'I' for Inactive)
ROOT
ATOM      1  C   UNL d   1       4.819  -0.181  -5.408  0.00  0.00    -0.002 A 
ATOM      2  C1  UNL d   1       5.999   0.538  -5.272  0.00  0.00     0.010 A 
ATOM      3  C2  UNL d   1       5.997   1.931  -5.367  0.00  0.00     0.041 A 
ATOM      4  C3  UNL d   1       4.777   2.596  -5.600  0.00  0.00    -0.075 A 
ATOM      5  S   UNL d   1       4.533   4.296  -5.752  0.00  0.00     0.015 SA
ATOM      6  C4  UNL d   1       2.857   4.109  -6.000  0.00  0.00     0.022 A 
ATOM      7  C5  UNL d   1       2.476   2.788  -5.971  0.00  0.00     0.026 A 
ATOM      8  C6  UNL d   1       3.576   1.895  -5.740  0.00  0.00    -0.082 A 
ATOM      9  C7  UNL d   1       3.611   0.483  -5.640  0.00  0.00     0.045 A 
ENDROOT
TORSDOF 0
ENDMDL
