MODEL 1
REMARK minimizedAffinity 4.15002584
REMARK minimizedRMSD -1
REMARK  0 active torsions:
REMARK  status: ('A' for Active; 'I' for Inactive)
ROOT
ATOM      1  C   UNL d   1       5.877  -0.043  -4.627  0.00  0.00    -0.002 A 
ATOM      2  C1  UNL d   1       5.897   0.277  -3.277  0.00  0.00     0.010 A 
ATOM      3  C2  UNL d   1       5.933   1.611  -2.864  0.00  0.00     0.041 A 
ATOM      4  C3  UNL d   1       5.946   2.626  -3.840  0.00  0.00    -0.075 A 
ATOM      5  S   UNL d   1       5.989   4.328  -3.569  0.00  0.00     0.015 SA
ATOM      6  C4  UNL d   1       5.980   4.670  -5.239  0.00  0.00     0.022 A 
ATOM      7  C5  UNL d   1       5.947   3.525  -5.999  0.00  0.00     0.026 A 
ATOM      8  C6  UNL d   1       5.926   2.328  -5.206  0.00  0.00    -0.082 A 
ATOM      9  C7  UNL d   1       5.890   0.967  -5.592  0.00  0.00     0.045 A 
ENDROOT
TORSDOF 0
ENDMDL
