MODEL 1
REMARK minimizedAffinity -3.53638339
REMARK minimizedRMSD -1
REMARK  0 active torsions:
REMARK  status: ('A' for Active; 'I' for Inactive)
ROOT
ATOM      1  C   UNL d   1       2.624   5.415  -5.761  0.00  0.00    -0.002 A 
ATOM      2  C1  UNL d   1       3.866   5.937  -5.428  0.00  0.00     0.010 A 
ATOM      3  C2  UNL d   1       4.966   5.095  -5.252  0.00  0.00     0.041 A 
ATOM      4  C3  UNL d   1       4.795   3.707  -5.419  0.00  0.00    -0.075 A 
ATOM      5  S   UNL d   1       6.000   2.484  -5.254  0.00  0.00     0.015 SA
ATOM      6  C4  UNL d   1       4.894   1.240  -5.622  0.00  0.00     0.022 A 
ATOM      7  C5  UNL d   1       3.633   1.728  -5.867  0.00  0.00     0.026 A 
ATOM      8  C6  UNL d   1       3.555   3.157  -5.755  0.00  0.00    -0.082 A 
ATOM      9  C7  UNL d   1       2.459   4.037  -5.926  0.00  0.00     0.045 A 
ENDROOT
TORSDOF 0
ENDMDL
