MODEL 1
REMARK minimizedAffinity 3.60220861
REMARK minimizedRMSD -1
REMARK  3 active torsions:
REMARK  status: ('A' for Active; 'I' for Inactive)
REMARK    1  A    between atoms: C3'_2  and  C2'_3 
REMARK    2  A    between atoms: C2'_3  and  C1'_4 
REMARK    3  A    between atoms: C1'_4  and  C1_5 
ROOT
ATOM      1  C1  N4B d   1      -5.122   4.236   2.785  0.00  0.00    -0.075 A 
ATOM      2  C2  N4B d   1      -5.956   3.746   3.814  0.00  0.00     0.002 A 
ATOM      3  C3  N4B d   1      -6.000   4.389   5.027  0.00  0.00     0.002 A 
ATOM      4  C4  N4B d   1      -5.208   5.507   5.239  0.00  0.00    -0.004 A 
ATOM      5  C5  N4B d   1      -4.424   5.988   4.232  0.00  0.00     0.002 A 
ATOM      6  C6  N4B d   1      -4.373   5.355   3.006  0.00  0.00     0.002 A 
ENDROOT
BRANCH   1   7
ATOM      7  C1' N4B d   1      -4.976   3.517   1.471  0.00  0.00     0.057 C 
BRANCH   7   8
ATOM      8  C2' N4B d   1      -4.363   2.142   1.718  0.00  0.00     0.009 C 
BRANCH   8   9
ATOM      9  C3' N4B d   1      -4.385   1.278   0.469  0.00  0.00     0.004 C 
ATOM     10  C4' N4B d   1      -3.077   1.284  -0.264  0.00  0.00     0.003 C 
ENDBRANCH   8   9
ENDBRANCH   7   8
ENDBRANCH   1   7
TORSDOF 3
ENDMDL
