MODEL 1
REMARK minimizedAffinity 0.646022618
REMARK minimizedRMSD -1
REMARK  3 active torsions:
REMARK  status: ('A' for Active; 'I' for Inactive)
REMARK    1  A    between atoms: C3'_2  and  C2'_3 
REMARK    2  A    between atoms: C2'_3  and  C1'_4 
REMARK    3  A    between atoms: C1'_4  and  C1_5 
ROOT
ATOM      1  C1  N4B d   1      -1.181  -5.246   3.612  0.00  0.00    -0.075 A 
ATOM      2  C2  N4B d   1      -1.208  -5.999   4.806  0.00  0.00     0.002 A 
ATOM      3  C3  N4B d   1      -0.810  -5.426   5.989  0.00  0.00     0.002 A 
ATOM      4  C4  N4B d   1      -0.366  -4.112   5.998  0.00  0.00    -0.004 A 
ATOM      5  C5  N4B d   1      -0.367  -3.383   4.845  0.00  0.00     0.002 A 
ATOM      6  C6  N4B d   1      -0.767  -3.946   3.650  0.00  0.00     0.002 A 
ENDROOT
BRANCH   1   7
ATOM      7  C1' N4B d   1      -1.524  -5.856   2.280  0.00  0.00     0.057 C 
BRANCH   7   8
ATOM      8  C2' N4B d   1      -1.114  -4.894   1.168  0.00  0.00     0.009 C 
BRANCH   8   9
ATOM      9  C3' N4B d   1      -0.633  -5.630  -0.071  0.00  0.00     0.004 C 
ATOM     10  C4' N4B d   1      -1.430  -5.288  -1.295  0.00  0.00     0.003 C 
ENDBRANCH   8   9
ENDBRANCH   7   8
ENDBRANCH   1   7
TORSDOF 3
ENDMDL
