MODEL 1
REMARK minimizedAffinity -2.31507564
REMARK minimizedRMSD -1
REMARK  3 active torsions:
REMARK  status: ('A' for Active; 'I' for Inactive)
REMARK    1  A    between atoms: C3'_2  and  C2'_3 
REMARK    2  A    between atoms: C2'_3  and  C1'_4 
REMARK    3  A    between atoms: C1'_4  and  C1_5 
ROOT
ATOM      1  C1  N4B d   1      -0.505  -0.628   0.690  0.00  0.00    -0.075 A 
ATOM      2  C2  N4B d   1      -0.712  -1.054   2.021  0.00  0.00     0.002 A 
ATOM      3  C3  N4B d   1       0.316  -0.994   2.929  0.00  0.00     0.002 A 
ATOM      4  C4  N4B d   1       1.560  -0.532   2.527  0.00  0.00    -0.004 A 
ATOM      5  C5  N4B d   1       1.746  -0.099   1.247  0.00  0.00     0.002 A 
ATOM      6  C6  N4B d   1       0.720  -0.149   0.324  0.00  0.00     0.002 A 
ENDROOT
BRANCH   1   7
ATOM      7  C1' N4B d   1      -1.574  -0.755  -0.360  0.00  0.00     0.057 C 
BRANCH   7   8
ATOM      8  C2' N4B d   1      -2.504  -1.907   0.008  0.00  0.00     0.009 C 
BRANCH   8   9
ATOM      9  C3' N4B d   1      -3.824  -1.833  -0.740  0.00  0.00     0.004 C 
ATOM     10  C4' N4B d   1      -5.012  -1.858   0.174  0.00  0.00     0.003 C 
ENDBRANCH   8   9
ENDBRANCH   7   8
ENDBRANCH   1   7
TORSDOF 3
ENDMDL
