MODEL 1
REMARK minimizedAffinity -2.98289537
REMARK minimizedRMSD -1
REMARK  3 active torsions:
REMARK  status: ('A' for Active; 'I' for Inactive)
REMARK    1  A    between atoms: C3'_2  and  C2'_3 
REMARK    2  A    between atoms: C2'_3  and  C1'_4 
REMARK    3  A    between atoms: C1'_4  and  C1_5 
ROOT
ATOM      1  C1  N4B d   1       0.366   0.320  -0.626  0.00  0.00    -0.075 A 
ATOM      2  C2  N4B d   1       1.081  -0.643  -1.373  0.00  0.00     0.002 A 
ATOM      3  C3  N4B d   1       2.235  -1.187  -0.865  0.00  0.00     0.002 A 
ATOM      4  C4  N4B d   1       2.702  -0.772   0.374  0.00  0.00    -0.004 A 
ATOM      5  C5  N4B d   1       1.992   0.139   1.099  0.00  0.00     0.002 A 
ATOM      6  C6  N4B d   1       0.828   0.691   0.603  0.00  0.00     0.002 A 
ENDROOT
BRANCH   1   7
ATOM      7  C1' N4B d   1      -0.854   1.006  -1.177  0.00  0.00     0.057 C 
BRANCH   7   8
ATOM      8  C2' N4B d   1      -0.730   2.509  -0.947  0.00  0.00     0.009 C 
BRANCH   8   9
ATOM      9  C3' N4B d   1      -1.085   3.306  -2.190  0.00  0.00     0.004 C 
ATOM     10  C4' N4B d   1       0.110   3.623  -3.038  0.00  0.00     0.003 C 
ENDBRANCH   8   9
ENDBRANCH   7   8
ENDBRANCH   1   7
TORSDOF 3
ENDMDL
