MODEL 1
REMARK minimizedAffinity 0.373223245
REMARK minimizedRMSD -1
REMARK  3 active torsions:
REMARK  status: ('A' for Active; 'I' for Inactive)
REMARK    1  A    between atoms: C3'_2  and  C2'_3 
REMARK    2  A    between atoms: C2'_3  and  C1'_4 
REMARK    3  A    between atoms: C1'_4  and  C1_5 
ROOT
ATOM      1  C1  N4B d   1      -0.792  -0.256  -0.645  0.00  0.00    -0.075 A 
ATOM      2  C2  N4B d   1       0.525  -0.271  -1.152  0.00  0.00     0.002 A 
ATOM      3  C3  N4B d   1       1.591  -0.365  -0.292  0.00  0.00     0.002 A 
ATOM      4  C4  N4B d   1       1.366  -0.427   1.075  0.00  0.00    -0.004 A 
ATOM      5  C5  N4B d   1       0.089  -0.438   1.556  0.00  0.00     0.002 A 
ATOM      6  C6  N4B d   1      -0.992  -0.347   0.702  0.00  0.00     0.002 A 
ENDROOT
BRANCH   1   7
ATOM      7  C1' N4B d   1      -1.986  -0.068  -1.540  0.00  0.00     0.057 C 
BRANCH   7   8
ATOM      8  C2' N4B d   1      -2.605  -1.430  -1.843  0.00  0.00     0.009 C 
BRANCH   8   9
ATOM      9  C3' N4B d   1      -4.115  -1.416  -1.681  0.00  0.00     0.004 C 
ATOM     10  C4' N4B d   1      -4.570  -2.092  -0.422  0.00  0.00     0.003 C 
ENDBRANCH   8   9
ENDBRANCH   7   8
ENDBRANCH   1   7
TORSDOF 3
ENDMDL
