MODEL 1
REMARK minimizedAffinity -1.52267802
REMARK minimizedRMSD -1
REMARK  3 active torsions:
REMARK  status: ('A' for Active; 'I' for Inactive)
REMARK    1  A    between atoms: C3'_2  and  C2'_3 
REMARK    2  A    between atoms: C2'_3  and  C1'_4 
REMARK    3  A    between atoms: C1'_4  and  C1_5 
ROOT
ATOM      1  C1  N4B d   1      -0.452   1.468  -1.832  0.00  0.00    -0.075 A 
ATOM      2  C2  N4B d   1       0.693   2.237  -2.134  0.00  0.00     0.002 A 
ATOM      3  C3  N4B d   1       0.573   3.386  -2.878  0.00  0.00     0.002 A 
ATOM      4  C4  N4B d   1      -0.675   3.773  -3.344  0.00  0.00    -0.004 A 
ATOM      5  C5  N4B d   1      -1.780   3.038  -3.026  0.00  0.00     0.002 A 
ATOM      6  C6  N4B d   1      -1.674   1.884  -2.276  0.00  0.00     0.002 A 
ENDROOT
BRANCH   1   7
ATOM      7  C1' N4B d   1      -0.358   0.160  -1.095  0.00  0.00     0.057 C 
BRANCH   7   8
ATOM      8  C2' N4B d   1      -1.724  -0.184  -0.510  0.00  0.00     0.009 C 
BRANCH   8   9
ATOM      9  C3' N4B d   1      -2.544  -1.050  -1.451  0.00  0.00     0.004 C 
ATOM     10  C4' N4B d   1      -3.751  -1.646  -0.789  0.00  0.00     0.003 C 
ENDBRANCH   8   9
ENDBRANCH   7   8
ENDBRANCH   1   7
TORSDOF 3
ENDMDL
