MODEL 1
REMARK minimizedAffinity -3.87912512
REMARK minimizedRMSD -1
REMARK  3 active torsions:
REMARK  status: ('A' for Active; 'I' for Inactive)
REMARK    1  A    between atoms: C3'_2  and  C2'_3 
REMARK    2  A    between atoms: C2'_3  and  C1'_4 
REMARK    3  A    between atoms: C1'_4  and  C1_5 
ROOT
ATOM      1  C1  N4B d   1      -0.385  -0.434  -0.338  0.00  0.00    -0.075 A 
ATOM      2  C2  N4B d   1       0.042  -0.072   0.959  0.00  0.00     0.002 A 
ATOM      3  C3  N4B d   1       1.339  -0.305   1.345  0.00  0.00     0.002 A 
ATOM      4  C4  N4B d   1       2.218  -0.915   0.463  0.00  0.00    -0.004 A 
ATOM      5  C5  N4B d   1       1.805  -1.239  -0.796  0.00  0.00     0.002 A 
ATOM      6  C6  N4B d   1       0.506  -1.006  -1.200  0.00  0.00     0.002 A 
ENDROOT
BRANCH   1   7
ATOM      7  C1' N4B d   1      -1.815  -0.277  -0.776  0.00  0.00     0.057 C 
BRANCH   7   8
ATOM      8  C2' N4B d   1      -2.706  -1.160   0.094  0.00  0.00     0.009 C 
BRANCH   8   9
ATOM      9  C3' N4B d   1      -3.839  -1.784  -0.702  0.00  0.00     0.004 C 
ATOM     10  C4' N4B d   1      -5.138  -1.792   0.046  0.00  0.00     0.003 C 
ENDBRANCH   8   9
ENDBRANCH   7   8
ENDBRANCH   1   7
TORSDOF 3
ENDMDL
