MODEL 1
REMARK minimizedAffinity -0.345858961
REMARK minimizedRMSD -1
REMARK  3 active torsions:
REMARK  status: ('A' for Active; 'I' for Inactive)
REMARK    1  A    between atoms: C3'_2  and  C2'_3 
REMARK    2  A    between atoms: C2'_3  and  C1'_4 
REMARK    3  A    between atoms: C1'_4  and  C1_5 
ROOT
ATOM      1  C1  N4B d   1      -0.320  -0.191  -0.253  0.00  0.00    -0.075 A 
ATOM      2  C2  N4B d   1       0.041   1.060   0.294  0.00  0.00     0.002 A 
ATOM      3  C3  N4B d   1       1.185   1.178   1.043  0.00  0.00     0.002 A 
ATOM      4  C4  N4B d   1       1.972   0.059   1.274  0.00  0.00    -0.004 A 
ATOM      5  C5  N4B d   1       1.630  -1.140   0.721  0.00  0.00     0.002 A 
ATOM      6  C6  N4B d   1       0.485  -1.272  -0.037  0.00  0.00     0.002 A 
ENDROOT
BRANCH   1   7
ATOM      7  C1' N4B d   1      -1.606  -0.387  -1.007  0.00  0.00     0.057 C 
BRANCH   7   8
ATOM      8  C2' N4B d   1      -2.723  -0.705  -0.017  0.00  0.00     0.009 C 
BRANCH   8   9
ATOM      9  C3' N4B d   1      -3.869  -1.454  -0.675  0.00  0.00     0.004 C 
ATOM     10  C4' N4B d   1      -5.156  -1.330   0.084  0.00  0.00     0.003 C 
ENDBRANCH   8   9
ENDBRANCH   7   8
ENDBRANCH   1   7
TORSDOF 3
ENDMDL
