MODEL 1
REMARK minimizedAffinity 4.36336088
REMARK minimizedRMSD -1
REMARK  3 active torsions:
REMARK  status: ('A' for Active; 'I' for Inactive)
REMARK    1  A    between atoms: C3'_2  and  C2'_3 
REMARK    2  A    between atoms: C2'_3  and  C1'_4 
REMARK    3  A    between atoms: C1'_4  and  C1_5 
ROOT
ATOM      1  C1  N4B d   1      -0.387   3.369  -2.797  0.00  0.00    -0.075 A 
ATOM      2  C2  N4B d   1       0.495   4.431  -2.501  0.00  0.00     0.002 A 
ATOM      3  C3  N4B d   1       1.553   4.699  -3.335  0.00  0.00     0.002 A 
ATOM      4  C4  N4B d   1       1.758   3.908  -4.456  0.00  0.00    -0.004 A 
ATOM      5  C5  N4B d   1       0.887   2.900  -4.749  0.00  0.00     0.002 A 
ATOM      6  C6  N4B d   1      -0.182   2.623  -3.922  0.00  0.00     0.002 A 
ENDROOT
BRANCH   1   7
ATOM      7  C1' N4B d   1      -1.507   2.984  -1.870  0.00  0.00     0.057 C 
BRANCH   7   8
ATOM      8  C2' N4B d   1      -2.828   3.488  -2.444  0.00  0.00     0.009 C 
BRANCH   8   9
ATOM      9  C3' N4B d   1      -3.822   2.359  -2.657  0.00  0.00     0.004 C 
ATOM     10  C4' N4B d   1      -3.167   1.011  -2.709  0.00  0.00     0.003 C 
ENDBRANCH   8   9
ENDBRANCH   7   8
ENDBRANCH   1   7
TORSDOF 3
ENDMDL
