MODEL 1
REMARK minimizedAffinity -0.548448205
REMARK minimizedRMSD -1
REMARK  0 active torsions:
REMARK  status: ('A' for Active; 'I' for Inactive)
ROOT
ATOM      1  C1  BNZ d   1       4.883  -5.049   0.001  0.00  0.00     0.000 A 
ATOM      2  C2  BNZ d   1       5.609  -5.986  -0.686  0.00  0.00     0.000 A 
ATOM      3  C3  BNZ d   1       5.618  -5.999  -2.053  0.00  0.00     0.000 A 
ATOM      4  C4  BNZ d   1       4.872  -5.103  -2.730  0.00  0.00     0.000 A 
ATOM      5  C5  BNZ d   1       4.129  -4.157  -2.052  0.00  0.00     0.000 A 
ATOM      6  C6  BNZ d   1       4.152  -4.122  -0.677  0.00  0.00     0.000 A 
ENDROOT
TORSDOF 0
ENDMDL
