MODEL 1
REMARK minimizedAffinity -2.00465846
REMARK minimizedRMSD -1
REMARK  0 active torsions:
REMARK  status: ('A' for Active; 'I' for Inactive)
ROOT
ATOM      1  C1  BNZ d   1       3.745   2.252  -5.969  0.00  0.00     0.000 A 
ATOM      2  C2  BNZ d   1       4.548   3.361  -5.972  0.00  0.00     0.000 A 
ATOM      3  C3  BNZ d   1       4.008   4.616  -5.963  0.00  0.00     0.000 A 
ATOM      4  C4  BNZ d   1       2.667   4.761  -5.992  0.00  0.00     0.000 A 
ATOM      5  C5  BNZ d   1       1.844   3.653  -5.998  0.00  0.00     0.000 A 
ATOM      6  C6  BNZ d   1       2.391   2.391  -5.968  0.00  0.00     0.000 A 
ENDROOT
TORSDOF 0
ENDMDL
