MODEL 1
REMARK minimizedAffinity -1.00827646
REMARK minimizedRMSD -1
REMARK  0 active torsions:
REMARK  status: ('A' for Active; 'I' for Inactive)
ROOT
ATOM      1  C1  BNZ d   1       5.444  -4.238   6.000  0.00  0.00     0.000 A 
ATOM      2  C2  BNZ d   1       5.224  -5.568   5.760  0.00  0.00     0.000 A 
ATOM      3  C3  BNZ d   1       4.814  -5.999   4.529  0.00  0.00     0.000 A 
ATOM      4  C4  BNZ d   1       4.586  -5.096   3.553  0.00  0.00     0.000 A 
ATOM      5  C5  BNZ d   1       4.793  -3.751   3.782  0.00  0.00     0.000 A 
ATOM      6  C6  BNZ d   1       5.244  -3.325   5.011  0.00  0.00     0.000 A 
ENDROOT
TORSDOF 0
ENDMDL
