MODEL 1
REMARK minimizedAffinity -2.61034966
REMARK minimizedRMSD -1
REMARK  0 active torsions:
REMARK  status: ('A' for Active; 'I' for Inactive)
ROOT
ATOM      1  C1  BNZ d   1       5.485   3.590  -5.973  0.00  0.00     0.000 A 
ATOM      2  C2  BNZ d   1       4.877   4.817  -5.984  0.00  0.00     0.000 A 
ATOM      3  C3  BNZ d   1       3.515   4.923  -5.977  0.00  0.00     0.000 A 
ATOM      4  C4  BNZ d   1       2.762   3.804  -6.000  0.00  0.00     0.000 A 
ATOM      5  C5  BNZ d   1       3.360   2.560  -5.998  0.00  0.00     0.000 A 
ATOM      6  C6  BNZ d   1       4.732   2.457  -5.966  0.00  0.00     0.000 A 
ENDROOT
TORSDOF 0
ENDMDL
