MODEL 1
REMARK minimizedAffinity 1.16372859
REMARK minimizedRMSD -1
REMARK  0 active torsions:
REMARK  status: ('A' for Active; 'I' for Inactive)
ROOT
ATOM      1  C1  BNZ d   1       4.195   2.354  -5.954  0.00  0.00     0.000 A 
ATOM      2  C2  BNZ d   1       3.046   1.611  -5.936  0.00  0.00     0.000 A 
ATOM      3  C3  BNZ d   1       1.820   2.215  -5.976  0.00  0.00     0.000 A 
ATOM      4  C4  BNZ d   1       1.746   3.562  -5.991  0.00  0.00     0.000 A 
ATOM      5  C5  BNZ d   1       2.896   4.326  -5.999  0.00  0.00     0.000 A 
ATOM      6  C6  BNZ d   1       4.128   3.713  -5.999  0.00  0.00     0.000 A 
ENDROOT
TORSDOF 0
ENDMDL
