MODEL 1
REMARK minimizedAffinity -1.90058529
REMARK minimizedRMSD -1
REMARK  0 active torsions:
REMARK  status: ('A' for Active; 'I' for Inactive)
ROOT
ATOM      1  C1  BNZ d   1       3.207   3.363  -5.989  0.00  0.00     0.000 A 
ATOM      2  C2  BNZ d   1       2.290   4.380  -5.986  0.00  0.00     0.000 A 
ATOM      3  C3  BNZ d   1       2.694   5.686  -5.999  0.00  0.00     0.000 A 
ATOM      4  C4  BNZ d   1       4.012   5.973  -5.975  0.00  0.00     0.000 A 
ATOM      5  C5  BNZ d   1       4.948   4.959  -5.969  0.00  0.00     0.000 A 
ATOM      6  C6  BNZ d   1       4.538   3.645  -5.995  0.00  0.00     0.000 A 
ENDROOT
TORSDOF 0
ENDMDL
