MODEL 1
REMARK minimizedAffinity -4.3280406
REMARK minimizedRMSD -1
REMARK  0 active torsions:
REMARK  status: ('A' for Active; 'I' for Inactive)
ROOT
ATOM      1  O1  BZF d   1       1.021  -1.100   1.000  0.00  0.00    -0.204 OA
ATOM      2  C2  BZF d   1       1.028  -0.082   0.066  0.00  0.00     0.174 A 
ATOM      3  C3  BZF d   1      -0.142  -0.038  -0.603  0.00  0.00    -0.012 A 
ATOM      4  C3A BZF d   1      -0.964  -1.036   0.010  0.00  0.00    -0.107 A 
ATOM      5  C4  BZF d   1      -2.244  -1.459  -0.204  0.00  0.00     0.055 A 
ATOM      6  C5  BZF d   1      -2.724  -2.504   0.520  0.00  0.00    -0.016 A 
ATOM      7  C6  BZF d   1      -1.950  -3.153   1.460  0.00  0.00     0.022 A 
ATOM      8  C7  BZF d   1      -0.676  -2.766   1.711  0.00  0.00     0.029 A 
ATOM      9  C7A BZF d   1      -0.199  -1.688   1.005  0.00  0.00     0.058 A 
ENDROOT
TORSDOF 0
ENDMDL
