MODEL 1
REMARK minimizedAffinity -6.35404444
REMARK minimizedRMSD -1
REMARK  0 active torsions:
REMARK  status: ('A' for Active; 'I' for Inactive)
ROOT
ATOM      1  O1  BZF d   1       0.677  -0.813   0.481  0.00  0.00    -0.204 OA
ATOM      2  C2  BZF d   1       1.044  -0.126  -0.660  0.00  0.00     0.174 A 
ATOM      3  C3  BZF d   1       0.000  -0.010  -1.506  0.00  0.00    -0.012 A 
ATOM      4  C3A BZF d   1      -1.112  -0.583  -0.812  0.00  0.00    -0.107 A 
ATOM      5  C4  BZF d   1      -2.430  -0.749  -1.126  0.00  0.00     0.055 A 
ATOM      6  C5  BZF d   1      -3.238  -1.413  -0.258  0.00  0.00    -0.016 A 
ATOM      7  C6  BZF d   1      -2.760  -1.929   0.928  0.00  0.00     0.022 A 
ATOM      8  C7  BZF d   1      -1.460  -1.786   1.286  0.00  0.00     0.029 A 
ATOM      9  C7A BZF d   1      -0.649  -1.086   0.426  0.00  0.00     0.058 A 
ENDROOT
TORSDOF 0
ENDMDL
