MODEL 1
REMARK minimizedAffinity -5.2106061
REMARK minimizedRMSD -1
REMARK  0 active torsions:
REMARK  status: ('A' for Active; 'I' for Inactive)
ROOT
ATOM      1  O1  BZF d   1      -2.836  -0.323  -1.384  0.00  0.00    -0.204 OA
ATOM      2  C2  BZF d   1      -3.373  -1.026  -0.323  0.00  0.00     0.174 A 
ATOM      3  C3  BZF d   1      -2.420  -1.331   0.581  0.00  0.00    -0.012 A 
ATOM      4  C3A BZF d   1      -1.228  -0.704   0.097  0.00  0.00    -0.107 A 
ATOM      5  C4  BZF d   1       0.052  -0.631   0.568  0.00  0.00     0.055 A 
ATOM      6  C5  BZF d   1       0.996  -0.003  -0.180  0.00  0.00    -0.016 A 
ATOM      7  C6  BZF d   1       0.697   0.559  -1.405  0.00  0.00     0.022 A 
ATOM      8  C7  BZF d   1      -0.560   0.516  -1.911  0.00  0.00     0.029 A 
ATOM      9  C7A BZF d   1      -1.523  -0.090  -1.142  0.00  0.00     0.058 A 
ENDROOT
TORSDOF 0
ENDMDL
