MODEL 1
REMARK minimizedAffinity -5.51312494
REMARK minimizedRMSD -1
REMARK  0 active torsions:
REMARK  status: ('A' for Active; 'I' for Inactive)
ROOT
ATOM      1  O1  BZF d   1       1.220  -0.485   0.887  0.00  0.00    -0.204 OA
ATOM      2  C2  BZF d   1       1.346   0.321  -0.228  0.00  0.00     0.174 A 
ATOM      3  C3  BZF d   1       0.196   0.345  -0.932  0.00  0.00    -0.012 A 
ATOM      4  C3A BZF d   1      -0.733  -0.425  -0.163  0.00  0.00    -0.107 A 
ATOM      5  C4  BZF d   1      -2.047  -0.754  -0.334  0.00  0.00     0.055 A 
ATOM      6  C5  BZF d   1      -2.643  -1.582   0.564  0.00  0.00    -0.016 A 
ATOM      7  C6  BZF d   1      -1.953  -2.103   1.639  0.00  0.00     0.022 A 
ATOM      8  C7  BZF d   1      -0.649  -1.801   1.853  0.00  0.00     0.029 A 
ATOM      9  C7A BZF d   1      -0.054  -0.938   0.966  0.00  0.00     0.058 A 
ENDROOT
TORSDOF 0
ENDMDL
