MODEL 1
REMARK minimizedAffinity -4.63632727
REMARK minimizedRMSD -1
REMARK  0 active torsions:
REMARK  status: ('A' for Active; 'I' for Inactive)
ROOT
ATOM      1  O1  BZF d   1       0.558  -0.420   0.769  0.00  0.00    -0.204 OA
ATOM      2  C2  BZF d   1       0.712   0.410  -0.325  0.00  0.00     0.174 A 
ATOM      3  C3  BZF d   1      -0.404   0.414  -1.082  0.00  0.00    -0.012 A 
ATOM      4  C3A BZF d   1      -1.345  -0.396  -0.371  0.00  0.00    -0.107 A 
ATOM      5  C4  BZF d   1      -2.639  -0.759  -0.609  0.00  0.00     0.055 A 
ATOM      6  C5  BZF d   1      -3.251  -1.621   0.245  0.00  0.00    -0.016 A 
ATOM      7  C6  BZF d   1      -2.598  -2.142   1.342  0.00  0.00     0.022 A 
ATOM      8  C7  BZF d   1      -1.315  -1.807   1.622  0.00  0.00     0.029 A 
ATOM      9  C7A BZF d   1      -0.704  -0.911   0.779  0.00  0.00     0.058 A 
ENDROOT
TORSDOF 0
ENDMDL
