MODEL 1
REMARK minimizedAffinity -5.28680372
REMARK minimizedRMSD -1
REMARK  0 active torsions:
REMARK  status: ('A' for Active; 'I' for Inactive)
ROOT
ATOM      1  O1  BZF d   1      -2.524  -3.350   1.619  0.00  0.00    -0.204 OA
ATOM      2  C2  BZF d   1      -1.408  -3.369   2.434  0.00  0.00     0.174 A 
ATOM      3  C3  BZF d   1      -0.570  -2.360   2.121  0.00  0.00    -0.012 A 
ATOM      4  C3A BZF d   1      -1.245  -1.612   1.105  0.00  0.00    -0.107 A 
ATOM      5  C4  BZF d   1      -0.928  -0.485   0.402  0.00  0.00     0.055 A 
ATOM      6  C5  BZF d   1      -1.773  -0.054  -0.571  0.00  0.00    -0.016 A 
ATOM      7  C6  BZF d   1      -2.938  -0.728  -0.872  0.00  0.00     0.022 A 
ATOM      8  C7  BZF d   1      -3.297  -1.848  -0.199  0.00  0.00     0.029 A 
ATOM      9  C7A BZF d   1      -2.462  -2.267   0.808  0.00  0.00     0.058 A 
ENDROOT
TORSDOF 0
ENDMDL
