MODEL 1
REMARK minimizedAffinity -4.35308409
REMARK minimizedRMSD -1
REMARK  0 active torsions:
REMARK  status: ('A' for Active; 'I' for Inactive)
ROOT
ATOM      1  O1  BZF d   1       1.024   1.246  -1.203  0.00  0.00    -0.204 OA
ATOM      2  C2  BZF d   1       1.768   1.188  -0.040  0.00  0.00     0.174 A 
ATOM      3  C3  BZF d   1       1.095   0.531   0.927  0.00  0.00    -0.012 A 
ATOM      4  C3A BZF d   1      -0.109   0.075   0.303  0.00  0.00    -0.107 A 
ATOM      5  C4  BZF d   1      -1.178  -0.652   0.744  0.00  0.00     0.055 A 
ATOM      6  C5  BZF d   1      -2.225  -0.864  -0.096  0.00  0.00    -0.016 A 
ATOM      7  C6  BZF d   1      -2.238  -0.361  -1.381  0.00  0.00     0.022 A 
ATOM      8  C7  BZF d   1      -1.198   0.361  -1.865  0.00  0.00     0.029 A 
ATOM      9  C7A BZF d   1      -0.125   0.550  -1.029  0.00  0.00     0.058 A 
ENDROOT
TORSDOF 0
ENDMDL
