MODEL 1
REMARK minimizedAffinity -6.18596268
REMARK minimizedRMSD -1
REMARK  0 active torsions:
REMARK  status: ('A' for Active; 'I' for Inactive)
ROOT
ATOM      1  O1  BZF d   1       0.569  -0.709  -0.504  0.00  0.00    -0.204 OA
ATOM      2  C2  BZF d   1       0.080   0.139  -1.479  0.00  0.00     0.174 A 
ATOM      3  C3  BZF d   1      -1.268   0.126  -1.493  0.00  0.00    -0.012 A 
ATOM      4  C3A BZF d   1      -1.648  -0.717  -0.401  0.00  0.00    -0.107 A 
ATOM      5  C4  BZF d   1      -2.853  -1.109   0.108  0.00  0.00     0.055 A 
ATOM      6  C5  BZF d   1      -2.878  -1.997   1.137  0.00  0.00    -0.016 A 
ATOM      7  C6  BZF d   1      -1.719  -2.516   1.676  0.00  0.00     0.022 A 
ATOM      8  C7  BZF d   1      -0.500  -2.153   1.208  0.00  0.00     0.029 A 
ATOM      9  C7A BZF d   1      -0.471  -1.231   0.191  0.00  0.00     0.058 A 
ENDROOT
TORSDOF 0
ENDMDL
