MODEL 1
REMARK minimizedAffinity -4.96416378
REMARK minimizedRMSD -1
REMARK  0 active torsions:
REMARK  status: ('A' for Active; 'I' for Inactive)
ROOT
ATOM      1  O1  BZF d   1       1.138  -1.035   0.637  0.00  0.00    -0.204 OA
ATOM      2  C2  BZF d   1       1.278  -0.090  -0.361  0.00  0.00     0.174 A 
ATOM      3  C3  BZF d   1       0.078   0.237  -0.882  0.00  0.00    -0.012 A 
ATOM      4  C3A BZF d   1      -0.880  -0.485  -0.101  0.00  0.00    -0.107 A 
ATOM      5  C4  BZF d   1      -2.243  -0.561  -0.124  0.00  0.00     0.055 A 
ATOM      6  C5  BZF d   1      -2.871  -1.415   0.726  0.00  0.00    -0.016 A 
ATOM      7  C6  BZF d   1      -2.168  -2.210   1.607  0.00  0.00     0.022 A 
ATOM      8  C7  BZF d   1      -0.815  -2.166   1.670  0.00  0.00     0.029 A 
ATOM      9  C7A BZF d   1      -0.180  -1.280   0.835  0.00  0.00     0.058 A 
ENDROOT
TORSDOF 0
ENDMDL
