MODEL 1
REMARK minimizedAffinity -6.14102221
REMARK minimizedRMSD -1
REMARK  0 active torsions:
REMARK  status: ('A' for Active; 'I' for Inactive)
ROOT
ATOM      1  O1  BZF d   1       0.606  -1.737   1.007  0.00  0.00    -0.204 OA
ATOM      2  C2  BZF d   1       1.237  -0.656   0.422  0.00  0.00     0.174 A 
ATOM      3  C3  BZF d   1       0.353   0.106  -0.254  0.00  0.00    -0.012 A 
ATOM      4  C3A BZF d   1      -0.924  -0.487  -0.003  0.00  0.00    -0.107 A 
ATOM      5  C4  BZF d   1      -2.197  -0.175  -0.390  0.00  0.00     0.055 A 
ATOM      6  C5  BZF d   1      -3.216  -1.001  -0.034  0.00  0.00    -0.016 A 
ATOM      7  C6  BZF d   1      -2.999  -2.148   0.701  0.00  0.00     0.022 A 
ATOM      8  C7  BZF d   1      -1.755  -2.496   1.111  0.00  0.00     0.029 A 
ATOM      9  C7A BZF d   1      -0.727  -1.647   0.782  0.00  0.00     0.058 A 
ENDROOT
TORSDOF 0
ENDMDL
