MODEL 1
REMARK minimizedAffinity -3.80273581
REMARK minimizedRMSD -1
REMARK  0 active torsions:
REMARK  status: ('A' for Active; 'I' for Inactive)
ROOT
ATOM      1  O1  BZF d   1       0.714  -0.677   1.201  0.00  0.00    -0.204 OA
ATOM      2  C2  BZF d   1       1.489   0.183   0.448  0.00  0.00     0.174 A 
ATOM      3  C3  BZF d   1       0.827   0.578  -0.659  0.00  0.00    -0.012 A 
ATOM      4  C3A BZF d   1      -0.475  -0.004  -0.547  0.00  0.00    -0.107 A 
ATOM      5  C4  BZF d   1      -1.593   0.037  -1.331  0.00  0.00     0.055 A 
ATOM      6  C5  BZF d   1      -2.677  -0.700  -0.974  0.00  0.00    -0.016 A 
ATOM      7  C6  BZF d   1      -2.677  -1.493   0.155  0.00  0.00     0.022 A 
ATOM      8  C7  BZF d   1      -1.593  -1.562   0.967  0.00  0.00     0.029 A 
ATOM      9  C7A BZF d   1      -0.508  -0.792   0.627  0.00  0.00     0.058 A 
ENDROOT
TORSDOF 0
ENDMDL
