MODEL 1
REMARK minimizedAffinity -6.37700224
REMARK minimizedRMSD -1
REMARK  0 active torsions:
REMARK  status: ('A' for Active; 'I' for Inactive)
ROOT
ATOM      1  O1  BZF d   1       0.578  -0.731   0.869  0.00  0.00    -0.204 OA
ATOM      2  C2  BZF d   1       0.792   0.257  -0.073  0.00  0.00     0.174 A 
ATOM      3  C3  BZF d   1      -0.343   0.527  -0.749  0.00  0.00    -0.012 A 
ATOM      4  C3A BZF d   1      -1.349  -0.282  -0.133  0.00  0.00    -0.107 A 
ATOM      5  C4  BZF d   1      -2.688  -0.443  -0.351  0.00  0.00     0.055 A 
ATOM      6  C5  BZF d   1      -3.369  -1.366   0.377  0.00  0.00    -0.016 A 
ATOM      7  C6  BZF d   1      -2.744  -2.147   1.327  0.00  0.00     0.022 A 
ATOM      8  C7  BZF d   1      -1.419  -2.020   1.582  0.00  0.00     0.029 A 
ATOM      9  C7A BZF d   1      -0.735  -1.065   0.871  0.00  0.00     0.058 A 
ENDROOT
TORSDOF 0
ENDMDL
