MODEL 1
REMARK minimizedAffinity -6.61282587
REMARK minimizedRMSD -1
REMARK  0 active torsions:
REMARK  status: ('A' for Active; 'I' for Inactive)
ROOT
ATOM      1  O1  BZF d   1       0.489  -1.596   1.113  0.00  0.00    -0.204 OA
ATOM      2  C2  BZF d   1       1.248  -0.564   0.596  0.00  0.00     0.174 A 
ATOM      3  C3  BZF d   1       0.493   0.245  -0.175  0.00  0.00    -0.012 A 
ATOM      4  C3A BZF d   1      -0.840  -0.264  -0.062  0.00  0.00    -0.107 A 
ATOM      5  C4  BZF d   1      -2.040   0.124  -0.585  0.00  0.00     0.055 A 
ATOM      6  C5  BZF d   1      -3.143  -0.631  -0.339  0.00  0.00    -0.016 A 
ATOM      7  C6  BZF d   1      -3.080  -1.781   0.421  0.00  0.00     0.022 A 
ATOM      8  C7  BZF d   1      -1.913  -2.203   0.965  0.00  0.00     0.029 A 
ATOM      9  C7A BZF d   1      -0.803  -1.424   0.745  0.00  0.00     0.058 A 
ENDROOT
TORSDOF 0
ENDMDL
