MODEL 1
REMARK minimizedAffinity -6.33868456
REMARK minimizedRMSD -1
REMARK  0 active torsions:
REMARK  status: ('A' for Active; 'I' for Inactive)
ROOT
ATOM      1  O1  BZF d   1       0.561  -0.316   0.595  0.00  0.00    -0.204 OA
ATOM      2  C2  BZF d   1       0.487   0.605  -0.432  0.00  0.00     0.174 A 
ATOM      3  C3  BZF d   1      -0.741   0.603  -0.989  0.00  0.00    -0.012 A 
ATOM      4  C3A BZF d   1      -1.508  -0.316  -0.205  0.00  0.00    -0.107 A 
ATOM      5  C4  BZF d   1      -2.807  -0.736  -0.254  0.00  0.00     0.055 A 
ATOM      6  C5  BZF d   1      -3.223  -1.697   0.612  0.00  0.00    -0.016 A 
ATOM      7  C6  BZF d   1      -2.368  -2.263   1.535  0.00  0.00     0.022 A 
ATOM      8  C7  BZF d   1      -1.073  -1.875   1.625  0.00  0.00     0.029 A 
ATOM      9  C7A BZF d   1      -0.657  -0.880   0.773  0.00  0.00     0.058 A 
ENDROOT
TORSDOF 0
ENDMDL
