MODEL 1
REMARK minimizedAffinity -5.55658484
REMARK minimizedRMSD -1
REMARK  0 active torsions:
REMARK  status: ('A' for Active; 'I' for Inactive)
ROOT
ATOM      1  O1  BZF d   1       0.723  -0.455   0.699  0.00  0.00    -0.204 OA
ATOM      2  C2  BZF d   1       0.904   0.491  -0.292  0.00  0.00     0.174 A 
ATOM      3  C3  BZF d   1      -0.184   0.566  -1.086  0.00  0.00    -0.012 A 
ATOM      4  C3A BZF d   1      -1.138  -0.326  -0.502  0.00  0.00    -0.107 A 
ATOM      5  C4  BZF d   1      -2.418  -0.674  -0.827  0.00  0.00     0.055 A 
ATOM      6  C5  BZF d   1      -3.048  -1.630  -0.094  0.00  0.00    -0.016 A 
ATOM      7  C6  BZF d   1      -2.428  -2.260   0.964  0.00  0.00     0.022 A 
ATOM      8  C7  BZF d   1      -1.160  -1.945   1.326  0.00  0.00     0.029 A 
ATOM      9  C7A BZF d   1      -0.533  -0.957   0.609  0.00  0.00     0.058 A 
ENDROOT
TORSDOF 0
ENDMDL
