MODEL 1
REMARK minimizedAffinity -6.43909454
REMARK minimizedRMSD -1
REMARK  0 active torsions:
REMARK  status: ('A' for Active; 'I' for Inactive)
ROOT
ATOM      1  O1  BZF d   1       0.577  -0.883   0.527  0.00  0.00    -0.204 OA
ATOM      2  C2  BZF d   1       0.912   0.022  -0.462  0.00  0.00     0.174 A 
ATOM      3  C3  BZF d   1      -0.167   0.337  -1.207  0.00  0.00    -0.012 A 
ATOM      4  C3A BZF d   1      -1.262  -0.348  -0.593  0.00  0.00    -0.107 A 
ATOM      5  C4  BZF d   1      -2.599  -0.416  -0.865  0.00  0.00     0.055 A 
ATOM      6  C5  BZF d   1      -3.385  -1.233  -0.116  0.00  0.00    -0.016 A 
ATOM      7  C6  BZF d   1      -2.867  -1.999   0.908  0.00  0.00     0.022 A 
ATOM      8  C7  BZF d   1      -1.549  -1.961   1.219  0.00  0.00     0.029 A 
ATOM      9  C7A BZF d   1      -0.758  -1.111   0.486  0.00  0.00     0.058 A 
ENDROOT
TORSDOF 0
ENDMDL
