MODEL 1
REMARK minimizedAffinity -6.71458101
REMARK minimizedRMSD -1
REMARK  0 active torsions:
REMARK  status: ('A' for Active; 'I' for Inactive)
ROOT
ATOM      1  O1  BZF d   1       0.509  -0.621   0.388  0.00  0.00    -0.204 OA
ATOM      2  C2  BZF d   1       0.647   0.300  -0.632  0.00  0.00     0.174 A 
ATOM      3  C3  BZF d   1      -0.504   0.423  -1.324  0.00  0.00    -0.012 A 
ATOM      4  C3A BZF d   1      -1.445  -0.409  -0.640  0.00  0.00    -0.107 A 
ATOM      5  C4  BZF d   1      -2.766  -0.693  -0.839  0.00  0.00     0.055 A 
ATOM      6  C5  BZF d   1      -3.374  -1.604  -0.035  0.00  0.00    -0.016 A 
ATOM      7  C6  BZF d   1      -2.692  -2.253   0.973  0.00  0.00     0.022 A 
ATOM      8  C7  BZF d   1      -1.382  -2.001   1.212  0.00  0.00     0.029 A 
ATOM      9  C7A BZF d   1      -0.773  -1.057   0.422  0.00  0.00     0.058 A 
ENDROOT
TORSDOF 0
ENDMDL
