MODEL 1
REMARK minimizedAffinity -5.81223059
REMARK minimizedRMSD -1
REMARK  0 active torsions:
REMARK  status: ('A' for Active; 'I' for Inactive)
ROOT
ATOM      1  O1  BZF d   1       0.616  -0.642   0.624  0.00  0.00    -0.204 OA
ATOM      2  C2  BZF d   1       1.074  -0.009  -0.516  0.00  0.00     0.174 A 
ATOM      3  C3  BZF d   1       0.091   0.091  -1.435  0.00  0.00    -0.012 A 
ATOM      4  C3A BZF d   1      -1.076  -0.434  -0.795  0.00  0.00    -0.107 A 
ATOM      5  C4  BZF d   1      -2.374  -0.590  -1.191  0.00  0.00     0.055 A 
ATOM      6  C5  BZF d   1      -3.251  -1.205  -0.354  0.00  0.00    -0.016 A 
ATOM      7  C6  BZF d   1      -2.864  -1.679   0.882  0.00  0.00     0.022 A 
ATOM      8  C7  BZF d   1      -1.589  -1.543   1.320  0.00  0.00     0.029 A 
ATOM      9  C7A BZF d   1      -0.708  -0.894   0.490  0.00  0.00     0.058 A 
ENDROOT
TORSDOF 0
ENDMDL
