MODEL 1
REMARK minimizedAffinity -5.04164314
REMARK minimizedRMSD -1
REMARK  0 active torsions:
REMARK  status: ('A' for Active; 'I' for Inactive)
ROOT
ATOM      1  O1  BZF d   1       0.782  -0.457   0.368  0.00  0.00    -0.204 OA
ATOM      2  C2  BZF d   1       1.152   0.269  -0.748  0.00  0.00     0.174 A 
ATOM      3  C3  BZF d   1       0.105   0.432  -1.581  0.00  0.00    -0.012 A 
ATOM      4  C3A BZF d   1      -1.011  -0.154  -0.903  0.00  0.00    -0.107 A 
ATOM      5  C4  BZF d   1      -2.333  -0.290  -1.215  0.00  0.00     0.055 A 
ATOM      6  C5  BZF d   1      -3.144  -0.979  -0.369  0.00  0.00    -0.016 A 
ATOM      7  C6  BZF d   1      -2.666  -1.547   0.793  0.00  0.00     0.022 A 
ATOM      8  C7  BZF d   1      -1.362  -1.434   1.148  0.00  0.00     0.029 A 
ATOM      9  C7A BZF d   1      -0.547  -0.711   0.311  0.00  0.00     0.058 A 
ENDROOT
TORSDOF 0
ENDMDL
