MODEL 1
REMARK minimizedAffinity 1.54776514
REMARK minimizedRMSD -1
REMARK  0 active torsions:
REMARK  status: ('A' for Active; 'I' for Inactive)
ROOT
ATOM      1  O1  BZF d   1      -5.901  -4.036  -5.178  0.00  0.00    -0.204 OA
ATOM      2  C2  BZF d   1      -5.569  -5.096  -6.000  0.00  0.00     0.174 A 
ATOM      3  C3  BZF d   1      -4.819  -6.000  -5.336  0.00  0.00    -0.012 A 
ATOM      4  C3A BZF d   1      -4.750  -5.517  -3.991  0.00  0.00    -0.107 A 
ATOM      5  C4  BZF d   1      -4.159  -5.987  -2.854  0.00  0.00     0.055 A 
ATOM      6  C5  BZF d   1      -4.218  -5.240  -1.721  0.00  0.00    -0.016 A 
ATOM      7  C6  BZF d   1      -4.855  -4.016  -1.690  0.00  0.00     0.022 A 
ATOM      8  C7  BZF d   1      -5.461  -3.510  -2.792  0.00  0.00     0.029 A 
ATOM      9  C7A BZF d   1      -5.431  -4.279  -3.930  0.00  0.00     0.058 A 
ENDROOT
TORSDOF 0
ENDMDL
