MODEL 1
REMARK minimizedAffinity 10.8940201
REMARK minimizedRMSD -1
REMARK  0 active torsions:
REMARK  status: ('A' for Active; 'I' for Inactive)
ROOT
ATOM      1  O1  BZF d   1       0.852  -1.314   3.141  0.00  0.00    -0.204 OA
ATOM      2  C2  BZF d   1       1.692  -0.596   2.313  0.00  0.00     0.174 A 
ATOM      3  C3  BZF d   1       2.102  -1.353   1.274  0.00  0.00    -0.012 A 
ATOM      4  C3A BZF d   1       1.406  -2.595   1.416  0.00  0.00    -0.107 A 
ATOM      5  C4  BZF d   1       1.383  -3.747   0.683  0.00  0.00     0.055 A 
ATOM      6  C5  BZF d   1       0.653  -4.801   1.133  0.00  0.00    -0.016 A 
ATOM      7  C6  BZF d   1      -0.059  -4.741   2.313  0.00  0.00     0.022 A 
ATOM      8  C7  BZF d   1      -0.070  -3.618   3.072  0.00  0.00     0.029 A 
ATOM      9  C7A BZF d   1       0.639  -2.539   2.603  0.00  0.00     0.058 A 
ENDROOT
TORSDOF 0
ENDMDL
