MODEL 1
REMARK minimizedAffinity -0.0286124125
REMARK minimizedRMSD -1
REMARK  0 active torsions:
REMARK  status: ('A' for Active; 'I' for Inactive)
ROOT
ATOM      1  O1  BZF d   1      -4.892  -5.998  -5.009  0.00  0.00    -0.204 OA
ATOM      2  C2  BZF d   1      -5.065  -5.051  -6.000  0.00  0.00     0.174 A 
ATOM      3  C3  BZF d   1      -5.555  -3.904  -5.486  0.00  0.00    -0.012 A 
ATOM      4  C3A BZF d   1      -5.611  -4.119  -4.072  0.00  0.00    -0.107 A 
ATOM      5  C4  BZF d   1      -5.997  -3.341  -3.019  0.00  0.00     0.055 A 
ATOM      6  C5  BZF d   1      -6.000  -3.875  -1.769  0.00  0.00    -0.016 A 
ATOM      7  C6  BZF d   1      -5.628  -5.183  -1.538  0.00  0.00     0.022 A 
ATOM      8  C7  BZF d   1      -5.233  -5.993  -2.551  0.00  0.00     0.029 A 
ATOM      9  C7A BZF d   1      -5.197  -5.446  -3.810  0.00  0.00     0.058 A 
ENDROOT
TORSDOF 0
ENDMDL
