MODEL 1
REMARK minimizedAffinity -2.39922619
REMARK minimizedRMSD -1
REMARK  0 active torsions:
REMARK  status: ('A' for Active; 'I' for Inactive)
ROOT
ATOM      1  O1  BZF d   1      -5.258  -5.927  -5.023  0.00  0.00    -0.204 OA
ATOM      2  C2  BZF d   1      -5.751  -4.947  -5.863  0.00  0.00     0.174 A 
ATOM      3  C3  BZF d   1      -6.000  -3.811  -5.180  0.00  0.00    -0.012 A 
ATOM      4  C3A BZF d   1      -5.552  -4.069  -3.845  0.00  0.00    -0.107 A 
ATOM      5  C4  BZF d   1      -5.519  -3.319  -2.705  0.00  0.00     0.055 A 
ATOM      6  C5  BZF d   1      -5.088  -3.891  -1.550  0.00  0.00    -0.016 A 
ATOM      7  C6  BZF d   1      -4.689  -5.211  -1.499  0.00  0.00     0.022 A 
ATOM      8  C7  BZF d   1      -4.699  -5.993  -2.605  0.00  0.00     0.029 A 
ATOM      9  C7A BZF d   1      -5.103  -5.408  -3.781  0.00  0.00     0.058 A 
ENDROOT
TORSDOF 0
ENDMDL
