MODEL 1
REMARK minimizedAffinity -4.715487
REMARK minimizedRMSD -1
REMARK  0 active torsions:
REMARK  status: ('A' for Active; 'I' for Inactive)
ROOT
ATOM      1  O1  BZF d   1      -5.923  -3.861  -2.275  0.00  0.00    -0.204 OA
ATOM      2  C2  BZF d   1      -5.555  -4.962  -1.526  0.00  0.00     0.174 A 
ATOM      3  C3  BZF d   1      -5.197  -5.987  -2.326  0.00  0.00    -0.012 A 
ATOM      4  C3A BZF d   1      -5.262  -5.466  -3.657  0.00  0.00    -0.107 A 
ATOM      5  C4  BZF d   1      -5.005  -6.000  -4.887  0.00  0.00     0.055 A 
ATOM      6  C5  BZF d   1      -5.238  -5.248  -5.995  0.00  0.00    -0.016 A 
ATOM      7  C6  BZF d   1      -5.731  -3.962  -5.909  0.00  0.00     0.022 A 
ATOM      8  C7  BZF d   1      -5.996  -3.388  -4.710  0.00  0.00     0.029 A 
ATOM      9  C7A BZF d   1      -5.731  -4.134  -3.588  0.00  0.00     0.058 A 
ENDROOT
TORSDOF 0
ENDMDL
