MODEL 1
REMARK minimizedAffinity 8.61948204
REMARK minimizedRMSD -1
REMARK  0 active torsions:
REMARK  status: ('A' for Active; 'I' for Inactive)
ROOT
ATOM      1  O1  BZF d   1      -5.254  -2.366  -3.373  0.00  0.00    -0.204 OA
ATOM      2  C2  BZF d   1      -5.657  -2.705  -2.095  0.00  0.00     0.174 A 
ATOM      3  C3  BZF d   1      -6.000  -4.008  -2.032  0.00  0.00    -0.012 A 
ATOM      4  C3A BZF d   1      -5.711  -4.537  -3.329  0.00  0.00    -0.107 A 
ATOM      5  C4  BZF d   1      -5.824  -5.780  -3.883  0.00  0.00     0.055 A 
ATOM      6  C5  BZF d   1      -5.526  -5.947  -5.198  0.00  0.00    -0.016 A 
ATOM      7  C6  BZF d   1      -5.118  -4.893  -5.990  0.00  0.00     0.022 A 
ATOM      8  C7  BZF d   1      -4.986  -3.643  -5.484  0.00  0.00     0.029 A 
ATOM      9  C7A BZF d   1      -5.255  -3.477  -4.147  0.00  0.00     0.058 A 
ENDROOT
TORSDOF 0
ENDMDL
