MODEL 1
REMARK minimizedAffinity -2.1763103
REMARK minimizedRMSD -1
REMARK  0 active torsions:
REMARK  status: ('A' for Active; 'I' for Inactive)
ROOT
ATOM      1  O1  BZF d   1      -4.489  -5.754  -5.208  0.00  0.00    -0.204 OA
ATOM      2  C2  BZF d   1      -5.248  -4.913  -6.000  0.00  0.00     0.174 A 
ATOM      3  C3  BZF d   1      -5.996  -4.088  -5.241  0.00  0.00    -0.012 A 
ATOM      4  C3A BZF d   1      -5.617  -4.371  -3.890  0.00  0.00    -0.107 A 
ATOM      5  C4  BZF d   1      -6.000  -3.863  -2.682  0.00  0.00     0.055 A 
ATOM      6  C5  BZF d   1      -5.491  -4.409  -1.545  0.00  0.00    -0.016 A 
ATOM      7  C6  BZF d   1      -4.604  -5.464  -1.581  0.00  0.00     0.022 A 
ATOM      8  C7  BZF d   1      -4.191  -5.998  -2.756  0.00  0.00     0.029 A 
ATOM      9  C7A BZF d   1      -4.677  -5.427  -3.907  0.00  0.00     0.058 A 
ENDROOT
TORSDOF 0
ENDMDL
