MODEL 1
REMARK minimizedAffinity 3.88824368
REMARK minimizedRMSD -1
REMARK  0 active torsions:
REMARK  status: ('A' for Active; 'I' for Inactive)
ROOT
ATOM      1  O1  BZF d   1       2.590  -5.641   1.582  0.00  0.00    -0.204 OA
ATOM      2  C2  BZF d   1       1.497  -5.991   0.813  0.00  0.00     0.174 A 
ATOM      3  C3  BZF d   1       0.493  -5.107   0.977  0.00  0.00    -0.012 A 
ATOM      4  C3A BZF d   1       1.022  -4.092   1.837  0.00  0.00    -0.107 A 
ATOM      5  C4  BZF d   1       0.508  -2.936   2.352  0.00  0.00     0.055 A 
ATOM      6  C5  BZF d   1       1.260  -2.208   3.217  0.00  0.00    -0.016 A 
ATOM      7  C6  BZF d   1       2.526  -2.607   3.594  0.00  0.00     0.022 A 
ATOM      8  C7  BZF d   1       3.080  -3.743   3.105  0.00  0.00     0.029 A 
ATOM      9  C7A BZF d   1       2.335  -4.465   2.205  0.00  0.00     0.058 A 
ENDROOT
TORSDOF 0
ENDMDL
