MODEL 1
REMARK minimizedAffinity -1.88244927
REMARK minimizedRMSD -1
REMARK  0 active torsions:
REMARK  status: ('A' for Active; 'I' for Inactive)
ROOT
ATOM      1  O1  BZF d   1      -5.901  -4.266  -2.263  0.00  0.00    -0.204 OA
ATOM      2  C2  BZF d   1      -5.224  -5.150  -1.445  0.00  0.00     0.174 A 
ATOM      3  C3  BZF d   1      -4.473  -5.999  -2.175  0.00  0.00    -0.012 A 
ATOM      4  C3A BZF d   1      -4.622  -5.563  -3.530  0.00  0.00    -0.107 A 
ATOM      5  C4  BZF d   1      -4.107  -5.997  -4.718  0.00  0.00     0.055 A 
ATOM      6  C5  BZF d   1      -4.509  -5.398  -5.870  0.00  0.00    -0.016 A 
ATOM      7  C6  BZF d   1      -5.426  -4.368  -5.871  0.00  0.00     0.022 A 
ATOM      8  C7  BZF d   1      -5.961  -3.899  -4.717  0.00  0.00     0.029 A 
ATOM      9  C7A BZF d   1      -5.532  -4.480  -3.548  0.00  0.00     0.058 A 
ENDROOT
TORSDOF 0
ENDMDL
