MODEL 1
REMARK minimizedAffinity 9.61623669
REMARK minimizedRMSD -1
REMARK  0 active torsions:
REMARK  status: ('A' for Active; 'I' for Inactive)
ROOT
ATOM      1  C   UNL d   1      -2.393  -0.639   3.142  0.00  0.00     0.124 A 
ATOM      2  C1  UNL d   1      -2.622  -0.027   1.917  0.00  0.00     0.062 A 
ATOM      3  C2  UNL d   1      -1.560   0.244   1.060  0.00  0.00     0.162 A 
ATOM      4  C3  UNL d   1      -0.257  -0.096   1.424  0.00  0.00    -0.034 A 
ATOM      5  C4  UNL d   1      -0.034  -0.710   2.657  0.00  0.00     0.162 A 
ATOM      6  C5  UNL d   1      -1.099  -0.980   3.511  0.00  0.00     0.062 A 
ATOM      7  F   UNL d   1      -0.875  -1.570   4.693  0.00  0.00    -0.097 F 
ATOM      8  F1  UNL d   1       1.206  -1.051   3.039  0.00  0.00    -0.096 F 
ATOM      9  I   UNL d   1       1.334   0.308   0.145  0.00  0.00    -0.060 I 
ATOM     10  F2  UNL d   1      -1.812   0.836  -0.117  0.00  0.00    -0.096 F 
ATOM     11  F3  UNL d   1      -3.871   0.304   1.559  0.00  0.00    -0.097 F 
ATOM     12  F4  UNL d   1      -3.416  -0.898   3.965  0.00  0.00    -0.092 F 
ENDROOT
TORSDOF 0
ENDMDL
