MODEL 1
REMARK minimizedAffinity 20.8321724
REMARK minimizedRMSD -1
REMARK  0 active torsions:
REMARK  status: ('A' for Active; 'I' for Inactive)
ROOT
ATOM      1  C   UNL d   1       3.539   2.898   1.360  0.00  0.00     0.124 A 
ATOM      2  C1  UNL d   1       4.184   3.119   2.568  0.00  0.00     0.062 A 
ATOM      3  C2  UNL d   1       4.163   2.145   3.562  0.00  0.00     0.162 A 
ATOM      4  C3  UNL d   1       3.494   0.939   3.351  0.00  0.00    -0.034 A 
ATOM      5  C4  UNL d   1       2.846   0.725   2.133  0.00  0.00     0.162 A 
ATOM      6  C5  UNL d   1       2.870   1.702   1.143  0.00  0.00     0.062 A 
ATOM      7  F   UNL d   1       2.245   1.486  -0.024  0.00  0.00    -0.097 F 
ATOM      8  F1  UNL d   1       2.193  -0.423   1.897  0.00  0.00    -0.096 F 
ATOM      9  I   UNL d   1       3.460  -0.520   4.834  0.00  0.00    -0.060 I 
ATOM     10  F2  UNL d   1       4.796   2.386   4.720  0.00  0.00    -0.096 F 
ATOM     11  F3  UNL d   1       4.830   4.275   2.780  0.00  0.00    -0.097 F 
ATOM     12  F4  UNL d   1       3.560   3.838   0.406  0.00  0.00    -0.092 F 
ENDROOT
TORSDOF 0
ENDMDL
