MODEL 1
REMARK minimizedAffinity 6.92304945
REMARK minimizedRMSD -1
REMARK  0 active torsions:
REMARK  status: ('A' for Active; 'I' for Inactive)
ROOT
ATOM      1  C   UNL d   1       1.859   0.866   0.612  0.00  0.00     0.124 A 
ATOM      2  C1  UNL d   1       2.303   1.503  -0.539  0.00  0.00     0.062 A 
ATOM      3  C2  UNL d   1       1.647   1.299  -1.749  0.00  0.00     0.162 A 
ATOM      4  C3  UNL d   1       0.538   0.456  -1.815  0.00  0.00    -0.034 A 
ATOM      5  C4  UNL d   1       0.097  -0.181  -0.654  0.00  0.00     0.162 A 
ATOM      6  C5  UNL d   1       0.757   0.025   0.554  0.00  0.00     0.062 A 
ATOM      7  F   UNL d   1       0.327  -0.591   1.664  0.00  0.00    -0.097 F 
ATOM      8  F1  UNL d   1      -0.966  -0.999  -0.681  0.00  0.00    -0.096 F 
ATOM      9  I   UNL d   1      -0.447   0.149  -3.623  0.00  0.00    -0.060 I 
ATOM     10  F2  UNL d   1       2.098   1.927  -2.845  0.00  0.00    -0.096 F 
ATOM     11  F3  UNL d   1       3.369   2.315  -0.485  0.00  0.00    -0.097 F 
ATOM     12  F4  UNL d   1       2.494   1.063   1.775  0.00  0.00    -0.092 F 
ENDROOT
TORSDOF 0
ENDMDL
