MODEL 1
REMARK minimizedAffinity 11.8296719
REMARK minimizedRMSD -1
REMARK  0 active torsions:
REMARK  status: ('A' for Active; 'I' for Inactive)
ROOT
ATOM      1  C   UNL d   1      -0.829  -0.153   2.733  0.00  0.00     0.124 A 
ATOM      2  C1  UNL d   1       0.410  -0.315   2.128  0.00  0.00     0.062 A 
ATOM      3  C2  UNL d   1       0.527  -0.242   0.743  0.00  0.00     0.162 A 
ATOM      4  C3  UNL d   1      -0.597  -0.005  -0.047  0.00  0.00    -0.034 A 
ATOM      5  C4  UNL d   1      -1.840   0.156   0.568  0.00  0.00     0.162 A 
ATOM      6  C5  UNL d   1      -1.953   0.082   1.953  0.00  0.00     0.062 A 
ATOM      7  F   UNL d   1      -3.150   0.239   2.535  0.00  0.00    -0.097 F 
ATOM      8  F1  UNL d   1      -2.942   0.385  -0.162  0.00  0.00    -0.096 F 
ATOM      9  I   UNL d   1      -0.425   0.105  -2.118  0.00  0.00    -0.060 I 
ATOM     10  F2  UNL d   1       1.737  -0.402   0.186  0.00  0.00    -0.096 F 
ATOM     11  F3  UNL d   1       1.496  -0.543   2.880  0.00  0.00    -0.097 F 
ATOM     12  F4  UNL d   1      -0.940  -0.225   4.066  0.00  0.00    -0.092 F 
ENDROOT
TORSDOF 0
ENDMDL
