MODEL 1
REMARK minimizedAffinity 14.9258337
REMARK minimizedRMSD -1
REMARK  0 active torsions:
REMARK  status: ('A' for Active; 'I' for Inactive)
ROOT
ATOM      1  C   UNL d   1      -2.167  -0.123   1.537  0.00  0.00     0.124 A 
ATOM      2  C1  UNL d   1      -0.938   0.081   0.925  0.00  0.00     0.062 A 
ATOM      3  C2  UNL d   1       0.241  -0.132   1.633  0.00  0.00     0.162 A 
ATOM      4  C3  UNL d   1       0.197  -0.555   2.962  0.00  0.00    -0.034 A 
ATOM      5  C4  UNL d   1      -1.042  -0.757   3.571  0.00  0.00     0.162 A 
ATOM      6  C5  UNL d   1      -2.218  -0.542   2.859  0.00  0.00     0.062 A 
ATOM      7  F   UNL d   1      -3.404  -0.741   3.452  0.00  0.00    -0.097 F 
ATOM      8  F1  UNL d   1      -1.121  -1.163   4.847  0.00  0.00    -0.096 F 
ATOM      9  I   UNL d   1       1.958  -0.875   4.024  0.00  0.00    -0.060 I 
ATOM     10  F2  UNL d   1       1.414   0.073   1.017  0.00  0.00    -0.096 F 
ATOM     11  F3  UNL d   1      -0.886   0.487  -0.352  0.00  0.00    -0.097 F 
ATOM     12  F4  UNL d   1      -3.299   0.084   0.853  0.00  0.00    -0.092 F 
ENDROOT
TORSDOF 0
ENDMDL
