MODEL 1
REMARK minimizedAffinity 7.44369411
REMARK minimizedRMSD -1
REMARK  0 active torsions:
REMARK  status: ('A' for Active; 'I' for Inactive)
ROOT
ATOM      1  C   UNL d   1      -0.784  -0.942   3.820  0.00  0.00     0.124 A 
ATOM      2  C1  UNL d   1      -2.059  -0.707   3.322  0.00  0.00     0.062 A 
ATOM      3  C2  UNL d   1      -2.230  -0.281   2.009  0.00  0.00     0.162 A 
ATOM      4  C3  UNL d   1      -1.124  -0.086   1.182  0.00  0.00    -0.034 A 
ATOM      5  C4  UNL d   1       0.155  -0.323   1.689  0.00  0.00     0.162 A 
ATOM      6  C5  UNL d   1       0.321  -0.749   3.003  0.00  0.00     0.062 A 
ATOM      7  F   UNL d   1       1.554  -0.975   3.481  0.00  0.00    -0.097 F 
ATOM      8  F1  UNL d   1       1.241  -0.146   0.921  0.00  0.00    -0.096 F 
ATOM      9  I   UNL d   1      -1.376   0.552  -0.783  0.00  0.00    -0.060 I 
ATOM     10  F2  UNL d   1      -3.473  -0.062   1.555  0.00  0.00    -0.096 F 
ATOM     11  F3  UNL d   1      -3.128  -0.892   4.110  0.00  0.00    -0.097 F 
ATOM     12  F4  UNL d   1      -0.622  -1.351   5.084  0.00  0.00    -0.092 F 
ENDROOT
TORSDOF 0
ENDMDL
