MODEL 1
REMARK minimizedAffinity 11.0804377
REMARK minimizedRMSD -1
REMARK  0 active torsions:
REMARK  status: ('A' for Active; 'I' for Inactive)
ROOT
ATOM      1  C   UNL d   1      -2.121  -0.409   3.233  0.00  0.00     0.124 A 
ATOM      2  C1  UNL d   1      -0.877  -0.716   3.767  0.00  0.00     0.062 A 
ATOM      3  C2  UNL d   1       0.279  -0.480   3.029  0.00  0.00     0.162 A 
ATOM      4  C3  UNL d   1       0.197   0.066   1.748  0.00  0.00    -0.034 A 
ATOM      5  C4  UNL d   1      -1.057   0.372   1.218  0.00  0.00     0.162 A 
ATOM      6  C5  UNL d   1      -2.210   0.135   1.959  0.00  0.00     0.062 A 
ATOM      7  F   UNL d   1      -3.411   0.432   1.442  0.00  0.00    -0.097 F 
ATOM      8  F1  UNL d   1      -1.172   0.899  -0.011  0.00  0.00    -0.096 F 
ATOM      9  I   UNL d   1       1.924   0.420   0.641  0.00  0.00    -0.060 I 
ATOM     10  F2  UNL d   1       1.468  -0.787   3.570  0.00  0.00    -0.096 F 
ATOM     11  F3  UNL d   1      -0.788  -1.242   4.997  0.00  0.00    -0.097 F 
ATOM     12  F4  UNL d   1      -3.232  -0.637   3.945  0.00  0.00    -0.092 F 
ENDROOT
TORSDOF 0
ENDMDL
