MODEL 1
REMARK minimizedAffinity 10.340951
REMARK minimizedRMSD -1
REMARK  0 active torsions:
REMARK  status: ('A' for Active; 'I' for Inactive)
ROOT
ATOM      1  C   UNL d   1      -1.901  -0.209   2.213  0.00  0.00     0.124 A 
ATOM      2  C1  UNL d   1      -1.958   0.095   0.860  0.00  0.00     0.062 A 
ATOM      3  C2  UNL d   1      -0.787   0.201   0.116  0.00  0.00     0.162 A 
ATOM      4  C3  UNL d   1       0.453   0.001   0.724  0.00  0.00    -0.034 A 
ATOM      5  C4  UNL d   1       0.503  -0.303   2.085  0.00  0.00     0.162 A 
ATOM      6  C5  UNL d   1      -0.671  -0.408   2.824  0.00  0.00     0.062 A 
ATOM      7  F   UNL d   1      -0.614  -0.702   4.132  0.00  0.00    -0.097 F 
ATOM      8  F1  UNL d   1       1.678  -0.501   2.701  0.00  0.00    -0.096 F 
ATOM      9  I   UNL d   1       2.207   0.159  -0.385  0.00  0.00    -0.060 I 
ATOM     10  F2  UNL d   1      -0.872   0.496  -1.189  0.00  0.00    -0.096 F 
ATOM     11  F3  UNL d   1      -3.145   0.289   0.268  0.00  0.00    -0.097 F 
ATOM     12  F4  UNL d   1      -3.030  -0.309   2.927  0.00  0.00    -0.092 F 
ENDROOT
TORSDOF 0
ENDMDL
