MODEL 1
REMARK minimizedAffinity 4.50025845
REMARK minimizedRMSD -1
REMARK  0 active torsions:
REMARK  status: ('A' for Active; 'I' for Inactive)
ROOT
ATOM      1  C   UNL d   1      -1.992   0.488   0.599  0.00  0.00     0.124 A 
ATOM      2  C1  UNL d   1      -2.222   0.595   1.964  0.00  0.00     0.062 A 
ATOM      3  C2  UNL d   1      -1.265   0.151   2.872  0.00  0.00     0.162 A 
ATOM      4  C3  UNL d   1      -0.068  -0.404   2.418  0.00  0.00    -0.034 A 
ATOM      5  C4  UNL d   1       0.155  -0.509   1.045  0.00  0.00     0.162 A 
ATOM      6  C5  UNL d   1      -0.804  -0.064   0.141  0.00  0.00     0.062 A 
ATOM      7  F   UNL d   1      -0.580  -0.169  -1.177  0.00  0.00    -0.097 F 
ATOM      8  F1  UNL d   1       1.295  -1.038   0.574  0.00  0.00    -0.096 F 
ATOM      9  I   UNL d   1       1.365  -1.069   3.773  0.00  0.00    -0.060 I 
ATOM     10  F2  UNL d   1      -1.514   0.267   4.185  0.00  0.00    -0.096 F 
ATOM     11  F3  UNL d   1      -3.369   1.127   2.409  0.00  0.00    -0.097 F 
ATOM     12  F4  UNL d   1      -2.915   0.915  -0.272  0.00  0.00    -0.092 F 
ENDROOT
TORSDOF 0
ENDMDL
