MODEL 1
REMARK minimizedAffinity 12.4563427
REMARK minimizedRMSD -1
REMARK  0 active torsions:
REMARK  status: ('A' for Active; 'I' for Inactive)
ROOT
ATOM      1  C   UNL d   1      -5.938   5.995   5.516  0.00  0.00     0.077 C 
ATOM      2  C1  UNL d   1      -5.693   5.212   4.260  0.00  0.00    -0.074 A 
ATOM      3  C2  UNL d   1      -5.238   3.891   4.314  0.00  0.00    -0.005 A 
ATOM      4  C3  UNL d   1      -5.024   3.172   3.138  0.00  0.00     0.006 A 
ATOM      5  C4  UNL d   1      -5.263   3.766   1.898  0.00  0.00    -0.005 A 
ATOM      6  C5  UNL d   1      -5.719   5.086   1.825  0.00  0.00    -0.074 A 
ATOM      7  C6  UNL d   1      -5.990   5.737   0.501  0.00  0.00     0.077 C 
ATOM      8  C7  UNL d   1      -5.938   5.800   3.011  0.00  0.00    -0.001 A 
ENDROOT
TORSDOF 0
ENDMDL
