MODEL 1
REMARK minimizedAffinity 10.8732738
REMARK minimizedRMSD -1
REMARK  0 active torsions:
REMARK  status: ('A' for Active; 'I' for Inactive)
ROOT
ATOM      1  C   UNL d   1       2.023  -2.065   1.977  0.00  0.00     0.077 C 
ATOM      2  C1  UNL d   1       2.362  -0.873   1.133  0.00  0.00    -0.074 A 
ATOM      3  C2  UNL d   1       1.955  -0.799  -0.203  0.00  0.00    -0.005 A 
ATOM      4  C3  UNL d   1       2.269   0.321  -0.973  0.00  0.00     0.006 A 
ATOM      5  C4  UNL d   1       2.993   1.376  -0.416  0.00  0.00    -0.005 A 
ATOM      6  C5  UNL d   1       3.409   1.320   0.918  0.00  0.00    -0.074 A 
ATOM      7  C6  UNL d   1       4.179   2.449   1.535  0.00  0.00     0.077 C 
ATOM      8  C7  UNL d   1       3.083   0.194   1.688  0.00  0.00    -0.001 A 
ENDROOT
TORSDOF 0
ENDMDL
