MODEL 1
REMARK minimizedAffinity 6.46898699
REMARK minimizedRMSD -1
REMARK  0 active torsions:
REMARK  status: ('A' for Active; 'I' for Inactive)
ROOT
ATOM      1  C   UNL d   1       4.718   1.680  -1.909  0.00  0.00     0.077 C 
ATOM      2  C1  UNL d   1       3.874   0.896  -0.948  0.00  0.00    -0.074 A 
ATOM      3  C2  UNL d   1       3.812   1.245   0.404  0.00  0.00    -0.005 A 
ATOM      4  C3  UNL d   1       3.015   0.512   1.284  0.00  0.00     0.006 A 
ATOM      5  C4  UNL d   1       2.274  -0.576   0.820  0.00  0.00    -0.005 A 
ATOM      6  C5  UNL d   1       2.323  -0.939  -0.530  0.00  0.00    -0.074 A 
ATOM      7  C6  UNL d   1       1.525  -2.099  -1.046  0.00  0.00     0.077 C 
ATOM      8  C7  UNL d   1       3.120  -0.193  -1.408  0.00  0.00    -0.001 A 
ENDROOT
TORSDOF 0
ENDMDL
