MODEL 1
REMARK minimizedAffinity 6.82531404
REMARK minimizedRMSD -1
REMARK  0 active torsions:
REMARK  status: ('A' for Active; 'I' for Inactive)
ROOT
ATOM      1  C   UNL d   1      -0.387   0.638  -1.169  0.00  0.00     0.077 C 
ATOM      2  C1  UNL d   1       1.036   0.539  -0.707  0.00  0.00    -0.074 A 
ATOM      3  C2  UNL d   1       1.341   0.335   0.643  0.00  0.00    -0.005 A 
ATOM      4  C3  UNL d   1       2.669   0.236   1.057  0.00  0.00     0.006 A 
ATOM      5  C4  UNL d   1       3.705   0.338   0.127  0.00  0.00    -0.005 A 
ATOM      6  C5  UNL d   1       3.419   0.541  -1.227  0.00  0.00    -0.074 A 
ATOM      7  C6  UNL d   1       4.519   0.644  -2.241  0.00  0.00     0.077 C 
ATOM      8  C7  UNL d   1       2.082   0.634  -1.636  0.00  0.00    -0.001 A 
ENDROOT
TORSDOF 0
ENDMDL
