MODEL 1
REMARK minimizedAffinity 3.79717803
REMARK minimizedRMSD -1
REMARK  0 active torsions:
REMARK  status: ('A' for Active; 'I' for Inactive)
ROOT
ATOM      1  C   UNL d   1       1.679  -3.159  -1.150  0.00  0.00     0.077 C 
ATOM      2  C1  UNL d   1       2.347  -1.942  -0.583  0.00  0.00    -0.074 A 
ATOM      3  C2  UNL d   1       2.600  -1.834   0.788  0.00  0.00    -0.005 A 
ATOM      4  C3  UNL d   1       3.230  -0.700   1.300  0.00  0.00     0.006 A 
ATOM      5  C4  UNL d   1       3.614   0.336   0.447  0.00  0.00    -0.005 A 
ATOM      6  C5  UNL d   1       3.370   0.245  -0.927  0.00  0.00    -0.074 A 
ATOM      7  C6  UNL d   1       3.785   1.345  -1.859  0.00  0.00     0.077 C 
ATOM      8  C7  UNL d   1       2.742  -0.900  -1.434  0.00  0.00    -0.001 A 
ENDROOT
TORSDOF 0
ENDMDL
