MODEL 1
REMARK minimizedAffinity 0.942407429
REMARK minimizedRMSD -1
REMARK  0 active torsions:
REMARK  status: ('A' for Active; 'I' for Inactive)
ROOT
ATOM      1  C   UNL d   1      -5.963   4.164   2.405  0.00  0.00     0.077 C 
ATOM      2  C1  UNL d   1      -5.286   4.810   3.577  0.00  0.00    -0.074 A 
ATOM      3  C2  UNL d   1      -6.000   5.115   4.741  0.00  0.00    -0.005 A 
ATOM      4  C3  UNL d   1      -5.355   5.706   5.827  0.00  0.00     0.006 A 
ATOM      5  C4  UNL d   1      -3.992   5.999   5.760  0.00  0.00    -0.005 A 
ATOM      6  C5  UNL d   1      -3.262   5.701   4.606  0.00  0.00    -0.074 A 
ATOM      7  C6  UNL d   1      -1.795   6.000   4.521  0.00  0.00     0.077 C 
ATOM      8  C7  UNL d   1      -3.916   5.100   3.521  0.00  0.00    -0.001 A 
ENDROOT
TORSDOF 0
ENDMDL
