MODEL 1
REMARK minimizedAffinity 7.55919504
REMARK minimizedRMSD -1
REMARK  0 active torsions:
REMARK  status: ('A' for Active; 'I' for Inactive)
ROOT
ATOM      1  C   UNL d   1      -5.994   5.914   5.991  0.00  0.00     0.077 C 
ATOM      2  C1  UNL d   1      -4.952   5.613   4.955  0.00  0.00    -0.074 A 
ATOM      3  C2  UNL d   1      -5.303   5.054   3.722  0.00  0.00    -0.005 A 
ATOM      4  C3  UNL d   1      -4.323   4.789   2.766  0.00  0.00     0.006 A 
ATOM      5  C4  UNL d   1      -2.985   5.078   3.032  0.00  0.00    -0.005 A 
ATOM      6  C5  UNL d   1      -2.614   5.638   4.259  0.00  0.00    -0.074 A 
ATOM      7  C6  UNL d   1      -1.181   5.965   4.557  0.00  0.00     0.077 C 
ATOM      8  C7  UNL d   1      -3.606   5.908   5.212  0.00  0.00    -0.001 A 
ENDROOT
TORSDOF 0
ENDMDL
