MODEL 1
REMARK minimizedAffinity 6.65475368
REMARK minimizedRMSD -1
REMARK  0 active torsions:
REMARK  status: ('A' for Active; 'I' for Inactive)
ROOT
ATOM      1  C   UNL d   1       2.297  -2.068   1.512  0.00  0.00     0.077 C 
ATOM      2  C1  UNL d   1       2.592  -0.830   0.718  0.00  0.00    -0.074 A 
ATOM      3  C2  UNL d   1       2.125  -0.689  -0.593  0.00  0.00    -0.005 A 
ATOM      4  C3  UNL d   1       2.399   0.472  -1.316  0.00  0.00     0.006 A 
ATOM      5  C4  UNL d   1       3.141   1.502  -0.737  0.00  0.00    -0.005 A 
ATOM      6  C5  UNL d   1       3.616   1.379   0.573  0.00  0.00    -0.074 A 
ATOM      7  C6  UNL d   1       4.407   2.480   1.214  0.00  0.00     0.077 C 
ATOM      8  C7  UNL d   1       3.330   0.212   1.295  0.00  0.00    -0.001 A 
ENDROOT
TORSDOF 0
ENDMDL
