MODEL 1
REMARK minimizedAffinity 9.80766106
REMARK minimizedRMSD -1
REMARK  0 active torsions:
REMARK  status: ('A' for Active; 'I' for Inactive)
ROOT
ATOM      1  C   UNL d   1      -4.963   3.064   1.957  0.00  0.00     0.077 C 
ATOM      2  C1  UNL d   1      -4.863   4.018   3.110  0.00  0.00    -0.074 A 
ATOM      3  C2  UNL d   1      -5.997   4.380   3.845  0.00  0.00    -0.005 A 
ATOM      4  C3  UNL d   1      -5.887   5.261   4.920  0.00  0.00     0.006 A 
ATOM      5  C4  UNL d   1      -4.644   5.788   5.272  0.00  0.00    -0.005 A 
ATOM      6  C5  UNL d   1      -3.499   5.437   4.550  0.00  0.00    -0.074 A 
ATOM      7  C6  UNL d   1      -2.154   5.987   4.922  0.00  0.00     0.077 C 
ATOM      8  C7  UNL d   1      -3.617   4.546   3.475  0.00  0.00    -0.001 A 
ENDROOT
TORSDOF 0
ENDMDL
