MODEL 1
REMARK minimizedAffinity 6.5311594
REMARK minimizedRMSD -1
REMARK  0 active torsions:
REMARK  status: ('A' for Active; 'I' for Inactive)
ROOT
ATOM      1  C   UNL d   1       1.739   2.691   3.200  0.00  0.00     0.077 C 
ATOM      2  C1  UNL d   1       2.335   2.268   1.890  0.00  0.00    -0.074 A 
ATOM      3  C2  UNL d   1       3.372   3.000   1.303  0.00  0.00    -0.005 A 
ATOM      4  C3  UNL d   1       3.922   2.590   0.089  0.00  0.00     0.006 A 
ATOM      5  C4  UNL d   1       3.442   1.446  -0.549  0.00  0.00    -0.005 A 
ATOM      6  C5  UNL d   1       2.406   0.701   0.023  0.00  0.00    -0.074 A 
ATOM      7  C6  UNL d   1       1.886  -0.537  -0.645  0.00  0.00     0.077 C 
ATOM      8  C7  UNL d   1       1.863   1.115   1.247  0.00  0.00    -0.001 A 
ENDROOT
TORSDOF 0
ENDMDL
