MODEL 1
REMARK minimizedAffinity 8.88097095
REMARK minimizedRMSD -1
REMARK  0 active torsions:
REMARK  status: ('A' for Active; 'I' for Inactive)
ROOT
ATOM      1  C   UNL d   1       1.605  -0.848  -0.778  0.00  0.00     0.077 C 
ATOM      2  C1  UNL d   1       2.366   0.387  -0.399  0.00  0.00    -0.074 A 
ATOM      3  C2  UNL d   1       1.698   1.557  -0.025  0.00  0.00    -0.005 A 
ATOM      4  C3  UNL d   1       2.419   2.695   0.335  0.00  0.00     0.006 A 
ATOM      5  C4  UNL d   1       3.814   2.675   0.324  0.00  0.00    -0.005 A 
ATOM      6  C5  UNL d   1       4.500   1.514  -0.046  0.00  0.00    -0.074 A 
ATOM      7  C6  UNL d   1       6.000   1.473  -0.053  0.00  0.00     0.077 C 
ATOM      8  C7  UNL d   1       3.768   0.372  -0.399  0.00  0.00    -0.001 A 
ENDROOT
TORSDOF 0
ENDMDL
