MODEL 1
REMARK minimizedAffinity -3.06494999
REMARK minimizedRMSD -1
REMARK  0 active torsions:
REMARK  status: ('A' for Active; 'I' for Inactive)
ROOT
ATOM      1  C   UNL d   1      -1.610   5.999   3.224  0.00  0.00     0.077 C 
ATOM      2  C1  UNL d   1      -3.108   5.983   3.286  0.00  0.00    -0.074 A 
ATOM      3  C2  UNL d   1      -3.876   5.999   2.118  0.00  0.00    -0.005 A 
ATOM      4  C3  UNL d   1      -5.269   5.974   2.191  0.00  0.00     0.006 A 
ATOM      5  C4  UNL d   1      -5.906   5.933   3.432  0.00  0.00    -0.005 A 
ATOM      6  C5  UNL d   1      -5.155   5.915   4.611  0.00  0.00    -0.074 A 
ATOM      7  C6  UNL d   1      -5.824   5.861   5.952  0.00  0.00     0.077 C 
ATOM      8  C7  UNL d   1      -3.756   5.934   4.529  0.00  0.00    -0.001 A 
ENDROOT
TORSDOF 0
ENDMDL
