MODEL 1
REMARK minimizedAffinity 4.79204655
REMARK minimizedRMSD -1
REMARK  0 active torsions:
REMARK  status: ('A' for Active; 'I' for Inactive)
ROOT
ATOM      1  C   UNL d   1       3.040   1.501   0.008  0.00  0.00     0.077 C 
ATOM      2  C1  UNL d   1       3.026   0.118  -0.574  0.00  0.00    -0.074 A 
ATOM      3  C2  UNL d   1       3.476  -0.118  -1.877  0.00  0.00    -0.005 A 
ATOM      4  C3  UNL d   1       3.466  -1.410  -2.401  0.00  0.00     0.006 A 
ATOM      5  C4  UNL d   1       3.007  -2.478  -1.629  0.00  0.00    -0.005 A 
ATOM      6  C5  UNL d   1       2.553  -2.261  -0.324  0.00  0.00    -0.074 A 
ATOM      7  C6  UNL d   1       2.065  -3.399   0.522  0.00  0.00     0.077 C 
ATOM      8  C7  UNL d   1       2.573  -0.961   0.198  0.00  0.00    -0.001 A 
ENDROOT
TORSDOF 0
ENDMDL
