MODEL 1
REMARK minimizedAffinity -3.25193
REMARK minimizedRMSD -1
REMARK  0 active torsions:
REMARK  status: ('A' for Active; 'I' for Inactive)
ROOT
ATOM      1  C   UNL d   1      -4.792   5.979   0.603  0.00  0.00     0.077 C 
ATOM      2  C1  UNL d   1      -4.361   5.973   2.040  0.00  0.00    -0.074 A 
ATOM      3  C2  UNL d   1      -3.006   5.989   2.384  0.00  0.00    -0.005 A 
ATOM      4  C3  UNL d   1      -2.620   5.993   3.724  0.00  0.00     0.006 A 
ATOM      5  C4  UNL d   1      -3.585   5.982   4.733  0.00  0.00    -0.005 A 
ATOM      6  C5  UNL d   1      -4.945   5.966   4.408  0.00  0.00    -0.074 A 
ATOM      7  C6  UNL d   1      -5.994   5.963   5.480  0.00  0.00     0.077 C 
ATOM      8  C7  UNL d   1      -5.324   5.969   3.059  0.00  0.00    -0.001 A 
ENDROOT
TORSDOF 0
ENDMDL
