MODEL 1
REMARK minimizedAffinity -2.27935433
REMARK minimizedRMSD -1
REMARK  0 active torsions:
REMARK  status: ('A' for Active; 'I' for Inactive)
ROOT
ATOM      1  C   UNL d   1      -4.295   5.959   1.113  0.00  0.00     0.077 C 
ATOM      2  C1  UNL d   1      -4.016   5.949   2.587  0.00  0.00    -0.074 A 
ATOM      3  C2  UNL d   1      -2.704   5.970   3.070  0.00  0.00    -0.005 A 
ATOM      4  C3  UNL d   1      -2.460   5.970   4.443  0.00  0.00     0.006 A 
ATOM      5  C4  UNL d   1      -3.524   5.949   5.346  0.00  0.00    -0.005 A 
ATOM      6  C5  UNL d   1      -4.843   5.928   4.881  0.00  0.00    -0.074 A 
ATOM      7  C6  UNL d   1      -5.998   5.915   5.837  0.00  0.00     0.077 C 
ATOM      8  C7  UNL d   1      -5.080   5.936   3.500  0.00  0.00    -0.001 A 
ENDROOT
TORSDOF 0
ENDMDL
