MODEL 1
REMARK minimizedAffinity -0.875952542
REMARK minimizedRMSD -1
REMARK  1 active torsions:
REMARK  status: ('A' for Active; 'I' for Inactive)
REMARK    1  A    between atoms: C1_2  and  C2_3 
ROOT
ATOM      1  C2  UNL d   1      -0.702   0.086  -0.094  0.00  0.00    -0.077 A 
ATOM      2  C3  UNL d   1      -0.005   1.090   0.593  0.00  0.00     0.002 A 
ATOM      3  C4  UNL d   1      -0.677   1.943   1.471  0.00  0.00     0.002 A 
ATOM      4  C5  UNL d   1      -2.049   1.799   1.672  0.00  0.00    -0.004 A 
ATOM      5  C6  UNL d   1      -2.751   0.805   0.991  0.00  0.00     0.002 A 
ATOM      6  C7  UNL d   1      -2.081  -0.048   0.113  0.00  0.00     0.002 A 
ENDROOT
BRANCH   1   7
ATOM      7  C1  UNL d   1       0.030  -0.866  -1.003  0.00  0.00     0.055 C 
ATOM      8  C   UNL d   1       0.079  -2.267  -0.412  0.00  0.00     0.019 C 
ENDBRANCH   1   7
TORSDOF 1
ENDMDL
