MODEL 1
REMARK minimizedAffinity -5.46495008
REMARK minimizedRMSD -1
REMARK  1 active torsions:
REMARK  status: ('A' for Active; 'I' for Inactive)
REMARK    1  A    between atoms: C1_2  and  C2_3 
ROOT
ATOM      1  C2  UNL d   1       0.543  -0.164  -0.260  0.00  0.00    -0.077 A 
ATOM      2  C3  UNL d   1       1.098   1.072   0.103  0.00  0.00     0.002 A 
ATOM      3  C4  UNL d   1       2.412   1.146   0.568  0.00  0.00     0.002 A 
ATOM      4  C5  UNL d   1       3.183  -0.010   0.671  0.00  0.00    -0.004 A 
ATOM      5  C6  UNL d   1       2.640  -1.243   0.314  0.00  0.00     0.002 A 
ATOM      6  C7  UNL d   1       1.326  -1.320  -0.150  0.00  0.00     0.002 A 
ENDROOT
BRANCH   1   7
ATOM      7  C1  UNL d   1      -0.858  -0.239  -0.808  0.00  0.00     0.055 C 
ATOM      8  C   UNL d   1      -1.769   0.781  -0.142  0.00  0.00     0.019 C 
ENDBRANCH   1   7
TORSDOF 1
ENDMDL
