MODEL 1
REMARK minimizedAffinity -1.50391042
REMARK minimizedRMSD -1
REMARK  1 active torsions:
REMARK  status: ('A' for Active; 'I' for Inactive)
REMARK    1  A    between atoms: C1_2  and  C2_3 
ROOT
ATOM      1  C2  UNL d   1      -1.528  -0.150   0.930  0.00  0.00    -0.077 A 
ATOM      2  C3  UNL d   1      -0.766   0.717   0.134  0.00  0.00     0.002 A 
ATOM      3  C4  UNL d   1       0.245   0.217  -0.688  0.00  0.00     0.002 A 
ATOM      4  C5  UNL d   1       0.500  -1.153  -0.727  0.00  0.00    -0.004 A 
ATOM      5  C6  UNL d   1      -0.251  -2.023   0.061  0.00  0.00     0.002 A 
ATOM      6  C7  UNL d   1      -1.261  -1.524   0.885  0.00  0.00     0.002 A 
ENDROOT
BRANCH   1   7
ATOM      7  C1  UNL d   1      -2.651   0.383   1.781  0.00  0.00     0.055 C 
ATOM      8  C   UNL d   1      -3.966   0.396   1.016  0.00  0.00     0.019 C 
ENDBRANCH   1   7
TORSDOF 1
ENDMDL
