MODEL 1
REMARK minimizedAffinity 0.433095515
REMARK minimizedRMSD -1
REMARK  1 active torsions:
REMARK  status: ('A' for Active; 'I' for Inactive)
REMARK    1  A    between atoms: C1_2  and  C2_3 
ROOT
ATOM      1  C2  UNL d   1       0.472   0.185  -0.297  0.00  0.00    -0.077 A 
ATOM      2  C3  UNL d   1      -0.552  -0.726  -0.589  0.00  0.00     0.002 A 
ATOM      3  C4  UNL d   1      -0.269  -2.087  -0.726  0.00  0.00     0.002 A 
ATOM      4  C5  UNL d   1       1.036  -2.548  -0.569  0.00  0.00    -0.004 A 
ATOM      5  C6  UNL d   1       2.062  -1.648  -0.280  0.00  0.00     0.002 A 
ATOM      6  C7  UNL d   1       1.781  -0.288  -0.144  0.00  0.00     0.002 A 
ENDROOT
BRANCH   1   7
ATOM      7  C1  UNL d   1       0.160   1.646  -0.100  0.00  0.00     0.055 C 
ATOM      8  C   UNL d   1       1.425   2.452   0.158  0.00  0.00     0.019 C 
ENDBRANCH   1   7
TORSDOF 1
ENDMDL
