MODEL 1
REMARK minimizedAffinity -4.64426565
REMARK minimizedRMSD -1
REMARK  1 active torsions:
REMARK  status: ('A' for Active; 'I' for Inactive)
REMARK    1  A    between atoms: C1_2  and  C2_3 
ROOT
ATOM      1  C2  UNL d   1       1.412  -0.598   0.021  0.00  0.00    -0.077 A 
ATOM      2  C3  UNL d   1       2.496   0.269   0.217  0.00  0.00     0.002 A 
ATOM      3  C4  UNL d   1       2.322   1.650   0.118  0.00  0.00     0.002 A 
ATOM      4  C5  UNL d   1       1.066   2.177  -0.175  0.00  0.00    -0.004 A 
ATOM      5  C6  UNL d   1      -0.018   1.323  -0.374  0.00  0.00     0.002 A 
ATOM      6  C7  UNL d   1       0.154  -0.058  -0.276  0.00  0.00     0.002 A 
ENDROOT
BRANCH   1   7
ATOM      7  C1  UNL d   1       1.586  -2.086   0.176  0.00  0.00     0.055 C 
ATOM      8  C   UNL d   1       0.412  -2.847  -0.424  0.00  0.00     0.019 C 
ENDBRANCH   1   7
TORSDOF 1
ENDMDL
