MODEL 1
REMARK minimizedAffinity -5.24621487
REMARK minimizedRMSD -1
REMARK  1 active torsions:
REMARK  status: ('A' for Active; 'I' for Inactive)
REMARK    1  A    between atoms: C1_2  and  C2_3 
ROOT
ATOM      1  C2  UNL d   1      -0.354   0.141  -0.293  0.00  0.00    -0.077 A 
ATOM      2  C3  UNL d   1      -0.007  -1.217  -0.291  0.00  0.00     0.002 A 
ATOM      3  C4  UNL d   1       1.330  -1.604  -0.176  0.00  0.00     0.002 A 
ATOM      4  C5  UNL d   1       2.328  -0.639  -0.056  0.00  0.00    -0.004 A 
ATOM      5  C6  UNL d   1       1.993   0.714  -0.059  0.00  0.00     0.002 A 
ATOM      6  C7  UNL d   1       0.658   1.103  -0.176  0.00  0.00     0.002 A 
ENDROOT
BRANCH   1   7
ATOM      7  C1  UNL d   1      -1.800   0.560  -0.369  0.00  0.00     0.055 C 
ATOM      8  C   UNL d   1      -2.260   1.197   0.934  0.00  0.00     0.019 C 
ENDBRANCH   1   7
TORSDOF 1
ENDMDL
