MODEL 1
REMARK minimizedAffinity -5.16123819
REMARK minimizedRMSD -1
REMARK  1 active torsions:
REMARK  status: ('A' for Active; 'I' for Inactive)
REMARK    1  A    between atoms: C1_2  and  C2_3 
ROOT
ATOM      1  C2  UNL d   1       0.781   0.026  -0.068  0.00  0.00    -0.077 A 
ATOM      2  C3  UNL d   1       1.647   0.880   0.630  0.00  0.00     0.002 A 
ATOM      3  C4  UNL d   1       2.909   0.435   1.028  0.00  0.00     0.002 A 
ATOM      4  C5  UNL d   1       3.318  -0.863   0.729  0.00  0.00    -0.004 A 
ATOM      5  C6  UNL d   1       2.464  -1.721   0.037  0.00  0.00     0.002 A 
ATOM      6  C7  UNL d   1       1.202  -1.278  -0.361  0.00  0.00     0.002 A 
ENDROOT
BRANCH   1   7
ATOM      7  C1  UNL d   1      -0.561   0.520  -0.542  0.00  0.00     0.055 C 
ATOM      8  C   UNL d   1      -1.638   0.289   0.508  0.00  0.00     0.019 C 
ENDBRANCH   1   7
TORSDOF 1
ENDMDL
