MODEL 1
REMARK minimizedAffinity -2.12486744
REMARK minimizedRMSD -1
REMARK  1 active torsions:
REMARK  status: ('A' for Active; 'I' for Inactive)
REMARK    1  A    between atoms: N_2  and  C1_3 
ROOT
ATOM      1  C1  UNL d   1      -0.801   0.070  -0.332  0.00  0.00     0.143 A 
ATOM      2  C2  UNL d   1      -2.026  -0.376   0.176  0.00  0.00    -0.057 A 
ATOM      3  C3  UNL d   1      -2.132  -0.882   1.477  0.00  0.00     0.033 A 
ATOM      4  C4  UNL d   1      -1.005  -0.977   2.287  0.00  0.00    -0.042 A 
ATOM      5  C5  UNL d   1       0.228  -0.563   1.795  0.00  0.00     0.033 A 
ATOM      6  C6  UNL d   1       0.326  -0.053   0.497  0.00  0.00    -0.057 A 
ENDROOT
BRANCH   1   7
ATOM      7  N   UNL d   1      -0.612   0.491  -1.650  0.00  0.00    -0.732 N 
ATOM      8  C   UNL d   1      -1.441   1.532  -2.218  0.00  0.00     0.284 C 
ATOM      9  H3  UNL d   1       0.373   0.562  -1.898  0.00  0.00     0.395 HD
ENDBRANCH   1   7
TORSDOF 1
ENDMDL
