MODEL 1
REMARK minimizedAffinity -4.80114126
REMARK minimizedRMSD -1
REMARK  1 active torsions:
REMARK  status: ('A' for Active; 'I' for Inactive)
REMARK    1  A    between atoms: N_2  and  C1_3 
ROOT
ATOM      1  C1  UNL d   1      -0.472  -0.236   0.244  0.00  0.00     0.143 A 
ATOM      2  C2  UNL d   1      -1.420   0.076   1.225  0.00  0.00    -0.057 A 
ATOM      3  C3  UNL d   1      -1.114  -0.020   2.588  0.00  0.00     0.033 A 
ATOM      4  C4  UNL d   1       0.141  -0.460   2.995  0.00  0.00    -0.042 A 
ATOM      5  C5  UNL d   1       1.091  -0.800   2.038  0.00  0.00     0.033 A 
ATOM      6  C6  UNL d   1       0.781  -0.695   0.679  0.00  0.00    -0.057 A 
ENDROOT
BRANCH   1   7
ATOM      7  N   UNL d   1      -0.747  -0.254  -1.125  0.00  0.00    -0.732 N 
ATOM      8  C   UNL d   1      -1.102   0.963  -1.822  0.00  0.00     0.284 C 
ATOM      9  H3  UNL d   1      -0.111  -0.858  -1.641  0.00  0.00     0.395 HD
ENDBRANCH   1   7
TORSDOF 1
ENDMDL
