MODEL 1
REMARK minimizedAffinity -0.0496396534
REMARK minimizedRMSD -1
REMARK  0 active torsions:
REMARK  status: ('A' for Active; 'I' for Inactive)
ROOT
ATOM      1  O1  BZF d   1      -0.179  -2.549  -0.743  0.00  0.00    -0.204 OA
ATOM      2  C2  BZF d   1      -0.482  -2.683   0.598  0.00  0.00     0.174 A 
ATOM      3  C3  BZF d   1      -0.495  -1.480   1.208  0.00  0.00    -0.012 A 
ATOM      4  C3A BZF d   1      -0.272  -0.526   0.165  0.00  0.00    -0.107 A 
ATOM      5  C4  BZF d   1      -0.192   0.837   0.141  0.00  0.00     0.055 A 
ATOM      6  C5  BZF d   1       0.109   1.460  -1.029  0.00  0.00    -0.016 A 
ATOM      7  C6  BZF d   1       0.341   0.751  -2.190  0.00  0.00     0.022 A 
ATOM      8  C7  BZF d   1       0.269  -0.602  -2.216  0.00  0.00     0.029 A 
ATOM      9  C7A BZF d   1      -0.068  -1.232  -1.043  0.00  0.00     0.058 A 
ENDROOT
TORSDOF 0
ENDMDL
