MODEL 1
REMARK minimizedAffinity -4.86923504
REMARK minimizedRMSD -1
REMARK  0 active torsions:
REMARK  status: ('A' for Active; 'I' for Inactive)
ROOT
ATOM      1  O1  BZF d   1       0.615   0.221  -1.222  0.00  0.00    -0.204 OA
ATOM      2  C2  BZF d   1       0.317   1.434  -0.632  0.00  0.00     0.174 A 
ATOM      3  C3  BZF d   1      -0.267   1.251   0.569  0.00  0.00    -0.012 A 
ATOM      4  C3A BZF d   1      -0.256  -0.163   0.782  0.00  0.00    -0.107 A 
ATOM      5  C4  BZF d   1      -0.684  -0.963   1.804  0.00  0.00     0.055 A 
ATOM      6  C5  BZF d   1      -0.593  -2.312   1.669  0.00  0.00    -0.016 A 
ATOM      7  C6  BZF d   1      -0.087  -2.895   0.526  0.00  0.00     0.022 A 
ATOM      8  C7  BZF d   1       0.354  -2.143  -0.512  0.00  0.00     0.029 A 
ATOM      9  C7A BZF d   1       0.295  -0.779  -0.365  0.00  0.00     0.058 A 
ENDROOT
TORSDOF 0
ENDMDL
