MODEL 1
REMARK minimizedAffinity -1.72001922
REMARK minimizedRMSD -1
REMARK  0 active torsions:
REMARK  status: ('A' for Active; 'I' for Inactive)
ROOT
ATOM      1  O1  BZF d   1       0.946  -1.988  -0.648  0.00  0.00    -0.204 OA
ATOM      2  C2  BZF d   1       1.007  -2.073   0.729  0.00  0.00     0.174 A 
ATOM      3  C3  BZF d   1       0.882  -0.853   1.290  0.00  0.00    -0.012 A 
ATOM      4  C3A BZF d   1       0.641   0.040   0.198  0.00  0.00    -0.107 A 
ATOM      5  C4  BZF d   1       0.418   1.385   0.116  0.00  0.00     0.055 A 
ATOM      6  C5  BZF d   1       0.292   1.960  -1.109  0.00  0.00    -0.016 A 
ATOM      7  C6  BZF d   1       0.388   1.223  -2.271  0.00  0.00     0.022 A 
ATOM      8  C7  BZF d   1       0.603  -0.115  -2.240  0.00  0.00     0.029 A 
ATOM      9  C7A BZF d   1       0.698  -0.704  -1.003  0.00  0.00     0.058 A 
ENDROOT
TORSDOF 0
ENDMDL
