MODEL 1
REMARK minimizedAffinity -2.1043961
REMARK minimizedRMSD -1
REMARK  0 active torsions:
REMARK  status: ('A' for Active; 'I' for Inactive)
ROOT
ATOM      1  O1  BZF d   1      -0.024   0.088  -1.274  0.00  0.00    -0.204 OA
ATOM      2  C2  BZF d   1      -0.365   1.362  -0.861  0.00  0.00     0.174 A 
ATOM      3  C3  BZF d   1      -0.810   1.349   0.412  0.00  0.00    -0.012 A 
ATOM      4  C3A BZF d   1      -0.657  -0.005   0.850  0.00  0.00    -0.107 A 
ATOM      5  C4  BZF d   1      -0.911  -0.644   2.030  0.00  0.00     0.055 A 
ATOM      6  C5  BZF d   1      -0.719  -1.987   2.108  0.00  0.00    -0.016 A 
ATOM      7  C6  BZF d   1      -0.280  -2.722   1.027  0.00  0.00     0.022 A 
ATOM      8  C7  BZF d   1      -0.009  -2.131  -0.163  0.00  0.00     0.029 A 
ATOM      9  C7A BZF d   1      -0.171  -0.769  -0.235  0.00  0.00     0.058 A 
ENDROOT
TORSDOF 0
ENDMDL
