MODEL 1
REMARK minimizedAffinity -1.04307866
REMARK minimizedRMSD -1
REMARK  0 active torsions:
REMARK  status: ('A' for Active; 'I' for Inactive)
ROOT
ATOM      1  O1  BZF d   1      -0.595   1.006   0.526  0.00  0.00    -0.204 OA
ATOM      2  C2  BZF d   1      -0.136   1.076  -0.775  0.00  0.00     0.174 A 
ATOM      3  C3  BZF d   1       0.323  -0.123  -1.186  0.00  0.00    -0.012 A 
ATOM      4  C3A BZF d   1       0.054  -1.020  -0.104  0.00  0.00    -0.107 A 
ATOM      5  C4  BZF d   1       0.264  -2.356   0.082  0.00  0.00     0.055 A 
ATOM      6  C5  BZF d   1      -0.047  -2.913   1.282  0.00  0.00    -0.016 A 
ATOM      7  C6  BZF d   1      -0.564  -2.163   2.318  0.00  0.00     0.022 A 
ATOM      8  C7  BZF d   1      -0.795  -0.835   2.179  0.00  0.00     0.029 A 
ATOM      9  C7A BZF d   1      -0.513  -0.276   0.956  0.00  0.00     0.058 A 
ENDROOT
TORSDOF 0
ENDMDL
