MODEL 1
REMARK minimizedAffinity -0.921786547
REMARK minimizedRMSD -1
REMARK  0 active torsions:
REMARK  status: ('A' for Active; 'I' for Inactive)
ROOT
ATOM      1  O1  BZF d   1      -0.145  -0.579  -1.739  0.00  0.00    -0.204 OA
ATOM      2  C2  BZF d   1       0.012   0.787  -1.603  0.00  0.00     0.174 A 
ATOM      3  C3  BZF d   1      -0.209   1.170  -0.329  0.00  0.00    -0.012 A 
ATOM      4  C3A BZF d   1      -0.433  -0.043   0.395  0.00  0.00    -0.107 A 
ATOM      5  C4  BZF d   1      -0.692  -0.320   1.707  0.00  0.00     0.055 A 
ATOM      6  C5  BZF d   1      -0.933  -1.605   2.076  0.00  0.00    -0.016 A 
ATOM      7  C6  BZF d   1      -0.929  -2.637   1.160  0.00  0.00     0.022 A 
ATOM      8  C7  BZF d   1      -0.672  -2.412  -0.151  0.00  0.00     0.029 A 
ATOM      9  C7A BZF d   1      -0.395  -1.119  -0.522  0.00  0.00     0.058 A 
ENDROOT
TORSDOF 0
ENDMDL
