MODEL 1
REMARK minimizedAffinity -4.63909054
REMARK minimizedRMSD -1
REMARK  0 active torsions:
REMARK  status: ('A' for Active; 'I' for Inactive)
ROOT
ATOM      1  O1  BZF d   1       0.633  -2.853  -0.984  0.00  0.00    -0.204 OA
ATOM      2  C2  BZF d   1       0.427  -3.504   0.217  0.00  0.00     0.174 A 
ATOM      3  C3  BZF d   1       0.071  -2.630   1.180  0.00  0.00    -0.012 A 
ATOM      4  C3A BZF d   1      -0.036  -1.365   0.520  0.00  0.00    -0.107 A 
ATOM      5  C4  BZF d   1      -0.371  -0.111   0.943  0.00  0.00     0.055 A 
ATOM      6  C5  BZF d   1      -0.308   0.922   0.062  0.00  0.00    -0.016 A 
ATOM      7  C6  BZF d   1       0.090   0.738  -1.246  0.00  0.00     0.022 A 
ATOM      8  C7  BZF d   1       0.428  -0.489  -1.713  0.00  0.00     0.029 A 
ATOM      9  C7A BZF d   1       0.333  -1.540  -0.834  0.00  0.00     0.058 A 
ENDROOT
TORSDOF 0
ENDMDL
