MODEL 1
REMARK minimizedAffinity -4.2784462
REMARK minimizedRMSD -1
REMARK  0 active torsions:
REMARK  status: ('A' for Active; 'I' for Inactive)
ROOT
ATOM      1  O1  BZF d   1       1.694   0.135   0.265  0.00  0.00    -0.204 OA
ATOM      2  C2  BZF d   1       1.242   1.433   0.408  0.00  0.00     0.174 A 
ATOM      3  C3  BZF d   1      -0.091   1.455   0.612  0.00  0.00    -0.012 A 
ATOM      4  C3A BZF d   1      -0.484   0.081   0.686  0.00  0.00    -0.107 A 
ATOM      5  C4  BZF d   1      -1.681  -0.544   0.891  0.00  0.00     0.055 A 
ATOM      6  C5  BZF d   1      -1.736  -1.901   0.833  0.00  0.00    -0.016 A 
ATOM      7  C6  BZF d   1      -0.616  -2.662   0.568  0.00  0.00     0.022 A 
ATOM      8  C7  BZF d   1       0.594  -2.088   0.363  0.00  0.00     0.029 A 
ATOM      9  C7A BZF d   1       0.659  -0.719   0.454  0.00  0.00     0.058 A 
ENDROOT
TORSDOF 0
ENDMDL
