MODEL 1
REMARK minimizedAffinity -2.83611441
REMARK minimizedRMSD -1
REMARK  0 active torsions:
REMARK  status: ('A' for Active; 'I' for Inactive)
ROOT
ATOM      1  O1  BZF d   1       0.465  -2.684  -0.994  0.00  0.00    -0.204 OA
ATOM      2  C2  BZF d   1       0.122  -3.168   0.254  0.00  0.00     0.174 A 
ATOM      3  C3  BZF d   1      -0.118  -2.154   1.110  0.00  0.00    -0.012 A 
ATOM      4  C3A BZF d   1      -0.002  -0.963   0.326  0.00  0.00    -0.107 A 
ATOM      5  C4  BZF d   1      -0.145   0.365   0.608  0.00  0.00     0.055 A 
ATOM      6  C5  BZF d   1       0.108   1.279  -0.365  0.00  0.00    -0.016 A 
ATOM      7  C6  BZF d   1       0.510   0.900  -1.629  0.00  0.00     0.022 A 
ATOM      8  C7  BZF d   1       0.661  -0.406  -1.959  0.00  0.00     0.029 A 
ATOM      9  C7A BZF d   1       0.374  -1.333  -0.986  0.00  0.00     0.058 A 
ENDROOT
TORSDOF 0
ENDMDL
