MODEL 1
REMARK minimizedAffinity -5.31728077
REMARK minimizedRMSD -1
REMARK  0 active torsions:
REMARK  status: ('A' for Active; 'I' for Inactive)
ROOT
ATOM      1  O1  BZF d   1       0.100   0.226  -1.444  0.00  0.00    -0.204 OA
ATOM      2  C2  BZF d   1      -0.163   0.863  -0.247  0.00  0.00     0.174 A 
ATOM      3  C3  BZF d   1      -0.516  -0.028   0.702  0.00  0.00    -0.012 A 
ATOM      4  C3A BZF d   1      -0.381  -1.311   0.082  0.00  0.00    -0.107 A 
ATOM      5  C4  BZF d   1      -0.573  -2.590   0.520  0.00  0.00     0.055 A 
ATOM      6  C5  BZF d   1      -0.426  -3.617  -0.357  0.00  0.00    -0.016 A 
ATOM      7  C6  BZF d   1      -0.092  -3.402  -1.679  0.00  0.00     0.022 A 
ATOM      8  C7  BZF d   1       0.113  -2.151  -2.158  0.00  0.00     0.029 A 
ATOM      9  C7A BZF d   1      -0.003  -1.113  -1.266  0.00  0.00     0.058 A 
ENDROOT
TORSDOF 0
ENDMDL
