MODEL 1
REMARK minimizedAffinity 1.80464149
REMARK minimizedRMSD -1
REMARK  0 active torsions:
REMARK  status: ('A' for Active; 'I' for Inactive)
ROOT
ATOM      1  O1  BZF d   1      -0.051  -1.920  -1.621  0.00  0.00    -0.204 OA
ATOM      2  C2  BZF d   1       0.622  -0.799  -2.065  0.00  0.00     0.174 A 
ATOM      3  C3  BZF d   1       0.708   0.126  -1.088  0.00  0.00    -0.012 A 
ATOM      4  C3A BZF d   1       0.128  -0.490   0.066  0.00  0.00    -0.107 A 
ATOM      5  C4  BZF d   1      -0.064  -0.078   1.353  0.00  0.00     0.055 A 
ATOM      6  C5  BZF d   1      -0.727  -0.893   2.215  0.00  0.00    -0.016 A 
ATOM      7  C6  BZF d   1      -1.216  -2.122   1.822  0.00  0.00     0.022 A 
ATOM      8  C7  BZF d   1      -1.045  -2.576   0.557  0.00  0.00     0.029 A 
ATOM      9  C7A BZF d   1      -0.346  -1.769  -0.308  0.00  0.00     0.058 A 
ENDROOT
TORSDOF 0
ENDMDL
