MODEL 1
REMARK minimizedAffinity -2.76779246
REMARK minimizedRMSD -1
REMARK  0 active torsions:
REMARK  status: ('A' for Active; 'I' for Inactive)
ROOT
ATOM      1  O1  BZF d   1       1.183   0.155  -0.519  0.00  0.00    -0.204 OA
ATOM      2  C2  BZF d   1       0.591   1.272   0.040  0.00  0.00     0.174 A 
ATOM      3  C3  BZF d   1      -0.497   0.928   0.758  0.00  0.00    -0.012 A 
ATOM      4  C3A BZF d   1      -0.539  -0.502   0.717  0.00  0.00    -0.107 A 
ATOM      5  C4  BZF d   1      -1.379  -1.433   1.258  0.00  0.00     0.055 A 
ATOM      6  C5  BZF d   1      -1.185  -2.746   0.968  0.00  0.00    -0.016 A 
ATOM      7  C6  BZF d   1      -0.165  -3.163   0.137  0.00  0.00     0.022 A 
ATOM      8  C7  BZF d   1       0.697  -2.277  -0.418  0.00  0.00     0.029 A 
ATOM      9  C7A BZF d   1       0.524  -0.952  -0.100  0.00  0.00     0.058 A 
ENDROOT
TORSDOF 0
ENDMDL
