MODEL 1
REMARK minimizedAffinity -5.2112751
REMARK minimizedRMSD -1
REMARK  0 active torsions:
REMARK  status: ('A' for Active; 'I' for Inactive)
ROOT
ATOM      1  O1  BZF d   1       0.513   0.450  -0.913  0.00  0.00    -0.204 OA
ATOM      2  C2  BZF d   1       0.463   0.994   0.356  0.00  0.00     0.174 A 
ATOM      3  C3  BZF d   1       0.185   0.044   1.273  0.00  0.00    -0.012 A 
ATOM      4  C3A BZF d   1       0.144  -1.185   0.542  0.00  0.00    -0.107 A 
ATOM      5  C4  BZF d   1      -0.073  -2.484   0.901  0.00  0.00     0.055 A 
ATOM      6  C5  BZF d   1      -0.120  -3.438  -0.066  0.00  0.00    -0.016 A 
ATOM      7  C6  BZF d   1       0.040  -3.127  -1.400  0.00  0.00     0.022 A 
ATOM      8  C7  BZF d   1       0.262  -1.853  -1.805  0.00  0.00     0.029 A 
ATOM      9  C7A BZF d   1       0.343  -0.892  -0.827  0.00  0.00     0.058 A 
ENDROOT
TORSDOF 0
ENDMDL
