MODEL 1
REMARK minimizedAffinity -2.96840715
REMARK minimizedRMSD -1
REMARK  0 active torsions:
REMARK  status: ('A' for Active; 'I' for Inactive)
ROOT
ATOM      1  O1  BZF d   1      -0.176   0.126  -1.653  0.00  0.00    -0.204 OA
ATOM      2  C2  BZF d   1      -0.301   1.250  -0.860  0.00  0.00     0.174 A 
ATOM      3  C3  BZF d   1      -0.670   0.913   0.393  0.00  0.00    -0.012 A 
ATOM      4  C3A BZF d   1      -0.694  -0.517   0.407  0.00  0.00    -0.107 A 
ATOM      5  C4  BZF d   1      -0.972  -1.443   1.372  0.00  0.00     0.055 A 
ATOM      6  C5  BZF d   1      -0.977  -2.761   1.041  0.00  0.00    -0.016 A 
ATOM      7  C6  BZF d   1      -0.713  -3.188  -0.244  0.00  0.00     0.022 A 
ATOM      8  C7  BZF d   1      -0.426  -2.308  -1.234  0.00  0.00     0.029 A 
ATOM      9  C7A BZF d   1      -0.388  -0.977  -0.895  0.00  0.00     0.058 A 
ENDROOT
TORSDOF 0
ENDMDL
