MODEL 1
REMARK minimizedAffinity -4.7630291
REMARK minimizedRMSD -1
REMARK  0 active torsions:
REMARK  status: ('A' for Active; 'I' for Inactive)
ROOT
ATOM      1  O1  BZF d   1       0.068  -1.062  -2.281  0.00  0.00    -0.204 OA
ATOM      2  C2  BZF d   1      -0.085  -2.262  -2.948  0.00  0.00     0.174 A 
ATOM      3  C3  BZF d   1      -0.102  -3.294  -2.080  0.00  0.00    -0.012 A 
ATOM      4  C3A BZF d   1      -0.042  -2.694  -0.782  0.00  0.00    -0.107 A 
ATOM      5  C4  BZF d   1      -0.042  -3.200   0.487  0.00  0.00     0.055 A 
ATOM      6  C5  BZF d   1       0.100  -2.349   1.537  0.00  0.00    -0.016 A 
ATOM      7  C6  BZF d   1       0.249  -0.990   1.355  0.00  0.00     0.022 A 
ATOM      8  C7  BZF d   1       0.250  -0.441   0.115  0.00  0.00     0.029 A 
ATOM      9  C7A BZF d   1       0.074  -1.295  -0.946  0.00  0.00     0.058 A 
ENDROOT
TORSDOF 0
ENDMDL
