MODEL 1
REMARK minimizedAffinity -2.81255102
REMARK minimizedRMSD -1
REMARK  0 active torsions:
REMARK  status: ('A' for Active; 'I' for Inactive)
ROOT
ATOM      1  O1  BZF d   1      -0.599  -2.586   1.287  0.00  0.00    -0.204 OA
ATOM      2  C2  BZF d   1       0.294  -3.111   0.372  0.00  0.00     0.174 A 
ATOM      3  C3  BZF d   1       0.508  -2.244  -0.638  0.00  0.00    -0.012 A 
ATOM      4  C3A BZF d   1      -0.230  -1.069  -0.289  0.00  0.00    -0.107 A 
ATOM      5  C4  BZF d   1      -0.399   0.146  -0.889  0.00  0.00     0.055 A 
ATOM      6  C5  BZF d   1      -1.243   1.050  -0.325  0.00  0.00    -0.016 A 
ATOM      7  C6  BZF d   1      -1.936   0.770   0.835  0.00  0.00     0.022 A 
ATOM      8  C7  BZF d   1      -1.797  -0.420   1.469  0.00  0.00     0.029 A 
ATOM      9  C7A BZF d   1      -0.920  -1.322   0.919  0.00  0.00     0.058 A 
ENDROOT
TORSDOF 0
ENDMDL
