MODEL 1
REMARK minimizedAffinity -4.22077131
REMARK minimizedRMSD -1
REMARK  0 active torsions:
REMARK  status: ('A' for Active; 'I' for Inactive)
ROOT
ATOM      1  O1  BZF d   1       0.711   0.466  -0.624  0.00  0.00    -0.204 OA
ATOM      2  C2  BZF d   1       1.001   1.031   0.603  0.00  0.00     0.174 A 
ATOM      3  C3  BZF d   1       0.884   0.118   1.589  0.00  0.00    -0.012 A 
ATOM      4  C3A BZF d   1       0.587  -1.115   0.927  0.00  0.00    -0.107 A 
ATOM      5  C4  BZF d   1       0.373  -2.390   1.368  0.00  0.00     0.055 A 
ATOM      6  C5  BZF d   1       0.033  -3.351   0.470  0.00  0.00    -0.016 A 
ATOM      7  C6  BZF d   1      -0.106  -3.072  -0.874  0.00  0.00     0.022 A 
ATOM      8  C7  BZF d   1       0.100  -1.824  -1.360  0.00  0.00     0.029 A 
ATOM      9  C7A BZF d   1       0.476  -0.857  -0.459  0.00  0.00     0.058 A 
ENDROOT
TORSDOF 0
ENDMDL
