MODEL 1
REMARK minimizedAffinity -1.67256474
REMARK minimizedRMSD -1
REMARK  0 active torsions:
REMARK  status: ('A' for Active; 'I' for Inactive)
ROOT
ATOM      1  O1  BZF d   1       1.400   1.124  -0.537  0.00  0.00    -0.204 OA
ATOM      2  C2  BZF d   1       0.932   2.315  -0.016  0.00  0.00     0.174 A 
ATOM      3  C3  BZF d   1      -0.154   2.104   0.755  0.00  0.00    -0.012 A 
ATOM      4  C3A BZF d   1      -0.324   0.684   0.788  0.00  0.00    -0.107 A 
ATOM      5  C4  BZF d   1      -1.222  -0.140   1.403  0.00  0.00     0.055 A 
ATOM      6  C5  BZF d   1      -1.156  -1.478   1.172  0.00  0.00    -0.016 A 
ATOM      7  C6  BZF d   1      -0.210  -2.024   0.330  0.00  0.00     0.022 A 
ATOM      8  C7  BZF d   1       0.706  -1.247  -0.298  0.00  0.00     0.029 A 
ATOM      9  C7A BZF d   1       0.663   0.102  -0.042  0.00  0.00     0.058 A 
ENDROOT
TORSDOF 0
ENDMDL
