MODEL 1
REMARK minimizedAffinity -6.22705412
REMARK minimizedRMSD -1
REMARK  1 active torsions:
REMARK  status: ('A' for Active; 'I' for Inactive)
REMARK    1  A    between atoms: C1_2  and  C2_3 
ROOT
ATOM      1  C2  UNL d   1      -0.110   0.806   0.038  0.00  0.00    -0.076 A 
ATOM      2  C3  UNL d   1      -0.345   1.404  -1.212  0.00  0.00     0.004 A 
ATOM      3  C4  UNL d   1      -1.019   2.620  -1.311  0.00  0.00    -0.003 A 
ATOM      4  C5  UNL d   1      -1.468   3.258  -0.160  0.00  0.00     0.000 A 
ATOM      5  C6  UNL d   1      -1.229   2.688   1.090  0.00  0.00     0.000 A 
ATOM      6  C7  UNL d   1      -0.536   1.471   1.208  0.00  0.00    -0.073 A 
ATOM      7  C8  UNL d   1      -0.311   0.899   2.580  0.00  0.00     0.078 C 
ENDROOT
BRANCH   1   8
ATOM      8  C1  UNL d   1       0.602  -0.527   0.081  0.00  0.00     0.053 C 
ATOM      9  C   UNL d   1      -0.136  -1.607  -0.694  0.00  0.00     0.018 C 
ENDBRANCH   1   8
TORSDOF 1
ENDMDL
