MODEL 1
REMARK minimizedAffinity -2.29603529
REMARK minimizedRMSD -1
REMARK  1 active torsions:
REMARK  status: ('A' for Active; 'I' for Inactive)
REMARK    1  A    between atoms: C1_2  and  C2_3 
ROOT
ATOM      1  C2  UNL d   1      -0.301  -1.359  -0.324  0.00  0.00    -0.076 A 
ATOM      2  C3  UNL d   1      -1.053  -2.408   0.232  0.00  0.00     0.004 A 
ATOM      3  C4  UNL d   1      -1.249  -3.598  -0.466  0.00  0.00    -0.003 A 
ATOM      4  C5  UNL d   1      -0.697  -3.758  -1.732  0.00  0.00     0.000 A 
ATOM      5  C6  UNL d   1       0.067  -2.734  -2.292  0.00  0.00     0.000 A 
ATOM      6  C7  UNL d   1       0.288  -1.535  -1.594  0.00  0.00    -0.073 A 
ATOM      7  C8  UNL d   1       1.115  -0.461  -2.248  0.00  0.00     0.078 C 
ENDROOT
BRANCH   1   8
ATOM      8  C1  UNL d   1      -0.144  -0.081   0.469  0.00  0.00     0.053 C 
ATOM      9  C   UNL d   1       0.405  -0.326   1.866  0.00  0.00     0.018 C 
ENDBRANCH   1   8
TORSDOF 1
ENDMDL
