MODEL 1
REMARK minimizedAffinity -1.12930489
REMARK minimizedRMSD -1
REMARK  1 active torsions:
REMARK  status: ('A' for Active; 'I' for Inactive)
REMARK    1  A    between atoms: C1_2  and  C2_3 
ROOT
ATOM      1  C2  UNL d   1       0.323   0.000  -0.527  0.00  0.00    -0.076 A 
ATOM      2  C3  UNL d   1       0.324   0.288  -1.903  0.00  0.00     0.004 A 
ATOM      3  C4  UNL d   1      -0.050   1.546  -2.373  0.00  0.00    -0.003 A 
ATOM      4  C5  UNL d   1      -0.430   2.537  -1.475  0.00  0.00     0.000 A 
ATOM      5  C6  UNL d   1      -0.420   2.275  -0.106  0.00  0.00     0.000 A 
ATOM      6  C7  UNL d   1      -0.030   1.017   0.386  0.00  0.00    -0.073 A 
ATOM      7  C8  UNL d   1      -0.044   0.787   1.873  0.00  0.00     0.078 C 
ENDROOT
BRANCH   1   8
ATOM      8  C1  UNL d   1       0.712  -1.390  -0.077  0.00  0.00     0.053 C 
ATOM      9  C   UNL d   1       0.027  -2.478  -0.890  0.00  0.00     0.018 C 
ENDBRANCH   1   8
TORSDOF 1
ENDMDL
