MODEL 1
REMARK minimizedAffinity -5.16157246
REMARK minimizedRMSD -1
REMARK  1 active torsions:
REMARK  status: ('A' for Active; 'I' for Inactive)
REMARK    1  A    between atoms: C1_2  and  C2_3 
ROOT
ATOM      1  C2  UNL d   1      -0.200   0.713  -0.080  0.00  0.00    -0.076 A 
ATOM      2  C3  UNL d   1      -0.910   1.679  -0.814  0.00  0.00     0.004 A 
ATOM      3  C4  UNL d   1      -1.474   2.787  -0.184  0.00  0.00    -0.003 A 
ATOM      4  C5  UNL d   1      -1.336   2.947   1.191  0.00  0.00     0.000 A 
ATOM      5  C6  UNL d   1      -0.620   2.008   1.932  0.00  0.00     0.000 A 
ATOM      6  C7  UNL d   1      -0.031   0.894   1.309  0.00  0.00    -0.073 A 
ATOM      7  C8  UNL d   1       0.726  -0.091   2.158  0.00  0.00     0.078 C 
ENDROOT
BRANCH   1   8
ATOM      8  C1  UNL d   1       0.367  -0.482  -0.814  0.00  0.00     0.053 C 
ATOM      9  C   UNL d   1      -0.541  -1.699  -0.733  0.00  0.00     0.018 C 
ENDBRANCH   1   8
TORSDOF 1
ENDMDL
