MODEL 1
REMARK minimizedAffinity -6.76208496
REMARK minimizedRMSD -1
REMARK  1 active torsions:
REMARK  status: ('A' for Active; 'I' for Inactive)
REMARK    1  A    between atoms: C1_2  and  C2_3 
ROOT
ATOM      1  C2  UNL d   1      -0.558   0.938  -0.113  0.00  0.00    -0.076 A 
ATOM      2  C3  UNL d   1      -1.064   2.101  -0.719  0.00  0.00     0.004 A 
ATOM      3  C4  UNL d   1      -1.438   3.204   0.046  0.00  0.00    -0.003 A 
ATOM      4  C5  UNL d   1      -1.312   3.163   1.430  0.00  0.00     0.000 A 
ATOM      5  C6  UNL d   1      -0.795   2.024   2.047  0.00  0.00     0.000 A 
ATOM      6  C7  UNL d   1      -0.398   0.909   1.289  0.00  0.00    -0.073 A 
ATOM      7  C8  UNL d   1       0.146  -0.295   2.007  0.00  0.00     0.078 C 
ENDROOT
BRANCH   1   8
ATOM      8  C1  UNL d   1      -0.194  -0.238  -0.992  0.00  0.00     0.053 C 
ATOM      9  C   UNL d   1       0.667   0.167  -2.178  0.00  0.00     0.018 C 
ENDBRANCH   1   8
TORSDOF 1
ENDMDL
