MODEL 1
REMARK minimizedAffinity -5.57244921
REMARK minimizedRMSD -1
REMARK  1 active torsions:
REMARK  status: ('A' for Active; 'I' for Inactive)
REMARK    1  A    between atoms: C1_2  and  C2_3 
ROOT
ATOM      1  C2  UNL d   1      -0.489   1.082   0.408  0.00  0.00    -0.076 A 
ATOM      2  C3  UNL d   1      -0.741   1.612  -0.870  0.00  0.00     0.004 A 
ATOM      3  C4  UNL d   1      -0.154   1.056  -2.005  0.00  0.00    -0.003 A 
ATOM      4  C5  UNL d   1       0.694  -0.039  -1.882  0.00  0.00     0.000 A 
ATOM      5  C6  UNL d   1       0.941  -0.589  -0.624  0.00  0.00     0.000 A 
ATOM      6  C7  UNL d   1       0.345  -0.050   0.529  0.00  0.00    -0.073 A 
ATOM      7  C8  UNL d   1       0.651  -0.679   1.861  0.00  0.00     0.078 C 
ENDROOT
BRANCH   1   8
ATOM      8  C1  UNL d   1      -1.132   1.744   1.606  0.00  0.00     0.053 C 
ATOM      9  C   UNL d   1      -1.113   3.262   1.513  0.00  0.00     0.018 C 
ENDBRANCH   1   8
TORSDOF 1
ENDMDL
