MODEL 1
REMARK minimizedAffinity -2.35929394
REMARK minimizedRMSD -1
REMARK  1 active torsions:
REMARK  status: ('A' for Active; 'I' for Inactive)
REMARK    1  A    between atoms: C1_2  and  C2_3 
ROOT
ATOM      1  C2  UNL d   1      -1.079   1.938   0.479  0.00  0.00    -0.076 A 
ATOM      2  C3  UNL d   1      -1.135   0.948   1.475  0.00  0.00     0.004 A 
ATOM      3  C4  UNL d   1      -0.206   0.922   2.514  0.00  0.00    -0.003 A 
ATOM      4  C5  UNL d   1       0.794   1.887   2.574  0.00  0.00     0.000 A 
ATOM      5  C6  UNL d   1       0.854   2.887   1.604  0.00  0.00     0.000 A 
ATOM      6  C7  UNL d   1      -0.084   2.937   0.559  0.00  0.00    -0.073 A 
ATOM      7  C8  UNL d   1       0.031   4.034  -0.464  0.00  0.00     0.078 C 
ENDROOT
BRANCH   1   8
ATOM      8  C1  UNL d   1      -2.096   1.899  -0.639  0.00  0.00     0.053 C 
ATOM      9  C   UNL d   1      -3.504   1.617  -0.136  0.00  0.00     0.018 C 
ENDBRANCH   1   8
TORSDOF 1
ENDMDL
