MODEL 1
REMARK minimizedAffinity 1.89990366
REMARK minimizedRMSD -1
REMARK  1 active torsions:
REMARK  status: ('A' for Active; 'I' for Inactive)
REMARK    1  A    between atoms: C1_2  and  C2_3 
ROOT
ATOM      1  C2  UNL d   1       0.166   1.957   0.121  0.00  0.00    -0.076 A 
ATOM      2  C3  UNL d   1       0.241   2.315   1.478  0.00  0.00     0.004 A 
ATOM      3  C4  UNL d   1       0.442   1.351   2.465  0.00  0.00    -0.003 A 
ATOM      4  C5  UNL d   1       0.571   0.013   2.110  0.00  0.00     0.000 A 
ATOM      5  C6  UNL d   1       0.517  -0.358   0.767  0.00  0.00     0.000 A 
ATOM      6  C7  UNL d   1       0.331   0.603  -0.241  0.00  0.00    -0.073 A 
ATOM      7  C8  UNL d   1       0.273   0.145  -1.673  0.00  0.00     0.078 C 
ENDROOT
BRANCH   1   8
ATOM      8  C1  UNL d   1      -0.081   3.042  -0.902  0.00  0.00     0.053 C 
ATOM      9  C   UNL d   1       0.469   4.391  -0.465  0.00  0.00     0.018 C 
ENDBRANCH   1   8
TORSDOF 1
ENDMDL
