MODEL 1
REMARK minimizedAffinity 0.256722897
REMARK minimizedRMSD -1
REMARK  2 active torsions:
REMARK  status: ('A' for Active; 'I' for Inactive)
REMARK    1  A    between atoms: C1_2  and  C2_3 
REMARK    2  A    between atoms: C2_3  and  C3_4 
ROOT
ATOM      1  C3  UNL d   1       2.895  -1.363   3.106  0.00  0.00    -0.075 A 
ATOM      2  C4  UNL d   1       2.524  -0.089   3.560  0.00  0.00     0.002 A 
ATOM      3  C5  UNL d   1       2.763   1.039   2.775  0.00  0.00     0.002 A 
ATOM      4  C6  UNL d   1       3.383   0.911   1.534  0.00  0.00    -0.004 A 
ATOM      5  C7  UNL d   1       3.771  -0.348   1.080  0.00  0.00     0.002 A 
ATOM      6  C8  UNL d   1       3.530  -1.480   1.862  0.00  0.00     0.002 A 
ENDROOT
BRANCH   1   7
ATOM      7  C2  UNL d   1       2.614  -2.592   3.937  0.00  0.00     0.056 C 
BRANCH   7   8
ATOM      8  C1  UNL d   1       2.794  -2.380   5.444  0.00  0.00     0.007 C 
ATOM      9  C   UNL d   1       4.056  -3.029   5.995  0.00  0.00     0.009 C 
ENDBRANCH   7   8
ENDBRANCH   1   7
TORSDOF 2
ENDMDL
