MODEL 1
REMARK minimizedAffinity 5.71184063
REMARK minimizedRMSD -1
REMARK  2 active torsions:
REMARK  status: ('A' for Active; 'I' for Inactive)
REMARK    1  A    between atoms: C1_2  and  C2_3 
REMARK    2  A    between atoms: C2_3  and  C3_4 
ROOT
ATOM      1  C3  UNL d   1       3.126  -3.080   3.786  0.00  0.00    -0.075 A 
ATOM      2  C4  UNL d   1       2.622  -1.867   3.295  0.00  0.00     0.002 A 
ATOM      3  C5  UNL d   1       1.362  -1.814   2.697  0.00  0.00     0.002 A 
ATOM      4  C6  UNL d   1       0.596  -2.971   2.574  0.00  0.00    -0.004 A 
ATOM      5  C7  UNL d   1       1.094  -4.184   3.044  0.00  0.00     0.002 A 
ATOM      6  C8  UNL d   1       2.352  -4.240   3.646  0.00  0.00     0.002 A 
ENDROOT
BRANCH   1   7
ATOM      7  C2  UNL d   1       4.476  -3.140   4.460  0.00  0.00     0.056 C 
BRANCH   7   8
ATOM      8  C1  UNL d   1       5.649  -2.790   3.539  0.00  0.00     0.007 C 
ATOM      9  C   UNL d   1       6.000  -3.906   2.563  0.00  0.00     0.009 C 
ENDBRANCH   7   8
ENDBRANCH   1   7
TORSDOF 2
ENDMDL
