MODEL 1
REMARK minimizedAffinity 5.59294844
REMARK minimizedRMSD -1
REMARK  2 active torsions:
REMARK  status: ('A' for Active; 'I' for Inactive)
REMARK    1  A    between atoms: C1_2  and  C2_3 
REMARK    2  A    between atoms: C2_3  and  C3_4 
ROOT
ATOM      1  C3  UNL d   1       4.442   5.871  -2.542  0.00  0.00    -0.075 A 
ATOM      2  C4  UNL d   1       3.335   5.831  -3.402  0.00  0.00     0.002 A 
ATOM      3  C5  UNL d   1       3.513   5.830  -4.786  0.00  0.00     0.002 A 
ATOM      4  C6  UNL d   1       4.796   5.878  -5.326  0.00  0.00    -0.004 A 
ATOM      5  C7  UNL d   1       5.902   5.934  -4.482  0.00  0.00     0.002 A 
ATOM      6  C8  UNL d   1       5.727   5.931  -3.097  0.00  0.00     0.002 A 
ENDROOT
BRANCH   1   7
ATOM      7  C2  UNL d   1       4.258   5.843  -1.043  0.00  0.00     0.056 C 
BRANCH   7   8
ATOM      8  C1  UNL d   1       2.802   5.672  -0.597  0.00  0.00     0.007 C 
ATOM      9  C   UNL d   1       1.796   6.000  -1.692  0.00  0.00     0.009 C 
ENDBRANCH   7   8
ENDBRANCH   1   7
TORSDOF 2
ENDMDL
