MODEL 1
REMARK minimizedAffinity 3.23314381
REMARK minimizedRMSD -1
REMARK  2 active torsions:
REMARK  status: ('A' for Active; 'I' for Inactive)
REMARK    1  A    between atoms: C1_2  and  C2_3 
REMARK    2  A    between atoms: C2_3  and  C3_4 
ROOT
ATOM      1  C3  UNL d   1       3.467  -3.507   4.091  0.00  0.00    -0.075 A 
ATOM      2  C4  UNL d   1       4.563  -3.400   3.223  0.00  0.00     0.002 A 
ATOM      3  C5  UNL d   1       5.821  -3.042   3.710  0.00  0.00     0.002 A 
ATOM      4  C6  UNL d   1       5.996  -2.778   5.066  0.00  0.00    -0.004 A 
ATOM      5  C7  UNL d   1       4.911  -2.864   5.935  0.00  0.00     0.002 A 
ATOM      6  C8  UNL d   1       3.653  -3.226   5.452  0.00  0.00     0.002 A 
ENDROOT
BRANCH   1   7
ATOM      7  C2  UNL d   1       2.110  -3.922   3.575  0.00  0.00     0.056 C 
BRANCH   7   8
ATOM      8  C1  UNL d   1       1.042  -2.828   3.678  0.00  0.00     0.007 C 
ATOM      9  C   UNL d   1       1.119  -1.806   2.551  0.00  0.00     0.009 C 
ENDBRANCH   7   8
ENDBRANCH   1   7
TORSDOF 2
ENDMDL
