MODEL 1
REMARK minimizedAffinity 0.787389874
REMARK minimizedRMSD -1
REMARK  2 active torsions:
REMARK  status: ('A' for Active; 'I' for Inactive)
REMARK    1  A    between atoms: C1_2  and  C2_3 
REMARK    2  A    between atoms: C2_3  and  C3_4 
ROOT
ATOM      1  C3  UNL d   1      -5.699  -4.373  -3.289  0.00  0.00    -0.075 A 
ATOM      2  C4  UNL d   1      -5.138  -3.149  -3.682  0.00  0.00     0.002 A 
ATOM      3  C5  UNL d   1      -4.897  -2.881  -5.030  0.00  0.00     0.002 A 
ATOM      4  C6  UNL d   1      -5.203  -3.835  -5.998  0.00  0.00    -0.004 A 
ATOM      5  C7  UNL d   1      -5.746  -5.060  -5.617  0.00  0.00     0.002 A 
ATOM      6  C8  UNL d   1      -5.992  -5.329  -4.270  0.00  0.00     0.002 A 
ENDROOT
BRANCH   1   7
ATOM      7  C2  UNL d   1      -5.990  -4.657  -1.834  0.00  0.00     0.056 C 
BRANCH   7   8
ATOM      8  C1  UNL d   1      -4.744  -4.963  -0.997  0.00  0.00     0.007 C 
ATOM      9  C   UNL d   1      -3.820  -5.985  -1.647  0.00  0.00     0.009 C 
ENDBRANCH   7   8
ENDBRANCH   1   7
TORSDOF 2
ENDMDL
