MODEL 1
REMARK minimizedAffinity 0.468543053
REMARK minimizedRMSD -1
REMARK  2 active torsions:
REMARK  status: ('A' for Active; 'I' for Inactive)
REMARK    1  A    between atoms: C1_2  and  C2_3 
REMARK    2  A    between atoms: C2_3  and  C3_4 
ROOT
ATOM      1  C3  UNL d   1      -5.693  -5.274  -3.521  0.00  0.00    -0.075 A 
ATOM      2  C4  UNL d   1      -5.371  -5.987  -4.685  0.00  0.00     0.002 A 
ATOM      3  C5  UNL d   1      -5.224  -5.325  -5.904  0.00  0.00     0.002 A 
ATOM      4  C6  UNL d   1      -5.407  -3.946  -5.978  0.00  0.00    -0.004 A 
ATOM      5  C7  UNL d   1      -5.744  -3.230  -4.831  0.00  0.00     0.002 A 
ATOM      6  C8  UNL d   1      -5.887  -3.889  -3.609  0.00  0.00     0.002 A 
ENDROOT
BRANCH   1   7
ATOM      7  C2  UNL d   1      -5.824  -5.981  -2.193  0.00  0.00     0.056 C 
BRANCH   7   8
ATOM      8  C1  UNL d   1      -4.584  -5.866  -1.300  0.00  0.00     0.007 C 
ATOM      9  C   UNL d   1      -3.276  -5.999  -2.069  0.00  0.00     0.009 C 
ENDBRANCH   7   8
ENDBRANCH   1   7
TORSDOF 2
ENDMDL
