MODEL 1
REMARK minimizedAffinity -3.38452911
REMARK minimizedRMSD -1
REMARK  2 active torsions:
REMARK  status: ('A' for Active; 'I' for Inactive)
REMARK    1  A    between atoms: C1_2  and  C2_3 
REMARK    2  A    between atoms: C2_3  and  C3_4 
ROOT
ATOM      1  C3  UNL d   1       4.722   2.022  -5.556  0.00  0.00    -0.075 A 
ATOM      2  C4  UNL d   1       5.813   1.229  -5.937  0.00  0.00     0.002 A 
ATOM      3  C5  UNL d   1       5.888  -0.108  -5.547  0.00  0.00     0.002 A 
ATOM      4  C6  UNL d   1       4.879  -0.666  -4.764  0.00  0.00    -0.004 A 
ATOM      5  C7  UNL d   1       3.798   0.118  -4.365  0.00  0.00     0.002 A 
ATOM      6  C8  UNL d   1       3.719   1.455  -4.758  0.00  0.00     0.002 A 
ENDROOT
BRANCH   1   7
ATOM      7  C2  UNL d   1       4.621   3.462  -5.999  0.00  0.00     0.056 C 
BRANCH   7   8
ATOM      8  C1  UNL d   1       5.958   4.210  -6.000  0.00  0.00     0.007 C 
ATOM      9  C   UNL d   1       5.799   5.724  -5.965  0.00  0.00     0.009 C 
ENDBRANCH   7   8
ENDBRANCH   1   7
TORSDOF 2
ENDMDL
