MODEL 1
REMARK minimizedAffinity 0.630742848
REMARK minimizedRMSD -1
REMARK  2 active torsions:
REMARK  status: ('A' for Active; 'I' for Inactive)
REMARK    1  A    between atoms: C1_2  and  C2_3 
REMARK    2  A    between atoms: C2_3  and  C3_4 
ROOT
ATOM      1  C3  UNL d   1       2.883  -3.223   3.586  0.00  0.00    -0.075 A 
ATOM      2  C4  UNL d   1       2.254  -1.986   3.385  0.00  0.00     0.002 A 
ATOM      3  C5  UNL d   1       1.016  -1.916   2.745  0.00  0.00     0.002 A 
ATOM      4  C6  UNL d   1       0.397  -3.078   2.289  0.00  0.00    -0.004 A 
ATOM      5  C7  UNL d   1       1.021  -4.311   2.468  0.00  0.00     0.002 A 
ATOM      6  C8  UNL d   1       2.257  -4.384   3.112  0.00  0.00     0.002 A 
ENDROOT
BRANCH   1   7
ATOM      7  C2  UNL d   1       4.208  -3.309   4.303  0.00  0.00     0.056 C 
BRANCH   7   8
ATOM      8  C1  UNL d   1       5.398  -2.805   3.479  0.00  0.00     0.007 C 
ATOM      9  C   UNL d   1       6.000  -3.875   2.578  0.00  0.00     0.009 C 
ENDBRANCH   7   8
ENDBRANCH   1   7
TORSDOF 2
ENDMDL
