MODEL 1
REMARK minimizedAffinity 1.74217236
REMARK minimizedRMSD -1
REMARK  2 active torsions:
REMARK  status: ('A' for Active; 'I' for Inactive)
REMARK    1  A    between atoms: C1_2  and  C2_3 
REMARK    2  A    between atoms: C2_3  and  C3_4 
ROOT
ATOM      1  C3  UNL d   1       2.351  -3.407   3.733  0.00  0.00    -0.075 A 
ATOM      2  C4  UNL d   1       1.458  -4.298   3.120  0.00  0.00     0.002 A 
ATOM      3  C5  UNL d   1       0.511  -3.836   2.207  0.00  0.00     0.002 A 
ATOM      4  C6  UNL d   1       0.437  -2.478   1.902  0.00  0.00    -0.004 A 
ATOM      5  C7  UNL d   1       1.307  -1.582   2.518  0.00  0.00     0.002 A 
ATOM      6  C8  UNL d   1       2.259  -2.042   3.429  0.00  0.00     0.002 A 
ENDROOT
BRANCH   1   7
ATOM      7  C2  UNL d   1       3.398  -3.905   4.700  0.00  0.00     0.056 C 
BRANCH   7   8
ATOM      8  C1  UNL d   1       4.577  -2.946   4.892  0.00  0.00     0.007 C 
ATOM      9  C   UNL d   1       5.754  -3.249   3.974  0.00  0.00     0.009 C 
ENDBRANCH   7   8
ENDBRANCH   1   7
TORSDOF 2
ENDMDL
