MODEL 1
REMARK minimizedAffinity -2.31941271
REMARK minimizedRMSD -1
REMARK  1 active torsions:
REMARK  status: ('A' for Active; 'I' for Inactive)
REMARK    1  A    between atoms: C1_2  and  C2_3 
ROOT
ATOM      1  C2  UNL d   1      -1.084  -0.332  -0.310  0.00  0.00    -0.077 A 
ATOM      2  C3  UNL d   1      -0.293   0.234  -1.320  0.00  0.00     0.002 A 
ATOM      3  C4  UNL d   1       1.065   0.475  -1.102  0.00  0.00     0.002 A 
ATOM      4  C5  UNL d   1       1.644   0.150   0.124  0.00  0.00    -0.004 A 
ATOM      5  C6  UNL d   1       0.865  -0.410   1.135  0.00  0.00     0.002 A 
ATOM      6  C7  UNL d   1      -0.493  -0.651   0.919  0.00  0.00     0.002 A 
ENDROOT
BRANCH   1   7
ATOM      7  C1  UNL d   1      -2.538  -0.638  -0.561  0.00  0.00     0.055 C 
ATOM      8  C   UNL d   1      -2.724  -1.417  -1.854  0.00  0.00     0.019 C 
ENDBRANCH   1   7
TORSDOF 1
ENDMDL
