MODEL 1
REMARK minimizedAffinity -4.08530331
REMARK minimizedRMSD -1
REMARK  1 active torsions:
REMARK  status: ('A' for Active; 'I' for Inactive)
REMARK    1  A    between atoms: C1_2  and  C2_3 
ROOT
ATOM      1  C2  UNL d   1      -1.797  -0.112  -0.106  0.00  0.00    -0.077 A 
ATOM      2  C3  UNL d   1      -1.293  -0.018  -1.411  0.00  0.00     0.002 A 
ATOM      3  C4  UNL d   1       0.085   0.030  -1.634  0.00  0.00     0.002 A 
ATOM      4  C5  UNL d   1       0.968  -0.019  -0.558  0.00  0.00    -0.004 A 
ATOM      5  C6  UNL d   1       0.477  -0.110   0.743  0.00  0.00     0.002 A 
ATOM      6  C7  UNL d   1      -0.900  -0.157   0.968  0.00  0.00     0.002 A 
ENDROOT
BRANCH   1   7
ATOM      7  C1  UNL d   1      -3.281  -0.213   0.133  0.00  0.00     0.055 C 
ATOM      8  C   UNL d   1      -3.925  -1.224  -0.804  0.00  0.00     0.019 C 
ENDBRANCH   1   7
TORSDOF 1
ENDMDL
