MODEL 1
REMARK minimizedAffinity -5.27004957
REMARK minimizedRMSD -1
REMARK  1 active torsions:
REMARK  status: ('A' for Active; 'I' for Inactive)
REMARK    1  A    between atoms: C1_2  and  C2_3 
ROOT
ATOM      1  C2  UNL d   1      -0.948  -0.768   0.319  0.00  0.00    -0.077 A 
ATOM      2  C3  UNL d   1      -0.716  -1.921   1.082  0.00  0.00     0.002 A 
ATOM      3  C4  UNL d   1      -1.787  -2.666   1.580  0.00  0.00     0.002 A 
ATOM      4  C5  UNL d   1      -3.096  -2.268   1.317  0.00  0.00    -0.004 A 
ATOM      5  C6  UNL d   1      -3.338  -1.122   0.561  0.00  0.00     0.002 A 
ATOM      6  C7  UNL d   1      -2.269  -0.376   0.063  0.00  0.00     0.002 A 
ENDROOT
BRANCH   1   7
ATOM      7  C1  UNL d   1       0.205   0.009  -0.260  0.00  0.00     0.055 C 
ATOM      8  C   UNL d   1       0.125   0.070  -1.779  0.00  0.00     0.019 C 
ENDBRANCH   1   7
TORSDOF 1
ENDMDL
