MODEL 1
REMARK minimizedAffinity -4.93845272
REMARK minimizedRMSD -1
REMARK  1 active torsions:
REMARK  status: ('A' for Active; 'I' for Inactive)
REMARK    1  A    between atoms: C1_2  and  C2_3 
ROOT
ATOM      1  C2  UNL d   1      -0.216  -0.651  -0.118  0.00  0.00    -0.077 A 
ATOM      2  C3  UNL d   1      -1.190  -1.557   0.328  0.00  0.00     0.002 A 
ATOM      3  C4  UNL d   1      -2.487  -1.509  -0.187  0.00  0.00     0.002 A 
ATOM      4  C5  UNL d   1      -2.821  -0.561  -1.152  0.00  0.00    -0.004 A 
ATOM      5  C6  UNL d   1      -1.860   0.345  -1.600  0.00  0.00     0.002 A 
ATOM      6  C7  UNL d   1      -0.564   0.300  -1.085  0.00  0.00     0.002 A 
ENDROOT
BRANCH   1   7
ATOM      7  C1  UNL d   1       1.196  -0.733   0.400  0.00  0.00     0.055 C 
ATOM      8  C   UNL d   1       1.910   0.605   0.275  0.00  0.00     0.019 C 
ENDBRANCH   1   7
TORSDOF 1
ENDMDL
