MODEL 1
REMARK minimizedAffinity -5.92217731
REMARK minimizedRMSD -1
REMARK  1 active torsions:
REMARK  status: ('A' for Active; 'I' for Inactive)
REMARK    1  A    between atoms: C1_2  and  C2_3 
ROOT
ATOM      1  C2  UNL d   1      -0.570  -0.964   0.028  0.00  0.00    -0.077 A 
ATOM      2  C3  UNL d   1      -1.134  -1.831   0.973  0.00  0.00     0.002 A 
ATOM      3  C4  UNL d   1      -2.467  -2.233   0.857  0.00  0.00     0.002 A 
ATOM      4  C5  UNL d   1      -3.243  -1.776  -0.206  0.00  0.00    -0.004 A 
ATOM      5  C6  UNL d   1      -2.692  -0.911  -1.150  0.00  0.00     0.002 A 
ATOM      6  C7  UNL d   1      -1.361  -0.508  -1.035  0.00  0.00     0.002 A 
ENDROOT
BRANCH   1   7
ATOM      7  C1  UNL d   1       0.880  -0.569   0.124  0.00  0.00     0.055 C 
ATOM      8  C   UNL d   1       1.031   0.897   0.505  0.00  0.00     0.019 C 
ENDBRANCH   1   7
TORSDOF 1
ENDMDL
