MODEL 1
REMARK minimizedAffinity -5.02298594
REMARK minimizedRMSD -1
REMARK  1 active torsions:
REMARK  status: ('A' for Active; 'I' for Inactive)
REMARK    1  A    between atoms: C1_2  and  C2_3 
ROOT
ATOM      1  C2  UNL d   1      -1.833  -0.564  -0.328  0.00  0.00    -0.077 A 
ATOM      2  C3  UNL d   1      -0.884   0.217  -1.003  0.00  0.00     0.002 A 
ATOM      3  C4  UNL d   1       0.395   0.391  -0.470  0.00  0.00     0.002 A 
ATOM      4  C5  UNL d   1       0.737  -0.216   0.736  0.00  0.00    -0.004 A 
ATOM      5  C6  UNL d   1      -0.200  -0.992   1.416  0.00  0.00     0.002 A 
ATOM      6  C7  UNL d   1      -1.479  -1.166   0.886  0.00  0.00     0.002 A 
ENDROOT
BRANCH   1   7
ATOM      7  C1  UNL d   1      -3.197  -0.793  -0.925  0.00  0.00     0.055 C 
ATOM      8  C   UNL d   1      -3.928  -1.924  -0.217  0.00  0.00     0.019 C 
ENDBRANCH   1   7
TORSDOF 1
ENDMDL
