MODEL 1
REMARK minimizedAffinity -0.244224608
REMARK minimizedRMSD -1
REMARK  1 active torsions:
REMARK  status: ('A' for Active; 'I' for Inactive)
REMARK    1  A    between atoms: C1_2  and  C2_3 
ROOT
ATOM      1  C2  UNL d   1      -0.754  -0.281  -0.497  0.00  0.00    -0.077 A 
ATOM      2  C3  UNL d   1       0.374   0.487  -0.819  0.00  0.00     0.002 A 
ATOM      3  C4  UNL d   1       1.516   0.435  -0.018  0.00  0.00     0.002 A 
ATOM      4  C5  UNL d   1       1.544  -0.387   1.107  0.00  0.00    -0.004 A 
ATOM      5  C6  UNL d   1       0.426  -1.153   1.437  0.00  0.00     0.002 A 
ATOM      6  C7  UNL d   1      -0.717  -1.101   0.638  0.00  0.00     0.002 A 
ENDROOT
BRANCH   1   7
ATOM      7  C1  UNL d   1      -1.969  -0.264  -1.387  0.00  0.00     0.055 C 
ATOM      8  C   UNL d   1      -2.883  -1.447  -1.099  0.00  0.00     0.019 C 
ENDBRANCH   1   7
TORSDOF 1
ENDMDL
