MODEL 1
REMARK minimizedAffinity -5.52309275
REMARK minimizedRMSD -1
REMARK  1 active torsions:
REMARK  status: ('A' for Active; 'I' for Inactive)
REMARK    1  A    between atoms: C1_2  and  C2_3 
ROOT
ATOM      1  C2  UNL d   1      -0.138  -0.083  -0.180  0.00  0.00    -0.077 A 
ATOM      2  C3  UNL d   1      -0.656   0.288  -1.429  0.00  0.00     0.002 A 
ATOM      3  C4  UNL d   1      -2.025   0.186  -1.684  0.00  0.00     0.002 A 
ATOM      4  C5  UNL d   1      -2.887  -0.282  -0.695  0.00  0.00    -0.004 A 
ATOM      5  C6  UNL d   1      -2.382  -0.656   0.549  0.00  0.00     0.002 A 
ATOM      6  C7  UNL d   1      -1.014  -0.556   0.806  0.00  0.00     0.002 A 
ENDROOT
BRANCH   1   7
ATOM      7  C1  UNL d   1       1.331   0.072   0.114  0.00  0.00     0.055 C 
ATOM      8  C   UNL d   1       1.600   1.320   0.943  0.00  0.00     0.019 C 
ENDBRANCH   1   7
TORSDOF 1
ENDMDL
