MODEL 1
REMARK minimizedAffinity -6.09707832
REMARK minimizedRMSD -1
REMARK  1 active torsions:
REMARK  status: ('A' for Active; 'I' for Inactive)
REMARK    1  A    between atoms: C1_2  and  C2_3 
ROOT
ATOM      1  C2  UNL d   1      -0.889  -0.594   0.078  0.00  0.00    -0.077 A 
ATOM      2  C3  UNL d   1      -0.976  -1.778   0.824  0.00  0.00     0.002 A 
ATOM      3  C4  UNL d   1      -2.146  -2.540   0.803  0.00  0.00     0.002 A 
ATOM      4  C5  UNL d   1      -3.235  -2.129   0.037  0.00  0.00    -0.004 A 
ATOM      5  C6  UNL d   1      -3.158  -0.951  -0.706  0.00  0.00     0.002 A 
ATOM      6  C7  UNL d   1      -1.990  -0.188  -0.686  0.00  0.00     0.002 A 
ENDROOT
BRANCH   1   7
ATOM      7  C1  UNL d   1       0.389   0.204   0.060  0.00  0.00     0.055 C 
ATOM      8  C   UNL d   1       1.596  -0.679   0.342  0.00  0.00     0.019 C 
ENDBRANCH   1   7
TORSDOF 1
ENDMDL
