MODEL 1
REMARK minimizedAffinity -3.22463775
REMARK minimizedRMSD -1
REMARK  1 active torsions:
REMARK  status: ('A' for Active; 'I' for Inactive)
REMARK    1  A    between atoms: C1_2  and  C2_3 
ROOT
ATOM      1  C2  UNL d   1       0.193  -0.080  -0.319  0.00  0.00    -0.077 A 
ATOM      2  C3  UNL d   1      -0.573  -0.601   0.733  0.00  0.00     0.002 A 
ATOM      3  C4  UNL d   1      -1.937  -0.844   0.560  0.00  0.00     0.002 A 
ATOM      4  C5  UNL d   1      -2.545  -0.572  -0.664  0.00  0.00    -0.004 A 
ATOM      5  C6  UNL d   1      -1.792  -0.051  -1.715  0.00  0.00     0.002 A 
ATOM      6  C7  UNL d   1      -0.429   0.193  -1.544  0.00  0.00     0.002 A 
ENDROOT
BRANCH   1   7
ATOM      7  C1  UNL d   1       1.674   0.137  -0.150  0.00  0.00     0.055 C 
ATOM      8  C   UNL d   1       1.981   1.569   0.261  0.00  0.00     0.019 C 
ENDBRANCH   1   7
TORSDOF 1
ENDMDL
