MODEL 1
REMARK minimizedAffinity -4.93541002
REMARK minimizedRMSD -1
REMARK  1 active torsions:
REMARK  status: ('A' for Active; 'I' for Inactive)
REMARK    1  A    between atoms: C1_2  and  C2_3 
ROOT
ATOM      1  C2  UNL d   1       0.045  -0.352   0.600  0.00  0.00    -0.077 A 
ATOM      2  C3  UNL d   1      -0.936  -0.908   1.434  0.00  0.00     0.002 A 
ATOM      3  C4  UNL d   1      -2.245  -1.067   0.976  0.00  0.00     0.002 A 
ATOM      4  C5  UNL d   1      -2.584  -0.677  -0.318  0.00  0.00    -0.004 A 
ATOM      5  C6  UNL d   1      -1.617  -0.121  -1.154  0.00  0.00     0.002 A 
ATOM      6  C7  UNL d   1      -0.308   0.040  -0.698  0.00  0.00     0.002 A 
ENDROOT
BRANCH   1   7
ATOM      7  C1  UNL d   1       1.469  -0.225   1.075  0.00  0.00     0.055 C 
ATOM      8  C   UNL d   1       2.043   1.144   0.744  0.00  0.00     0.019 C 
ENDBRANCH   1   7
TORSDOF 1
ENDMDL
