MODEL 1
REMARK minimizedAffinity -4.32918835
REMARK minimizedRMSD -1
REMARK  1 active torsions:
REMARK  status: ('A' for Active; 'I' for Inactive)
REMARK    1  A    between atoms: C1_2  and  C2_3 
ROOT
ATOM      1  C2  UNL d   1       2.012   1.360   0.263  0.00  0.00    -0.077 A 
ATOM      2  C3  UNL d   1       1.599   2.150   1.345  0.00  0.00     0.002 A 
ATOM      3  C4  UNL d   1       2.027   3.474   1.456  0.00  0.00     0.002 A 
ATOM      4  C5  UNL d   1       2.867   4.020   0.488  0.00  0.00    -0.004 A 
ATOM      5  C6  UNL d   1       3.285   3.242  -0.591  0.00  0.00     0.002 A 
ATOM      6  C7  UNL d   1       2.859   1.918  -0.703  0.00  0.00     0.002 A 
ENDROOT
BRANCH   1   7
ATOM      7  C1  UNL d   1       1.511  -0.053   0.115  0.00  0.00     0.055 C 
ATOM      8  C   UNL d   1       0.004  -0.088  -0.092  0.00  0.00     0.019 C 
ENDBRANCH   1   7
TORSDOF 1
ENDMDL
