MODEL 1
REMARK minimizedAffinity 10.7729521
REMARK minimizedRMSD -1
REMARK  0 active torsions:
REMARK  status: ('A' for Active; 'I' for Inactive)
ROOT
ATOM      1  C   UNL d   1       1.219  -0.684   2.393  0.00  0.00     0.023 A 
ATOM      2  C1  UNL d   1      -0.001  -0.011   2.352  0.00  0.00     0.003 A 
ATOM      3  C2  UNL d   1      -0.356   0.857   3.387  0.00  0.00     0.048 A 
ATOM      4  C3  UNL d   1       0.515   1.048   4.459  0.00  0.00     0.023 A 
ATOM      5  C4  UNL d   1       1.738   0.376   4.504  0.00  0.00     0.048 A 
ATOM      6  C5  UNL d   1       2.088  -0.491   3.467  0.00  0.00     0.003 A 
ATOM      7  I   UNL d   1      -0.012   2.339   6.000  0.00  0.00    -0.146 I 
ENDROOT
TORSDOF 0
ENDMDL
