MODEL 1
REMARK minimizedAffinity 6.97001648
REMARK minimizedRMSD -1
REMARK  0 active torsions:
REMARK  status: ('A' for Active; 'I' for Inactive)
ROOT
ATOM      1  C   UNL d   1       1.449  -0.323   3.292  0.00  0.00     0.023 A 
ATOM      2  C1  UNL d   1       0.562   0.628   2.787  0.00  0.00     0.003 A 
ATOM      3  C2  UNL d   1      -0.790   0.314   2.639  0.00  0.00     0.048 A 
ATOM      4  C3  UNL d   1      -1.249  -0.953   2.998  0.00  0.00     0.023 A 
ATOM      5  C4  UNL d   1      -0.365  -1.908   3.504  0.00  0.00     0.048 A 
ATOM      6  C5  UNL d   1       0.986  -1.589   3.650  0.00  0.00     0.003 A 
ATOM      7  I   UNL d   1      -3.262  -1.423   2.778  0.00  0.00    -0.146 I 
ENDROOT
TORSDOF 0
ENDMDL
