MODEL 1
REMARK minimizedAffinity 5.91259909
REMARK minimizedRMSD -1
REMARK  0 active torsions:
REMARK  status: ('A' for Active; 'I' for Inactive)
ROOT
ATOM      1  C   UNL d   1      -0.199  -5.211  -6.000  0.00  0.00     0.023 A 
ATOM      2  C1  UNL d   1      -1.122  -4.202  -5.722  0.00  0.00     0.003 A 
ATOM      3  C2  UNL d   1      -0.680  -2.913  -5.421  0.00  0.00     0.048 A 
ATOM      4  C3  UNL d   1       0.687  -2.638  -5.399  0.00  0.00     0.023 A 
ATOM      5  C4  UNL d   1       1.615  -3.643  -5.676  0.00  0.00     0.048 A 
ATOM      6  C5  UNL d   1       1.168  -4.931  -5.976  0.00  0.00     0.003 A 
ATOM      7  I   UNL d   1       1.348  -0.719  -4.950  0.00  0.00    -0.146 I 
ENDROOT
TORSDOF 0
ENDMDL
