MODEL 1
REMARK minimizedAffinity 13.055232
REMARK minimizedRMSD -1
REMARK  0 active torsions:
REMARK  status: ('A' for Active; 'I' for Inactive)
ROOT
ATOM      1  C   UNL d   1       0.378  -0.746   2.278  0.00  0.00     0.023 A 
ATOM      2  C1  UNL d   1       1.235  -0.884   3.370  0.00  0.00     0.003 A 
ATOM      3  C2  UNL d   1       1.156   0.011   4.439  0.00  0.00     0.048 A 
ATOM      4  C3  UNL d   1       0.216   1.041   4.410  0.00  0.00     0.023 A 
ATOM      5  C4  UNL d   1      -0.644   1.182   3.320  0.00  0.00     0.048 A 
ATOM      6  C5  UNL d   1      -0.561   0.285   2.253  0.00  0.00     0.003 A 
ATOM      7  I   UNL d   1       0.096   2.374   6.000  0.00  0.00    -0.146 I 
ENDROOT
TORSDOF 0
ENDMDL
