MODEL 1
REMARK minimizedAffinity 15.2533646
REMARK minimizedRMSD -1
REMARK  0 active torsions:
REMARK  status: ('A' for Active; 'I' for Inactive)
ROOT
ATOM      1  C   UNL d   1       1.895  -0.393   3.090  0.00  0.00     0.023 A 
ATOM      2  C1  UNL d   1       1.348   0.127   1.917  0.00  0.00     0.003 A 
ATOM      3  C2  UNL d   1      -0.024   0.023   1.679  0.00  0.00     0.048 A 
ATOM      4  C3  UNL d   1      -0.843  -0.602   2.619  0.00  0.00     0.023 A 
ATOM      5  C4  UNL d   1      -0.300  -1.123   3.794  0.00  0.00     0.048 A 
ATOM      6  C5  UNL d   1       1.073  -1.017   4.027  0.00  0.00     0.003 A 
ATOM      7  I   UNL d   1      -2.886  -0.759   2.267  0.00  0.00    -0.146 I 
ENDROOT
TORSDOF 0
ENDMDL
