MODEL 1
REMARK minimizedAffinity 15.9984341
REMARK minimizedRMSD -1
REMARK  0 active torsions:
REMARK  status: ('A' for Active; 'I' for Inactive)
ROOT
ATOM      1  C   UNL d   1       1.198  -0.395  -4.218  0.00  0.00     0.023 A 
ATOM      2  C1  UNL d   1      -0.011  -0.752  -4.817  0.00  0.00     0.003 A 
ATOM      3  C2  UNL d   1      -0.184  -2.039  -5.329  0.00  0.00     0.048 A 
ATOM      4  C3  UNL d   1       0.855  -2.965  -5.238  0.00  0.00     0.023 A 
ATOM      5  C4  UNL d   1       2.065  -2.613  -4.639  0.00  0.00     0.048 A 
ATOM      6  C5  UNL d   1       2.234  -1.324  -4.129  0.00  0.00     0.003 A 
ATOM      7  I   UNL d   1       0.599  -4.882  -6.000  0.00  0.00    -0.146 I 
ENDROOT
TORSDOF 0
ENDMDL
