MODEL 1
REMARK minimizedAffinity 6.59131575
REMARK minimizedRMSD -1
REMARK  0 active torsions:
REMARK  status: ('A' for Active; 'I' for Inactive)
ROOT
ATOM      1  C   UNL d   1       1.573  -1.911   3.994  0.00  0.00     0.023 A 
ATOM      2  C1  UNL d   1       2.206  -0.675   4.127  0.00  0.00     0.003 A 
ATOM      3  C2  UNL d   1       1.606   0.476   3.614  0.00  0.00     0.048 A 
ATOM      4  C3  UNL d   1       0.373   0.385   2.969  0.00  0.00     0.023 A 
ATOM      5  C4  UNL d   1      -0.264  -0.849   2.834  0.00  0.00     0.048 A 
ATOM      6  C5  UNL d   1       0.340  -1.998   3.348  0.00  0.00     0.003 A 
ATOM      7  I   UNL d   1      -0.522   2.098   2.205  0.00  0.00    -0.146 I 
ENDROOT
TORSDOF 0
ENDMDL
