MODEL 1
REMARK minimizedAffinity 4.33837557
REMARK minimizedRMSD -1
REMARK  0 active torsions:
REMARK  status: ('A' for Active; 'I' for Inactive)
ROOT
ATOM      1  C   UNL d   1       1.475  -1.060   3.716  0.00  0.00     0.023 A 
ATOM      2  C1  UNL d   1       0.675  -0.075   3.135  0.00  0.00     0.003 A 
ATOM      3  C2  UNL d   1      -0.608  -0.391   2.686  0.00  0.00     0.048 A 
ATOM      4  C3  UNL d   1      -1.087  -1.694   2.821  0.00  0.00     0.023 A 
ATOM      5  C4  UNL d   1      -0.291  -2.682   3.402  0.00  0.00     0.048 A 
ATOM      6  C5  UNL d   1       0.992  -2.362   3.849  0.00  0.00     0.003 A 
ATOM      7  I   UNL d   1      -2.997  -2.167   2.153  0.00  0.00    -0.146 I 
ENDROOT
TORSDOF 0
ENDMDL
