MODEL 1
REMARK minimizedAffinity 7.12908649
REMARK minimizedRMSD -1
REMARK  0 active torsions:
REMARK  status: ('A' for Active; 'I' for Inactive)
ROOT
ATOM      1  C   UNL d   1       0.576  -1.275   2.621  0.00  0.00     0.023 A 
ATOM      2  C1  UNL d   1      -0.046  -0.063   2.319  0.00  0.00     0.003 A 
ATOM      3  C2  UNL d   1      -0.132   0.939   3.287  0.00  0.00     0.048 A 
ATOM      4  C3  UNL d   1       0.407   0.724   4.555  0.00  0.00     0.023 A 
ATOM      5  C4  UNL d   1       1.032  -0.486   4.861  0.00  0.00     0.048 A 
ATOM      6  C5  UNL d   1       1.114  -1.486   3.890  0.00  0.00     0.003 A 
ATOM      7  I   UNL d   1       0.281   2.215   5.997  0.00  0.00    -0.146 I 
ENDROOT
TORSDOF 0
ENDMDL
