MODEL 1
REMARK minimizedAffinity 8.63831329
REMARK minimizedRMSD -1
REMARK  0 active torsions:
REMARK  status: ('A' for Active; 'I' for Inactive)
ROOT
ATOM      1  C   UNL d   1       2.777  -0.617   5.567  0.00  0.00     0.023 A 
ATOM      2  C1  UNL d   1       1.854  -1.648   5.388  0.00  0.00     0.003 A 
ATOM      3  C2  UNL d   1       1.135  -1.744   4.195  0.00  0.00     0.048 A 
ATOM      4  C3  UNL d   1       1.345  -0.807   3.184  0.00  0.00     0.023 A 
ATOM      5  C4  UNL d   1       2.268   0.226   3.358  0.00  0.00     0.048 A 
ATOM      6  C5  UNL d   1       2.984   0.318   4.553  0.00  0.00     0.003 A 
ATOM      7  I   UNL d   1       0.276  -0.948   1.407  0.00  0.00    -0.146 I 
ENDROOT
TORSDOF 0
ENDMDL
