MODEL 1
REMARK minimizedAffinity -3.85385299
REMARK minimizedRMSD -1
REMARK  0 active torsions:
REMARK  status: ('A' for Active; 'I' for Inactive)
ROOT
ATOM      1  C   UNL d   1       1.429  -2.601  -0.041  0.00  0.00    -0.002 A 
ATOM      2  C1  UNL d   1       0.327  -1.897   0.424  0.00  0.00     0.010 A 
ATOM      3  C2  UNL d   1       0.361  -0.504   0.518  0.00  0.00     0.041 A 
ATOM      4  C3  UNL d   1       1.533   0.176   0.132  0.00  0.00    -0.075 A 
ATOM      5  S   UNL d   1       1.803   1.879   0.161  0.00  0.00     0.015 SA
ATOM      6  C4  UNL d   1       3.388   1.712  -0.444  0.00  0.00     0.022 A 
ATOM      7  C5  UNL d   1       3.719   0.397  -0.668  0.00  0.00     0.026 A 
ATOM      8  C6  UNL d   1       2.655  -0.510  -0.340  0.00  0.00    -0.082 A 
ATOM      9  C7  UNL d   1       2.589  -1.922  -0.423  0.00  0.00     0.045 A 
ENDROOT
TORSDOF 0
ENDMDL
