MODEL 1
REMARK minimizedAffinity -3.41522574
REMARK minimizedRMSD -1
REMARK  0 active torsions:
REMARK  status: ('A' for Active; 'I' for Inactive)
ROOT
ATOM      1  C   UNL d   1       3.084  -1.533   0.509  0.00  0.00    -0.002 A 
ATOM      2  C1  UNL d   1       2.927  -0.389   1.277  0.00  0.00     0.010 A 
ATOM      3  C2  UNL d   1       1.860   0.482   1.045  0.00  0.00     0.041 A 
ATOM      4  C3  UNL d   1       0.944   0.178   0.019  0.00  0.00    -0.075 A 
ATOM      5  S   UNL d   1      -0.440   1.096  -0.445  0.00  0.00     0.015 SA
ATOM      6  C4  UNL d   1      -0.855  -0.010  -1.673  0.00  0.00     0.022 A 
ATOM      7  C5  UNL d   1       0.030  -1.060  -1.742  0.00  0.00     0.026 A 
ATOM      8  C6  UNL d   1       1.080  -0.970  -0.768  0.00  0.00    -0.082 A 
ATOM      9  C7  UNL d   1       2.173  -1.831  -0.508  0.00  0.00     0.045 A 
ENDROOT
TORSDOF 0
ENDMDL
