MODEL 1
REMARK minimizedAffinity 3.42778015
REMARK minimizedRMSD -1
REMARK  0 active torsions:
REMARK  status: ('A' for Active; 'I' for Inactive)
ROOT
ATOM      1  C   UNL d   1      -3.936   1.085   2.091  0.00  0.00    -0.002 A 
ATOM      2  C1  UNL d   1      -4.486   0.513   0.953  0.00  0.00     0.010 A 
ATOM      3  C2  UNL d   1      -3.665   0.038  -0.072  0.00  0.00     0.041 A 
ATOM      4  C3  UNL d   1      -2.267   0.148   0.069  0.00  0.00    -0.075 A 
ATOM      5  S   UNL d   1      -1.066  -0.366  -1.055  0.00  0.00     0.015 SA
ATOM      6  C4  UNL d   1       0.206   0.162  -0.051  0.00  0.00     0.022 A 
ATOM      7  C5  UNL d   1      -0.256   0.719   1.118  0.00  0.00     0.026 A 
ATOM      8  C6  UNL d   1      -1.689   0.719   1.207  0.00  0.00    -0.082 A 
ATOM      9  C7  UNL d   1      -2.549   1.192   2.227  0.00  0.00     0.045 A 
ENDROOT
TORSDOF 0
ENDMDL
