MODEL 1
REMARK minimizedAffinity 0.323898464
REMARK minimizedRMSD -1
REMARK  0 active torsions:
REMARK  status: ('A' for Active; 'I' for Inactive)
ROOT
ATOM      1  C   UNL d   1       1.495  -0.326   0.189  0.00  0.00    -0.002 A 
ATOM      2  C1  UNL d   1       1.735   1.040   0.151  0.00  0.00     0.010 A 
ATOM      3  C2  UNL d   1       0.685   1.949   0.292  0.00  0.00     0.041 A 
ATOM      4  C3  UNL d   1      -0.623   1.458   0.476  0.00  0.00    -0.075 A 
ATOM      5  S   UNL d   1      -2.063   2.384   0.672  0.00  0.00     0.015 SA
ATOM      6  C4  UNL d   1      -3.031   0.988   0.812  0.00  0.00     0.022 A 
ATOM      7  C5  UNL d   1      -2.289  -0.165   0.713  0.00  0.00     0.026 A 
ATOM      8  C6  UNL d   1      -0.889   0.086   0.518  0.00  0.00    -0.082 A 
ATOM      9  C7  UNL d   1       0.197  -0.810   0.371  0.00  0.00     0.045 A 
ENDROOT
TORSDOF 0
ENDMDL
