MODEL 1
REMARK minimizedAffinity -0.673370838
REMARK minimizedRMSD -1
REMARK  1 active torsions:
REMARK  status: ('A' for Active; 'I' for Inactive)
REMARK    1  A    between atoms: N_2  and  C1_3 
ROOT
ATOM      1  C1  UNL d   1       3.577  -5.935  -4.758  0.00  0.00     0.143 A 
ATOM      2  C2  UNL d   1       4.973  -5.964  -4.675  0.00  0.00    -0.057 A 
ATOM      3  C3  UNL d   1       5.626  -5.999  -3.438  0.00  0.00     0.033 A 
ATOM      4  C4  UNL d   1       4.893  -5.977  -2.256  0.00  0.00    -0.042 A 
ATOM      5  C5  UNL d   1       3.505  -5.923  -2.314  0.00  0.00     0.033 A 
ATOM      6  C6  UNL d   1       2.858  -5.895  -3.553  0.00  0.00    -0.057 A 
ENDROOT
BRANCH   1   7
ATOM      7  N   UNL d   1       2.871  -5.800  -5.956  0.00  0.00    -0.732 N 
ATOM      8  C   UNL d   1       1.438  -5.998  -5.994  0.00  0.00     0.284 C 
ATOM      9  H3  UNL d   1       3.197  -5.012  -6.512  0.00  0.00     0.395 HD
ENDBRANCH   1   7
TORSDOF 1
ENDMDL
