MODEL 1
REMARK minimizedAffinity -3.1636982
REMARK minimizedRMSD -1
REMARK  1 active torsions:
REMARK  status: ('A' for Active; 'I' for Inactive)
REMARK    1  A    between atoms: N_2  and  C1_3 
ROOT
ATOM      1  C1  UNL d   1       3.498  -5.196  -5.005  0.00  0.00     0.143 A 
ATOM      2  C2  UNL d   1       3.625  -5.611  -3.675  0.00  0.00    -0.057 A 
ATOM      3  C3  UNL d   1       4.864  -5.994  -3.149  0.00  0.00     0.033 A 
ATOM      4  C4  UNL d   1       5.998  -5.997  -3.955  0.00  0.00    -0.042 A 
ATOM      5  C5  UNL d   1       5.891  -5.612  -5.287  0.00  0.00     0.033 A 
ATOM      6  C6  UNL d   1       4.652  -5.224  -5.805  0.00  0.00    -0.057 A 
ENDROOT
BRANCH   1   7
ATOM      7  N   UNL d   1       2.277  -4.897  -5.614  0.00  0.00    -0.732 N 
ATOM      8  C   UNL d   1       1.367  -5.954  -5.999  0.00  0.00     0.284 C 
ATOM      9  H3  UNL d   1       1.821  -4.089  -5.195  0.00  0.00     0.395 HD
ENDBRANCH   1   7
TORSDOF 1
ENDMDL
