MODEL 1
REMARK minimizedAffinity -3.62783504
REMARK minimizedRMSD -1
REMARK  1 active torsions:
REMARK  status: ('A' for Active; 'I' for Inactive)
REMARK    1  A    between atoms: N_2  and  C1_3 
ROOT
ATOM      1  C1  UNL d   1       4.552  -5.543  -4.099  0.00  0.00     0.143 A 
ATOM      2  C2  UNL d   1       4.270  -5.716  -2.740  0.00  0.00    -0.057 A 
ATOM      3  C3  UNL d   1       2.965  -5.957  -2.294  0.00  0.00     0.033 A 
ATOM      4  C4  UNL d   1       1.911  -6.000  -3.200  0.00  0.00    -0.042 A 
ATOM      5  C5  UNL d   1       2.164  -5.806  -4.554  0.00  0.00     0.033 A 
ATOM      6  C6  UNL d   1       3.471  -5.573  -4.994  0.00  0.00    -0.057 A 
ENDROOT
BRANCH   1   7
ATOM      7  N   UNL d   1       5.813  -5.204  -4.595  0.00  0.00    -0.732 N 
ATOM      8  C   UNL d   1       5.993  -4.881  -5.995  0.00  0.00     0.284 C 
ATOM      9  H3  UNL d   1       6.331  -4.600  -3.960  0.00  0.00     0.395 HD
ENDBRANCH   1   7
TORSDOF 1
ENDMDL
