MODEL 1
REMARK minimizedAffinity -1.45665133
REMARK minimizedRMSD -1
REMARK  1 active torsions:
REMARK  status: ('A' for Active; 'I' for Inactive)
REMARK    1  A    between atoms: N_2  and  C1_3 
ROOT
ATOM      1  C1  UNL d   1       3.976  -5.461  -3.213  0.00  0.00     0.143 A 
ATOM      2  C2  UNL d   1       5.231  -5.472  -3.830  0.00  0.00    -0.057 A 
ATOM      3  C3  UNL d   1       5.362  -5.703  -5.205  0.00  0.00     0.033 A 
ATOM      4  C4  UNL d   1       4.238  -5.956  -5.984  0.00  0.00    -0.042 A 
ATOM      5  C5  UNL d   1       2.983  -5.974  -5.388  0.00  0.00     0.033 A 
ATOM      6  C6  UNL d   1       2.858  -5.737  -4.015  0.00  0.00    -0.057 A 
ENDROOT
BRANCH   1   7
ATOM      7  N   UNL d   1       3.788  -5.336  -1.834  0.00  0.00    -0.732 N 
ATOM      8  C   UNL d   1       2.486  -5.006  -1.295  0.00  0.00     0.284 C 
ATOM      9  H3  UNL d   1       4.288  -6.048  -1.308  0.00  0.00     0.395 HD
ENDBRANCH   1   7
TORSDOF 1
ENDMDL
