MODEL 1
REMARK minimizedAffinity -1.56428826
REMARK minimizedRMSD -1
REMARK  1 active torsions:
REMARK  status: ('A' for Active; 'I' for Inactive)
REMARK    1  A    between atoms: N_2  and  C1_3 
ROOT
ATOM      1  C1  UNL d   1       3.368  -5.900  -3.345  0.00  0.00     0.143 A 
ATOM      2  C2  UNL d   1       2.494  -5.962  -4.435  0.00  0.00    -0.057 A 
ATOM      3  C3  UNL d   1       2.974  -5.999  -5.750  0.00  0.00     0.033 A 
ATOM      4  C4  UNL d   1       4.342  -5.946  -5.999  0.00  0.00    -0.042 A 
ATOM      5  C5  UNL d   1       5.228  -5.859  -4.931  0.00  0.00     0.033 A 
ATOM      6  C6  UNL d   1       4.742  -5.829  -3.620  0.00  0.00    -0.057 A 
ENDROOT
BRANCH   1   7
ATOM      7  N   UNL d   1       2.949  -5.761  -2.019  0.00  0.00    -0.732 N 
ATOM      8  C   UNL d   1       2.271  -4.559  -1.583  0.00  0.00     0.284 C 
ATOM      9  H3  UNL d   1       2.554  -6.620  -1.644  0.00  0.00     0.395 HD
ENDBRANCH   1   7
TORSDOF 1
ENDMDL
