MODEL 1
REMARK minimizedAffinity -2.68794036
REMARK minimizedRMSD -1
REMARK  1 active torsions:
REMARK  status: ('A' for Active; 'I' for Inactive)
REMARK    1  A    between atoms: N_2  and  C1_3 
ROOT
ATOM      1  C1  UNL d   1       3.287   2.210   1.943  0.00  0.00     0.143 A 
ATOM      2  C2  UNL d   1       3.776   3.519   2.013  0.00  0.00    -0.057 A 
ATOM      3  C3  UNL d   1       5.122   3.777   2.300  0.00  0.00     0.033 A 
ATOM      4  C4  UNL d   1       5.999   2.727   2.553  0.00  0.00    -0.042 A 
ATOM      5  C5  UNL d   1       5.529   1.419   2.513  0.00  0.00     0.033 A 
ATOM      6  C6  UNL d   1       4.185   1.168   2.219  0.00  0.00    -0.057 A 
ENDROOT
BRANCH   1   7
ATOM      7  N   UNL d   1       1.939   1.892   1.758  0.00  0.00    -0.732 N 
ATOM      8  C   UNL d   1       1.121   2.654   0.839  0.00  0.00     0.284 C 
ATOM      9  H3  UNL d   1       1.778   0.888   1.724  0.00  0.00     0.395 HD
ENDBRANCH   1   7
TORSDOF 1
ENDMDL
