MODEL 1
REMARK minimizedAffinity -3.19778514
REMARK minimizedRMSD -1
REMARK  1 active torsions:
REMARK  status: ('A' for Active; 'I' for Inactive)
REMARK    1  A    between atoms: N_2  and  C1_3 
ROOT
ATOM      1  C1  UNL d   1       4.621  -5.602  -3.504  0.00  0.00     0.143 A 
ATOM      2  C2  UNL d   1       3.234  -5.778  -3.526  0.00  0.00    -0.057 A 
ATOM      3  C3  UNL d   1       2.548  -5.990  -4.728  0.00  0.00     0.033 A 
ATOM      4  C4  UNL d   1       3.237  -5.999  -5.937  0.00  0.00    -0.042 A 
ATOM      5  C5  UNL d   1       4.613  -5.801  -5.941  0.00  0.00     0.033 A 
ATOM      6  C6  UNL d   1       5.293  -5.597  -4.736  0.00  0.00    -0.057 A 
ENDROOT
BRANCH   1   7
ATOM      7  N   UNL d   1       5.347  -5.289  -2.352  0.00  0.00    -0.732 N 
ATOM      8  C   UNL d   1       5.942  -3.980  -2.188  0.00  0.00     0.284 C 
ATOM      9  H3  UNL d   1       4.914  -5.658  -1.508  0.00  0.00     0.395 HD
ENDBRANCH   1   7
TORSDOF 1
ENDMDL
