MODEL 1
REMARK minimizedAffinity -3.57331276
REMARK minimizedRMSD -1
REMARK  1 active torsions:
REMARK  status: ('A' for Active; 'I' for Inactive)
REMARK    1  A    between atoms: N_2  and  C1_3 
ROOT
ATOM      1  C1  UNL d   1       3.873  -5.564  -4.365  0.00  0.00     0.143 A 
ATOM      2  C2  UNL d   1       5.194  -5.166  -4.599  0.00  0.00    -0.057 A 
ATOM      3  C3  UNL d   1       5.988  -4.645  -3.570  0.00  0.00     0.033 A 
ATOM      4  C4  UNL d   1       5.464  -4.485  -2.292  0.00  0.00    -0.042 A 
ATOM      5  C5  UNL d   1       4.146  -4.851  -2.042  0.00  0.00     0.033 A 
ATOM      6  C6  UNL d   1       3.360  -5.377  -3.072  0.00  0.00    -0.057 A 
ENDROOT
BRANCH   1   7
ATOM      7  N   UNL d   1       3.002  -5.997  -5.368  0.00  0.00    -0.732 N 
ATOM      8  C   UNL d   1       1.571  -6.000  -5.151  0.00  0.00     0.284 C 
ATOM      9  H3  UNL d   1       3.282  -5.675  -6.291  0.00  0.00     0.395 HD
ENDBRANCH   1   7
TORSDOF 1
ENDMDL
