MODEL 1
REMARK minimizedAffinity -3.10822415
REMARK minimizedRMSD -1
REMARK  1 active torsions:
REMARK  status: ('A' for Active; 'I' for Inactive)
REMARK    1  A    between atoms: N_2  and  C1_3 
ROOT
ATOM      1  C1  UNL d   1       4.040  -5.163  -3.082  0.00  0.00     0.143 A 
ATOM      2  C2  UNL d   1       3.438  -5.826  -4.157  0.00  0.00    -0.057 A 
ATOM      3  C3  UNL d   1       4.111  -5.999  -5.372  0.00  0.00     0.033 A 
ATOM      4  C4  UNL d   1       5.392  -5.484  -5.544  0.00  0.00    -0.042 A 
ATOM      5  C5  UNL d   1       6.000  -4.800  -4.498  0.00  0.00     0.033 A 
ATOM      6  C6  UNL d   1       5.325  -4.636  -3.284  0.00  0.00    -0.057 A 
ENDROOT
BRANCH   1   7
ATOM      7  N   UNL d   1       3.386  -4.873  -1.882  0.00  0.00    -0.732 N 
ATOM      8  C   UNL d   1       1.986  -4.505  -1.876  0.00  0.00     0.284 C 
ATOM      9  H3  UNL d   1       3.652  -5.505  -1.132  0.00  0.00     0.395 HD
ENDBRANCH   1   7
TORSDOF 1
ENDMDL
