MODEL 1
REMARK minimizedAffinity -2.36378145
REMARK minimizedRMSD -1
REMARK  1 active torsions:
REMARK  status: ('A' for Active; 'I' for Inactive)
REMARK    1  A    between atoms: N_2  and  C1_3 
ROOT
ATOM      1  C1  UNL d   1       3.180  -6.000  -3.756  0.00  0.00     0.143 A 
ATOM      2  C2  UNL d   1       3.872  -5.995  -4.972  0.00  0.00    -0.057 A 
ATOM      3  C3  UNL d   1       5.268  -5.902  -5.013  0.00  0.00     0.033 A 
ATOM      4  C4  UNL d   1       5.998  -5.783  -3.834  0.00  0.00    -0.042 A 
ATOM      5  C5  UNL d   1       5.330  -5.760  -2.615  0.00  0.00     0.033 A 
ATOM      6  C6  UNL d   1       3.935  -5.860  -2.581  0.00  0.00    -0.057 A 
ENDROOT
BRANCH   1   7
ATOM      7  N   UNL d   1       1.787  -5.990  -3.654  0.00  0.00    -0.732 N 
ATOM      8  C   UNL d   1       1.129  -5.228  -2.614  0.00  0.00     0.284 C 
ATOM      9  H3  UNL d   1       1.331  -5.934  -4.562  0.00  0.00     0.395 HD
ENDBRANCH   1   7
TORSDOF 1
ENDMDL
