MODEL 1
REMARK minimizedAffinity -3.25547314
REMARK minimizedRMSD -1
REMARK  1 active torsions:
REMARK  status: ('A' for Active; 'I' for Inactive)
REMARK    1  A    between atoms: N_2  and  C1_3 
ROOT
ATOM      1  C1  UNL d   1       4.039  -5.464  -4.595  0.00  0.00     0.143 A 
ATOM      2  C2  UNL d   1       2.708  -5.650  -4.204  0.00  0.00    -0.057 A 
ATOM      3  C3  UNL d   1       2.260  -5.246  -2.941  0.00  0.00     0.033 A 
ATOM      4  C4  UNL d   1       3.144  -4.674  -2.032  0.00  0.00    -0.042 A 
ATOM      5  C5  UNL d   1       4.476  -4.502  -2.390  0.00  0.00     0.033 A 
ATOM      6  C6  UNL d   1       4.917  -4.901  -3.655  0.00  0.00    -0.057 A 
ENDROOT
BRANCH   1   7
ATOM      7  N   UNL d   1       4.568  -5.933  -5.800  0.00  0.00    -0.732 N 
ATOM      8  C   UNL d   1       6.000  -5.998  -6.000  0.00  0.00     0.284 C 
ATOM      9  H3  UNL d   1       4.061  -6.739  -6.159  0.00  0.00     0.395 HD
ENDBRANCH   1   7
TORSDOF 1
ENDMDL
