MODEL 1
REMARK minimizedAffinity -3.4694097
REMARK minimizedRMSD -1
REMARK  1 active torsions:
REMARK  status: ('A' for Active; 'I' for Inactive)
REMARK    1  A    between atoms: N_2  and  C1_3 
ROOT
ATOM      1  C1  UNL d   1       3.887  -5.565  -3.004  0.00  0.00     0.143 A 
ATOM      2  C2  UNL d   1       3.372  -6.000  -4.230  0.00  0.00    -0.057 A 
ATOM      3  C3  UNL d   1       4.157  -5.999  -5.389  0.00  0.00     0.033 A 
ATOM      4  C4  UNL d   1       5.467  -5.534  -5.349  0.00  0.00    -0.042 A 
ATOM      5  C5  UNL d   1       5.992  -5.073  -4.147  0.00  0.00     0.033 A 
ATOM      6  C6  UNL d   1       5.205  -5.083  -2.991  0.00  0.00    -0.057 A 
ENDROOT
BRANCH   1   7
ATOM      7  N   UNL d   1       3.127  -5.449  -1.838  0.00  0.00    -0.732 N 
ATOM      8  C   UNL d   1       1.808  -4.855  -1.873  0.00  0.00     0.284 C 
ATOM      9  H3  UNL d   1       3.195  -6.274  -1.246  0.00  0.00     0.395 HD
ENDBRANCH   1   7
TORSDOF 1
ENDMDL
