MODEL 1
REMARK minimizedAffinity -2.98413491
REMARK minimizedRMSD -1
REMARK  0 active torsions:
REMARK  status: ('A' for Active; 'I' for Inactive)
ROOT
ATOM      1  C1  BNZ d   1       1.180  -0.687   0.203  0.00  0.00     0.000 A 
ATOM      2  C2  BNZ d   1       0.951   0.626  -0.110  0.00  0.00     0.000 A 
ATOM      3  C3  BNZ d   1      -0.315   1.142  -0.086  0.00  0.00     0.000 A 
ATOM      4  C4  BNZ d   1      -1.353   0.334   0.212  0.00  0.00     0.000 A 
ATOM      5  C5  BNZ d   1      -1.140  -0.994   0.521  0.00  0.00     0.000 A 
ATOM      6  C6  BNZ d   1       0.140  -1.500   0.534  0.00  0.00     0.000 A 
ENDROOT
TORSDOF 0
ENDMDL
