MODEL 1
REMARK minimizedAffinity -3.17872119
REMARK minimizedRMSD -1
REMARK  0 active torsions:
REMARK  status: ('A' for Active; 'I' for Inactive)
ROOT
ATOM      1  C1  BNZ d   1      -0.781   0.543  -0.022  0.00  0.00     0.000 A 
ATOM      2  C2  BNZ d   1      -1.238  -0.702   0.317  0.00  0.00     0.000 A 
ATOM      3  C3  BNZ d   1      -0.372  -1.750   0.466  0.00  0.00     0.000 A 
ATOM      4  C4  BNZ d   1       0.943  -1.560   0.235  0.00  0.00     0.000 A 
ATOM      5  C5  BNZ d   1       1.419  -0.313  -0.117  0.00  0.00     0.000 A 
ATOM      6  C6  BNZ d   1       0.549   0.748  -0.227  0.00  0.00     0.000 A 
ENDROOT
TORSDOF 0
ENDMDL
