MODEL 1
REMARK minimizedAffinity -4.1717205
REMARK minimizedRMSD -1
REMARK  0 active torsions:
REMARK  status: ('A' for Active; 'I' for Inactive)
ROOT
ATOM      1  C1  BNZ d   1       1.197  -1.277   0.511  0.00  0.00     0.000 A 
ATOM      2  C2  BNZ d   1       0.898   0.021   0.192  0.00  0.00     0.000 A 
ATOM      3  C3  BNZ d   1      -0.401   0.444   0.126  0.00  0.00     0.000 A 
ATOM      4  C4  BNZ d   1      -1.397  -0.440   0.341  0.00  0.00     0.000 A 
ATOM      5  C5  BNZ d   1      -1.111  -1.753   0.655  0.00  0.00     0.000 A 
ATOM      6  C6  BNZ d   1       0.197  -2.166   0.758  0.00  0.00     0.000 A 
ENDROOT
TORSDOF 0
ENDMDL
