MODEL 1
REMARK minimizedAffinity -4.25579262
REMARK minimizedRMSD -1
REMARK  0 active torsions:
REMARK  status: ('A' for Active; 'I' for Inactive)
ROOT
ATOM      1  C1  BNZ d   1       1.055  -1.329   0.522  0.00  0.00     0.000 A 
ATOM      2  C2  BNZ d   1       0.078  -2.264   0.737  0.00  0.00     0.000 A 
ATOM      3  C3  BNZ d   1      -1.242  -1.946   0.581  0.00  0.00     0.000 A 
ATOM      4  C4  BNZ d   1      -1.585  -0.684   0.251  0.00  0.00     0.000 A 
ATOM      5  C5  BNZ d   1      -0.612   0.273   0.041  0.00  0.00     0.000 A 
ATOM      6  C6  BNZ d   1       0.717  -0.061   0.160  0.00  0.00     0.000 A 
ENDROOT
TORSDOF 0
ENDMDL
