MODEL 1
REMARK minimizedAffinity -4.12996817
REMARK minimizedRMSD -1
REMARK  0 active torsions:
REMARK  status: ('A' for Active; 'I' for Inactive)
ROOT
ATOM      1  C1  BNZ d   1      -0.778  -1.410   0.484  0.00  0.00     0.000 A 
ATOM      2  C2  BNZ d   1      -1.351  -0.184   0.275  0.00  0.00     0.000 A 
ATOM      3  C3  BNZ d   1      -0.579   0.929   0.093  0.00  0.00     0.000 A 
ATOM      4  C4  BNZ d   1       0.764   0.821   0.160  0.00  0.00     0.000 A 
ATOM      5  C5  BNZ d   1       1.357  -0.406   0.379  0.00  0.00     0.000 A 
ATOM      6  C6  BNZ d   1       0.577  -1.530   0.523  0.00  0.00     0.000 A 
ENDROOT
TORSDOF 0
ENDMDL
