MODEL 1
REMARK minimizedAffinity -4.14547014
REMARK minimizedRMSD -1
REMARK  0 active torsions:
REMARK  status: ('A' for Active; 'I' for Inactive)
ROOT
ATOM      1  C1  BNZ d   1      -2.009   1.121   0.725  0.00  0.00     0.000 A 
ATOM      2  C2  BNZ d   1      -1.064   2.060   0.407  0.00  0.00     0.000 A 
ATOM      3  C3  BNZ d   1       0.158   1.686  -0.079  0.00  0.00     0.000 A 
ATOM      4  C4  BNZ d   1       0.446   0.375  -0.210  0.00  0.00     0.000 A 
ATOM      5  C5  BNZ d   1      -0.493  -0.584   0.115  0.00  0.00     0.000 A 
ATOM      6  C6  BNZ d   1      -1.735  -0.202   0.568  0.00  0.00     0.000 A 
ENDROOT
TORSDOF 0
ENDMDL
