MODEL 1
REMARK minimizedAffinity -2.82648444
REMARK minimizedRMSD -1
REMARK  0 active torsions:
REMARK  status: ('A' for Active; 'I' for Inactive)
ROOT
ATOM      1  C1  BNZ d   1       0.082  -2.441   2.364  0.00  0.00     0.000 A 
ATOM      2  C2  BNZ d   1       1.175  -1.700   2.003  0.00  0.00     0.000 A 
ATOM      3  C3  BNZ d   1       1.131  -0.870   0.917  0.00  0.00     0.000 A 
ATOM      4  C4  BNZ d   1       0.008  -0.814   0.171  0.00  0.00     0.000 A 
ATOM      5  C5  BNZ d   1      -1.099  -1.563   0.517  0.00  0.00     0.000 A 
ATOM      6  C6  BNZ d   1      -1.063  -2.367   1.633  0.00  0.00     0.000 A 
ENDROOT
TORSDOF 0
ENDMDL
