MODEL 1
REMARK minimizedAffinity -2.17785478
REMARK minimizedRMSD -1
REMARK  0 active torsions:
REMARK  status: ('A' for Active; 'I' for Inactive)
ROOT
ATOM      1  C1  BNZ d   1      -0.513   1.008  -2.574  0.00  0.00     0.000 A 
ATOM      2  C2  BNZ d   1      -0.034   1.576  -3.724  0.00  0.00     0.000 A 
ATOM      3  C3  BNZ d   1       1.177   2.211  -3.741  0.00  0.00     0.000 A 
ATOM      4  C4  BNZ d   1       1.888   2.312  -2.599  0.00  0.00     0.000 A 
ATOM      5  C5  BNZ d   1       1.414   1.753  -1.429  0.00  0.00     0.000 A 
ATOM      6  C6  BNZ d   1       0.213   1.081  -1.425  0.00  0.00     0.000 A 
ENDROOT
TORSDOF 0
ENDMDL
