MODEL 1
REMARK minimizedAffinity -4.35623646
REMARK minimizedRMSD -1
REMARK  0 active torsions:
REMARK  status: ('A' for Active; 'I' for Inactive)
ROOT
ATOM      1  C1  BNZ d   1       0.649  -1.537   0.416  0.00  0.00     0.000 A 
ATOM      2  C2  BNZ d   1       0.106  -2.646   1.007  0.00  0.00     0.000 A 
ATOM      3  C3  BNZ d   1      -1.249  -2.785   1.124  0.00  0.00     0.000 A 
ATOM      4  C4  BNZ d   1      -2.057  -1.798   0.687  0.00  0.00     0.000 A 
ATOM      5  C5  BNZ d   1      -1.524  -0.669   0.097  0.00  0.00     0.000 A 
ATOM      6  C6  BNZ d   1      -0.162  -0.550  -0.054  0.00  0.00     0.000 A 
ENDROOT
TORSDOF 0
ENDMDL
