MODEL 1
REMARK minimizedAffinity -4.94687557
REMARK minimizedRMSD -1
REMARK  0 active torsions:
REMARK  status: ('A' for Active; 'I' for Inactive)
ROOT
ATOM      1  C1  BNZ d   1      -1.010  -0.077  -0.020  0.00  0.00     0.000 A 
ATOM      2  C2  BNZ d   1      -1.859  -1.019   0.497  0.00  0.00     0.000 A 
ATOM      3  C3  BNZ d   1      -1.393  -2.245   0.883  0.00  0.00     0.000 A 
ATOM      4  C4  BNZ d   1      -0.089  -2.541   0.713  0.00  0.00     0.000 A 
ATOM      5  C5  BNZ d   1       0.778  -1.606   0.184  0.00  0.00     0.000 A 
ATOM      6  C6  BNZ d   1       0.313  -0.359  -0.166  0.00  0.00     0.000 A 
ENDROOT
TORSDOF 0
ENDMDL
