MODEL 1
REMARK minimizedAffinity -2.48385215
REMARK minimizedRMSD -1
REMARK  0 active torsions:
REMARK  status: ('A' for Active; 'I' for Inactive)
ROOT
ATOM      1  C1  BNZ d   1       2.058   1.740  -3.235  0.00  0.00     0.000 A 
ATOM      2  C2  BNZ d   1       2.120   1.488  -1.890  0.00  0.00     0.000 A 
ATOM      3  C3  BNZ d   1       0.991   1.517  -1.120  0.00  0.00     0.000 A 
ATOM      4  C4  BNZ d   1      -0.190   1.836  -1.687  0.00  0.00     0.000 A 
ATOM      5  C5  BNZ d   1      -0.268   2.101  -3.039  0.00  0.00     0.000 A 
ATOM      6  C6  BNZ d   1       0.865   2.033  -3.819  0.00  0.00     0.000 A 
ENDROOT
TORSDOF 0
ENDMDL
