MODEL 1
REMARK minimizedAffinity -2.25588822
REMARK minimizedRMSD -1
REMARK  0 active torsions:
REMARK  status: ('A' for Active; 'I' for Inactive)
ROOT
ATOM      1  C1  BNZ d   1      -1.045  -1.507   1.237  0.00  0.00     0.000 A 
ATOM      2  C2  BNZ d   1      -1.000  -0.247   0.703  0.00  0.00     0.000 A 
ATOM      3  C3  BNZ d   1       0.002   0.116  -0.152  0.00  0.00     0.000 A 
ATOM      4  C4  BNZ d   1       0.980  -0.767  -0.440  0.00  0.00     0.000 A 
ATOM      5  C5  BNZ d   1       0.954  -2.038   0.097  0.00  0.00     0.000 A 
ATOM      6  C6  BNZ d   1      -0.078  -2.413   0.927  0.00  0.00     0.000 A 
ENDROOT
TORSDOF 0
ENDMDL
