MODEL 1
REMARK minimizedAffinity -3.94077754
REMARK minimizedRMSD -1
REMARK  0 active torsions:
REMARK  status: ('A' for Active; 'I' for Inactive)
ROOT
ATOM      1  C1  BNZ d   1       1.041  -1.162   0.284  0.00  0.00     0.000 A 
ATOM      2  C2  BNZ d   1       0.437  -0.052  -0.245  0.00  0.00     0.000 A 
ATOM      3  C3  BNZ d   1      -0.924   0.070  -0.245  0.00  0.00     0.000 A 
ATOM      4  C4  BNZ d   1      -1.680  -0.933   0.245  0.00  0.00     0.000 A 
ATOM      5  C5  BNZ d   1      -1.087  -2.062   0.773  0.00  0.00     0.000 A 
ATOM      6  C6  BNZ d   1       0.285  -2.165   0.807  0.00  0.00     0.000 A 
ENDROOT
TORSDOF 0
ENDMDL
