MODEL 1
REMARK minimizedAffinity -4.81332302
REMARK minimizedRMSD -1
REMARK  0 active torsions:
REMARK  status: ('A' for Active; 'I' for Inactive)
ROOT
ATOM      1  C1  BNZ d   1      -0.681   0.341   0.015  0.00  0.00     0.000 A 
ATOM      2  C2  BNZ d   1      -1.741  -0.502   0.219  0.00  0.00     0.000 A 
ATOM      3  C3  BNZ d   1      -1.541  -1.832   0.464  0.00  0.00     0.000 A 
ATOM      4  C4  BNZ d   1      -0.286  -2.324   0.465  0.00  0.00     0.000 A 
ATOM      5  C5  BNZ d   1       0.793  -1.489   0.251  0.00  0.00     0.000 A 
ATOM      6  C6  BNZ d   1       0.590  -0.144   0.044  0.00  0.00     0.000 A 
ENDROOT
TORSDOF 0
ENDMDL
