MODEL 1
REMARK minimizedAffinity -5.09584951
REMARK minimizedRMSD -1
REMARK  0 active torsions:
REMARK  status: ('A' for Active; 'I' for Inactive)
ROOT
ATOM      1  C1  BNZ d   1      -0.038  -2.113   0.777  0.00  0.00     0.000 A 
ATOM      2  C2  BNZ d   1       0.992  -1.254   0.495  0.00  0.00     0.000 A 
ATOM      3  C3  BNZ d   1       0.759   0.078   0.302  0.00  0.00     0.000 A 
ATOM      4  C4  BNZ d   1      -0.506   0.544   0.349  0.00  0.00     0.000 A 
ATOM      5  C5  BNZ d   1      -1.556  -0.310   0.622  0.00  0.00     0.000 A 
ATOM      6  C6  BNZ d   1      -1.313  -1.644   0.855  0.00  0.00     0.000 A 
ENDROOT
TORSDOF 0
ENDMDL
