MODEL 1
REMARK minimizedAffinity -5.23071957
REMARK minimizedRMSD -1
REMARK  0 active torsions:
REMARK  status: ('A' for Active; 'I' for Inactive)
ROOT
ATOM      1  C1  BNZ d   1       0.160  -1.211   0.508  0.00  0.00     0.000 A 
ATOM      2  C2  BNZ d   1      -0.700  -2.032   1.187  0.00  0.00     0.000 A 
ATOM      3  C3  BNZ d   1      -1.875  -1.551   1.693  0.00  0.00     0.000 A 
ATOM      4  C4  BNZ d   1      -2.170  -0.242   1.554  0.00  0.00     0.000 A 
ATOM      5  C5  BNZ d   1      -1.309   0.601   0.880  0.00  0.00     0.000 A 
ATOM      6  C6  BNZ d   1      -0.145   0.104   0.338  0.00  0.00     0.000 A 
ENDROOT
TORSDOF 0
ENDMDL
