MODEL 1
REMARK minimizedAffinity -4.27287912
REMARK minimizedRMSD -1
REMARK  0 active torsions:
REMARK  status: ('A' for Active; 'I' for Inactive)
ROOT
ATOM      1  C1  BNZ d   1      -2.346  -1.227  -0.128  0.00  0.00     0.000 A 
ATOM      2  C2  BNZ d   1      -1.995  -2.236   0.729  0.00  0.00     0.000 A 
ATOM      3  C3  BNZ d   1      -0.788  -2.222   1.370  0.00  0.00     0.000 A 
ATOM      4  C4  BNZ d   1       0.082  -1.222   1.123  0.00  0.00     0.000 A 
ATOM      5  C5  BNZ d   1      -0.253  -0.202   0.254  0.00  0.00     0.000 A 
ATOM      6  C6  BNZ d   1      -1.484  -0.200  -0.360  0.00  0.00     0.000 A 
ENDROOT
TORSDOF 0
ENDMDL
