MODEL 1
REMARK minimizedAffinity -4.45774078
REMARK minimizedRMSD -1
REMARK  0 active torsions:
REMARK  status: ('A' for Active; 'I' for Inactive)
ROOT
ATOM      1  C1  BNZ d   1      -1.739  -1.084  -0.084  0.00  0.00     0.000 A 
ATOM      2  C2  BNZ d   1      -2.158  -2.162   0.649  0.00  0.00     0.000 A 
ATOM      3  C3  BNZ d   1      -1.295  -2.825   1.476  0.00  0.00     0.000 A 
ATOM      4  C4  BNZ d   1      -0.005  -2.434   1.538  0.00  0.00     0.000 A 
ATOM      5  C5  BNZ d   1       0.434  -1.355   0.798  0.00  0.00     0.000 A 
ATOM      6  C6  BNZ d   1      -0.447  -0.666  -0.003  0.00  0.00     0.000 A 
ENDROOT
TORSDOF 0
ENDMDL
