MODEL 1
REMARK minimizedAffinity -3.76210332
REMARK minimizedRMSD -1
REMARK  0 active torsions:
REMARK  status: ('A' for Active; 'I' for Inactive)
ROOT
ATOM      1  C1  BNZ d   1      -4.356  -3.514  -3.713  0.00  0.00     0.000 A 
ATOM      2  C2  BNZ d   1      -5.463  -2.784  -3.373  0.00  0.00     0.000 A 
ATOM      3  C3  BNZ d   1      -5.990  -1.867  -4.240  0.00  0.00     0.000 A 
ATOM      4  C4  BNZ d   1      -5.387  -1.654  -5.427  0.00  0.00     0.000 A 
ATOM      5  C5  BNZ d   1      -4.264  -2.376  -5.780  0.00  0.00     0.000 A 
ATOM      6  C6  BNZ d   1      -3.760  -3.326  -4.921  0.00  0.00     0.000 A 
ENDROOT
TORSDOF 0
ENDMDL
