MODEL 1
REMARK minimizedAffinity 6.86729956
REMARK minimizedRMSD -1
REMARK  0 active torsions:
REMARK  status: ('A' for Active; 'I' for Inactive)
ROOT
ATOM      1  C   UNL d   1       5.256  -5.256  -1.122  0.00  0.00     0.077 C 
ATOM      2  C1  UNL d   1       5.523  -4.793  -2.524  0.00  0.00    -0.074 A 
ATOM      3  C2  UNL d   1       5.761  -5.712  -3.551  0.00  0.00    -0.005 A 
ATOM      4  C3  UNL d   1       5.998  -5.267  -4.851  0.00  0.00     0.006 A 
ATOM      5  C4  UNL d   1       5.999  -3.901  -5.137  0.00  0.00    -0.005 A 
ATOM      6  C5  UNL d   1       5.762  -2.968  -4.123  0.00  0.00    -0.074 A 
ATOM      7  C6  UNL d   1       5.750  -1.497  -4.416  0.00  0.00     0.077 C 
ATOM      8  C7  UNL d   1       5.518  -3.423  -2.821  0.00  0.00    -0.001 A 
ENDROOT
TORSDOF 0
ENDMDL
