MODEL 1
REMARK minimizedAffinity -0.982234895
REMARK minimizedRMSD -1
REMARK  0 active torsions:
REMARK  status: ('A' for Active; 'I' for Inactive)
ROOT
ATOM      1  C   UNL d   1       1.789   2.985   3.072  0.00  0.00     0.077 C 
ATOM      2  C1  UNL d   1       1.313   3.199   1.667  0.00  0.00    -0.074 A 
ATOM      3  C2  UNL d   1       1.502   4.426   1.022  0.00  0.00    -0.005 A 
ATOM      4  C3  UNL d   1       1.062   4.608  -0.289  0.00  0.00     0.006 A 
ATOM      5  C4  UNL d   1       0.429   3.566  -0.967  0.00  0.00    -0.005 A 
ATOM      6  C5  UNL d   1       0.231   2.332  -0.340  0.00  0.00    -0.074 A 
ATOM      7  C6  UNL d   1      -0.439   1.199  -1.058  0.00  0.00     0.077 C 
ATOM      8  C7  UNL d   1       0.683   2.155   0.975  0.00  0.00    -0.001 A 
ENDROOT
TORSDOF 0
ENDMDL
