MODEL 1
REMARK minimizedAffinity 5.09027672
REMARK minimizedRMSD -1
REMARK  0 active torsions:
REMARK  status: ('A' for Active; 'I' for Inactive)
ROOT
ATOM      1  C   UNL d   1      -2.738   1.559  -1.194  0.00  0.00     0.077 C 
ATOM      2  C1  UNL d   1      -1.489   2.384  -1.282  0.00  0.00    -0.074 A 
ATOM      3  C2  UNL d   1      -0.231   1.807  -1.079  0.00  0.00    -0.005 A 
ATOM      4  C3  UNL d   1       0.923   2.584  -1.174  0.00  0.00     0.006 A 
ATOM      5  C4  UNL d   1       0.832   3.944  -1.471  0.00  0.00    -0.005 A 
ATOM      6  C5  UNL d   1      -0.417   4.539  -1.678  0.00  0.00    -0.074 A 
ATOM      7  C6  UNL d   1      -0.533   5.997  -2.008  0.00  0.00     0.077 C 
ATOM      8  C7  UNL d   1      -1.572   3.749  -1.588  0.00  0.00    -0.001 A 
ENDROOT
TORSDOF 0
ENDMDL
