MODEL 1
REMARK minimizedAffinity 7.67497969
REMARK minimizedRMSD -1
REMARK  0 active torsions:
REMARK  status: ('A' for Active; 'I' for Inactive)
ROOT
ATOM      1  C   UNL d   1       5.963  -1.097  -1.806  0.00  0.00     0.077 C 
ATOM      2  C1  UNL d   1       5.326  -2.206  -2.590  0.00  0.00    -0.074 A 
ATOM      3  C2  UNL d   1       4.155  -1.988  -3.322  0.00  0.00    -0.005 A 
ATOM      4  C3  UNL d   1       3.580  -3.027  -4.054  0.00  0.00     0.006 A 
ATOM      5  C4  UNL d   1       4.168  -4.292  -4.060  0.00  0.00    -0.005 A 
ATOM      6  C5  UNL d   1       5.340  -4.529  -3.334  0.00  0.00    -0.074 A 
ATOM      7  C6  UNL d   1       5.991  -5.880  -3.338  0.00  0.00     0.077 C 
ATOM      8  C7  UNL d   1       5.916  -3.478  -2.607  0.00  0.00    -0.001 A 
ENDROOT
TORSDOF 0
ENDMDL
