MODEL 1
REMARK minimizedAffinity 1.4667896
REMARK minimizedRMSD -1
REMARK  0 active torsions:
REMARK  status: ('A' for Active; 'I' for Inactive)
ROOT
ATOM      1  C   UNL d   1       2.829   5.077  -0.323  0.00  0.00     0.077 C 
ATOM      2  C1  UNL d   1       1.756   4.039  -0.462  0.00  0.00    -0.074 A 
ATOM      3  C2  UNL d   1       1.043   3.898  -1.657  0.00  0.00    -0.005 A 
ATOM      4  C3  UNL d   1       0.054   2.921  -1.775  0.00  0.00     0.006 A 
ATOM      5  C4  UNL d   1      -0.231   2.077  -0.701  0.00  0.00    -0.005 A 
ATOM      6  C5  UNL d   1       0.472   2.202   0.501  0.00  0.00    -0.074 A 
ATOM      7  C6  UNL d   1       0.185   1.296   1.661  0.00  0.00     0.077 C 
ATOM      8  C7  UNL d   1       1.469   3.181   0.609  0.00  0.00    -0.001 A 
ENDROOT
TORSDOF 0
ENDMDL
