MODEL 1
REMARK minimizedAffinity -0.681512713
REMARK minimizedRMSD -1
REMARK  0 active torsions:
REMARK  status: ('A' for Active; 'I' for Inactive)
ROOT
ATOM      1  C   UNL d   1      -0.273   3.467  -1.162  0.00  0.00     0.077 C 
ATOM      2  C1  UNL d   1      -1.402   2.507  -1.394  0.00  0.00    -0.074 A 
ATOM      3  C2  UNL d   1      -1.426   1.260  -0.761  0.00  0.00    -0.005 A 
ATOM      4  C3  UNL d   1      -2.488   0.381  -0.979  0.00  0.00     0.006 A 
ATOM      5  C4  UNL d   1      -3.533   0.740  -1.831  0.00  0.00    -0.005 A 
ATOM      6  C5  UNL d   1      -3.526   1.983  -2.472  0.00  0.00    -0.074 A 
ATOM      7  C6  UNL d   1      -4.647   2.388  -3.382  0.00  0.00     0.077 C 
ATOM      8  C7  UNL d   1      -2.460   2.863  -2.242  0.00  0.00    -0.001 A 
ENDROOT
TORSDOF 0
ENDMDL
