MODEL 1
REMARK minimizedAffinity 2.54827499
REMARK minimizedRMSD -1
REMARK  0 active torsions:
REMARK  status: ('A' for Active; 'I' for Inactive)
ROOT
ATOM      1  C   UNL d   1       0.765   5.275  -1.777  0.00  0.00     0.077 C 
ATOM      2  C1  UNL d   1       0.495   4.059  -0.942  0.00  0.00    -0.074 A 
ATOM      3  C2  UNL d   1      -0.366   3.053  -1.394  0.00  0.00    -0.005 A 
ATOM      4  C3  UNL d   1      -0.601   1.924  -0.611  0.00  0.00     0.006 A 
ATOM      5  C4  UNL d   1       0.021   1.788   0.631  0.00  0.00    -0.005 A 
ATOM      6  C5  UNL d   1       0.885   2.783   1.100  0.00  0.00    -0.074 A 
ATOM      7  C6  UNL d   1       1.569   2.648   2.428  0.00  0.00     0.077 C 
ATOM      8  C7  UNL d   1       1.122   3.912   0.303  0.00  0.00    -0.001 A 
ENDROOT
TORSDOF 0
ENDMDL
