MODEL 1
REMARK minimizedAffinity 5.13162279
REMARK minimizedRMSD -1
REMARK  0 active torsions:
REMARK  status: ('A' for Active; 'I' for Inactive)
ROOT
ATOM      1  C   UNL d   1       0.902  -4.870  -0.705  0.00  0.00     0.077 C 
ATOM      2  C1  UNL d   1       2.258  -4.386  -1.124  0.00  0.00    -0.074 A 
ATOM      3  C2  UNL d   1       2.839  -3.265  -0.523  0.00  0.00    -0.005 A 
ATOM      4  C3  UNL d   1       4.105  -2.831  -0.917  0.00  0.00     0.006 A 
ATOM      5  C4  UNL d   1       4.802  -3.514  -1.914  0.00  0.00    -0.005 A 
ATOM      6  C5  UNL d   1       4.238  -4.638  -2.526  0.00  0.00    -0.074 A 
ATOM      7  C6  UNL d   1       4.979  -5.389  -3.593  0.00  0.00     0.077 C 
ATOM      8  C7  UNL d   1       2.969  -5.071  -2.120  0.00  0.00    -0.001 A 
ENDROOT
TORSDOF 0
ENDMDL
