MODEL 1
REMARK minimizedAffinity 1.95932698
REMARK minimizedRMSD -1
REMARK  1 active torsions:
REMARK  status: ('A' for Active; 'I' for Inactive)
REMARK    1  A    between atoms: C1_2  and  C2_3 
ROOT
ATOM      1  C2  UNL d   1      -1.940  -1.209  -1.819  0.00  0.00    -0.073 A 
ATOM      2  C3  UNL d   1      -1.005  -1.509  -2.816  0.00  0.00    -0.002 A 
ATOM      3  C4  UNL d   1       0.275  -1.946  -2.474  0.00  0.00     0.004 A 
ATOM      4  C5  UNL d   1       0.631  -2.094  -1.133  0.00  0.00    -0.004 A 
ATOM      5  C6  UNL d   1      -0.293  -1.811  -0.122  0.00  0.00    -0.075 A 
ATOM      6  C7  UNL d   1       0.075  -1.964   1.324  0.00  0.00     0.076 C 
ATOM      7  C8  UNL d   1      -1.576  -1.370  -0.474  0.00  0.00     0.001 A 
ENDROOT
BRANCH   1   8
ATOM      8  C1  UNL d   1      -3.326  -0.743  -2.184  0.00  0.00     0.053 C 
ATOM      9  C   UNL d   1      -3.332   0.695  -2.678  0.00  0.00     0.018 C 
ENDBRANCH   1   8
TORSDOF 1
ENDMDL
