MODEL 1
REMARK minimizedAffinity 1.88105381
REMARK minimizedRMSD -1
REMARK  1 active torsions:
REMARK  status: ('A' for Active; 'I' for Inactive)
REMARK    1  A    between atoms: C1_2  and  C2_3 
ROOT
ATOM      1  C2  UNL d   1       0.490  -2.166  -1.621  0.00  0.00    -0.073 A 
ATOM      2  C3  UNL d   1       0.577  -2.459  -0.255  0.00  0.00    -0.002 A 
ATOM      3  C4  UNL d   1      -0.580  -2.578   0.515  0.00  0.00     0.004 A 
ATOM      4  C5  UNL d   1      -1.835  -2.412  -0.072  0.00  0.00    -0.004 A 
ATOM      5  C6  UNL d   1      -1.943  -2.130  -1.438  0.00  0.00    -0.075 A 
ATOM      6  C7  UNL d   1      -3.284  -1.946  -2.084  0.00  0.00     0.076 C 
ATOM      7  C8  UNL d   1      -0.776  -2.009  -2.204  0.00  0.00     0.001 A 
ENDROOT
BRANCH   1   8
ATOM      8  C1  UNL d   1       1.737  -2.043  -2.458  0.00  0.00     0.053 C 
ATOM      9  C   UNL d   1       2.252  -0.613  -2.507  0.00  0.00     0.018 C 
ENDBRANCH   1   8
TORSDOF 1
ENDMDL
