MODEL 1
REMARK minimizedAffinity 11.1762514
REMARK minimizedRMSD -1
REMARK  1 active torsions:
REMARK  status: ('A' for Active; 'I' for Inactive)
REMARK    1  A    between atoms: C1_2  and  C2_3 
ROOT
ATOM      1  C2  UNL d   1       2.032   0.633   1.802  0.00  0.00    -0.073 A 
ATOM      2  C3  UNL d   1       2.627  -0.283   2.677  0.00  0.00    -0.002 A 
ATOM      3  C4  UNL d   1       2.031  -1.523   2.912  0.00  0.00     0.004 A 
ATOM      4  C5  UNL d   1       0.839  -1.862   2.272  0.00  0.00    -0.004 A 
ATOM      5  C6  UNL d   1       0.235  -0.964   1.385  0.00  0.00    -0.075 A 
ATOM      6  C7  UNL d   1      -1.048  -1.312   0.690  0.00  0.00     0.076 C 
ATOM      7  C8  UNL d   1       0.838   0.280   1.156  0.00  0.00     0.001 A 
ENDROOT
BRANCH   1   8
ATOM      8  C1  UNL d   1       2.675   1.970   1.540  0.00  0.00     0.053 C 
ATOM      9  C   UNL d   1       2.642   2.339   0.066  0.00  0.00     0.018 C 
ENDBRANCH   1   8
TORSDOF 1
ENDMDL
