MODEL 1
REMARK minimizedAffinity 9.53183174
REMARK minimizedRMSD -1
REMARK  1 active torsions:
REMARK  status: ('A' for Active; 'I' for Inactive)
REMARK    1  A    between atoms: C1_2  and  C2_3 
ROOT
ATOM      1  C2  UNL d   1       1.163  -1.821   2.059  0.00  0.00    -0.073 A 
ATOM      2  C3  UNL d   1       0.867  -1.168   0.857  0.00  0.00    -0.002 A 
ATOM      3  C4  UNL d   1       1.392   0.098   0.595  0.00  0.00     0.004 A 
ATOM      4  C5  UNL d   1       2.222   0.720   1.526  0.00  0.00    -0.004 A 
ATOM      5  C6  UNL d   1       2.539   0.079   2.728  0.00  0.00    -0.075 A 
ATOM      6  C7  UNL d   1       3.430   0.736   3.742  0.00  0.00     0.076 C 
ATOM      7  C8  UNL d   1       2.006  -1.191   2.985  0.00  0.00     0.001 A 
ENDROOT
BRANCH   1   8
ATOM      8  C1  UNL d   1       0.604  -3.191   2.344  0.00  0.00     0.053 C 
ATOM      9  C   UNL d   1       1.563  -4.039   3.165  0.00  0.00     0.018 C 
ENDBRANCH   1   8
TORSDOF 1
ENDMDL
