MODEL 1
REMARK minimizedAffinity -0.00688471785
REMARK minimizedRMSD -1
REMARK  1 active torsions:
REMARK  status: ('A' for Active; 'I' for Inactive)
REMARK    1  A    between atoms: C1_2  and  C2_3 
ROOT
ATOM      1  C2  UNL d   1       3.369   5.771  -2.541  0.00  0.00    -0.073 A 
ATOM      2  C3  UNL d   1       4.440   5.863  -1.645  0.00  0.00    -0.002 A 
ATOM      3  C4  UNL d   1       5.749   5.959  -2.120  0.00  0.00     0.004 A 
ATOM      4  C5  UNL d   1       5.999   5.972  -3.492  0.00  0.00    -0.004 A 
ATOM      5  C6  UNL d   1       4.941   5.893  -4.403  0.00  0.00    -0.075 A 
ATOM      6  C7  UNL d   1       5.194   5.903  -5.882  0.00  0.00     0.076 C 
ATOM      7  C8  UNL d   1       3.630   5.793  -3.919  0.00  0.00     0.001 A 
ENDROOT
BRANCH   1   8
ATOM      8  C1  UNL d   1       1.953   5.673  -2.034  0.00  0.00     0.053 C 
ATOM      9  C   UNL d   1       1.711   4.383  -1.265  0.00  0.00     0.018 C 
ENDBRANCH   1   8
TORSDOF 1
ENDMDL
