MODEL 1
REMARK minimizedAffinity 7.79258156
REMARK minimizedRMSD -1
REMARK  1 active torsions:
REMARK  status: ('A' for Active; 'I' for Inactive)
REMARK    1  A    between atoms: C1_2  and  C2_3 
ROOT
ATOM      1  C2  UNL d   1       0.648   0.893   0.851  0.00  0.00    -0.073 A 
ATOM      2  C3  UNL d   1       1.779   0.398   1.510  0.00  0.00    -0.002 A 
ATOM      3  C4  UNL d   1       3.037   0.947   1.257  0.00  0.00     0.004 A 
ATOM      4  C5  UNL d   1       3.176   1.997   0.351  0.00  0.00    -0.004 A 
ATOM      5  C6  UNL d   1       2.056   2.513  -0.308  0.00  0.00    -0.075 A 
ATOM      6  C7  UNL d   1       2.188   3.642  -1.288  0.00  0.00     0.076 C 
ATOM      7  C8  UNL d   1       0.796   1.955  -0.052  0.00  0.00     0.001 A 
ENDROOT
BRANCH   1   8
ATOM      8  C1  UNL d   1      -0.714   0.308   1.125  0.00  0.00     0.053 C 
ATOM      9  C   UNL d   1      -0.788  -1.164   0.751  0.00  0.00     0.018 C 
ENDBRANCH   1   8
TORSDOF 1
ENDMDL
