MODEL 1
REMARK minimizedAffinity 0.3501378
REMARK minimizedRMSD -1
REMARK  0 active torsions:
REMARK  status: ('A' for Active; 'I' for Inactive)
ROOT
ATOM      1  C   UNL d   1       0.215   1.550   0.486  0.00  0.00    -0.002 A 
ATOM      2  C1  UNL d   1      -0.056   0.293   1.006  0.00  0.00     0.010 A 
ATOM      3  C2  UNL d   1      -1.367  -0.086   1.302  0.00  0.00     0.041 A 
ATOM      4  C3  UNL d   1      -2.411   0.829   1.061  0.00  0.00    -0.075 A 
ATOM      5  S   UNL d   1      -4.094   0.583   1.346  0.00  0.00     0.015 SA
ATOM      6  C4  UNL d   1      -4.493   2.142   0.782  0.00  0.00     0.022 A 
ATOM      7  C5  UNL d   1      -3.381   2.846   0.383  0.00  0.00     0.026 A 
ATOM      8  C6  UNL d   1      -2.163   2.100   0.537  0.00  0.00    -0.082 A 
ATOM      9  C7  UNL d   1      -0.823   2.455   0.248  0.00  0.00     0.045 A 
ENDROOT
TORSDOF 0
ENDMDL
