MODEL 1
REMARK minimizedAffinity 5.34644318
REMARK minimizedRMSD -1
REMARK  0 active torsions:
REMARK  status: ('A' for Active; 'I' for Inactive)
ROOT
ATOM      1  C   UNL d   1       0.213   1.407   1.569  0.00  0.00    -0.002 A 
ATOM      2  C1  UNL d   1       0.688   1.688   0.296  0.00  0.00     0.010 A 
ATOM      3  C2  UNL d   1      -0.195   2.026  -0.732  0.00  0.00     0.041 A 
ATOM      4  C3  UNL d   1      -1.575   2.079  -0.456  0.00  0.00    -0.075 A 
ATOM      5  S   UNL d   1      -2.842   2.471  -1.558  0.00  0.00     0.015 SA
ATOM      6  C4  UNL d   1      -4.042   2.276  -0.364  0.00  0.00     0.022 A 
ATOM      7  C5  UNL d   1      -3.508   1.919   0.852  0.00  0.00     0.026 A 
ATOM      8  C6  UNL d   1      -2.077   1.801   0.819  0.00  0.00    -0.082 A 
ATOM      9  C7  UNL d   1      -1.157   1.460   1.840  0.00  0.00     0.045 A 
ENDROOT
TORSDOF 0
ENDMDL
