MODEL 1
REMARK minimizedAffinity 1.79315138
REMARK minimizedRMSD -1
REMARK  0 active torsions:
REMARK  status: ('A' for Active; 'I' for Inactive)
ROOT
ATOM      1  C   UNL d   1       0.565   1.526   0.980  0.00  0.00    -0.002 A 
ATOM      2  C1  UNL d   1      -0.045   2.767   0.860  0.00  0.00     0.010 A 
ATOM      3  C2  UNL d   1      -1.426   2.866   0.682  0.00  0.00     0.041 A 
ATOM      4  C3  UNL d   1      -2.193   1.685   0.629  0.00  0.00    -0.075 A 
ATOM      5  S   UNL d   1      -3.899   1.562   0.419  0.00  0.00     0.015 SA
ATOM      6  C4  UNL d   1      -3.860  -0.140   0.485  0.00  0.00     0.022 A 
ATOM      7  C5  UNL d   1      -2.584  -0.620   0.662  0.00  0.00     0.026 A 
ATOM      8  C6  UNL d   1      -1.602   0.424   0.748  0.00  0.00    -0.082 A 
ATOM      9  C7  UNL d   1      -0.199   0.357   0.927  0.00  0.00     0.045 A 
ENDROOT
TORSDOF 0
ENDMDL
