MODEL 1
REMARK minimizedAffinity 2.07674193
REMARK minimizedRMSD -1
REMARK  0 active torsions:
REMARK  status: ('A' for Active; 'I' for Inactive)
ROOT
ATOM      1  C   UNL d   1      -1.023   1.990   0.090  0.00  0.00    -0.002 A 
ATOM      2  C1  UNL d   1      -0.943   0.761   0.728  0.00  0.00     0.010 A 
ATOM      3  C2  UNL d   1      -2.093   0.139   1.218  0.00  0.00     0.041 A 
ATOM      4  C3  UNL d   1      -3.337   0.779   1.052  0.00  0.00    -0.075 A 
ATOM      5  S   UNL d   1      -4.879   0.205   1.569  0.00  0.00     0.015 SA
ATOM      6  C4  UNL d   1      -5.679   1.578   0.954  0.00  0.00     0.022 A 
ATOM      7  C5  UNL d   1      -4.807   2.463   0.365  0.00  0.00     0.026 A 
ATOM      8  C6  UNL d   1      -3.443   2.017   0.411  0.00  0.00    -0.082 A 
ATOM      9  C7  UNL d   1      -2.259   2.622  -0.073  0.00  0.00     0.045 A 
ENDROOT
TORSDOF 0
ENDMDL
