MODEL 1
REMARK minimizedAffinity 8.00542927
REMARK minimizedRMSD -1
REMARK  0 active torsions:
REMARK  status: ('A' for Active; 'I' for Inactive)
ROOT
ATOM      1  C   UNL d   1       0.459   2.015   0.687  0.00  0.00    -0.002 A 
ATOM      2  C1  UNL d   1      -0.597   2.912   0.621  0.00  0.00     0.010 A 
ATOM      3  C2  UNL d   1      -1.889   2.515   0.969  0.00  0.00     0.041 A 
ATOM      4  C3  UNL d   1      -2.104   1.188   1.391  0.00  0.00    -0.075 A 
ATOM      5  S   UNL d   1      -3.602   0.479   1.867  0.00  0.00     0.015 SA
ATOM      6  C4  UNL d   1      -2.875  -1.033   2.169  0.00  0.00     0.022 A 
ATOM      7  C5  UNL d   1      -1.523  -1.014   1.918  0.00  0.00     0.026 A 
ATOM      8  C6  UNL d   1      -1.057   0.266   1.466  0.00  0.00    -0.082 A 
ATOM      9  C7  UNL d   1       0.242   0.699   1.105  0.00  0.00     0.045 A 
ENDROOT
TORSDOF 0
ENDMDL
