MODEL 1
REMARK minimizedAffinity 7.8600502
REMARK minimizedRMSD -1
REMARK  0 active torsions:
REMARK  status: ('A' for Active; 'I' for Inactive)
ROOT
ATOM      1  C   UNL d   1      -4.228   0.647   0.842  0.00  0.00    -0.002 A 
ATOM      2  C1  UNL d   1      -3.618  -0.260   1.696  0.00  0.00     0.010 A 
ATOM      3  C2  UNL d   1      -2.257  -0.153   1.991  0.00  0.00     0.041 A 
ATOM      4  C3  UNL d   1      -1.513   0.892   1.409  0.00  0.00    -0.075 A 
ATOM      5  S   UNL d   1       0.165   1.220   1.627  0.00  0.00     0.015 SA
ATOM      6  C4  UNL d   1       0.111   2.573   0.591  0.00  0.00     0.022 A 
ATOM      7  C5  UNL d   1      -1.149   2.783   0.083  0.00  0.00     0.026 A 
ATOM      8  C6  UNL d   1      -2.106   1.818   0.546  0.00  0.00    -0.082 A 
ATOM      9  C7  UNL d   1      -3.487   1.683   0.266  0.00  0.00     0.045 A 
ENDROOT
TORSDOF 0
ENDMDL
