MODEL 1
REMARK minimizedAffinity 5.487679
REMARK minimizedRMSD -1
REMARK  0 active torsions:
REMARK  status: ('A' for Active; 'I' for Inactive)
ROOT
ATOM      1  C   UNL d   1      -3.671   0.882   0.499  0.00  0.00    -0.002 A 
ATOM      2  C1  UNL d   1      -3.400   2.223   0.267  0.00  0.00     0.010 A 
ATOM      3  C2  UNL d   1      -2.111   2.730   0.448  0.00  0.00     0.041 A 
ATOM      4  C3  UNL d   1      -1.089   1.857   0.869  0.00  0.00    -0.075 A 
ATOM      5  S   UNL d   1       0.564   2.253   1.156  0.00  0.00     0.015 SA
ATOM      6  C4  UNL d   1       0.950   0.652   1.592  0.00  0.00     0.022 A 
ATOM      7  C5  UNL d   1      -0.144  -0.179   1.527  0.00  0.00     0.026 A 
ATOM      8  C6  UNL d   1      -1.337   0.502   1.108  0.00  0.00    -0.082 A 
ATOM      9  C7  UNL d   1      -2.654   0.019   0.916  0.00  0.00     0.045 A 
ENDROOT
TORSDOF 0
ENDMDL
