MODEL 1
REMARK minimizedAffinity 0.763732612
REMARK minimizedRMSD -1
REMARK  0 active torsions:
REMARK  status: ('A' for Active; 'I' for Inactive)
ROOT
ATOM      1  C   UNL d   1       0.362   1.035   0.303  0.00  0.00    -0.002 A 
ATOM      2  C1  UNL d   1      -0.021   0.029   1.179  0.00  0.00     0.010 A 
ATOM      3  C2  UNL d   1      -1.343  -0.067   1.616  0.00  0.00     0.041 A 
ATOM      4  C3  UNL d   1      -2.285   0.873   1.151  0.00  0.00    -0.075 A 
ATOM      5  S   UNL d   1      -3.960   0.950   1.550  0.00  0.00     0.015 SA
ATOM      6  C4  UNL d   1      -4.208   2.319   0.566  0.00  0.00     0.022 A 
ATOM      7  C5  UNL d   1      -3.051   2.722  -0.058  0.00  0.00     0.026 A 
ATOM      8  C6  UNL d   1      -1.924   1.894   0.268  0.00  0.00    -0.082 A 
ATOM      9  C7  UNL d   1      -0.575   1.966  -0.155  0.00  0.00     0.045 A 
ENDROOT
TORSDOF 0
ENDMDL
