MODEL 1
REMARK minimizedAffinity -0.518531919
REMARK minimizedRMSD -1
REMARK  0 active torsions:
REMARK  status: ('A' for Active; 'I' for Inactive)
ROOT
ATOM      1  C   UNL d   1      -0.187   0.381   1.541  0.00  0.00    -0.002 A 
ATOM      2  C1  UNL d   1       0.437   1.116   0.543  0.00  0.00     0.010 A 
ATOM      3  C2  UNL d   1      -0.314   1.898  -0.338  0.00  0.00     0.041 A 
ATOM      4  C3  UNL d   1      -1.715   1.931  -0.195  0.00  0.00    -0.075 A 
ATOM      5  S   UNL d   1      -2.837   2.819  -1.157  0.00  0.00     0.015 SA
ATOM      6  C4  UNL d   1      -4.171   2.244  -0.265  0.00  0.00     0.022 A 
ATOM      7  C5  UNL d   1      -3.787   1.394   0.746  0.00  0.00     0.026 A 
ATOM      8  C6  UNL d   1      -2.366   1.201   0.803  0.00  0.00    -0.082 A 
ATOM      9  C7  UNL d   1      -1.577   0.417   1.679  0.00  0.00     0.045 A 
ENDROOT
TORSDOF 0
ENDMDL
