MODEL 1
REMARK minimizedAffinity -0.699206114
REMARK minimizedRMSD -1
REMARK  0 active torsions:
REMARK  status: ('A' for Active; 'I' for Inactive)
ROOT
ATOM      1  C   UNL d   1       0.265   1.883  -0.517  0.00  0.00    -0.002 A 
ATOM      2  C1  UNL d   1       0.362   0.844   0.397  0.00  0.00     0.010 A 
ATOM      3  C2  UNL d   1      -0.782   0.326   1.008  0.00  0.00     0.041 A 
ATOM      4  C3  UNL d   1      -2.037   0.873   0.678  0.00  0.00    -0.075 A 
ATOM      5  S   UNL d   1      -3.574   0.397   1.300  0.00  0.00     0.015 SA
ATOM      6  C4  UNL d   1      -4.396   1.561   0.365  0.00  0.00     0.022 A 
ATOM      7  C5  UNL d   1      -3.534   2.304  -0.408  0.00  0.00     0.026 A 
ATOM      8  C6  UNL d   1      -2.161   1.919  -0.240  0.00  0.00    -0.082 A 
ATOM      9  C7  UNL d   1      -0.983   2.424  -0.841  0.00  0.00     0.045 A 
ENDROOT
TORSDOF 0
ENDMDL
