MODEL 1
REMARK minimizedAffinity 10.6248789
REMARK minimizedRMSD -1
REMARK  0 active torsions:
REMARK  status: ('A' for Active; 'I' for Inactive)
ROOT
ATOM      1  C   UNL d   1      -1.416   2.292   3.314  0.00  0.00    -0.002 A 
ATOM      2  C1  UNL d   1      -1.883   2.405   2.013  0.00  0.00     0.010 A 
ATOM      3  C2  UNL d   1      -1.032   2.175   0.930  0.00  0.00     0.041 A 
ATOM      4  C3  UNL d   1       0.309   1.824   1.180  0.00  0.00    -0.075 A 
ATOM      5  S   UNL d   1       1.533   1.495   0.012  0.00  0.00     0.015 SA
ATOM      6  C4  UNL d   1       2.705   1.196   1.213  0.00  0.00     0.022 A 
ATOM      7  C5  UNL d   1       2.192   1.340   2.480  0.00  0.00     0.026 A 
ATOM      8  C6  UNL d   1       0.803   1.703   2.483  0.00  0.00    -0.082 A 
ATOM      9  C7  UNL d   1      -0.085   1.944   3.559  0.00  0.00     0.045 A 
ENDROOT
TORSDOF 0
ENDMDL
