MODEL 1
REMARK minimizedAffinity 7.86924744
REMARK minimizedRMSD -1
REMARK  0 active torsions:
REMARK  status: ('A' for Active; 'I' for Inactive)
ROOT
ATOM      1  C1  BNZ d   1      -4.508   5.998   1.106  0.00  0.00     0.000 A 
ATOM      2  C2  BNZ d   1      -5.237   4.853   1.287  0.00  0.00     0.000 A 
ATOM      3  C3  BNZ d   1      -4.659   3.624   1.130  0.00  0.00     0.000 A 
ATOM      4  C4  BNZ d   1      -3.367   3.542   0.753  0.00  0.00     0.000 A 
ATOM      5  C5  BNZ d   1      -2.622   4.688   0.557  0.00  0.00     0.000 A 
ATOM      6  C6  BNZ d   1      -3.196   5.923   0.754  0.00  0.00     0.000 A 
ENDROOT
TORSDOF 0
ENDMDL
