MODEL 1
REMARK minimizedAffinity 10.9500551
REMARK minimizedRMSD -1
REMARK  0 active torsions:
REMARK  status: ('A' for Active; 'I' for Inactive)
ROOT
ATOM      1  C1  BNZ d   1      -2.020   4.824   0.591  0.00  0.00     0.000 A 
ATOM      2  C2  BNZ d   1      -2.708   6.000   0.735  0.00  0.00     0.000 A 
ATOM      3  C3  BNZ d   1      -4.026   6.000   1.096  0.00  0.00     0.000 A 
ATOM      4  C4  BNZ d   1      -4.665   4.825   1.272  0.00  0.00     0.000 A 
ATOM      5  C5  BNZ d   1      -3.988   3.632   1.121  0.00  0.00     0.000 A 
ATOM      6  C6  BNZ d   1      -2.651   3.636   0.797  0.00  0.00     0.000 A 
ENDROOT
TORSDOF 0
ENDMDL
