MODEL 1
REMARK minimizedAffinity 12.5258408
REMARK minimizedRMSD -1
REMARK  0 active torsions:
REMARK  status: ('A' for Active; 'I' for Inactive)
ROOT
ATOM      1  C1  BNZ d   1       5.993  -4.080   1.404  0.00  0.00     0.000 A 
ATOM      2  C2  BNZ d   1       6.000  -3.292   0.284  0.00  0.00     0.000 A 
ATOM      3  C3  BNZ d   1       5.980  -3.849  -0.964  0.00  0.00     0.000 A 
ATOM      4  C4  BNZ d   1       5.993  -5.191  -1.091  0.00  0.00     0.000 A 
ATOM      5  C5  BNZ d   1       5.995  -6.000   0.028  0.00  0.00     0.000 A 
ATOM      6  C6  BNZ d   1       5.976  -5.435   1.283  0.00  0.00     0.000 A 
ENDROOT
TORSDOF 0
ENDMDL
