MODEL 1
REMARK minimizedAffinity 5.12265968
REMARK minimizedRMSD -1
REMARK  0 active torsions:
REMARK  status: ('A' for Active; 'I' for Inactive)
ROOT
ATOM      1  C1  BNZ d   1      -2.404   3.901  -3.247  0.00  0.00     0.000 A 
ATOM      2  C2  BNZ d   1      -2.154   5.128  -3.800  0.00  0.00     0.000 A 
ATOM      3  C3  BNZ d   1      -1.831   5.248  -5.122  0.00  0.00     0.000 A 
ATOM      4  C4  BNZ d   1      -1.718   4.138  -5.880  0.00  0.00     0.000 A 
ATOM      5  C5  BNZ d   1      -1.957   2.892  -5.335  0.00  0.00     0.000 A 
ATOM      6  C6  BNZ d   1      -2.321   2.779  -4.013  0.00  0.00     0.000 A 
ENDROOT
TORSDOF 0
ENDMDL
