MODEL 1
REMARK minimizedAffinity -3.41008043
REMARK minimizedRMSD -1
REMARK  0 active torsions:
REMARK  status: ('A' for Active; 'I' for Inactive)
ROOT
ATOM      1  C1  BNZ d   1      -3.878   4.704  -5.627  0.00  0.00     0.000 A 
ATOM      2  C2  BNZ d   1      -2.889   5.539  -5.181  0.00  0.00     0.000 A 
ATOM      3  C3  BNZ d   1      -1.986   5.117  -4.245  0.00  0.00     0.000 A 
ATOM      4  C4  BNZ d   1      -2.097   3.877  -3.729  0.00  0.00     0.000 A 
ATOM      5  C5  BNZ d   1      -3.094   3.026  -4.162  0.00  0.00     0.000 A 
ATOM      6  C6  BNZ d   1      -3.978   3.440  -5.132  0.00  0.00     0.000 A 
ENDROOT
TORSDOF 0
ENDMDL
