MODEL 1
REMARK minimizedAffinity -0.544886768
REMARK minimizedRMSD -1
REMARK  0 active torsions:
REMARK  status: ('A' for Active; 'I' for Inactive)
ROOT
ATOM      1  C1  BNZ d   1      -3.365   5.671  -5.295  0.00  0.00     0.000 A 
ATOM      2  C2  BNZ d   1      -4.124   4.562  -5.560  0.00  0.00     0.000 A 
ATOM      3  C3  BNZ d   1      -3.823   3.355  -4.993  0.00  0.00     0.000 A 
ATOM      4  C4  BNZ d   1      -2.740   3.249  -4.196  0.00  0.00     0.000 A 
ATOM      5  C5  BNZ d   1      -1.959   4.355  -3.927  0.00  0.00     0.000 A 
ATOM      6  C6  BNZ d   1      -2.288   5.577  -4.468  0.00  0.00     0.000 A 
ENDROOT
TORSDOF 0
ENDMDL
