MODEL 1
REMARK minimizedAffinity -1.03242803
REMARK minimizedRMSD -1
REMARK  0 active torsions:
REMARK  status: ('A' for Active; 'I' for Inactive)
ROOT
ATOM      1  C1  BNZ d   1      -3.676   5.557  -5.990  0.00  0.00     0.000 A 
ATOM      2  C2  BNZ d   1      -4.003   4.228  -6.000  0.00  0.00     0.000 A 
ATOM      3  C3  BNZ d   1      -3.303   3.329  -5.245  0.00  0.00     0.000 A 
ATOM      4  C4  BNZ d   1      -2.253   3.753  -4.513  0.00  0.00     0.000 A 
ATOM      5  C5  BNZ d   1      -1.904   5.089  -4.500  0.00  0.00     0.000 A 
ATOM      6  C6  BNZ d   1      -2.635   5.997  -5.231  0.00  0.00     0.000 A 
ENDROOT
TORSDOF 0
ENDMDL
