MODEL 1
REMARK minimizedAffinity 11.4336205
REMARK minimizedRMSD -1
REMARK  0 active torsions:
REMARK  status: ('A' for Active; 'I' for Inactive)
ROOT
ATOM      1  C1  BNZ d   1      -2.231   6.000  -4.458  0.00  0.00     0.000 A 
ATOM      2  C2  BNZ d   1      -1.122   5.199  -4.395  0.00  0.00     0.000 A 
ATOM      3  C3  BNZ d   1      -1.110   4.080  -3.610  0.00  0.00     0.000 A 
ATOM      4  C4  BNZ d   1      -2.191   3.786  -2.859  0.00  0.00     0.000 A 
ATOM      5  C5  BNZ d   1      -3.314   4.589  -2.905  0.00  0.00     0.000 A 
ATOM      6  C6  BNZ d   1      -3.336   5.692  -3.726  0.00  0.00     0.000 A 
ENDROOT
TORSDOF 0
ENDMDL
