MODEL 1
REMARK minimizedAffinity -1.43130994
REMARK minimizedRMSD -1
REMARK  0 active torsions:
REMARK  status: ('A' for Active; 'I' for Inactive)
ROOT
ATOM      1  C1  BNZ d   1      -0.216   4.218   0.389  0.00  0.00     0.000 A 
ATOM      2  C2  BNZ d   1      -0.171   3.783  -0.909  0.00  0.00     0.000 A 
ATOM      3  C3  BNZ d   1      -0.304   2.456  -1.208  0.00  0.00     0.000 A 
ATOM      4  C4  BNZ d   1      -0.441   1.562  -0.208  0.00  0.00     0.000 A 
ATOM      5  C5  BNZ d   1      -0.479   1.983   1.106  0.00  0.00     0.000 A 
ATOM      6  C6  BNZ d   1      -0.384   3.324   1.401  0.00  0.00     0.000 A 
ENDROOT
TORSDOF 0
ENDMDL
