MODEL 1
REMARK minimizedAffinity 8.21357346
REMARK minimizedRMSD -1
REMARK  0 active torsions:
REMARK  status: ('A' for Active; 'I' for Inactive)
ROOT
ATOM      1  C1  BNZ d   1      -0.721   2.550   1.509  0.00  0.00     0.000 A 
ATOM      2  C2  BNZ d   1       0.573   2.864   1.825  0.00  0.00     0.000 A 
ATOM      3  C3  BNZ d   1       1.089   2.554   3.052  0.00  0.00     0.000 A 
ATOM      4  C4  BNZ d   1       0.299   1.966   3.974  0.00  0.00     0.000 A 
ATOM      5  C5  BNZ d   1      -1.011   1.651   3.673  0.00  0.00     0.000 A 
ATOM      6  C6  BNZ d   1      -1.515   1.930   2.424  0.00  0.00     0.000 A 
ENDROOT
TORSDOF 0
ENDMDL
