MODEL 1
REMARK minimizedAffinity 12.187808
REMARK minimizedRMSD -1
REMARK  0 active torsions:
REMARK  status: ('A' for Active; 'I' for Inactive)
ROOT
ATOM      1  C1  BNZ d   1      -4.854   5.999   1.372  0.00  0.00     0.000 A 
ATOM      2  C2  BNZ d   1      -5.989   5.998   0.607  0.00  0.00     0.000 A 
ATOM      3  C3  BNZ d   1      -5.965   5.536  -0.680  0.00  0.00     0.000 A 
ATOM      4  C4  BNZ d   1      -4.800   5.113  -1.211  0.00  0.00     0.000 A 
ATOM      5  C5  BNZ d   1      -3.645   5.117  -0.455  0.00  0.00     0.000 A 
ATOM      6  C6  BNZ d   1      -3.681   5.547   0.852  0.00  0.00     0.000 A 
ENDROOT
TORSDOF 0
ENDMDL
