MODEL 1
REMARK minimizedAffinity 0.978259683
REMARK minimizedRMSD -1
REMARK  0 active torsions:
REMARK  status: ('A' for Active; 'I' for Inactive)
ROOT
ATOM      1  C1  BNZ d   1      -5.953  -4.625   4.220  0.00  0.00     0.000 A 
ATOM      2  C2  BNZ d   1      -5.952  -3.516   3.415  0.00  0.00     0.000 A 
ATOM      3  C3  BNZ d   1      -5.990  -3.640   2.054  0.00  0.00     0.000 A 
ATOM      4  C4  BNZ d   1      -5.988  -4.869   1.500  0.00  0.00     0.000 A 
ATOM      5  C5  BNZ d   1      -5.979  -5.996   2.297  0.00  0.00     0.000 A 
ATOM      6  C6  BNZ d   1      -5.980  -5.868   3.667  0.00  0.00     0.000 A 
ENDROOT
TORSDOF 0
ENDMDL
