MODEL 1
REMARK minimizedAffinity 10.6465073
REMARK minimizedRMSD -1
REMARK  0 active torsions:
REMARK  status: ('A' for Active; 'I' for Inactive)
ROOT
ATOM      1  C1  BNZ d   1      -1.555   1.991  -1.460  0.00  0.00     0.000 A 
ATOM      2  C2  BNZ d   1      -1.461   1.933  -0.095  0.00  0.00     0.000 A 
ATOM      3  C3  BNZ d   1      -0.302   2.276   0.542  0.00  0.00     0.000 A 
ATOM      4  C4  BNZ d   1       0.774   2.638  -0.187  0.00  0.00     0.000 A 
ATOM      5  C5  BNZ d   1       0.698   2.693  -1.564  0.00  0.00     0.000 A 
ATOM      6  C6  BNZ d   1      -0.483   2.384  -2.200  0.00  0.00     0.000 A 
ENDROOT
TORSDOF 0
ENDMDL
