MODEL 1
REMARK minimizedAffinity 4.71499681
REMARK minimizedRMSD -1
REMARK  0 active torsions:
REMARK  status: ('A' for Active; 'I' for Inactive)
ROOT
ATOM      1  C1  BNZ d   1      -5.989  -2.175  -0.175  0.00  0.00     0.000 A 
ATOM      2  C2  BNZ d   1      -5.997  -1.647   1.089  0.00  0.00     0.000 A 
ATOM      3  C3  BNZ d   1      -5.980  -2.460   2.187  0.00  0.00     0.000 A 
ATOM      4  C4  BNZ d   1      -5.996  -3.798   2.021  0.00  0.00     0.000 A 
ATOM      5  C5  BNZ d   1      -5.998  -4.346   0.754  0.00  0.00     0.000 A 
ATOM      6  C6  BNZ d   1      -5.976  -3.524  -0.350  0.00  0.00     0.000 A 
ENDROOT
TORSDOF 0
ENDMDL
