MODEL 1
REMARK minimizedAffinity 11.145134
REMARK minimizedRMSD -1
REMARK  0 active torsions:
REMARK  status: ('A' for Active; 'I' for Inactive)
ROOT
ATOM      1  C1  BNZ d   1      -1.749   2.818   0.328  0.00  0.00     0.000 A 
ATOM      2  C2  BNZ d   1      -1.389   3.789  -0.568  0.00  0.00     0.000 A 
ATOM      3  C3  BNZ d   1      -0.140   3.801  -1.123  0.00  0.00     0.000 A 
ATOM      4  C4  BNZ d   1       0.759   2.867  -0.752  0.00  0.00     0.000 A 
ATOM      5  C5  BNZ d   1       0.415   1.887   0.158  0.00  0.00     0.000 A 
ATOM      6  C6  BNZ d   1      -0.856   1.855   0.685  0.00  0.00     0.000 A 
ENDROOT
TORSDOF 0
ENDMDL
