MODEL 1
REMARK minimizedAffinity 13.3344669
REMARK minimizedRMSD -1
REMARK  0 active torsions:
REMARK  status: ('A' for Active; 'I' for Inactive)
ROOT
ATOM      1  C1  DEN d   1       2.272   0.710  -2.644  0.00  0.00     0.130 A 
ATOM      2  C2  DEN d   1       2.079  -0.438  -3.525  0.00  0.00    -0.031 A 
ATOM      3  C3  DEN d   1       2.639  -0.098  -4.848  0.00  0.00     0.027 A 
ATOM      4  C4  DEN d   1       3.784   2.083  -5.614  0.00  0.00     0.027 A 
ATOM      5  C5  DEN d   1       4.167   3.347  -5.222  0.00  0.00    -0.003 A 
ATOM      6  C6  DEN d   1       3.917   3.829  -3.965  0.00  0.00     0.001 A 
ATOM      7  C7  DEN d   1       3.305   3.025  -3.039  0.00  0.00     0.017 A 
ATOM      8  C8  DEN d   1       2.909   1.753  -3.428  0.00  0.00    -0.094 A 
ATOM      9  C9  DEN d   1       3.182   1.279  -4.701  0.00  0.00    -0.072 A 
ENDROOT
TORSDOF 0
ENDMDL
