MODEL 1
REMARK minimizedAffinity 1.53240502
REMARK minimizedRMSD -1
REMARK  0 active torsions:
REMARK  status: ('A' for Active; 'I' for Inactive)
ROOT
ATOM      1  C1  DEN d   1       1.859  -5.852   4.783  0.00  0.00     0.130 A 
ATOM      2  C2  DEN d   1       1.516  -5.621   3.383  0.00  0.00    -0.031 A 
ATOM      3  C3  DEN d   1       2.774  -5.485   2.621  0.00  0.00     0.027 A 
ATOM      4  C4  DEN d   1       5.207  -5.613   3.469  0.00  0.00     0.027 A 
ATOM      5  C5  DEN d   1       6.000  -5.781   4.583  0.00  0.00    -0.003 A 
ATOM      6  C6  DEN d   1       5.473  -5.950   5.836  0.00  0.00     0.001 A 
ATOM      7  C7  DEN d   1       4.114  -5.999   6.000  0.00  0.00     0.017 A 
ATOM      8  C8  DEN d   1       3.308  -5.822   4.883  0.00  0.00    -0.094 A 
ATOM      9  C9  DEN d   1       3.859  -5.665   3.623  0.00  0.00    -0.072 A 
ENDROOT
TORSDOF 0
ENDMDL
