MODEL 1
REMARK minimizedAffinity 12.8217115
REMARK minimizedRMSD -1
REMARK  0 active torsions:
REMARK  status: ('A' for Active; 'I' for Inactive)
ROOT
ATOM      1  C1  DEN d   1       0.948  -0.519  -3.022  0.00  0.00     0.130 A 
ATOM      2  C2  DEN d   1       1.924  -1.092  -3.945  0.00  0.00    -0.031 A 
ATOM      3  C3  DEN d   1       2.994  -0.096  -4.154  0.00  0.00     0.027 A 
ATOM      4  C4  DEN d   1       3.237   2.263  -3.140  0.00  0.00     0.027 A 
ATOM      5  C5  DEN d   1       2.651   3.193  -2.310  0.00  0.00    -0.003 A 
ATOM      6  C6  DEN d   1       1.450   2.967  -1.691  0.00  0.00     0.001 A 
ATOM      7  C7  DEN d   1       0.818   1.764  -1.857  0.00  0.00     0.017 A 
ATOM      8  C8  DEN d   1       1.398   0.823  -2.698  0.00  0.00    -0.094 A 
ATOM      9  C9  DEN d   1       2.618   1.066  -3.305  0.00  0.00    -0.072 A 
ENDROOT
TORSDOF 0
ENDMDL
