MODEL 1
REMARK minimizedAffinity 8.32374859
REMARK minimizedRMSD -1
REMARK  0 active torsions:
REMARK  status: ('A' for Active; 'I' for Inactive)
ROOT
ATOM      1  C1  DEN d   1      -4.490  -2.312   0.412  0.00  0.00     0.130 A 
ATOM      2  C2  DEN d   1      -5.261  -1.450  -0.479  0.00  0.00    -0.031 A 
ATOM      3  C3  DEN d   1      -5.837  -2.293  -1.545  0.00  0.00     0.027 A 
ATOM      4  C4  DEN d   1      -5.616  -4.839  -1.897  0.00  0.00     0.027 A 
ATOM      5  C5  DEN d   1      -5.052  -5.995  -1.406  0.00  0.00    -0.003 A 
ATOM      6  C6  DEN d   1      -4.240  -6.000  -0.303  0.00  0.00     0.001 A 
ATOM      7  C7  DEN d   1      -4.005  -4.831   0.372  0.00  0.00     0.017 A 
ATOM      8  C8  DEN d   1      -4.565  -3.660  -0.121  0.00  0.00    -0.094 A 
ATOM      9  C9  DEN d   1      -5.393  -3.678  -1.231  0.00  0.00    -0.072 A 
ENDROOT
TORSDOF 0
ENDMDL
