MODEL 1
REMARK minimizedAffinity 15.7835331
REMARK minimizedRMSD -1
REMARK  0 active torsions:
REMARK  status: ('A' for Active; 'I' for Inactive)
ROOT
ATOM      1  C1  DEN d   1      -0.121   1.607   2.793  0.00  0.00     0.130 A 
ATOM      2  C2  DEN d   1       0.456   2.788   3.429  0.00  0.00    -0.031 A 
ATOM      3  C3  DEN d   1      -0.576   3.844   3.454  0.00  0.00     0.027 A 
ATOM      4  C4  DEN d   1      -3.000   3.764   2.577  0.00  0.00     0.027 A 
ATOM      5  C5  DEN d   1      -3.940   2.979   1.946  0.00  0.00    -0.003 A 
ATOM      6  C6  DEN d   1      -3.665   1.705   1.526  0.00  0.00     0.001 A 
ATOM      7  C7  DEN d   1      -2.432   1.160   1.772  0.00  0.00     0.017 A 
ATOM      8  C8  DEN d   1      -1.477   1.948   2.401  0.00  0.00    -0.094 A 
ATOM      9  C9  DEN d   1      -1.778   3.229   2.829  0.00  0.00    -0.072 A 
ENDROOT
TORSDOF 0
ENDMDL
