MODEL 1
REMARK minimizedAffinity 15.8286924
REMARK minimizedRMSD -1
REMARK  0 active torsions:
REMARK  status: ('A' for Active; 'I' for Inactive)
ROOT
ATOM      1  C1  DEN d   1       1.365   2.372  -2.662  0.00  0.00     0.130 A 
ATOM      2  C2  DEN d   1       1.867   2.445  -1.292  0.00  0.00    -0.031 A 
ATOM      3  C3  DEN d   1       3.119   3.227  -1.306  0.00  0.00     0.027 A 
ATOM      4  C4  DEN d   1       4.323   4.328  -3.304  0.00  0.00     0.027 A 
ATOM      5  C5  DEN d   1       4.284   4.528  -4.666  0.00  0.00    -0.003 A 
ATOM      6  C6  DEN d   1       3.297   3.999  -5.454  0.00  0.00     0.001 A 
ATOM      7  C7  DEN d   1       2.281   3.281  -4.879  0.00  0.00     0.017 A 
ATOM      8  C8  DEN d   1       2.317   3.069  -3.507  0.00  0.00    -0.094 A 
ATOM      9  C9  DEN d   1       3.318   3.623  -2.726  0.00  0.00    -0.072 A 
ENDROOT
TORSDOF 0
ENDMDL
