MODEL 1
REMARK minimizedAffinity 7.79075718
REMARK minimizedRMSD -1
REMARK  0 active torsions:
REMARK  status: ('A' for Active; 'I' for Inactive)
ROOT
ATOM      1  C1  DEN d   1       1.828   3.646  -1.103  0.00  0.00     0.130 A 
ATOM      2  C2  DEN d   1       1.574   2.208  -1.124  0.00  0.00    -0.031 A 
ATOM      3  C3  DEN d   1       2.194   1.653  -2.345  0.00  0.00     0.027 A 
ATOM      4  C4  DEN d   1       3.519   2.873  -4.191  0.00  0.00     0.027 A 
ATOM      5  C5  DEN d   1       3.984   4.098  -4.615  0.00  0.00    -0.003 A 
ATOM      6  C6  DEN d   1       3.737   5.253  -3.922  0.00  0.00     0.001 A 
ATOM      7  C7  DEN d   1       3.042   5.202  -2.743  0.00  0.00     0.017 A 
ATOM      8  C8  DEN d   1       2.563   3.972  -2.312  0.00  0.00    -0.094 A 
ATOM      9  C9  DEN d   1       2.834   2.813  -3.020  0.00  0.00    -0.072 A 
ENDROOT
TORSDOF 0
ENDMDL
