MODEL 1
REMARK minimizedAffinity 12.4615164
REMARK minimizedRMSD -1
REMARK  0 active torsions:
REMARK  status: ('A' for Active; 'I' for Inactive)
ROOT
ATOM      1  C1  DEN d   1       1.349   2.375  -1.852  0.00  0.00     0.130 A 
ATOM      2  C2  DEN d   1       0.674   2.139  -0.579  0.00  0.00    -0.031 A 
ATOM      3  C3  DEN d   1       0.268   0.720  -0.533  0.00  0.00     0.027 A 
ATOM      4  C4  DEN d   1       0.621  -1.126  -2.300  0.00  0.00     0.027 A 
ATOM      5  C5  DEN d   1       1.133  -1.401  -3.549  0.00  0.00    -0.003 A 
ATOM      6  C6  DEN d   1       1.717  -0.438  -4.327  0.00  0.00     0.001 A 
ATOM      7  C7  DEN d   1       1.845   0.838  -3.846  0.00  0.00     0.017 A 
ATOM      8  C8  DEN d   1       1.325   1.125  -2.591  0.00  0.00    -0.094 A 
ATOM      9  C9  DEN d   1       0.749   0.135  -1.814  0.00  0.00    -0.072 A 
ENDROOT
TORSDOF 0
ENDMDL
