MODEL 1
REMARK minimizedAffinity 16.2214088
REMARK minimizedRMSD -1
REMARK  0 active torsions:
REMARK  status: ('A' for Active; 'I' for Inactive)
ROOT
ATOM      1  C1  DEN d   1       5.718  -3.467   3.654  0.00  0.00     0.130 A 
ATOM      2  C2  DEN d   1       5.907  -4.151   4.931  0.00  0.00    -0.031 A 
ATOM      3  C3  DEN d   1       5.994  -3.126   5.990  0.00  0.00     0.027 A 
ATOM      4  C4  DEN d   1       5.851  -0.559   5.779  0.00  0.00     0.027 A 
ATOM      5  C5  DEN d   1       5.706   0.488   4.896  0.00  0.00    -0.003 A 
ATOM      6  C6  DEN d   1       5.590   0.294   3.545  0.00  0.00     0.001 A 
ATOM      7  C7  DEN d   1       5.572  -0.980   3.042  0.00  0.00     0.017 A 
ATOM      8  C8  DEN d   1       5.725  -2.041   3.925  0.00  0.00    -0.094 A 
ATOM      9  C9  DEN d   1       5.828  -1.824   5.288  0.00  0.00    -0.072 A 
ENDROOT
TORSDOF 0
ENDMDL
