MODEL 1
REMARK minimizedAffinity 14.4398794
REMARK minimizedRMSD -1
REMARK  0 active torsions:
REMARK  status: ('A' for Active; 'I' for Inactive)
ROOT
ATOM      1  C1  DEN d   1       0.294  -1.138  -3.033  0.00  0.00     0.130 A 
ATOM      2  C2  DEN d   1       1.389  -1.657  -3.848  0.00  0.00    -0.031 A 
ATOM      3  C3  DEN d   1       2.582  -0.825  -3.591  0.00  0.00     0.027 A 
ATOM      4  C4  DEN d   1       2.840   1.201  -2.017  0.00  0.00     0.027 A 
ATOM      5  C5  DEN d   1       2.183   2.021  -1.126  0.00  0.00    -0.003 A 
ATOM      6  C6  DEN d   1       0.853   1.868  -0.836  0.00  0.00     0.001 A 
ATOM      7  C7  DEN d   1       0.147   0.843  -1.409  0.00  0.00     0.017 A 
ATOM      8  C8  DEN d   1       0.801   0.017  -2.314  0.00  0.00    -0.094 A 
ATOM      9  C9  DEN d   1       2.149   0.180  -2.584  0.00  0.00    -0.072 A 
ENDROOT
TORSDOF 0
ENDMDL
