MODEL 1
REMARK minimizedAffinity 15.2672081
REMARK minimizedRMSD -1
REMARK  0 active torsions:
REMARK  status: ('A' for Active; 'I' for Inactive)
ROOT
ATOM      1  C1  DEN d   1      -4.959  -1.861  -1.239  0.00  0.00     0.130 A 
ATOM      2  C2  DEN d   1      -5.547  -1.665  -2.561  0.00  0.00    -0.031 A 
ATOM      3  C3  DEN d   1      -5.771  -2.994  -3.164  0.00  0.00     0.027 A 
ATOM      4  C4  DEN d   1      -5.272  -5.326  -2.181  0.00  0.00     0.027 A 
ATOM      5  C5  DEN d   1      -4.760  -6.000  -1.094  0.00  0.00    -0.003 A 
ATOM      6  C6  DEN d   1      -4.252  -5.346  -0.003  0.00  0.00     0.001 A 
ATOM      7  C7  DEN d   1      -4.286  -3.978   0.045  0.00  0.00     0.017 A 
ATOM      8  C8  DEN d   1      -4.793  -3.291  -1.050  0.00  0.00    -0.094 A 
ATOM      9  C9  DEN d   1      -5.313  -3.970  -2.139  0.00  0.00    -0.072 A 
ENDROOT
TORSDOF 0
ENDMDL
