MODEL 1
REMARK minimizedAffinity 4.40799761
REMARK minimizedRMSD -1
REMARK  0 active torsions:
REMARK  status: ('A' for Active; 'I' for Inactive)
ROOT
ATOM      1  C1  DEN d   1       0.038  -3.642  -4.644  0.00  0.00     0.130 A 
ATOM      2  C2  DEN d   1      -1.051  -3.731  -5.613  0.00  0.00    -0.031 A 
ATOM      3  C3  DEN d   1      -1.635  -2.383  -5.768  0.00  0.00     0.027 A 
ATOM      4  C4  DEN d   1      -0.960  -0.179  -4.611  0.00  0.00     0.027 A 
ATOM      5  C5  DEN d   1      -0.099   0.392  -3.699  0.00  0.00    -0.003 A 
ATOM      6  C6  DEN d   1       0.837  -0.341  -3.019  0.00  0.00     0.001 A 
ATOM      7  C7  DEN d   1       0.965  -1.681  -3.274  0.00  0.00     0.017 A 
ATOM      8  C8  DEN d   1       0.096  -2.266  -4.186  0.00  0.00    -0.094 A 
ATOM      9  C9  DEN d   1      -0.835  -1.505  -4.872  0.00  0.00    -0.072 A 
ENDROOT
TORSDOF 0
ENDMDL
