MODEL 1
REMARK minimizedAffinity 4.82748032
REMARK minimizedRMSD -1
REMARK  0 active torsions:
REMARK  status: ('A' for Active; 'I' for Inactive)
ROOT
ATOM      1  C1  DEN d   1       1.687  -1.128  -3.013  0.00  0.00     0.130 A 
ATOM      2  C2  DEN d   1       1.530   0.284  -2.679  0.00  0.00    -0.031 A 
ATOM      3  C3  DEN d   1       0.286   0.768  -3.312  0.00  0.00     0.027 A 
ATOM      4  C4  DEN d   1      -1.404  -0.529  -4.766  0.00  0.00     0.027 A 
ATOM      5  C5  DEN d   1      -1.691  -1.750  -5.335  0.00  0.00    -0.003 A 
ATOM      6  C6  DEN d   1      -0.862  -2.832  -5.198  0.00  0.00     0.001 A 
ATOM      7  C7  DEN d   1       0.273  -2.726  -4.439  0.00  0.00     0.017 A 
ATOM      8  C8  DEN d   1       0.573  -1.495  -3.869  0.00  0.00    -0.094 A 
ATOM      9  C9  DEN d   1      -0.284  -0.417  -4.008  0.00  0.00    -0.072 A 
ENDROOT
TORSDOF 0
ENDMDL
