MODEL 1
REMARK minimizedAffinity 17.1947346
REMARK minimizedRMSD -1
REMARK  0 active torsions:
REMARK  status: ('A' for Active; 'I' for Inactive)
ROOT
ATOM      1  C1  DEN d   1       4.682   2.777  -6.000  0.00  0.00     0.130 A 
ATOM      2  C2  DEN d   1       5.982   2.980  -5.366  0.00  0.00    -0.031 A 
ATOM      3  C3  DEN d   1       5.884   4.167  -4.492  0.00  0.00     0.027 A 
ATOM      4  C4  DEN d   1       3.854   5.697  -4.057  0.00  0.00     0.027 A 
ATOM      5  C5  DEN d   1       2.534   5.930  -4.377  0.00  0.00    -0.003 A 
ATOM      6  C6  DEN d   1       1.854   5.155  -5.279  0.00  0.00     0.001 A 
ATOM      7  C7  DEN d   1       2.478   4.082  -5.858  0.00  0.00     0.017 A 
ATOM      8  C8  DEN d   1       3.810   3.845  -5.546  0.00  0.00    -0.094 A 
ATOM      9  C9  DEN d   1       4.477   4.633  -4.623  0.00  0.00    -0.072 A 
ENDROOT
TORSDOF 0
ENDMDL
