MODEL 1
REMARK minimizedAffinity 18.3898182
REMARK minimizedRMSD -1
REMARK  0 active torsions:
REMARK  status: ('A' for Active; 'I' for Inactive)
ROOT
ATOM      1  C1  DEN d   1       1.195   0.488  -2.755  0.00  0.00     0.130 A 
ATOM      2  C2  DEN d   1       0.762  -0.707  -2.035  0.00  0.00    -0.031 A 
ATOM      3  C3  DEN d   1       1.216  -1.888  -2.797  0.00  0.00     0.027 A 
ATOM      4  C4  DEN d   1       2.545  -1.982  -5.005  0.00  0.00     0.027 A 
ATOM      5  C5  DEN d   1       3.128  -1.225  -5.997  0.00  0.00    -0.003 A 
ATOM      6  C6  DEN d   1       3.079   0.144  -5.996  0.00  0.00     0.001 A 
ATOM      7  C7  DEN d   1       2.471   0.800  -4.959  0.00  0.00     0.017 A 
ATOM      8  C8  DEN d   1       1.875   0.044  -3.958  0.00  0.00    -0.094 A 
ATOM      9  C9  DEN d   1       1.946  -1.339  -3.971  0.00  0.00    -0.072 A 
ENDROOT
TORSDOF 0
ENDMDL
