MODEL 1
REMARK minimizedAffinity 14.6647978
REMARK minimizedRMSD -1
REMARK  0 active torsions:
REMARK  status: ('A' for Active; 'I' for Inactive)
ROOT
ATOM      1  C1  DEN d   1       0.438  -0.806  -3.380  0.00  0.00     0.130 A 
ATOM      2  C2  DEN d   1       1.422  -1.372  -4.299  0.00  0.00    -0.031 A 
ATOM      3  C3  DEN d   1       2.623  -0.513  -4.266  0.00  0.00     0.027 A 
ATOM      4  C4  DEN d   1       3.053   1.624  -2.887  0.00  0.00     0.027 A 
ATOM      5  C5  DEN d   1       2.507   2.499  -1.974  0.00  0.00    -0.003 A 
ATOM      6  C6  DEN d   1       1.232   2.355  -1.496  0.00  0.00     0.001 A 
ATOM      7  C7  DEN d   1       0.475   1.285  -1.894  0.00  0.00     0.017 A 
ATOM      8  C8  DEN d   1       1.015   0.402  -2.820  0.00  0.00    -0.094 A 
ATOM      9  C9  DEN d   1       2.311   0.558  -3.282  0.00  0.00    -0.072 A 
ENDROOT
TORSDOF 0
ENDMDL
