MODEL 1
REMARK minimizedAffinity 4.80370426
REMARK minimizedRMSD -1
REMARK  0 active torsions:
REMARK  status: ('A' for Active; 'I' for Inactive)
ROOT
ATOM      1  C   UNL d   1      -0.600   3.967   0.154  0.00  0.00    -0.002 A 
ATOM      2  C1  UNL d   1      -0.375   5.255  -0.310  0.00  0.00     0.010 A 
ATOM      3  C2  UNL d   1       0.772   5.956   0.066  0.00  0.00     0.041 A 
ATOM      4  C3  UNL d   1       1.700   5.333   0.925  0.00  0.00    -0.075 A 
ATOM      5  S   UNL d   1       3.176   5.998   1.518  0.00  0.00     0.015 SA
ATOM      6  C4  UNL d   1       3.543   4.588   2.401  0.00  0.00     0.022 A 
ATOM      7  C5  UNL d   1       2.574   3.623   2.259  0.00  0.00     0.026 A 
ATOM      8  C6  UNL d   1       1.496   4.036   1.405  0.00  0.00    -0.082 A 
ATOM      9  C7  UNL d   1       0.323   3.352   1.006  0.00  0.00     0.045 A 
ENDROOT
TORSDOF 0
ENDMDL
