MODEL 1
REMARK minimizedAffinity 18.4393501
REMARK minimizedRMSD -1
REMARK  0 active torsions:
REMARK  status: ('A' for Active; 'I' for Inactive)
ROOT
ATOM      1  C   UNL d   1      -1.636  -5.477  -6.000  0.00  0.00    -0.002 A 
ATOM      2  C1  UNL d   1      -2.189  -4.551  -5.127  0.00  0.00     0.010 A 
ATOM      3  C2  UNL d   1      -1.484  -4.131  -3.997  0.00  0.00     0.041 A 
ATOM      4  C3  UNL d   1      -0.201  -4.661  -3.758  0.00  0.00    -0.075 A 
ATOM      5  S   UNL d   1       0.847  -4.292  -2.440  0.00  0.00     0.015 SA
ATOM      6  C4  UNL d   1       2.054  -5.354  -3.006  0.00  0.00     0.022 A 
ATOM      7  C5  UNL d   1       1.683  -5.983  -4.171  0.00  0.00     0.026 A 
ATOM      8  C6  UNL d   1       0.378  -5.593  -4.624  0.00  0.00    -0.082 A 
ATOM      9  C7  UNL d   1      -0.363  -6.000  -5.760  0.00  0.00     0.045 A 
ENDROOT
TORSDOF 0
ENDMDL
