MODEL 1
REMARK minimizedAffinity 13.1141748
REMARK minimizedRMSD -1
REMARK  0 active torsions:
REMARK  status: ('A' for Active; 'I' for Inactive)
ROOT
ATOM      1  C   UNL d   1      -0.069   5.869  -0.863  0.00  0.00    -0.002 A 
ATOM      2  C1  UNL d   1      -0.830   4.731  -0.638  0.00  0.00     0.010 A 
ATOM      3  C2  UNL d   1      -0.346   3.701   0.170  0.00  0.00     0.041 A 
ATOM      4  C3  UNL d   1       0.928   3.836   0.756  0.00  0.00    -0.075 A 
ATOM      5  S   UNL d   1       1.725   2.703   1.783  0.00  0.00     0.015 SA
ATOM      6  C4  UNL d   1       3.095   3.704   1.949  0.00  0.00     0.022 A 
ATOM      7  C5  UNL d   1       2.964   4.878   1.244  0.00  0.00     0.026 A 
ATOM      8  C6  UNL d   1       1.713   4.973   0.546  0.00  0.00    -0.082 A 
ATOM      9  C7  UNL d   1       1.195   5.999  -0.280  0.00  0.00     0.045 A 
ENDROOT
TORSDOF 0
ENDMDL
