MODEL 1
REMARK minimizedAffinity 23.3280163
REMARK minimizedRMSD -1
REMARK  0 active torsions:
REMARK  status: ('A' for Active; 'I' for Inactive)
ROOT
ATOM      1  C   UNL d   1       0.153   2.149   2.359  0.00  0.00    -0.002 A 
ATOM      2  C1  UNL d   1      -1.133   2.612   2.601  0.00  0.00     0.010 A 
ATOM      3  C2  UNL d   1      -1.688   3.615   1.805  0.00  0.00     0.041 A 
ATOM      4  C3  UNL d   1      -0.923   4.149   0.749  0.00  0.00    -0.075 A 
ATOM      5  S   UNL d   1      -1.397   5.383  -0.357  0.00  0.00     0.015 SA
ATOM      6  C4  UNL d   1       0.095   5.324  -1.178  0.00  0.00     0.022 A 
ATOM      7  C5  UNL d   1       0.946   4.392  -0.635  0.00  0.00     0.026 A 
ATOM      8  C6  UNL d   1       0.373   3.698   0.485  0.00  0.00    -0.082 A 
ATOM      9  C7  UNL d   1       0.908   2.681   1.311  0.00  0.00     0.045 A 
ENDROOT
TORSDOF 0
ENDMDL
