MODEL 1
REMARK minimizedAffinity 16.0182095
REMARK minimizedRMSD -1
REMARK  0 active torsions:
REMARK  status: ('A' for Active; 'I' for Inactive)
ROOT
ATOM      1  C   UNL d   1      -3.233   2.055  -4.958  0.00  0.00    -0.002 A 
ATOM      2  C1  UNL d   1      -2.623   0.828  -5.173  0.00  0.00     0.010 A 
ATOM      3  C2  UNL d   1      -2.259   0.017  -4.095  0.00  0.00     0.041 A 
ATOM      4  C3  UNL d   1      -2.525   0.465  -2.786  0.00  0.00    -0.075 A 
ATOM      5  S   UNL d   1      -2.170  -0.359  -1.314  0.00  0.00     0.015 SA
ATOM      6  C4  UNL d   1      -2.821   0.898  -0.366  0.00  0.00     0.022 A 
ATOM      7  C5  UNL d   1      -3.302   1.929  -1.137  0.00  0.00     0.026 A 
ATOM      8  C6  UNL d   1      -3.140   1.697  -2.545  0.00  0.00    -0.082 A 
ATOM      9  C7  UNL d   1      -3.495   2.496  -3.658  0.00  0.00     0.045 A 
ENDROOT
TORSDOF 0
ENDMDL
