MODEL 1
REMARK minimizedAffinity 12.6019573
REMARK minimizedRMSD -1
REMARK  0 active torsions:
REMARK  status: ('A' for Active; 'I' for Inactive)
ROOT
ATOM      1  C   UNL d   1      -0.287   4.131  -0.522  0.00  0.00    -0.002 A 
ATOM      2  C1  UNL d   1      -0.258   3.003   0.286  0.00  0.00     0.010 A 
ATOM      3  C2  UNL d   1       0.687   2.884   1.307  0.00  0.00     0.041 A 
ATOM      4  C3  UNL d   1       1.611   3.930   1.505  0.00  0.00    -0.075 A 
ATOM      5  S   UNL d   1       2.857   4.004   2.694  0.00  0.00     0.015 SA
ATOM      6  C4  UNL d   1       3.380   5.535   2.158  0.00  0.00     0.022 A 
ATOM      7  C5  UNL d   1       2.633   5.993   1.098  0.00  0.00     0.026 A 
ATOM      8  C6  UNL d   1       1.600   5.076   0.705  0.00  0.00    -0.082 A 
ATOM      9  C7  UNL d   1       0.630   5.166  -0.322  0.00  0.00     0.045 A 
ENDROOT
TORSDOF 0
ENDMDL
