MODEL 1
REMARK minimizedAffinity 20.4234676
REMARK minimizedRMSD -1
REMARK  0 active torsions:
REMARK  status: ('A' for Active; 'I' for Inactive)
ROOT
ATOM      1  C   UNL d   1      -1.510   0.559   3.703  0.00  0.00    -0.002 A 
ATOM      2  C1  UNL d   1      -2.094   1.817   3.671  0.00  0.00     0.010 A 
ATOM      3  C2  UNL d   1      -3.481   1.958   3.747  0.00  0.00     0.041 A 
ATOM      4  C3  UNL d   1      -4.279   0.802   3.859  0.00  0.00    -0.075 A 
ATOM      5  S   UNL d   1      -5.998   0.732   3.968  0.00  0.00     0.015 SA
ATOM      6  C4  UNL d   1      -5.997  -0.969   4.061  0.00  0.00     0.022 A 
ATOM      7  C5  UNL d   1      -4.725  -1.488   4.012  0.00  0.00     0.026 A 
ATOM      8  C6  UNL d   1      -3.713  -0.476   3.895  0.00  0.00    -0.082 A 
ATOM      9  C7  UNL d   1      -2.304  -0.586   3.815  0.00  0.00     0.045 A 
ENDROOT
TORSDOF 0
ENDMDL
