MODEL 1
REMARK minimizedAffinity 5.57113695
REMARK minimizedRMSD -1
REMARK  1 active torsions:
REMARK  status: ('A' for Active; 'I' for Inactive)
REMARK    1  A    between atoms: C3_4  and  O_7 
ROOT
ATOM      1  C   UNL d   1      -3.151  -4.833  -4.770  0.00  0.00    -0.033 A 
ATOM      2  C1  UNL d   1      -4.178  -5.135  -5.666  0.00  0.00     0.039 A 
ATOM      3  C2  UNL d   1      -5.123  -4.162  -5.999  0.00  0.00    -0.080 A 
ATOM      4  C3  UNL d   1      -5.029  -2.894  -5.432  0.00  0.00     0.150 A 
ATOM      5  C4  UNL d   1      -4.005  -2.586  -4.542  0.00  0.00    -0.007 A 
ATOM      6  C5  UNL d   1      -3.063  -3.559  -4.209  0.00  0.00     0.039 A 
ENDROOT
BRANCH   4   7
ATOM      7  O   UNL d   1      -5.930  -1.914  -5.724  0.00  0.00    -0.526 OA
ATOM      8  H5  UNL d   1      -6.596  -2.279  -6.330  0.00  0.00     0.418 HD
ENDBRANCH   4   7
TORSDOF 1
ENDMDL
