MODEL 1
REMARK minimizedAffinity 4.47796679
REMARK minimizedRMSD -1
REMARK  1 active torsions:
REMARK  status: ('A' for Active; 'I' for Inactive)
REMARK    1  A    between atoms: C3_4  and  O_7 
ROOT
ATOM      1  C   UNL d   1      -3.616   0.150   5.244  0.00  0.00    -0.033 A 
ATOM      2  C1  UNL d   1      -3.636   1.392   4.606  0.00  0.00     0.039 A 
ATOM      3  C2  UNL d   1      -3.636   1.462   3.212  0.00  0.00    -0.080 A 
ATOM      4  C3  UNL d   1      -3.617   0.285   2.468  0.00  0.00     0.150 A 
ATOM      5  C4  UNL d   1      -3.601  -0.955   3.097  0.00  0.00    -0.007 A 
ATOM      6  C5  UNL d   1      -3.600  -1.023   4.490  0.00  0.00     0.039 A 
ENDROOT
BRANCH   4   7
ATOM      7  O   UNL d   1      -3.611   0.304   1.105  0.00  0.00    -0.526 OA
ATOM      8  H5  UNL d   1      -3.594   1.229   0.810  0.00  0.00     0.418 HD
ENDBRANCH   4   7
TORSDOF 1
ENDMDL
