MODEL 1
REMARK minimizedAffinity 8.39374352
REMARK minimizedRMSD -1
REMARK  1 active torsions:
REMARK  status: ('A' for Active; 'I' for Inactive)
REMARK    1  A    between atoms: C3_4  and  O_7 
ROOT
ATOM      1  C   UNL d   1      -1.695  -4.674  -2.977  0.00  0.00    -0.033 A 
ATOM      2  C1  UNL d   1      -2.935  -4.155  -3.352  0.00  0.00     0.039 A 
ATOM      3  C2  UNL d   1      -3.105  -2.775  -3.485  0.00  0.00    -0.080 A 
ATOM      4  C3  UNL d   1      -2.028  -1.928  -3.240  0.00  0.00     0.150 A 
ATOM      5  C4  UNL d   1      -0.789  -2.439  -2.870  0.00  0.00    -0.007 A 
ATOM      6  C5  UNL d   1      -0.621  -3.816  -2.738  0.00  0.00     0.039 A 
ENDROOT
BRANCH   4   7
ATOM      7  O   UNL d   1      -2.147  -0.574  -3.352  0.00  0.00    -0.526 OA
ATOM      8  H5  UNL d   1      -3.067  -0.364  -3.586  0.00  0.00     0.418 HD
ENDBRANCH   4   7
TORSDOF 1
ENDMDL
