MODEL 1
REMARK minimizedAffinity 5.71523142
REMARK minimizedRMSD -1
REMARK  1 active torsions:
REMARK  status: ('A' for Active; 'I' for Inactive)
REMARK    1  A    between atoms: C3_4  and  O_7 
ROOT
ATOM      1  C   UNL d   1      -1.405  -4.558  -3.091  0.00  0.00    -0.033 A 
ATOM      2  C1  UNL d   1      -1.433  -3.509  -4.012  0.00  0.00     0.039 A 
ATOM      3  C2  UNL d   1      -2.637  -3.141  -4.617  0.00  0.00    -0.080 A 
ATOM      4  C3  UNL d   1      -3.803  -3.829  -4.292  0.00  0.00     0.150 A 
ATOM      5  C4  UNL d   1      -3.782  -4.873  -3.373  0.00  0.00    -0.007 A 
ATOM      6  C5  UNL d   1      -2.580  -5.239  -2.771  0.00  0.00     0.039 A 
ENDROOT
BRANCH   4   7
ATOM      7  O   UNL d   1      -5.000  -3.510  -4.861  0.00  0.00    -0.526 OA
ATOM      8  H5  UNL d   1      -4.856  -2.789  -5.497  0.00  0.00     0.418 HD
ENDBRANCH   4   7
TORSDOF 1
ENDMDL
