MODEL 1
REMARK minimizedAffinity 11.3813477
REMARK minimizedRMSD -1
REMARK  1 active torsions:
REMARK  status: ('A' for Active; 'I' for Inactive)
REMARK    1  A    between atoms: C3_4  and  O_7 
ROOT
ATOM      1  C   UNL d   1      -3.008   0.760   4.010  0.00  0.00    -0.033 A 
ATOM      2  C1  UNL d   1      -2.652   1.110   5.314  0.00  0.00     0.039 A 
ATOM      3  C2  UNL d   1      -3.378   2.085   6.000  0.00  0.00    -0.080 A 
ATOM      4  C3  UNL d   1      -4.457   2.702   5.372  0.00  0.00     0.150 A 
ATOM      5  C4  UNL d   1      -4.820   2.355   4.075  0.00  0.00    -0.007 A 
ATOM      6  C5  UNL d   1      -4.093   1.381   3.391  0.00  0.00     0.039 A 
ENDROOT
BRANCH   4   7
ATOM      7  O   UNL d   1      -5.193   3.662   6.000  0.00  0.00    -0.526 OA
ATOM      8  H5  UNL d   1      -4.809   3.819   6.879  0.00  0.00     0.418 HD
ENDBRANCH   4   7
TORSDOF 1
ENDMDL
