MODEL 1
REMARK minimizedAffinity 4.18849516
REMARK minimizedRMSD -1
REMARK  1 active torsions:
REMARK  status: ('A' for Active; 'I' for Inactive)
REMARK    1  A    between atoms: C3_4  and  O_7 
ROOT
ATOM      1  C   UNL d   1      -1.166   4.677  -6.000  0.00  0.00    -0.033 A 
ATOM      2  C1  UNL d   1      -1.868   5.884  -5.998  0.00  0.00     0.039 A 
ATOM      3  C2  UNL d   1      -3.264   5.882  -5.997  0.00  0.00    -0.080 A 
ATOM      4  C3  UNL d   1      -3.945   4.667  -5.996  0.00  0.00     0.150 A 
ATOM      5  C4  UNL d   1      -3.252   3.461  -5.994  0.00  0.00    -0.007 A 
ATOM      6  C5  UNL d   1      -1.858   3.466  -5.996  0.00  0.00     0.039 A 
ENDROOT
BRANCH   4   7
ATOM      7  O   UNL d   1      -5.307   4.615  -5.999  0.00  0.00    -0.526 OA
ATOM      8  H5  UNL d   1      -5.650   5.523  -6.030  0.00  0.00     0.418 HD
ENDBRANCH   4   7
TORSDOF 1
ENDMDL
