MODEL 1
REMARK minimizedAffinity 7.04621935
REMARK minimizedRMSD -1
REMARK  1 active torsions:
REMARK  status: ('A' for Active; 'I' for Inactive)
REMARK    1  A    between atoms: C3_4  and  O_7 
ROOT
ATOM      1  C   UNL d   1      -3.244   4.029  -5.987  0.00  0.00    -0.033 A 
ATOM      2  C1  UNL d   1      -2.975   5.399  -5.998  0.00  0.00     0.039 A 
ATOM      3  C2  UNL d   1      -2.111   5.951  -5.050  0.00  0.00    -0.080 A 
ATOM      4  C3  UNL d   1      -1.523   5.122  -4.098  0.00  0.00     0.150 A 
ATOM      5  C4  UNL d   1      -1.784   3.756  -4.083  0.00  0.00    -0.007 A 
ATOM      6  C5  UNL d   1      -2.648   3.208  -5.030  0.00  0.00     0.039 A 
ENDROOT
BRANCH   4   7
ATOM      7  O   UNL d   1      -0.677   5.615  -3.149  0.00  0.00    -0.526 OA
ATOM      8  H5  UNL d   1      -0.614   6.578  -3.264  0.00  0.00     0.418 HD
ENDBRANCH   4   7
TORSDOF 1
ENDMDL
