MODEL 1
REMARK minimizedAffinity 12.8380775
REMARK minimizedRMSD -1
REMARK  1 active torsions:
REMARK  status: ('A' for Active; 'I' for Inactive)
REMARK    1  A    between atoms: C3_4  and  O_7 
ROOT
ATOM      1  C   UNL d   1       0.061  -1.873  -3.415  0.00  0.00    -0.033 A 
ATOM      2  C1  UNL d   1       0.234  -2.279  -4.740  0.00  0.00     0.039 A 
ATOM      3  C2  UNL d   1       1.208  -1.673  -5.536  0.00  0.00    -0.080 A 
ATOM      4  C3  UNL d   1       2.001  -0.664  -4.997  0.00  0.00     0.150 A 
ATOM      5  C4  UNL d   1       1.837  -0.257  -3.677  0.00  0.00    -0.007 A 
ATOM      6  C5  UNL d   1       0.863  -0.863  -2.883  0.00  0.00     0.039 A 
ENDROOT
BRANCH   4   7
ATOM      7  O   UNL d   1       2.961  -0.040  -5.737  0.00  0.00    -0.526 OA
ATOM      8  H5  UNL d   1       2.941  -0.405  -6.637  0.00  0.00     0.418 HD
ENDBRANCH   4   7
TORSDOF 1
ENDMDL
