MODEL 1
REMARK minimizedAffinity 2.34055018
REMARK minimizedRMSD -1
REMARK  1 active torsions:
REMARK  status: ('A' for Active; 'I' for Inactive)
REMARK    1  A    between atoms: C3_4  and  O_7 
ROOT
ATOM      1  C   UNL d   1      -2.048   4.873  -6.000  0.00  0.00    -0.033 A 
ATOM      2  C1  UNL d   1      -3.303   4.635  -5.435  0.00  0.00     0.039 A 
ATOM      3  C2  UNL d   1      -3.593   3.391  -4.872  0.00  0.00    -0.080 A 
ATOM      4  C3  UNL d   1      -2.621   2.394  -4.880  0.00  0.00     0.150 A 
ATOM      5  C4  UNL d   1      -1.368   2.625  -5.438  0.00  0.00    -0.007 A 
ATOM      6  C5  UNL d   1      -1.080   3.868  -6.000  0.00  0.00     0.039 A 
ENDROOT
BRANCH   4   7
ATOM      7  O   UNL d   1      -2.860   1.162  -4.347  0.00  0.00    -0.526 OA
ATOM      8  H5  UNL d   1      -3.776   1.139  -4.025  0.00  0.00     0.418 HD
ENDBRANCH   4   7
TORSDOF 1
ENDMDL
