MODEL 1
REMARK minimizedAffinity 3.02671862
REMARK minimizedRMSD -1
REMARK  1 active torsions:
REMARK  status: ('A' for Active; 'I' for Inactive)
REMARK    1  A    between atoms: C3_4  and  O_7 
ROOT
ATOM      1  C   UNL d   1       1.936  -3.740  -1.876  0.00  0.00    -0.033 A 
ATOM      2  C1  UNL d   1       2.021  -5.074  -2.278  0.00  0.00     0.039 A 
ATOM      3  C2  UNL d   1       3.118  -5.851  -1.901  0.00  0.00    -0.080 A 
ATOM      4  C3  UNL d   1       4.121  -5.283  -1.121  0.00  0.00     0.150 A 
ATOM      5  C4  UNL d   1       4.041  -3.955  -0.713  0.00  0.00    -0.007 A 
ATOM      6  C5  UNL d   1       2.946  -3.181  -1.092  0.00  0.00     0.039 A 
ENDROOT
BRANCH   4   7
ATOM      7  O   UNL d   1       5.213  -6.000  -0.732  0.00  0.00    -0.526 OA
ATOM      8  H5  UNL d   1       5.147  -6.892  -1.111  0.00  0.00     0.418 HD
ENDBRANCH   4   7
TORSDOF 1
ENDMDL
