MODEL 1
REMARK minimizedAffinity 9.91107941
REMARK minimizedRMSD -1
REMARK  1 active torsions:
REMARK  status: ('A' for Active; 'I' for Inactive)
REMARK    1  A    between atoms: C3_4  and  O_7 
ROOT
ATOM      1  C   UNL d   1       0.226   1.106   2.857  0.00  0.00    -0.033 A 
ATOM      2  C1  UNL d   1      -0.050  -0.179   3.329  0.00  0.00     0.039 A 
ATOM      3  C2  UNL d   1      -1.363  -0.653   3.342  0.00  0.00    -0.080 A 
ATOM      4  C3  UNL d   1      -2.390   0.166   2.881  0.00  0.00     0.150 A 
ATOM      5  C4  UNL d   1      -2.122   1.446   2.406  0.00  0.00    -0.007 A 
ATOM      6  C5  UNL d   1      -0.810   1.918   2.395  0.00  0.00     0.039 A 
ENDROOT
BRANCH   4   7
ATOM      7  O   UNL d   1      -3.688  -0.251   2.878  0.00  0.00    -0.526 OA
ATOM      8  H5  UNL d   1      -3.725  -1.144   3.260  0.00  0.00     0.418 HD
ENDBRANCH   4   7
TORSDOF 1
ENDMDL
