MODEL 1
REMARK minimizedAffinity 16.0673332
REMARK minimizedRMSD -1
REMARK  1 active torsions:
REMARK  status: ('A' for Active; 'I' for Inactive)
REMARK    1  A    between atoms: C3_4  and  O_7 
ROOT
ATOM      1  C   UNL d   1      -0.579  -4.104  -2.446  0.00  0.00    -0.033 A 
ATOM      2  C1  UNL d   1      -0.733  -2.978  -3.257  0.00  0.00     0.039 A 
ATOM      3  C2  UNL d   1      -1.972  -2.695  -3.835  0.00  0.00    -0.080 A 
ATOM      4  C3  UNL d   1      -3.048  -3.544  -3.594  0.00  0.00     0.150 A 
ATOM      5  C4  UNL d   1      -2.903  -4.666  -2.784  0.00  0.00    -0.007 A 
ATOM      6  C5  UNL d   1      -1.665  -4.947  -2.209  0.00  0.00     0.039 A 
ENDROOT
BRANCH   4   7
ATOM      7  O   UNL d   1      -4.275  -3.312  -4.139  0.00  0.00    -0.526 OA
ATOM      8  H5  UNL d   1      -4.219  -2.519  -4.698  0.00  0.00     0.418 HD
ENDBRANCH   4   7
TORSDOF 1
ENDMDL
