MODEL 1
REMARK minimizedAffinity 9.43152046
REMARK minimizedRMSD -1
REMARK  1 active torsions:
REMARK  status: ('A' for Active; 'I' for Inactive)
REMARK    1  A    between atoms: C3_4  and  O_7 
ROOT
ATOM      1  C   UNL d   1      -1.988   1.192   2.962  0.00  0.00    -0.033 A 
ATOM      2  C1  UNL d   1      -1.587   0.221   2.043  0.00  0.00     0.039 A 
ATOM      3  C2  UNL d   1      -2.505  -0.720   1.573  0.00  0.00    -0.080 A 
ATOM      4  C3  UNL d   1      -3.820  -0.678   2.028  0.00  0.00     0.150 A 
ATOM      5  C4  UNL d   1      -4.228   0.289   2.941  0.00  0.00    -0.007 A 
ATOM      6  C5  UNL d   1      -3.309   1.227   3.410  0.00  0.00     0.039 A 
ENDROOT
BRANCH   4   7
ATOM      7  O   UNL d   1      -4.751  -1.578   1.601  0.00  0.00    -0.526 OA
ATOM      8  H5  UNL d   1      -4.319  -2.203   0.995  0.00  0.00     0.418 HD
ENDBRANCH   4   7
TORSDOF 1
ENDMDL
