MODEL 1
REMARK minimizedAffinity 12.3561153
REMARK minimizedRMSD -1
REMARK  1 active torsions:
REMARK  status: ('A' for Active; 'I' for Inactive)
REMARK    1  A    between atoms: C3_4  and  O_7 
ROOT
ATOM      1  C   UNL d   1      -0.922  -1.059   2.491  0.00  0.00    -0.033 A 
ATOM      2  C1  UNL d   1      -1.387  -2.323   2.857  0.00  0.00     0.039 A 
ATOM      3  C2  UNL d   1      -2.737  -2.645   2.698  0.00  0.00    -0.080 A 
ATOM      4  C3  UNL d   1      -3.608  -1.695   2.173  0.00  0.00     0.150 A 
ATOM      5  C4  UNL d   1      -3.151  -0.435   1.803  0.00  0.00    -0.007 A 
ATOM      6  C5  UNL d   1      -1.803  -0.115   1.963  0.00  0.00     0.039 A 
ENDROOT
BRANCH   4   7
ATOM      7  O   UNL d   1      -4.935  -1.961   2.004  0.00  0.00    -0.526 OA
ATOM      8  H5  UNL d   1      -5.112  -2.860   2.329  0.00  0.00     0.418 HD
ENDBRANCH   4   7
TORSDOF 1
ENDMDL
