MODEL 1
REMARK minimizedAffinity 10.8166113
REMARK minimizedRMSD -1
REMARK  1 active torsions:
REMARK  status: ('A' for Active; 'I' for Inactive)
REMARK    1  A    between atoms: C3_4  and  O_7 
ROOT
ATOM      1  C   UNL d   1      -4.491   2.897   5.999  0.00  0.00    -0.033 A 
ATOM      2  C1  UNL d   1      -3.316   2.141   6.000  0.00  0.00     0.039 A 
ATOM      3  C2  UNL d   1      -2.912   1.477   4.840  0.00  0.00    -0.080 A 
ATOM      4  C3  UNL d   1      -3.688   1.577   3.689  0.00  0.00     0.150 A 
ATOM      5  C4  UNL d   1      -4.857   2.331   3.681  0.00  0.00    -0.007 A 
ATOM      6  C5  UNL d   1      -5.260   2.993   4.839  0.00  0.00     0.039 A 
ENDROOT
BRANCH   4   7
ATOM      7  O   UNL d   1      -3.336   0.942   2.535  0.00  0.00    -0.526 OA
ATOM      8  H5  UNL d   1      -2.522   0.436   2.698  0.00  0.00     0.418 HD
ENDBRANCH   4   7
TORSDOF 1
ENDMDL
