MODEL 1
REMARK minimizedAffinity 0.295872211
REMARK minimizedRMSD -1
REMARK  1 active torsions:
REMARK  status: ('A' for Active; 'I' for Inactive)
REMARK    1  A    between atoms: C3_4  and  O_7 
ROOT
ATOM      1  C   UNL d   1       0.877   2.244  -0.528  0.00  0.00    -0.033 A 
ATOM      2  C1  UNL d   1       1.014   3.292   0.385  0.00  0.00     0.039 A 
ATOM      3  C2  UNL d   1       1.386   4.563  -0.058  0.00  0.00    -0.080 A 
ATOM      4  C3  UNL d   1       1.618   4.773  -1.415  0.00  0.00     0.150 A 
ATOM      5  C4  UNL d   1       1.480   3.734  -2.330  0.00  0.00    -0.007 A 
ATOM      6  C5  UNL d   1       1.109   2.466  -1.886  0.00  0.00     0.039 A 
ENDROOT
BRANCH   4   7
ATOM      7  O   UNL d   1       1.987   5.994  -1.894  0.00  0.00    -0.526 OA
ATOM      8  H5  UNL d   1       2.071   6.606  -1.144  0.00  0.00     0.418 HD
ENDBRANCH   4   7
TORSDOF 1
ENDMDL
