MODEL 1
REMARK minimizedAffinity 4.77075958
REMARK minimizedRMSD -1
REMARK  0 active torsions:
REMARK  status: ('A' for Active; 'I' for Inactive)
ROOT
ATOM      1  C   UNL d   1       0.939  -0.830  -1.409  0.00  0.00     0.020 A 
ATOM      2  C1  UNL d   1       1.403  -1.053  -2.705  0.00  0.00     0.020 A 
ATOM      3  C2  UNL d   1       0.496  -1.277  -3.743  0.00  0.00     0.034 A 
ATOM      4  C3  UNL d   1      -0.880  -1.278  -3.487  0.00  0.00     0.017 A 
ATOM      5  C4  UNL d   1      -1.345  -1.054  -2.186  0.00  0.00     0.017 A 
ATOM      6  C5  UNL d   1      -0.432  -0.831  -1.151  0.00  0.00     0.034 A 
ATOM      7 Cl   UNL d   1      -3.028  -1.041  -1.792  0.00  0.00    -0.070 Cl
ATOM      8 Cl1  UNL d   1      -1.945  -1.562  -4.818  0.00  0.00    -0.070 Cl
ENDROOT
TORSDOF 0
ENDMDL
