MODEL 1
REMARK minimizedAffinity 8.98234749
REMARK minimizedRMSD -1
REMARK  0 active torsions:
REMARK  status: ('A' for Active; 'I' for Inactive)
ROOT
ATOM      1  C   UNL d   1      -0.751   2.518  -0.281  0.00  0.00     0.020 A 
ATOM      2  C1  UNL d   1       0.102   3.614  -0.158  0.00  0.00     0.020 A 
ATOM      3  C2  UNL d   1       0.889   3.761   0.986  0.00  0.00     0.034 A 
ATOM      4  C3  UNL d   1       0.827   2.810   2.011  0.00  0.00     0.017 A 
ATOM      5  C4  UNL d   1      -0.029   1.710   1.886  0.00  0.00     0.017 A 
ATOM      6  C5  UNL d   1      -0.816   1.568   0.739  0.00  0.00     0.034 A 
ATOM      7 Cl   UNL d   1      -0.162   0.495   3.109  0.00  0.00    -0.070 Cl
ATOM      8 Cl1  UNL d   1       1.829   3.055   3.397  0.00  0.00    -0.070 Cl
ENDROOT
TORSDOF 0
ENDMDL
