MODEL 1
REMARK minimizedAffinity 11.2361383
REMARK minimizedRMSD -1
REMARK  0 active torsions:
REMARK  status: ('A' for Active; 'I' for Inactive)
ROOT
ATOM      1  C   UNL d   1       0.384  -0.846  -2.121  0.00  0.00     0.020 A 
ATOM      2  C1  UNL d   1      -0.816  -1.554  -2.083  0.00  0.00     0.020 A 
ATOM      3  C2  UNL d   1      -1.958  -0.965  -1.536  0.00  0.00     0.034 A 
ATOM      4  C3  UNL d   1      -1.902   0.336  -1.024  0.00  0.00     0.017 A 
ATOM      5  C4  UNL d   1      -0.697   1.047  -1.062  0.00  0.00     0.017 A 
ATOM      6  C5  UNL d   1       0.443   0.452  -1.611  0.00  0.00     0.034 A 
ATOM      7 Cl   UNL d   1      -0.551   2.657  -0.451  0.00  0.00    -0.070 Cl
ATOM      8 Cl1  UNL d   1      -3.353   1.002  -0.363  0.00  0.00    -0.070 Cl
ENDROOT
TORSDOF 0
ENDMDL
