MODEL 1
REMARK minimizedAffinity 12.8253717
REMARK minimizedRMSD -1
REMARK  0 active torsions:
REMARK  status: ('A' for Active; 'I' for Inactive)
ROOT
ATOM      1  C   UNL d   1       0.174   5.582  -0.665  0.00  0.00     0.020 A 
ATOM      2  C1  UNL d   1      -0.421   4.973  -1.768  0.00  0.00     0.020 A 
ATOM      3  C2  UNL d   1      -0.767   3.621  -1.716  0.00  0.00     0.034 A 
ATOM      4  C3  UNL d   1      -0.519   2.874  -0.559  0.00  0.00     0.017 A 
ATOM      5  C4  UNL d   1       0.078   3.487   0.549  0.00  0.00     0.017 A 
ATOM      6  C5  UNL d   1       0.423   4.841   0.491  0.00  0.00     0.034 A 
ATOM      7 Cl   UNL d   1       0.415   2.632   2.012  0.00  0.00    -0.070 Cl
ATOM      8 Cl1  UNL d   1      -0.974   1.207  -0.565  0.00  0.00    -0.070 Cl
ENDROOT
TORSDOF 0
ENDMDL
