MODEL 1
REMARK minimizedAffinity 11.8863382
REMARK minimizedRMSD -1
REMARK  0 active torsions:
REMARK  status: ('A' for Active; 'I' for Inactive)
ROOT
ATOM      1  C   UNL d   1       6.000  -2.237  -2.480  0.00  0.00     0.020 A 
ATOM      2  C1  UNL d   1       5.047  -1.304  -2.073  0.00  0.00     0.020 A 
ATOM      3  C2  UNL d   1       4.088  -1.656  -1.120  0.00  0.00     0.034 A 
ATOM      4  C3  UNL d   1       4.080  -2.944  -0.572  0.00  0.00     0.017 A 
ATOM      5  C4  UNL d   1       5.037  -3.880  -0.982  0.00  0.00     0.017 A 
ATOM      6  C5  UNL d   1       5.995  -3.522  -1.936  0.00  0.00     0.034 A 
ATOM      7 Cl   UNL d   1       5.090  -5.488  -0.351  0.00  0.00    -0.070 Cl
ATOM      8 Cl1  UNL d   1       2.866  -3.310   0.601  0.00  0.00    -0.070 Cl
ENDROOT
TORSDOF 0
ENDMDL
