MODEL 1
REMARK minimizedAffinity 12.4476414
REMARK minimizedRMSD -1
REMARK  0 active torsions:
REMARK  status: ('A' for Active; 'I' for Inactive)
ROOT
ATOM      1  C   UNL d   1       0.020  -1.526   6.000  0.00  0.00     0.020 A 
ATOM      2  C1  UNL d   1       1.126  -2.298   5.645  0.00  0.00     0.020 A 
ATOM      3  C2  UNL d   1       1.890  -1.952   4.529  0.00  0.00     0.034 A 
ATOM      4  C3  UNL d   1       1.550  -0.831   3.763  0.00  0.00     0.017 A 
ATOM      5  C4  UNL d   1       0.440  -0.056   4.120  0.00  0.00     0.017 A 
ATOM      6  C5  UNL d   1      -0.322  -0.407   5.239  0.00  0.00     0.034 A 
ATOM      7 Cl   UNL d   1      -0.042   1.342   3.225  0.00  0.00    -0.070 Cl
ATOM      8 Cl1  UNL d   1       2.539  -0.461   2.396  0.00  0.00    -0.070 Cl
ENDROOT
TORSDOF 0
ENDMDL
