MODEL 1
REMARK minimizedAffinity 10.6971006
REMARK minimizedRMSD -1
REMARK  1 active torsions:
REMARK  status: ('A' for Active; 'I' for Inactive)
REMARK    1  A    between atoms: C1_2  and  C2_3 
ROOT
ATOM      1  C2  UNL d   1      -5.318  -3.621  -5.352  0.00  0.00    -0.081 A 
ATOM      2  C3  UNL d   1      -4.463  -3.498  -4.250  0.00  0.00     0.006 A 
ATOM      3  C4  UNL d   1      -4.299  -2.265  -3.615  0.00  0.00     0.002 A 
ATOM      4  C5  UNL d   1      -4.992  -1.137  -4.065  0.00  0.00    -0.080 A 
ATOM      5  C6  UNL d   1      -4.847   0.186  -3.374  0.00  0.00     0.076 C 
ATOM      6  C7  UNL d   1      -5.833  -1.255  -5.177  0.00  0.00     0.002 A 
ATOM      7  C8  UNL d   1      -5.997  -2.487  -5.813  0.00  0.00     0.006 A 
ENDROOT
BRANCH   1   8
ATOM      8  C1  UNL d   1      -5.548  -4.963  -5.999  0.00  0.00     0.054 C 
ATOM      9  C   UNL d   1      -6.000  -5.998  -4.980  0.00  0.00     0.018 C 
ENDBRANCH   1   8
TORSDOF 1
ENDMDL
