MODEL 1
REMARK minimizedAffinity 6.29406261
REMARK minimizedRMSD -1
REMARK  1 active torsions:
REMARK  status: ('A' for Active; 'I' for Inactive)
REMARK    1  A    between atoms: C1_2  and  C2_3 
ROOT
ATOM      1  C2  UNL d   1       0.958  -4.934   1.147  0.00  0.00    -0.081 A 
ATOM      2  C3  UNL d   1       1.521  -5.240   2.392  0.00  0.00     0.006 A 
ATOM      3  C4  UNL d   1       1.604  -4.267   3.390  0.00  0.00     0.002 A 
ATOM      4  C5  UNL d   1       1.119  -2.974   3.163  0.00  0.00    -0.080 A 
ATOM      5  C6  UNL d   1       1.175  -1.928   4.237  0.00  0.00     0.076 C 
ATOM      6  C7  UNL d   1       0.573  -2.664   1.913  0.00  0.00     0.002 A 
ATOM      7  C8  UNL d   1       0.490  -3.636   0.915  0.00  0.00     0.006 A 
ENDROOT
BRANCH   1   8
ATOM      8  C1  UNL d   1       0.808  -5.999   0.091  0.00  0.00     0.054 C 
ATOM      9  C   UNL d   1       1.556  -5.627  -1.181  0.00  0.00     0.018 C 
ENDBRANCH   1   8
TORSDOF 1
ENDMDL
