MODEL 1
REMARK minimizedAffinity 18.1031132
REMARK minimizedRMSD -1
REMARK  1 active torsions:
REMARK  status: ('A' for Active; 'I' for Inactive)
REMARK    1  A    between atoms: C1_2  and  C2_3 
ROOT
ATOM      1  C2  UNL d   1      -5.051   1.565  -3.586  0.00  0.00    -0.081 A 
ATOM      2  C3  UNL d   1      -4.518   0.294  -3.834  0.00  0.00     0.006 A 
ATOM      3  C4  UNL d   1      -4.729  -0.751  -2.932  0.00  0.00     0.002 A 
ATOM      4  C5  UNL d   1      -5.482  -0.544  -1.771  0.00  0.00    -0.080 A 
ATOM      5  C6  UNL d   1      -5.741  -1.665  -0.808  0.00  0.00     0.076 C 
ATOM      6  C7  UNL d   1      -5.999   0.730  -1.514  0.00  0.00     0.002 A 
ATOM      7  C8  UNL d   1      -5.788   1.775  -2.416  0.00  0.00     0.006 A 
ENDROOT
BRANCH   1   8
ATOM      8  C1  UNL d   1      -4.880   2.677  -4.590  0.00  0.00     0.054 C 
ATOM      9  C   UNL d   1      -5.204   2.204  -6.000  0.00  0.00     0.018 C 
ENDBRANCH   1   8
TORSDOF 1
ENDMDL
