MODEL 1
REMARK minimizedAffinity 15.676528
REMARK minimizedRMSD -1
REMARK  1 active torsions:
REMARK  status: ('A' for Active; 'I' for Inactive)
REMARK    1  A    between atoms: C1_2  and  C2_3 
ROOT
ATOM      1  C2  UNL d   1       4.099   3.703  -5.327  0.00  0.00    -0.081 A 
ATOM      2  C3  UNL d   1       4.782   2.518  -5.628  0.00  0.00     0.006 A 
ATOM      3  C4  UNL d   1       4.381   1.306  -5.061  0.00  0.00     0.002 A 
ATOM      4  C5  UNL d   1       3.286   1.257  -4.192  0.00  0.00    -0.080 A 
ATOM      5  C6  UNL d   1       2.827  -0.043  -3.600  0.00  0.00     0.076 C 
ATOM      6  C7  UNL d   1       2.614   2.443  -3.878  0.00  0.00     0.002 A 
ATOM      7  C8  UNL d   1       3.016   3.655  -4.443  0.00  0.00     0.006 A 
ENDROOT
BRANCH   1   8
ATOM      8  C1  UNL d   1       4.489   5.001  -5.987  0.00  0.00     0.054 C 
ATOM      9  C   UNL d   1       6.000   5.185  -5.996  0.00  0.00     0.018 C 
ENDBRANCH   1   8
TORSDOF 1
ENDMDL
