MODEL 1
REMARK minimizedAffinity 9.00973797
REMARK minimizedRMSD -1
REMARK  1 active torsions:
REMARK  status: ('A' for Active; 'I' for Inactive)
REMARK    1  A    between atoms: C1_2  and  C2_3 
ROOT
ATOM      1  C2  UNL d   1      -3.765   3.417   0.566  0.00  0.00    -0.081 A 
ATOM      2  C3  UNL d   1      -3.334   3.084   1.856  0.00  0.00     0.006 A 
ATOM      3  C4  UNL d   1      -2.009   2.704   2.084  0.00  0.00     0.002 A 
ATOM      4  C5  UNL d   1      -1.092   2.660   1.029  0.00  0.00    -0.080 A 
ATOM      5  C6  UNL d   1       0.340   2.283   1.265  0.00  0.00     0.076 C 
ATOM      6  C7  UNL d   1      -1.526   2.976  -0.263  0.00  0.00     0.002 A 
ATOM      7  C8  UNL d   1      -2.851   3.355  -0.492  0.00  0.00     0.006 A 
ENDROOT
BRANCH   1   8
ATOM      8  C1  UNL d   1      -5.177   3.890   0.327  0.00  0.00     0.054 C 
ATOM      9  C   UNL d   1      -5.995   3.856   1.610  0.00  0.00     0.018 C 
ENDBRANCH   1   8
TORSDOF 1
ENDMDL
