MODEL 1
REMARK minimizedAffinity 4.9292779
REMARK minimizedRMSD -1
REMARK  1 active torsions:
REMARK  status: ('A' for Active; 'I' for Inactive)
REMARK    1  A    between atoms: C1_2  and  C2_3 
ROOT
ATOM      1  C2  UNL d   1       1.779  -0.731   1.449  0.00  0.00    -0.081 A 
ATOM      2  C3  UNL d   1       0.615   0.002   1.184  0.00  0.00     0.006 A 
ATOM      3  C4  UNL d   1      -0.569  -0.651   0.834  0.00  0.00     0.002 A 
ATOM      4  C5  UNL d   1      -0.612  -2.047   0.751  0.00  0.00    -0.080 A 
ATOM      5  C6  UNL d   1      -1.884  -2.762   0.406  0.00  0.00     0.076 C 
ATOM      6  C7  UNL d   1       0.555  -2.779   0.998  0.00  0.00     0.002 A 
ATOM      7  C8  UNL d   1       1.739  -2.126   1.347  0.00  0.00     0.006 A 
ENDROOT
BRANCH   1   8
ATOM      8  C1  UNL d   1       3.040  -0.034   1.890  0.00  0.00     0.054 C 
ATOM      9  C   UNL d   1       3.430   1.071   0.918  0.00  0.00     0.018 C 
ENDBRANCH   1   8
TORSDOF 1
ENDMDL
