MODEL 1
REMARK minimizedAffinity 12.5105963
REMARK minimizedRMSD -1
REMARK  1 active torsions:
REMARK  status: ('A' for Active; 'I' for Inactive)
REMARK    1  A    between atoms: C1_2  and  C2_3 
ROOT
ATOM      1  C2  UNL d   1      -0.520  -3.554  -5.626  0.00  0.00    -0.077 A 
ATOM      2  C3  UNL d   1       0.732  -4.073  -5.984  0.00  0.00     0.002 A 
ATOM      3  C4  UNL d   1       1.904  -3.419  -5.597  0.00  0.00     0.002 A 
ATOM      4  C5  UNL d   1       1.835  -2.247  -4.848  0.00  0.00    -0.004 A 
ATOM      5  C6  UNL d   1       0.594  -1.721  -4.489  0.00  0.00     0.002 A 
ATOM      6  C7  UNL d   1      -0.578  -2.372  -4.876  0.00  0.00     0.002 A 
ENDROOT
BRANCH   1   7
ATOM      7  C1  UNL d   1      -1.784  -4.283  -6.000  0.00  0.00     0.055 C 
ATOM      8  C   UNL d   1      -1.885  -5.620  -5.279  0.00  0.00     0.019 C 
ENDBRANCH   1   7
TORSDOF 1
ENDMDL
