MODEL 1
REMARK minimizedAffinity 3.71519685
REMARK minimizedRMSD -1
REMARK  1 active torsions:
REMARK  status: ('A' for Active; 'I' for Inactive)
REMARK    1  A    between atoms: C1_2  and  C2_3 
ROOT
ATOM      1  C2  UNL d   1      -0.046  -0.051   2.947  0.00  0.00    -0.077 A 
ATOM      2  C3  UNL d   1       0.960  -0.308   3.888  0.00  0.00     0.002 A 
ATOM      3  C4  UNL d   1       1.281   0.645   4.857  0.00  0.00     0.002 A 
ATOM      4  C5  UNL d   1       0.599   1.858   4.896  0.00  0.00    -0.004 A 
ATOM      5  C6  UNL d   1      -0.402   2.124   3.962  0.00  0.00     0.002 A 
ATOM      6  C7  UNL d   1      -0.724   1.173   2.992  0.00  0.00     0.002 A 
ENDROOT
BRANCH   1   7
ATOM      7  C1  UNL d   1      -0.427  -1.098   1.932  0.00  0.00     0.055 C 
ATOM      8  C   UNL d   1       0.737  -1.422   1.007  0.00  0.00     0.019 C 
ENDBRANCH   1   7
TORSDOF 1
ENDMDL
