MODEL 1
REMARK minimizedAffinity 2.66642833
REMARK minimizedRMSD -1
REMARK  1 active torsions:
REMARK  status: ('A' for Active; 'I' for Inactive)
REMARK    1  A    between atoms: C1_2  and  C2_3 
ROOT
ATOM      1  C2  UNL d   1      -0.070  -0.571   3.276  0.00  0.00    -0.077 A 
ATOM      2  C3  UNL d   1      -1.157  -1.038   2.524  0.00  0.00     0.002 A 
ATOM      3  C4  UNL d   1      -2.242  -0.202   2.256  0.00  0.00     0.002 A 
ATOM      4  C5  UNL d   1      -2.249   1.107   2.733  0.00  0.00    -0.004 A 
ATOM      5  C6  UNL d   1      -1.174   1.581   3.484  0.00  0.00     0.002 A 
ATOM      6  C7  UNL d   1      -0.089   0.746   3.753  0.00  0.00     0.002 A 
ENDROOT
BRANCH   1   7
ATOM      7  C1  UNL d   1       1.123  -1.456   3.524  0.00  0.00     0.055 C 
ATOM      8  C   UNL d   1       0.862  -2.432   4.662  0.00  0.00     0.019 C 
ENDBRANCH   1   7
TORSDOF 1
ENDMDL
