MODEL 1
REMARK minimizedAffinity 8.79504681
REMARK minimizedRMSD -1
REMARK  1 active torsions:
REMARK  status: ('A' for Active; 'I' for Inactive)
REMARK    1  A    between atoms: C1_2  and  C2_3 
ROOT
ATOM      1  C2  UNL d   1      -1.006  -2.115   2.424  0.00  0.00    -0.077 A 
ATOM      2  C3  UNL d   1      -0.299  -3.110   3.113  0.00  0.00     0.002 A 
ATOM      3  C4  UNL d   1       0.952  -2.832   3.667  0.00  0.00     0.002 A 
ATOM      4  C5  UNL d   1       1.504  -1.559   3.542  0.00  0.00    -0.004 A 
ATOM      5  C6  UNL d   1       0.809  -0.563   2.858  0.00  0.00     0.002 A 
ATOM      6  C7  UNL d   1      -0.441  -0.839   2.302  0.00  0.00     0.002 A 
ENDROOT
BRANCH   1   7
ATOM      7  C1  UNL d   1      -2.377  -2.399   1.868  0.00  0.00     0.055 C 
ATOM      8  C   UNL d   1      -3.409  -1.422   2.414  0.00  0.00     0.019 C 
ENDBRANCH   1   7
TORSDOF 1
ENDMDL
