MODEL 1
REMARK minimizedAffinity 8.76866913
REMARK minimizedRMSD -1
REMARK  1 active torsions:
REMARK  status: ('A' for Active; 'I' for Inactive)
REMARK    1  A    between atoms: C1_2  and  C2_3 
ROOT
ATOM      1  C2  UNL d   1       1.991   0.186   3.119  0.00  0.00    -0.077 A 
ATOM      2  C3  UNL d   1       1.897  -1.108   3.649  0.00  0.00     0.002 A 
ATOM      3  C4  UNL d   1       0.750  -1.876   3.438  0.00  0.00     0.002 A 
ATOM      4  C5  UNL d   1      -0.309  -1.360   2.693  0.00  0.00    -0.004 A 
ATOM      5  C6  UNL d   1      -0.225  -0.073   2.164  0.00  0.00     0.002 A 
ATOM      6  C7  UNL d   1       0.920   0.697   2.375  0.00  0.00     0.002 A 
ENDROOT
BRANCH   1   7
ATOM      7  C1  UNL d   1       3.247   0.997   3.305  0.00  0.00     0.055 C 
ATOM      8  C   UNL d   1       4.403   0.127   3.776  0.00  0.00     0.019 C 
ENDBRANCH   1   7
TORSDOF 1
ENDMDL
