MODEL 1
REMARK minimizedAffinity 8.72091198
REMARK minimizedRMSD -1
REMARK  1 active torsions:
REMARK  status: ('A' for Active; 'I' for Inactive)
REMARK    1  A    between atoms: C1_2  and  C2_3 
ROOT
ATOM      1  C2  UNL d   1      -0.734  -3.082  -5.187  0.00  0.00    -0.077 A 
ATOM      2  C3  UNL d   1      -1.486  -2.995  -4.007  0.00  0.00     0.002 A 
ATOM      3  C4  UNL d   1      -1.534  -1.799  -3.287  0.00  0.00     0.002 A 
ATOM      4  C5  UNL d   1      -0.837  -0.682  -3.742  0.00  0.00    -0.004 A 
ATOM      5  C6  UNL d   1      -0.085  -0.759  -4.914  0.00  0.00     0.002 A 
ATOM      6  C7  UNL d   1      -0.035  -1.954  -5.634  0.00  0.00     0.002 A 
ENDROOT
BRANCH   1   7
ATOM      7  C1  UNL d   1      -0.721  -4.356  -5.991  0.00  0.00     0.055 C 
ATOM      8  C   UNL d   1      -2.089  -5.022  -5.997  0.00  0.00     0.019 C 
ENDBRANCH   1   7
TORSDOF 1
ENDMDL
