MODEL 1
REMARK minimizedAffinity 9.63167095
REMARK minimizedRMSD -1
REMARK  1 active torsions:
REMARK  status: ('A' for Active; 'I' for Inactive)
REMARK    1  A    between atoms: C1_2  and  C2_3 
ROOT
ATOM      1  C2  UNL d   1      -1.072  -0.480   2.905  0.00  0.00    -0.077 A 
ATOM      2  C3  UNL d   1      -0.118   0.376   2.337  0.00  0.00     0.002 A 
ATOM      3  C4  UNL d   1       1.240   0.058   2.395  0.00  0.00     0.002 A 
ATOM      4  C5  UNL d   1       1.656  -1.119   3.015  0.00  0.00    -0.004 A 
ATOM      5  C6  UNL d   1       0.716  -1.976   3.584  0.00  0.00     0.002 A 
ATOM      6  C7  UNL d   1      -0.642  -1.659   3.529  0.00  0.00     0.002 A 
ENDROOT
BRANCH   1   7
ATOM      7  C1  UNL d   1      -2.540  -0.163   2.801  0.00  0.00     0.055 C 
ATOM      8  C   UNL d   1      -3.390  -1.414   2.974  0.00  0.00     0.019 C 
ENDBRANCH   1   7
TORSDOF 1
ENDMDL
