MODEL 1
REMARK minimizedAffinity 7.02088213
REMARK minimizedRMSD -1
REMARK  1 active torsions:
REMARK  status: ('A' for Active; 'I' for Inactive)
REMARK    1  A    between atoms: C1_2  and  C2_3 
ROOT
ATOM      1  C2  UNL d   1      -3.417  -0.614   0.190  0.00  0.00    -0.077 A 
ATOM      2  C3  UNL d   1      -3.733   0.599   0.819  0.00  0.00     0.002 A 
ATOM      3  C4  UNL d   1      -4.513   1.552   0.162  0.00  0.00     0.002 A 
ATOM      4  C5  UNL d   1      -4.987   1.302  -1.123  0.00  0.00    -0.004 A 
ATOM      5  C6  UNL d   1      -4.677   0.100  -1.758  0.00  0.00     0.002 A 
ATOM      6  C7  UNL d   1      -3.896  -0.854  -1.104  0.00  0.00     0.002 A 
ENDROOT
BRANCH   1   7
ATOM      7  C1  UNL d   1      -2.617  -1.664   0.915  0.00  0.00     0.055 C 
ATOM      8  C   UNL d   1      -3.496  -2.485   1.847  0.00  0.00     0.019 C 
ENDBRANCH   1   7
TORSDOF 1
ENDMDL
