MODEL 1
REMARK minimizedAffinity 9.63731766
REMARK minimizedRMSD -1
REMARK  1 active torsions:
REMARK  status: ('A' for Active; 'I' for Inactive)
REMARK    1  A    between atoms: C1_2  and  C2_3 
ROOT
ATOM      1  C2  UNL d   1       3.042   0.213  -4.789  0.00  0.00    -0.077 A 
ATOM      2  C3  UNL d   1       3.280  -1.168  -4.832  0.00  0.00     0.002 A 
ATOM      3  C4  UNL d   1       2.277  -2.069  -4.470  0.00  0.00     0.002 A 
ATOM      4  C5  UNL d   1       1.028  -1.599  -4.067  0.00  0.00    -0.004 A 
ATOM      5  C6  UNL d   1       0.783  -0.227  -4.019  0.00  0.00     0.002 A 
ATOM      6  C7  UNL d   1       1.785   0.675  -4.379  0.00  0.00     0.002 A 
ENDROOT
BRANCH   1   7
ATOM      7  C1  UNL d   1       4.107   1.185  -5.227  0.00  0.00     0.055 C 
ATOM      8  C   UNL d   1       5.221   0.481  -5.987  0.00  0.00     0.019 C 
ENDBRANCH   1   7
TORSDOF 1
ENDMDL
