MODEL 1
REMARK minimizedAffinity 9.85078144
REMARK minimizedRMSD -1
REMARK  1 active torsions:
REMARK  status: ('A' for Active; 'I' for Inactive)
REMARK    1  A    between atoms: C1_2  and  C2_3 
ROOT
ATOM      1  C2  UNL d   1      -0.356  -1.898  -3.408  0.00  0.00    -0.077 A 
ATOM      2  C3  UNL d   1      -0.510  -2.510  -4.660  0.00  0.00     0.002 A 
ATOM      3  C4  UNL d   1      -0.104  -1.853  -5.823  0.00  0.00     0.002 A 
ATOM      4  C5  UNL d   1       0.463  -0.583  -5.745  0.00  0.00    -0.004 A 
ATOM      5  C6  UNL d   1       0.619   0.036  -4.505  0.00  0.00     0.002 A 
ATOM      6  C7  UNL d   1       0.212  -0.619  -3.342  0.00  0.00     0.002 A 
ENDROOT
BRANCH   1   7
ATOM      7  C1  UNL d   1      -0.748  -2.625  -2.149  0.00  0.00     0.055 C 
ATOM      8  C   UNL d   1       0.360  -2.566  -1.107  0.00  0.00     0.019 C 
ENDBRANCH   1   7
TORSDOF 1
ENDMDL
