MODEL 1
REMARK minimizedAffinity 6.9629221
REMARK minimizedRMSD -1
REMARK  1 active torsions:
REMARK  status: ('A' for Active; 'I' for Inactive)
REMARK    1  A    between atoms: C1_2  and  C2_3 
ROOT
ATOM      1  C2  UNL d   1      -1.073  -0.528   2.158  0.00  0.00    -0.077 A 
ATOM      2  C3  UNL d   1      -0.480   0.701   2.483  0.00  0.00     0.002 A 
ATOM      3  C4  UNL d   1       0.848   0.753   2.908  0.00  0.00     0.002 A 
ATOM      4  C5  UNL d   1       1.596  -0.418   3.009  0.00  0.00    -0.004 A 
ATOM      5  C6  UNL d   1       1.015  -1.645   2.690  0.00  0.00     0.002 A 
ATOM      6  C7  UNL d   1      -0.313  -1.699   2.266  0.00  0.00     0.002 A 
ENDROOT
BRANCH   1   7
ATOM      7  C1  UNL d   1      -2.490  -0.581   1.651  0.00  0.00     0.055 C 
ATOM      8  C   UNL d   1      -3.002   0.806   1.291  0.00  0.00     0.019 C 
ENDBRANCH   1   7
TORSDOF 1
ENDMDL
