MODEL 1
REMARK minimizedAffinity -4.10489559
REMARK minimizedRMSD -1
REMARK  1 active torsions:
REMARK  status: ('A' for Active; 'I' for Inactive)
REMARK    1  A    between atoms: C1_2  and  C2_3 
ROOT
ATOM      1  C2  UNL d   1      -5.123  -3.341  -3.840  0.00  0.00    -0.076 A 
ATOM      2  C3  UNL d   1      -5.936  -2.199  -3.728  0.00  0.00     0.004 A 
ATOM      3  C4  UNL d   1      -5.956  -1.232  -4.731  0.00  0.00    -0.003 A 
ATOM      4  C5  UNL d   1      -5.164  -1.390  -5.863  0.00  0.00     0.000 A 
ATOM      5  C6  UNL d   1      -4.365  -2.524  -5.998  0.00  0.00     0.000 A 
ATOM      6  C7  UNL d   1      -4.345  -3.517  -5.004  0.00  0.00    -0.073 A 
ATOM      7  C8  UNL d   1      -3.460  -4.718  -5.200  0.00  0.00     0.078 C 
ENDROOT
BRANCH   1   8
ATOM      8  C1  UNL d   1      -5.122  -4.343  -2.708  0.00  0.00     0.053 C 
ATOM      9  C   UNL d   1      -4.170  -3.956  -1.588  0.00  0.00     0.018 C 
ENDBRANCH   1   8
TORSDOF 1
ENDMDL
