MODEL 1
REMARK minimizedAffinity 0.0976464003
REMARK minimizedRMSD -1
REMARK  1 active torsions:
REMARK  status: ('A' for Active; 'I' for Inactive)
REMARK    1  A    between atoms: C1_2  and  C2_3 
ROOT
ATOM      1  C2  UNL d   1      -5.716  -2.642  -5.199  0.00  0.00    -0.076 A 
ATOM      2  C3  UNL d   1      -5.690  -1.479  -5.988  0.00  0.00     0.004 A 
ATOM      3  C4  UNL d   1      -5.827  -0.217  -5.412  0.00  0.00    -0.003 A 
ATOM      4  C5  UNL d   1      -5.990  -0.098  -4.036  0.00  0.00     0.000 A 
ATOM      5  C6  UNL d   1      -6.000  -1.239  -3.236  0.00  0.00     0.000 A 
ATOM      6  C7  UNL d   1      -5.847  -2.518  -3.799  0.00  0.00    -0.073 A 
ATOM      7  C8  UNL d   1      -5.871  -3.715  -2.889  0.00  0.00     0.078 C 
ENDROOT
BRANCH   1   8
ATOM      8  C1  UNL d   1      -5.591  -3.984  -5.882  0.00  0.00     0.053 C 
ATOM      9  C   UNL d   1      -4.160  -4.502  -5.894  0.00  0.00     0.018 C 
ENDBRANCH   1   8
TORSDOF 1
ENDMDL
