MODEL 1
REMARK minimizedAffinity 4.89484501
REMARK minimizedRMSD -1
REMARK  1 active torsions:
REMARK  status: ('A' for Active; 'I' for Inactive)
REMARK    1  A    between atoms: C1_2  and  C2_3 
ROOT
ATOM      1  C2  UNL d   1      -3.910  -4.257  -4.408  0.00  0.00    -0.076 A 
ATOM      2  C3  UNL d   1      -3.754  -4.816  -5.688  0.00  0.00     0.004 A 
ATOM      3  C4  UNL d   1      -2.645  -5.603  -5.997  0.00  0.00    -0.003 A 
ATOM      4  C5  UNL d   1      -1.675  -5.843  -5.030  0.00  0.00     0.000 A 
ATOM      5  C6  UNL d   1      -1.823  -5.311  -3.749  0.00  0.00     0.000 A 
ATOM      6  C7  UNL d   1      -2.943  -4.530  -3.417  0.00  0.00    -0.073 A 
ATOM      7  C8  UNL d   1      -3.049  -3.976  -2.023  0.00  0.00     0.078 C 
ENDROOT
BRANCH   1   8
ATOM      8  C1  UNL d   1      -5.120  -3.390  -4.139  0.00  0.00     0.053 C 
ATOM      9  C   UNL d   1      -5.585  -2.640  -5.378  0.00  0.00     0.018 C 
ENDBRANCH   1   8
TORSDOF 1
ENDMDL
