MODEL 1
REMARK minimizedAffinity 0.22912237
REMARK minimizedRMSD -1
REMARK  1 active torsions:
REMARK  status: ('A' for Active; 'I' for Inactive)
REMARK    1  A    between atoms: C1_2  and  C2_3 
ROOT
ATOM      1  C2  UNL d   1      -3.066  -4.802  -4.758  0.00  0.00    -0.076 A 
ATOM      2  C3  UNL d   1      -3.785  -5.997  -4.928  0.00  0.00     0.004 A 
ATOM      3  C4  UNL d   1      -5.039  -6.000  -5.538  0.00  0.00    -0.003 A 
ATOM      4  C5  UNL d   1      -5.592  -4.807  -5.989  0.00  0.00     0.000 A 
ATOM      5  C6  UNL d   1      -4.884  -3.614  -5.845  0.00  0.00     0.000 A 
ATOM      6  C7  UNL d   1      -3.613  -3.596  -5.247  0.00  0.00    -0.073 A 
ATOM      7  C8  UNL d   1      -2.897  -2.280  -5.111  0.00  0.00     0.078 C 
ENDROOT
BRANCH   1   8
ATOM      8  C1  UNL d   1      -1.723  -4.857  -4.065  0.00  0.00     0.053 C 
ATOM      9  C   UNL d   1      -0.838  -5.974  -4.596  0.00  0.00     0.018 C 
ENDBRANCH   1   8
TORSDOF 1
ENDMDL
