MODEL 1
REMARK minimizedAffinity -2.78653288
REMARK minimizedRMSD -1
REMARK  1 active torsions:
REMARK  status: ('A' for Active; 'I' for Inactive)
REMARK    1  A    between atoms: C1_2  and  C2_3 
ROOT
ATOM      1  C2  UNL d   1      -4.805  -3.383  -3.872  0.00  0.00    -0.076 A 
ATOM      2  C3  UNL d   1      -3.653  -3.398  -3.067  0.00  0.00     0.004 A 
ATOM      3  C4  UNL d   1      -2.532  -4.143  -3.432  0.00  0.00    -0.003 A 
ATOM      4  C5  UNL d   1      -2.546  -4.884  -4.608  0.00  0.00     0.000 A 
ATOM      5  C6  UNL d   1      -3.674  -4.867  -5.427  0.00  0.00     0.000 A 
ATOM      6  C7  UNL d   1      -4.806  -4.109  -5.082  0.00  0.00    -0.073 A 
ATOM      7  C8  UNL d   1      -5.998  -4.132  -6.000  0.00  0.00     0.078 C 
ENDROOT
BRANCH   1   8
ATOM      8  C1  UNL d   1      -6.000  -2.579  -3.411  0.00  0.00     0.053 C 
ATOM      9  C   UNL d   1      -5.968  -1.146  -3.919  0.00  0.00     0.018 C 
ENDBRANCH   1   8
TORSDOF 1
ENDMDL
