MODEL 1
REMARK minimizedAffinity -2.326828
REMARK minimizedRMSD -1
REMARK  1 active torsions:
REMARK  status: ('A' for Active; 'I' for Inactive)
REMARK    1  A    between atoms: C1_2  and  C2_3 
ROOT
ATOM      1  C2  UNL d   1      -3.563  -5.091  -5.053  0.00  0.00    -0.076 A 
ATOM      2  C3  UNL d   1      -4.584  -5.296  -5.998  0.00  0.00     0.004 A 
ATOM      3  C4  UNL d   1      -5.730  -4.503  -5.999  0.00  0.00    -0.003 A 
ATOM      4  C5  UNL d   1      -5.875  -3.493  -5.055  0.00  0.00     0.000 A 
ATOM      5  C6  UNL d   1      -4.864  -3.264  -4.121  0.00  0.00     0.000 A 
ATOM      6  C7  UNL d   1      -3.695  -4.044  -4.117  0.00  0.00    -0.073 A 
ATOM      7  C8  UNL d   1      -2.640  -3.757  -3.084  0.00  0.00     0.078 C 
ENDROOT
BRANCH   1   8
ATOM      8  C1  UNL d   1      -2.355  -6.000  -5.084  0.00  0.00     0.053 C 
ATOM      9  C   UNL d   1      -1.227  -5.440  -5.938  0.00  0.00     0.018 C 
ENDBRANCH   1   8
TORSDOF 1
ENDMDL
