MODEL 1
REMARK minimizedAffinity -1.66730416
REMARK minimizedRMSD -1
REMARK  1 active torsions:
REMARK  status: ('A' for Active; 'I' for Inactive)
REMARK    1  A    between atoms: C1_2  and  C2_3 
ROOT
ATOM      1  C2  UNL d   1      -3.745  -5.048  -4.931  0.00  0.00    -0.076 A 
ATOM      2  C3  UNL d   1      -4.658  -5.038  -6.000  0.00  0.00     0.004 A 
ATOM      3  C4  UNL d   1      -5.776  -4.206  -5.981  0.00  0.00    -0.003 A 
ATOM      4  C5  UNL d   1      -6.000  -3.370  -4.893  0.00  0.00     0.000 A 
ATOM      5  C6  UNL d   1      -5.095  -3.353  -3.832  0.00  0.00     0.000 A 
ATOM      6  C7  UNL d   1      -3.954  -4.174  -3.842  0.00  0.00    -0.073 A 
ATOM      7  C8  UNL d   1      -3.016  -4.120  -2.668  0.00  0.00     0.078 C 
ENDROOT
BRANCH   1   8
ATOM      8  C1  UNL d   1      -2.565  -5.991  -4.994  0.00  0.00     0.053 C 
ATOM      9  C   UNL d   1      -1.508  -5.535  -5.987  0.00  0.00     0.018 C 
ENDBRANCH   1   8
TORSDOF 1
ENDMDL
