MODEL 1
REMARK minimizedAffinity -2.50244641
REMARK minimizedRMSD -1
REMARK  1 active torsions:
REMARK  status: ('A' for Active; 'I' for Inactive)
REMARK    1  A    between atoms: C1_2  and  C2_3 
ROOT
ATOM      1  C2  UNL d   1      -3.830  -4.943  -4.906  0.00  0.00    -0.076 A 
ATOM      2  C3  UNL d   1      -4.767  -4.999  -5.953  0.00  0.00     0.004 A 
ATOM      3  C4  UNL d   1      -5.844  -4.115  -6.000  0.00  0.00    -0.003 A 
ATOM      4  C5  UNL d   1      -6.000  -3.159  -5.002  0.00  0.00     0.000 A 
ATOM      5  C6  UNL d   1      -5.070  -3.078  -3.966  0.00  0.00     0.000 A 
ATOM      6  C7  UNL d   1      -3.970  -3.952  -3.912  0.00  0.00    -0.073 A 
ATOM      7  C8  UNL d   1      -3.002  -3.823  -2.768  0.00  0.00     0.078 C 
ENDROOT
BRANCH   1   8
ATOM      8  C1  UNL d   1      -2.699  -5.946  -4.893  0.00  0.00     0.053 C 
ATOM      9  C   UNL d   1      -1.571  -5.565  -5.840  0.00  0.00     0.018 C 
ENDBRANCH   1   8
TORSDOF 1
ENDMDL
