MODEL 1
REMARK minimizedAffinity -1.09381652
REMARK minimizedRMSD -1
REMARK  1 active torsions:
REMARK  status: ('A' for Active; 'I' for Inactive)
REMARK    1  A    between atoms: C1_2  and  C2_3 
ROOT
ATOM      1  C2  UNL d   1      -3.747  -5.022  -4.942  0.00  0.00    -0.076 A 
ATOM      2  C3  UNL d   1      -4.676  -5.039  -5.997  0.00  0.00     0.004 A 
ATOM      3  C4  UNL d   1      -5.774  -4.180  -6.000  0.00  0.00    -0.003 A 
ATOM      4  C5  UNL d   1      -5.960  -3.289  -4.948  0.00  0.00     0.000 A 
ATOM      5  C6  UNL d   1      -5.039  -3.247  -3.903  0.00  0.00     0.000 A 
ATOM      6  C7  UNL d   1      -3.918  -4.095  -3.892  0.00  0.00    -0.073 A 
ATOM      7  C8  UNL d   1      -2.959  -4.010  -2.736  0.00  0.00     0.078 C 
ENDROOT
BRANCH   1   8
ATOM      8  C1  UNL d   1      -2.591  -5.996  -4.979  0.00  0.00     0.053 C 
ATOM      9  C   UNL d   1      -1.505  -5.574  -5.957  0.00  0.00     0.018 C 
ENDBRANCH   1   8
TORSDOF 1
ENDMDL
