MODEL 1
REMARK minimizedAffinity 4.54321241
REMARK minimizedRMSD -1
REMARK  1 active torsions:
REMARK  status: ('A' for Active; 'I' for Inactive)
REMARK    1  A    between atoms: C1_2  and  C2_3 
ROOT
ATOM      1  C2  UNL d   1      -3.049  -4.594  -5.273  0.00  0.00    -0.076 A 
ATOM      2  C3  UNL d   1      -3.837  -3.682  -5.997  0.00  0.00     0.004 A 
ATOM      3  C4  UNL d   1      -4.306  -2.511  -5.403  0.00  0.00    -0.003 A 
ATOM      4  C5  UNL d   1      -3.993  -2.232  -4.077  0.00  0.00     0.000 A 
ATOM      5  C6  UNL d   1      -3.198  -3.117  -3.350  0.00  0.00     0.000 A 
ATOM      6  C7  UNL d   1      -2.704  -4.295  -3.938  0.00  0.00    -0.073 A 
ATOM      7  C8  UNL d   1      -1.856  -5.216  -3.105  0.00  0.00     0.078 C 
ENDROOT
BRANCH   1   8
ATOM      8  C1  UNL d   1      -2.593  -5.861  -5.961  0.00  0.00     0.053 C 
ATOM      9  C   UNL d   1      -1.078  -5.995  -5.989  0.00  0.00     0.018 C 
ENDBRANCH   1   8
TORSDOF 1
ENDMDL
