MODEL 1
REMARK minimizedAffinity 9.00610256
REMARK minimizedRMSD -1
REMARK  1 active torsions:
REMARK  status: ('A' for Active; 'I' for Inactive)
REMARK    1  A    between atoms: C1_2  and  C2_3 
ROOT
ATOM      1  C2  UNL d   1      -4.085  -4.510  -5.096  0.00  0.00    -0.076 A 
ATOM      2  C3  UNL d   1      -5.052  -4.005  -5.982  0.00  0.00     0.004 A 
ATOM      3  C4  UNL d   1      -5.995  -3.070  -5.558  0.00  0.00    -0.003 A 
ATOM      4  C5  UNL d   1      -5.987  -2.625  -4.241  0.00  0.00     0.000 A 
ATOM      5  C6  UNL d   1      -5.023  -3.102  -3.352  0.00  0.00     0.000 A 
ATOM      6  C7  UNL d   1      -4.055  -4.032  -3.768  0.00  0.00    -0.073 A 
ATOM      7  C8  UNL d   1      -3.043  -4.517  -2.766  0.00  0.00     0.078 C 
ENDROOT
BRANCH   1   8
ATOM      8  C1  UNL d   1      -3.104  -5.541  -5.605  0.00  0.00     0.053 C 
ATOM      9  C   UNL d   1      -1.752  -4.938  -5.953  0.00  0.00     0.018 C 
ENDBRANCH   1   8
TORSDOF 1
ENDMDL
