MODEL 1
REMARK minimizedAffinity 1.34268475
REMARK minimizedRMSD -1
REMARK  1 active torsions:
REMARK  status: ('A' for Active; 'I' for Inactive)
REMARK    1  A    between atoms: C1_2  and  C2_3 
ROOT
ATOM      1  C2  UNL d   1      -3.195  -4.121  -4.914  0.00  0.00    -0.076 A 
ATOM      2  C3  UNL d   1      -3.062  -5.030  -5.978  0.00  0.00     0.004 A 
ATOM      3  C4  UNL d   1      -2.025  -5.962  -6.000  0.00  0.00    -0.003 A 
ATOM      4  C5  UNL d   1      -1.105  -6.000  -4.958  0.00  0.00     0.000 A 
ATOM      5  C6  UNL d   1      -1.232  -5.117  -3.886  0.00  0.00     0.000 A 
ATOM      6  C7  UNL d   1      -2.281  -4.182  -3.840  0.00  0.00    -0.073 A 
ATOM      7  C8  UNL d   1      -2.366  -3.250  -2.663  0.00  0.00     0.078 C 
ENDROOT
BRANCH   1   8
ATOM      8  C1  UNL d   1      -4.323  -3.115  -4.958  0.00  0.00     0.053 C 
ATOM      9  C   UNL d   1      -4.094  -2.028  -5.996  0.00  0.00     0.018 C 
ENDBRANCH   1   8
TORSDOF 1
ENDMDL
