MODEL 1
REMARK minimizedAffinity -3.81824303
REMARK minimizedRMSD -1
REMARK  1 active torsions:
REMARK  status: ('A' for Active; 'I' for Inactive)
REMARK    1  A    between atoms: C1_2  and  C2_3 
ROOT
ATOM      1  C2  UNL d   1      -3.039  -4.000  -4.750  0.00  0.00    -0.076 A 
ATOM      2  C3  UNL d   1      -3.411  -2.880  -5.513  0.00  0.00     0.004 A 
ATOM      3  C4  UNL d   1      -4.739  -2.461  -5.572  0.00  0.00    -0.003 A 
ATOM      4  C5  UNL d   1      -5.717  -3.155  -4.868  0.00  0.00     0.000 A 
ATOM      5  C6  UNL d   1      -5.363  -4.258  -4.091  0.00  0.00     0.000 A 
ATOM      6  C7  UNL d   1      -4.026  -4.683  -4.008  0.00  0.00    -0.073 A 
ATOM      7  C8  UNL d   1      -3.701  -5.883  -3.160  0.00  0.00     0.078 C 
ENDROOT
BRANCH   1   8
ATOM      8  C1  UNL d   1      -1.587  -4.423  -4.746  0.00  0.00     0.053 C 
ATOM      9  C   UNL d   1      -1.201  -5.193  -5.999  0.00  0.00     0.018 C 
ENDBRANCH   1   8
TORSDOF 1
ENDMDL
