MODEL 1
REMARK minimizedAffinity 7.45200539
REMARK minimizedRMSD -1
REMARK  1 active torsions:
REMARK  status: ('A' for Active; 'I' for Inactive)
REMARK    1  A    between atoms: C1_2  and  C2_3 
ROOT
ATOM      1  C2  UNL d   1       0.159  -0.366   0.821  0.00  0.00    -0.076 A 
ATOM      2  C3  UNL d   1       0.767  -1.278   1.702  0.00  0.00     0.004 A 
ATOM      3  C4  UNL d   1       0.142  -2.478   2.037  0.00  0.00    -0.003 A 
ATOM      4  C5  UNL d   1      -1.101  -2.786   1.496  0.00  0.00     0.000 A 
ATOM      5  C6  UNL d   1      -1.711  -1.902   0.606  0.00  0.00     0.000 A 
ATOM      6  C7  UNL d   1      -1.087  -0.696   0.245  0.00  0.00    -0.073 A 
ATOM      7  C8  UNL d   1      -1.793   0.224  -0.714  0.00  0.00     0.078 C 
ENDROOT
BRANCH   1   8
ATOM      8  C1  UNL d   1       0.872   0.932   0.515  0.00  0.00     0.053 C 
ATOM      9  C   UNL d   1       2.259   0.994   1.135  0.00  0.00     0.018 C 
ENDBRANCH   1   8
TORSDOF 1
ENDMDL
