MODEL 1
REMARK minimizedAffinity -3.99470448
REMARK minimizedRMSD -1
REMARK  0 active torsions:
REMARK  status: ('A' for Active; 'I' for Inactive)
ROOT
ATOM      1  C   UNL d   1      -0.657  -0.007   0.577  0.00  0.00     0.078 C 
ATOM      2  C1  UNL d   1       0.450  -0.518  -0.296  0.00  0.00    -0.077 A 
ATOM      3  C2  UNL d   1       0.686  -1.891  -0.431  0.00  0.00    -0.001 A 
ATOM      4  C3  UNL d   1       1.726  -2.352  -1.240  0.00  0.00     0.003 A 
ATOM      5  C4  UNL d   1       2.538  -1.446  -1.920  0.00  0.00    -0.005 A 
ATOM      6  C5  UNL d   1       2.312  -0.078  -1.790  0.00  0.00     0.003 A 
ATOM      7  C6  UNL d   1       1.272   0.385  -0.981  0.00  0.00    -0.001 A 
ENDROOT
TORSDOF 0
ENDMDL
