MODEL 1
REMARK minimizedAffinity -2.78389192
REMARK minimizedRMSD -1
REMARK  0 active torsions:
REMARK  status: ('A' for Active; 'I' for Inactive)
ROOT
ATOM      1  C   UNL d   1      -1.426   0.451   1.827  0.00  0.00     0.078 C 
ATOM      2  C1  UNL d   1      -0.461   0.560   0.684  0.00  0.00    -0.077 A 
ATOM      3  C2  UNL d   1      -0.014  -0.581   0.007  0.00  0.00    -0.001 A 
ATOM      4  C3  UNL d   1       0.891  -0.465  -1.049  0.00  0.00     0.003 A 
ATOM      5  C4  UNL d   1       1.358   0.789  -1.436  0.00  0.00    -0.005 A 
ATOM      6  C5  UNL d   1       0.921   1.930  -0.766  0.00  0.00     0.003 A 
ATOM      7  C6  UNL d   1       0.016   1.816   0.290  0.00  0.00    -0.001 A 
ENDROOT
TORSDOF 0
ENDMDL
