MODEL 1
REMARK minimizedAffinity -3.14118838
REMARK minimizedRMSD -1
REMARK  0 active torsions:
REMARK  status: ('A' for Active; 'I' for Inactive)
ROOT
ATOM      1  C   UNL d   1      -2.319   0.488   1.665  0.00  0.00     0.078 C 
ATOM      2  C1  UNL d   1      -1.114   0.610   0.781  0.00  0.00    -0.077 A 
ATOM      3  C2  UNL d   1      -1.048   1.588  -0.218  0.00  0.00    -0.001 A 
ATOM      4  C3  UNL d   1       0.076   1.684  -1.040  0.00  0.00     0.003 A 
ATOM      5  C4  UNL d   1       1.142   0.803  -0.872  0.00  0.00    -0.005 A 
ATOM      6  C5  UNL d   1       1.085  -0.176   0.118  0.00  0.00     0.003 A 
ATOM      7  C6  UNL d   1      -0.038  -0.273   0.941  0.00  0.00    -0.001 A 
ENDROOT
TORSDOF 0
ENDMDL
