MODEL 1
REMARK minimizedAffinity -2.41529679
REMARK minimizedRMSD -1
REMARK  0 active torsions:
REMARK  status: ('A' for Active; 'I' for Inactive)
ROOT
ATOM      1  C   UNL d   1      -2.604  -0.065   1.528  0.00  0.00     0.078 C 
ATOM      2  C1  UNL d   1      -1.295   0.287   0.887  0.00  0.00    -0.077 A 
ATOM      3  C2  UNL d   1      -0.081   0.013   1.529  0.00  0.00    -0.001 A 
ATOM      4  C3  UNL d   1       1.129   0.355   0.925  0.00  0.00     0.003 A 
ATOM      5  C4  UNL d   1       1.138   0.975  -0.323  0.00  0.00    -0.005 A 
ATOM      6  C5  UNL d   1      -0.065   1.254  -0.968  0.00  0.00     0.003 A 
ATOM      7  C6  UNL d   1      -1.277   0.912  -0.366  0.00  0.00    -0.001 A 
ENDROOT
TORSDOF 0
ENDMDL
