MODEL 1
REMARK minimizedAffinity -3.57228899
REMARK minimizedRMSD -1
REMARK  0 active torsions:
REMARK  status: ('A' for Active; 'I' for Inactive)
ROOT
ATOM      1  C   UNL d   1      -1.178   0.048   1.077  0.00  0.00     0.078 C 
ATOM      2  C1  UNL d   1       0.057   0.033   0.226  0.00  0.00    -0.077 A 
ATOM      3  C2  UNL d   1       0.577   1.217  -0.311  0.00  0.00    -0.001 A 
ATOM      4  C3  UNL d   1       1.721   1.187  -1.109  0.00  0.00     0.003 A 
ATOM      5  C4  UNL d   1       2.354  -0.025  -1.380  0.00  0.00    -0.005 A 
ATOM      6  C5  UNL d   1       1.842  -1.208  -0.852  0.00  0.00     0.003 A 
ATOM      7  C6  UNL d   1       0.698  -1.180  -0.053  0.00  0.00    -0.001 A 
ENDROOT
TORSDOF 0
ENDMDL
