MODEL 1
REMARK minimizedAffinity -3.61629081
REMARK minimizedRMSD -1
REMARK  0 active torsions:
REMARK  status: ('A' for Active; 'I' for Inactive)
ROOT
ATOM      1  C   UNL d   1      -0.396   0.346   0.143  0.00  0.00     0.078 C 
ATOM      2  C1  UNL d   1       0.696  -0.372  -0.592  0.00  0.00    -0.077 A 
ATOM      3  C2  UNL d   1       1.597   0.325  -1.406  0.00  0.00    -0.001 A 
ATOM      4  C3  UNL d   1       2.602  -0.358  -2.093  0.00  0.00     0.003 A 
ATOM      5  C4  UNL d   1       2.715  -1.742  -1.973  0.00  0.00    -0.005 A 
ATOM      6  C5  UNL d   1       1.822  -2.444  -1.167  0.00  0.00     0.003 A 
ATOM      7  C6  UNL d   1       0.816  -1.763  -0.479  0.00  0.00    -0.001 A 
ENDROOT
TORSDOF 0
ENDMDL
