MODEL 1
REMARK minimizedAffinity -3.21543241
REMARK minimizedRMSD -1
REMARK  0 active torsions:
REMARK  status: ('A' for Active; 'I' for Inactive)
ROOT
ATOM      1  C   UNL d   1      -3.925   0.448   2.347  0.00  0.00     0.078 C 
ATOM      2  C1  UNL d   1      -2.724   0.547   1.454  0.00  0.00    -0.077 A 
ATOM      3  C2  UNL d   1      -1.726  -0.434   1.477  0.00  0.00    -0.001 A 
ATOM      4  C3  UNL d   1      -0.609  -0.324   0.647  0.00  0.00     0.003 A 
ATOM      5  C4  UNL d   1      -0.480   0.766  -0.211  0.00  0.00    -0.005 A 
ATOM      6  C5  UNL d   1      -1.467   1.749  -0.239  0.00  0.00     0.003 A 
ATOM      7  C6  UNL d   1      -2.585   1.640   0.590  0.00  0.00    -0.001 A 
ENDROOT
TORSDOF 0
ENDMDL
