MODEL 1
REMARK minimizedAffinity -2.43483019
REMARK minimizedRMSD -1
REMARK  0 active torsions:
REMARK  status: ('A' for Active; 'I' for Inactive)
ROOT
ATOM      1  C   UNL d   1       0.229   0.367   0.326  0.00  0.00     0.078 C 
ATOM      2  C1  UNL d   1      -1.162   0.568   0.848  0.00  0.00    -0.077 A 
ATOM      3  C2  UNL d   1      -2.243   0.733  -0.027  0.00  0.00    -0.001 A 
ATOM      4  C3  UNL d   1      -3.532   0.929   0.473  0.00  0.00     0.003 A 
ATOM      5  C4  UNL d   1      -3.751   0.964   1.849  0.00  0.00    -0.005 A 
ATOM      6  C5  UNL d   1      -2.681   0.803   2.727  0.00  0.00     0.003 A 
ATOM      7  C6  UNL d   1      -1.392   0.607   2.229  0.00  0.00    -0.001 A 
ENDROOT
TORSDOF 0
ENDMDL
