MODEL 1
REMARK minimizedAffinity -2.53343153
REMARK minimizedRMSD -1
REMARK  0 active torsions:
REMARK  status: ('A' for Active; 'I' for Inactive)
ROOT
ATOM      1  C   UNL d   1      -3.256   0.772   1.752  0.00  0.00     0.078 C 
ATOM      2  C1  UNL d   1      -1.948   0.574   1.046  0.00  0.00    -0.077 A 
ATOM      3  C2  UNL d   1      -1.141  -0.537   1.320  0.00  0.00    -0.001 A 
ATOM      4  C3  UNL d   1       0.078  -0.703   0.663  0.00  0.00     0.003 A 
ATOM      5  C4  UNL d   1       0.503   0.238  -0.273  0.00  0.00    -0.005 A 
ATOM      6  C5  UNL d   1      -0.292   1.348  -0.551  0.00  0.00     0.003 A 
ATOM      7  C6  UNL d   1      -1.512   1.516   0.105  0.00  0.00    -0.001 A 
ENDROOT
TORSDOF 0
ENDMDL
