MODEL 1
REMARK minimizedAffinity -4.25475121
REMARK minimizedRMSD -1
REMARK  0 active torsions:
REMARK  status: ('A' for Active; 'I' for Inactive)
ROOT
ATOM      1  C   UNL d   1       1.446  -2.988  -1.043  0.00  0.00     0.078 C 
ATOM      2  C1  UNL d   1       1.442  -1.490  -0.976  0.00  0.00    -0.077 A 
ATOM      3  C2  UNL d   1       2.352  -0.733  -1.724  0.00  0.00    -0.001 A 
ATOM      4  C3  UNL d   1       2.344   0.661  -1.644  0.00  0.00     0.003 A 
ATOM      5  C4  UNL d   1       1.428   1.309  -0.818  0.00  0.00    -0.005 A 
ATOM      6  C5  UNL d   1       0.520   0.564  -0.069  0.00  0.00     0.003 A 
ATOM      7  C6  UNL d   1       0.527  -0.830  -0.147  0.00  0.00    -0.001 A 
ENDROOT
TORSDOF 0
ENDMDL
