MODEL 1
REMARK minimizedAffinity -2.5593338
REMARK minimizedRMSD -1
REMARK  0 active torsions:
REMARK  status: ('A' for Active; 'I' for Inactive)
ROOT
ATOM      1  C   UNL d   1      -3.074   0.333   1.575  0.00  0.00     0.078 C 
ATOM      2  C1  UNL d   1      -1.806   0.649   0.840  0.00  0.00    -0.077 A 
ATOM      3  C2  UNL d   1      -0.636  -0.084   1.073  0.00  0.00    -0.001 A 
ATOM      4  C3  UNL d   1       0.540   0.228   0.388  0.00  0.00     0.003 A 
ATOM      5  C4  UNL d   1       0.558   1.273  -0.533  0.00  0.00    -0.005 A 
ATOM      6  C5  UNL d   1      -0.601   2.009  -0.770  0.00  0.00     0.003 A 
ATOM      7  C6  UNL d   1      -1.778   1.699  -0.086  0.00  0.00    -0.001 A 
ENDROOT
TORSDOF 0
ENDMDL
