MODEL 1
REMARK minimizedAffinity -0.821729839
REMARK minimizedRMSD -1
REMARK  0 active torsions:
REMARK  status: ('A' for Active; 'I' for Inactive)
ROOT
ATOM      1  C   UNL d   1       0.672   0.847  -0.667  0.00  0.00     0.078 C 
ATOM      2  C1  UNL d   1      -0.297   0.259   0.315  0.00  0.00    -0.077 A 
ATOM      3  C2  UNL d   1      -1.468   0.940   0.669  0.00  0.00    -0.001 A 
ATOM      4  C3  UNL d   1      -2.356   0.385   1.592  0.00  0.00     0.003 A 
ATOM      5  C4  UNL d   1      -2.081  -0.853   2.170  0.00  0.00    -0.005 A 
ATOM      6  C5  UNL d   1      -0.917  -1.537   1.825  0.00  0.00     0.003 A 
ATOM      7  C6  UNL d   1      -0.028  -0.983   0.902  0.00  0.00    -0.001 A 
ENDROOT
TORSDOF 0
ENDMDL
