MODEL 1
REMARK minimizedAffinity -2.86694884
REMARK minimizedRMSD -1
REMARK  0 active torsions:
REMARK  status: ('A' for Active; 'I' for Inactive)
ROOT
ATOM      1  C   UNL d   1      -1.523   0.356   0.738  0.00  0.00     0.078 C 
ATOM      2  C1  UNL d   1      -0.249   0.400  -0.052  0.00  0.00    -0.077 A 
ATOM      3  C2  UNL d   1       0.655  -0.669  -0.023  0.00  0.00    -0.001 A 
ATOM      4  C3  UNL d   1       1.841  -0.610  -0.756  0.00  0.00     0.003 A 
ATOM      5  C4  UNL d   1       2.134   0.515  -1.523  0.00  0.00    -0.005 A 
ATOM      6  C5  UNL d   1       1.242   1.585  -1.557  0.00  0.00     0.003 A 
ATOM      7  C6  UNL d   1       0.055   1.528  -0.825  0.00  0.00    -0.001 A 
ENDROOT
TORSDOF 0
ENDMDL
