MODEL 1
REMARK minimizedAffinity -4.20273399
REMARK minimizedRMSD -1
REMARK  0 active torsions:
REMARK  status: ('A' for Active; 'I' for Inactive)
ROOT
ATOM      1  C   UNL d   1       1.637   0.828  -1.799  0.00  0.00     0.078 C 
ATOM      2  C1  UNL d   1       0.552   0.617  -0.786  0.00  0.00    -0.077 A 
ATOM      3  C2  UNL d   1       0.840   0.088   0.478  0.00  0.00    -0.001 A 
ATOM      4  C3  UNL d   1      -0.182  -0.112   1.408  0.00  0.00     0.003 A 
ATOM      5  C4  UNL d   1      -1.498   0.212   1.083  0.00  0.00    -0.005 A 
ATOM      6  C5  UNL d   1      -1.793   0.736  -0.174  0.00  0.00     0.003 A 
ATOM      7  C6  UNL d   1      -0.773   0.937  -1.105  0.00  0.00    -0.001 A 
ENDROOT
TORSDOF 0
ENDMDL
