MODEL 1
REMARK minimizedAffinity -3.42873359
REMARK minimizedRMSD -1
REMARK  0 active torsions:
REMARK  status: ('A' for Active; 'I' for Inactive)
ROOT
ATOM      1  C   UNL d   1       1.967   0.721  -2.004  0.00  0.00     0.078 C 
ATOM      2  C1  UNL d   1       0.841   0.441  -1.053  0.00  0.00    -0.077 A 
ATOM      3  C2  UNL d   1       1.052  -0.304   0.114  0.00  0.00    -0.001 A 
ATOM      4  C3  UNL d   1      -0.007  -0.565   0.985  0.00  0.00     0.003 A 
ATOM      5  C4  UNL d   1      -1.284  -0.087   0.697  0.00  0.00    -0.005 A 
ATOM      6  C5  UNL d   1      -1.503   0.653  -0.463  0.00  0.00     0.003 A 
ATOM      7  C6  UNL d   1      -0.446   0.916  -1.335  0.00  0.00    -0.001 A 
ENDROOT
TORSDOF 0
ENDMDL
