MODEL 1
REMARK minimizedAffinity -1.59744751
REMARK minimizedRMSD -1
REMARK  0 active torsions:
REMARK  status: ('A' for Active; 'I' for Inactive)
ROOT
ATOM      1  C   UNL d   1       0.401   0.694  -0.218  0.00  0.00     0.078 C 
ATOM      2  C1  UNL d   1      -0.769   0.563   0.710  0.00  0.00    -0.077 A 
ATOM      3  C2  UNL d   1      -0.843  -0.486   1.634  0.00  0.00    -0.001 A 
ATOM      4  C3  UNL d   1      -1.943  -0.602   2.485  0.00  0.00     0.003 A 
ATOM      5  C4  UNL d   1      -2.979   0.328   2.419  0.00  0.00    -0.005 A 
ATOM      6  C5  UNL d   1      -2.916   1.374   1.501  0.00  0.00     0.003 A 
ATOM      7  C6  UNL d   1      -1.816   1.491   0.649  0.00  0.00    -0.001 A 
ENDROOT
TORSDOF 0
ENDMDL
