MODEL 1
REMARK minimizedAffinity -3.85292959
REMARK minimizedRMSD -1
REMARK  0 active torsions:
REMARK  status: ('A' for Active; 'I' for Inactive)
ROOT
ATOM      1  C   UNL d   1      -2.680   0.086   1.445  0.00  0.00     0.078 C 
ATOM      2  C1  UNL d   1      -1.474   0.606   0.720  0.00  0.00    -0.077 A 
ATOM      3  C2  UNL d   1      -0.190   0.139   1.029  0.00  0.00    -0.001 A 
ATOM      4  C3  UNL d   1       0.924   0.638   0.353  0.00  0.00     0.003 A 
ATOM      5  C4  UNL d   1       0.766   1.608  -0.635  0.00  0.00    -0.005 A 
ATOM      6  C5  UNL d   1      -0.507   2.080  -0.948  0.00  0.00     0.003 A 
ATOM      7  C6  UNL d   1      -1.622   1.582  -0.273  0.00  0.00    -0.001 A 
ENDROOT
TORSDOF 0
ENDMDL
