MODEL 1
REMARK minimizedAffinity 12.3843937
REMARK minimizedRMSD -1
REMARK  2 active torsions:
REMARK  status: ('A' for Active; 'I' for Inactive)
REMARK    1  A    between atoms: C1_2  and  C2_3 
REMARK    2  A    between atoms: C2_3  and  C3_4 
ROOT
ATOM      1  C3  UNL d   1      -3.702   2.048   3.806  0.00  0.00    -0.075 A 
ATOM      2  C4  UNL d   1      -4.857   2.738   3.409  0.00  0.00     0.002 A 
ATOM      3  C5  UNL d   1      -5.509   3.596   4.295  0.00  0.00     0.002 A 
ATOM      4  C6  UNL d   1      -5.022   3.767   5.589  0.00  0.00    -0.004 A 
ATOM      5  C7  UNL d   1      -3.885   3.074   5.999  0.00  0.00     0.002 A 
ATOM      6  C8  UNL d   1      -3.228   2.218   5.113  0.00  0.00     0.002 A 
ENDROOT
BRANCH   1   7
ATOM      7  C2  UNL d   1      -2.975   1.140   2.842  0.00  0.00     0.056 C 
BRANCH   7   8
ATOM      8  C1  UNL d   1      -1.774   1.796   2.154  0.00  0.00     0.007 C 
ATOM      9  C   UNL d   1      -0.450   1.506   2.849  0.00  0.00     0.009 C 
ENDBRANCH   7   8
ENDBRANCH   1   7
TORSDOF 2
ENDMDL
