MODEL 1
REMARK minimizedAffinity -4.05128145
REMARK minimizedRMSD -1
REMARK  2 active torsions:
REMARK  status: ('A' for Active; 'I' for Inactive)
REMARK    1  A    between atoms: C1_2  and  C2_3 
REMARK    2  A    between atoms: C2_3  and  C3_4 
ROOT
ATOM      1  C3  UNL d   1       3.412  -4.118  -1.106  0.00  0.00    -0.075 A 
ATOM      2  C4  UNL d   1       2.320  -3.297  -1.425  0.00  0.00     0.002 A 
ATOM      3  C5  UNL d   1       2.068  -2.936  -2.749  0.00  0.00     0.002 A 
ATOM      4  C6  UNL d   1       2.908  -3.381  -3.767  0.00  0.00    -0.004 A 
ATOM      5  C7  UNL d   1       4.004  -4.183  -3.461  0.00  0.00     0.002 A 
ATOM      6  C8  UNL d   1       4.257  -4.550  -2.138  0.00  0.00     0.002 A 
ENDROOT
BRANCH   1   7
ATOM      7  C2  UNL d   1       3.673  -4.536   0.321  0.00  0.00     0.056 C 
BRANCH   7   8
ATOM      8  C1  UNL d   1       5.151  -4.795   0.634  0.00  0.00     0.007 C 
ATOM      9  C   UNL d   1       5.998  -3.529   0.622  0.00  0.00     0.009 C 
ENDBRANCH   7   8
ENDBRANCH   1   7
TORSDOF 2
ENDMDL
