MODEL 1
REMARK minimizedAffinity -1.92083514
REMARK minimizedRMSD -1
REMARK  2 active torsions:
REMARK  status: ('A' for Active; 'I' for Inactive)
REMARK    1  A    between atoms: C1_2  and  C2_3 
REMARK    2  A    between atoms: C2_3  and  C3_4 
ROOT
ATOM      1  C3  UNL d   1       1.208   2.404  -0.826  0.00  0.00    -0.075 A 
ATOM      2  C4  UNL d   1       1.229   1.106  -0.296  0.00  0.00     0.002 A 
ATOM      3  C5  UNL d   1       1.986   0.105  -0.904  0.00  0.00     0.002 A 
ATOM      4  C6  UNL d   1       2.722   0.385  -2.053  0.00  0.00    -0.004 A 
ATOM      5  C7  UNL d   1       2.696   1.667  -2.598  0.00  0.00     0.002 A 
ATOM      6  C8  UNL d   1       1.943   2.672  -1.989  0.00  0.00     0.002 A 
ENDROOT
BRANCH   1   7
ATOM      7  C2  UNL d   1       0.414   3.500  -0.156  0.00  0.00     0.056 C 
BRANCH   7   8
ATOM      8  C1  UNL d   1       0.922   4.913  -0.459  0.00  0.00     0.007 C 
ATOM      9  C   UNL d   1      -0.093   6.000  -0.129  0.00  0.00     0.009 C 
ENDBRANCH   7   8
ENDBRANCH   1   7
TORSDOF 2
ENDMDL
