MODEL 1
REMARK minimizedAffinity -1.84707069
REMARK minimizedRMSD -1
REMARK  2 active torsions:
REMARK  status: ('A' for Active; 'I' for Inactive)
REMARK    1  A    between atoms: C1_2  and  C2_3 
REMARK    2  A    between atoms: C2_3  and  C3_4 
ROOT
ATOM      1  C3  UNL d   1       1.552   3.590  -0.991  0.00  0.00    -0.075 A 
ATOM      2  C4  UNL d   1       0.300   3.492  -0.366  0.00  0.00     0.002 A 
ATOM      3  C5  UNL d   1      -0.363   4.638   0.075  0.00  0.00     0.002 A 
ATOM      4  C6  UNL d   1       0.219   5.892  -0.093  0.00  0.00    -0.004 A 
ATOM      5  C7  UNL d   1       1.470   6.000  -0.698  0.00  0.00     0.002 A 
ATOM      6  C8  UNL d   1       2.134   4.856  -1.145  0.00  0.00     0.002 A 
ENDROOT
BRANCH   1   7
ATOM      7  C2  UNL d   1       2.261   2.357  -1.497  0.00  0.00     0.056 C 
BRANCH   7   8
ATOM      8  C1  UNL d   1       2.032   1.109  -0.638  0.00  0.00     0.007 C 
ATOM      9  C   UNL d   1       1.930  -0.172  -1.455  0.00  0.00     0.009 C 
ENDBRANCH   7   8
ENDBRANCH   1   7
TORSDOF 2
ENDMDL
