MODEL 1
REMARK minimizedAffinity 5.75128508
REMARK minimizedRMSD -1
REMARK  2 active torsions:
REMARK  status: ('A' for Active; 'I' for Inactive)
REMARK    1  A    between atoms: C1_2  and  C2_3 
REMARK    2  A    between atoms: C2_3  and  C3_4 
ROOT
ATOM      1  C3  UNL d   1       1.231  -1.346  -1.598  0.00  0.00    -0.075 A 
ATOM      2  C4  UNL d   1       2.074  -0.717  -0.671  0.00  0.00     0.002 A 
ATOM      3  C5  UNL d   1       2.739   0.463  -1.005  0.00  0.00     0.002 A 
ATOM      4  C6  UNL d   1       2.579   1.022  -2.271  0.00  0.00    -0.004 A 
ATOM      5  C7  UNL d   1       1.757   0.396  -3.206  0.00  0.00     0.002 A 
ATOM      6  C8  UNL d   1       1.087  -0.782  -2.873  0.00  0.00     0.002 A 
ENDROOT
BRANCH   1   7
ATOM      7  C2  UNL d   1       0.485  -2.607  -1.233  0.00  0.00     0.056 C 
BRANCH   7   8
ATOM      8  C1  UNL d   1      -0.522  -3.066  -2.293  0.00  0.00     0.007 C 
ATOM      9  C   UNL d   1      -1.396  -4.224  -1.830  0.00  0.00     0.009 C 
ENDBRANCH   7   8
ENDBRANCH   1   7
TORSDOF 2
ENDMDL
