MODEL 1
REMARK minimizedAffinity 4.2829175
REMARK minimizedRMSD -1
REMARK  2 active torsions:
REMARK  status: ('A' for Active; 'I' for Inactive)
REMARK    1  A    between atoms: C1_2  and  C2_3 
REMARK    2  A    between atoms: C2_3  and  C3_4 
ROOT
ATOM      1  C3  UNL d   1       2.044  -1.252  -1.424  0.00  0.00    -0.075 A 
ATOM      2  C4  UNL d   1       2.901  -2.005  -0.608  0.00  0.00     0.002 A 
ATOM      3  C5  UNL d   1       4.092  -1.455  -0.132  0.00  0.00     0.002 A 
ATOM      4  C6  UNL d   1       4.445  -0.151  -0.473  0.00  0.00    -0.004 A 
ATOM      5  C7  UNL d   1       3.609   0.601  -1.296  0.00  0.00     0.002 A 
ATOM      6  C8  UNL d   1       2.415   0.054  -1.770  0.00  0.00     0.002 A 
ENDROOT
BRANCH   1   7
ATOM      7  C2  UNL d   1       0.741  -1.832  -1.918  0.00  0.00     0.056 C 
BRANCH   7   8
ATOM      8  C1  UNL d   1       0.299  -3.096  -1.174  0.00  0.00     0.007 C 
ATOM      9  C   UNL d   1      -0.643  -3.974  -1.988  0.00  0.00     0.009 C 
ENDBRANCH   7   8
ENDBRANCH   1   7
TORSDOF 2
ENDMDL
