MODEL 1
REMARK minimizedAffinity 8.05086327
REMARK minimizedRMSD -1
REMARK  2 active torsions:
REMARK  status: ('A' for Active; 'I' for Inactive)
REMARK    1  A    between atoms: C1_2  and  C2_3 
REMARK    2  A    between atoms: C2_3  and  C3_4 
ROOT
ATOM      1  C3  UNL d   1       2.253   2.405  -2.256  0.00  0.00    -0.075 A 
ATOM      2  C4  UNL d   1       1.531   1.747  -3.263  0.00  0.00     0.002 A 
ATOM      3  C5  UNL d   1       1.464   0.353  -3.290  0.00  0.00     0.002 A 
ATOM      4  C6  UNL d   1       2.123  -0.398  -2.320  0.00  0.00    -0.004 A 
ATOM      5  C7  UNL d   1       2.857   0.245  -1.325  0.00  0.00     0.002 A 
ATOM      6  C8  UNL d   1       2.922   1.639  -1.293  0.00  0.00     0.002 A 
ENDROOT
BRANCH   1   7
ATOM      7  C2  UNL d   1       2.305   3.913  -2.204  0.00  0.00     0.056 C 
BRANCH   7   8
ATOM      8  C1  UNL d   1       1.858   4.507  -0.865  0.00  0.00     0.007 C 
ATOM      9  C   UNL d   1       1.556   5.998  -0.939  0.00  0.00     0.009 C 
ENDBRANCH   7   8
ENDBRANCH   1   7
TORSDOF 2
ENDMDL
