MODEL 1
REMARK minimizedAffinity 18.3902855
REMARK minimizedRMSD -1
REMARK  2 active torsions:
REMARK  status: ('A' for Active; 'I' for Inactive)
REMARK    1  A    between atoms: C1_2  and  C2_3 
REMARK    2  A    between atoms: C2_3  and  C3_4 
ROOT
ATOM      1  C3  UNL d   1       2.379  -0.297  -0.320  0.00  0.00    -0.075 A 
ATOM      2  C4  UNL d   1       2.351  -1.699  -0.291  0.00  0.00     0.002 A 
ATOM      3  C5  UNL d   1       1.755  -2.417  -1.329  0.00  0.00     0.002 A 
ATOM      4  C6  UNL d   1       1.173  -1.744  -2.401  0.00  0.00    -0.004 A 
ATOM      5  C7  UNL d   1       1.181  -0.351  -2.432  0.00  0.00     0.002 A 
ATOM      6  C8  UNL d   1       1.780   0.369  -1.397  0.00  0.00     0.002 A 
ENDROOT
BRANCH   1   7
ATOM      7  C2  UNL d   1       3.048   0.485   0.785  0.00  0.00     0.056 C 
BRANCH   7   8
ATOM      8  C1  UNL d   1       2.138   1.520   1.456  0.00  0.00     0.007 C 
ATOM      9  C   UNL d   1       2.859   2.370   2.493  0.00  0.00     0.009 C 
ENDBRANCH   7   8
ENDBRANCH   1   7
TORSDOF 2
ENDMDL
