MODEL 1
REMARK minimizedAffinity 8.77697277
REMARK minimizedRMSD -1
REMARK  2 active torsions:
REMARK  status: ('A' for Active; 'I' for Inactive)
REMARK    1  A    between atoms: C1_2  and  C2_3 
REMARK    2  A    between atoms: C2_3  and  C3_4 
ROOT
ATOM      1  C3  UNL d   1      -3.822  -3.662   2.832  0.00  0.00    -0.075 A 
ATOM      2  C4  UNL d   1      -3.311  -2.425   3.250  0.00  0.00     0.002 A 
ATOM      3  C5  UNL d   1      -4.141  -1.306   3.327  0.00  0.00     0.002 A 
ATOM      4  C6  UNL d   1      -5.486  -1.407   2.979  0.00  0.00    -0.004 A 
ATOM      5  C7  UNL d   1      -6.000  -2.627   2.546  0.00  0.00     0.002 A 
ATOM      6  C8  UNL d   1      -5.173  -3.750   2.472  0.00  0.00     0.002 A 
ENDROOT
BRANCH   1   7
ATOM      7  C2  UNL d   1      -2.936  -4.884   2.775  0.00  0.00     0.056 C 
BRANCH   7   8
ATOM      8  C1  UNL d   1      -3.342  -5.900   1.702  0.00  0.00     0.007 C 
ATOM      9  C   UNL d   1      -2.893  -5.505   0.301  0.00  0.00     0.009 C 
ENDBRANCH   7   8
ENDBRANCH   1   7
TORSDOF 2
ENDMDL
