MODEL 1
REMARK minimizedAffinity 0.60242939
REMARK minimizedRMSD -1
REMARK  2 active torsions:
REMARK  status: ('A' for Active; 'I' for Inactive)
REMARK    1  A    between atoms: C1_2  and  C2_3 
REMARK    2  A    between atoms: C2_3  and  C3_4 
ROOT
ATOM      1  C3  UNL d   1      -3.904   3.443  -5.660  0.00  0.00    -0.075 A 
ATOM      2  C4  UNL d   1      -3.179   4.643  -5.699  0.00  0.00     0.002 A 
ATOM      3  C5  UNL d   1      -3.837   5.863  -5.862  0.00  0.00     0.002 A 
ATOM      4  C6  UNL d   1      -5.223   5.898  -5.999  0.00  0.00    -0.004 A 
ATOM      5  C7  UNL d   1      -5.951   4.710  -5.979  0.00  0.00     0.002 A 
ATOM      6  C8  UNL d   1      -5.297   3.489  -5.810  0.00  0.00     0.002 A 
ENDROOT
BRANCH   1   7
ATOM      7  C2  UNL d   1      -3.202   2.122  -5.453  0.00  0.00     0.056 C 
BRANCH   7   8
ATOM      8  C1  UNL d   1      -1.679   2.195  -5.607  0.00  0.00     0.007 C 
ATOM      9  C   UNL d   1      -1.180   3.582  -5.988  0.00  0.00     0.009 C 
ENDBRANCH   7   8
ENDBRANCH   1   7
TORSDOF 2
ENDMDL
