MODEL 1
REMARK minimizedAffinity 6.30835676
REMARK minimizedRMSD -1
REMARK  2 active torsions:
REMARK  status: ('A' for Active; 'I' for Inactive)
REMARK    1  A    between atoms: C1_2  and  C2_3 
REMARK    2  A    between atoms: C2_3  and  C3_4 
ROOT
ATOM      1  C3  UNL d   1       1.925   1.558  -1.931  0.00  0.00    -0.075 A 
ATOM      2  C4  UNL d   1       1.433   0.619  -2.848  0.00  0.00     0.002 A 
ATOM      3  C5  UNL d   1       1.693  -0.741  -2.679  0.00  0.00     0.002 A 
ATOM      4  C6  UNL d   1       2.457  -1.178  -1.598  0.00  0.00    -0.004 A 
ATOM      5  C7  UNL d   1       2.965  -0.252  -0.690  0.00  0.00     0.002 A 
ATOM      6  C8  UNL d   1       2.702   1.109  -0.854  0.00  0.00     0.002 A 
ENDROOT
BRANCH   1   7
ATOM      7  C2  UNL d   1       1.622   3.029  -2.092  0.00  0.00     0.056 C 
BRANCH   7   8
ATOM      8  C1  UNL d   1       1.796   3.846  -0.808  0.00  0.00     0.007 C 
ATOM      9  C   UNL d   1       2.010   5.332  -1.066  0.00  0.00     0.009 C 
ENDBRANCH   7   8
ENDBRANCH   1   7
TORSDOF 2
ENDMDL
