MODEL 1
REMARK minimizedAffinity 7.36184978
REMARK minimizedRMSD -1
REMARK  2 active torsions:
REMARK  status: ('A' for Active; 'I' for Inactive)
REMARK    1  A    between atoms: C1_2  and  C2_3 
REMARK    2  A    between atoms: C2_3  and  C3_4 
ROOT
ATOM      1  C3  UNL d   1      -1.424  -4.393  -0.646  0.00  0.00    -0.075 A 
ATOM      2  C4  UNL d   1      -2.519  -4.610   0.203  0.00  0.00     0.002 A 
ATOM      3  C5  UNL d   1      -2.392  -4.439   1.582  0.00  0.00     0.002 A 
ATOM      4  C6  UNL d   1      -1.168  -4.059   2.129  0.00  0.00    -0.004 A 
ATOM      5  C7  UNL d   1      -0.069  -3.857   1.297  0.00  0.00     0.002 A 
ATOM      6  C8  UNL d   1      -0.195  -4.024  -0.083  0.00  0.00     0.002 A 
ENDROOT
BRANCH   1   7
ATOM      7  C2  UNL d   1      -1.563  -4.548  -2.141  0.00  0.00     0.056 C 
BRANCH   7   8
ATOM      8  C1  UNL d   1      -1.875  -3.241  -2.878  0.00  0.00     0.007 C 
ATOM      9  C   UNL d   1      -1.913  -3.399  -4.392  0.00  0.00     0.009 C 
ENDBRANCH   7   8
ENDBRANCH   1   7
TORSDOF 2
ENDMDL
