MODEL 1
REMARK minimizedAffinity 4.47972775
REMARK minimizedRMSD -1
REMARK  2 active torsions:
REMARK  status: ('A' for Active; 'I' for Inactive)
REMARK    1  A    between atoms: C1_2  and  C2_3 
REMARK    2  A    between atoms: C2_3  and  C3_4 
ROOT
ATOM      1  C3  UNL d   1      -2.649  -3.975  -4.776  0.00  0.00    -0.075 A 
ATOM      2  C4  UNL d   1      -2.729  -4.970  -3.791  0.00  0.00     0.002 A 
ATOM      3  C5  UNL d   1      -1.888  -4.933  -2.678  0.00  0.00     0.002 A 
ATOM      4  C6  UNL d   1      -0.952  -3.910  -2.542  0.00  0.00    -0.004 A 
ATOM      5  C7  UNL d   1      -0.852  -2.927  -3.524  0.00  0.00     0.002 A 
ATOM      6  C8  UNL d   1      -1.696  -2.958  -4.636  0.00  0.00     0.002 A 
ENDROOT
BRANCH   1   7
ATOM      7  C2  UNL d   1      -3.577  -3.993  -5.968  0.00  0.00     0.056 C 
BRANCH   7   8
ATOM      8  C1  UNL d   1      -4.531  -5.191  -5.998  0.00  0.00     0.007 C 
ATOM      9  C   UNL d   1      -6.000  -4.789  -5.999  0.00  0.00     0.009 C 
ENDBRANCH   7   8
ENDBRANCH   1   7
TORSDOF 2
ENDMDL
