MODEL 1
REMARK minimizedAffinity 4.6103549
REMARK minimizedRMSD -1
REMARK  2 active torsions:
REMARK  status: ('A' for Active; 'I' for Inactive)
REMARK    1  A    between atoms: C1_2  and  C2_3 
REMARK    2  A    between atoms: C2_3  and  C3_4 
ROOT
ATOM      1  C3  UNL d   1       0.189  -3.355   0.587  0.00  0.00    -0.075 A 
ATOM      2  C4  UNL d   1       0.918  -4.515   0.292  0.00  0.00     0.002 A 
ATOM      3  C5  UNL d   1       2.307  -4.467   0.169  0.00  0.00     0.002 A 
ATOM      4  C6  UNL d   1       2.982  -3.259   0.329  0.00  0.00    -0.004 A 
ATOM      5  C7  UNL d   1       2.266  -2.097   0.607  0.00  0.00     0.002 A 
ATOM      6  C8  UNL d   1       0.877  -2.143   0.734  0.00  0.00     0.002 A 
ENDROOT
BRANCH   1   7
ATOM      7  C2  UNL d   1      -1.312  -3.406   0.751  0.00  0.00     0.056 C 
BRANCH   7   8
ATOM      8  C1  UNL d   1      -1.773  -3.768   2.166  0.00  0.00     0.007 C 
ATOM      9  C   UNL d   1      -1.544  -2.653   3.177  0.00  0.00     0.009 C 
ENDBRANCH   7   8
ENDBRANCH   1   7
TORSDOF 2
ENDMDL
