MODEL 1
REMARK minimizedAffinity -1.00345051
REMARK minimizedRMSD -1
REMARK  0 active torsions:
REMARK  status: ('A' for Active; 'I' for Inactive)
ROOT
ATOM      1  N1  IND d   1      -2.986   3.026   0.343  0.00  0.00    -0.196 N 
ATOM      2  C2  IND d   1      -4.109   2.336   0.708  0.00  0.00     0.054 A 
ATOM      3  C3  IND d   1      -3.786   1.080   1.088  0.00  0.00    -0.031 A 
ATOM      4  C4  IND d   1      -1.469  -0.024   1.289  0.00  0.00     0.051 A 
ATOM      5  C5  IND d   1      -0.145   0.196   1.034  0.00  0.00    -0.031 A 
ATOM      6  C6  IND d   1       0.310   1.397   0.528  0.00  0.00     0.015 A 
ATOM      7  C7  IND d   1      -0.546   2.430   0.267  0.00  0.00    -0.016 A 
ATOM      8  C8  IND d   1      -1.892   2.207   0.519  0.00  0.00    -0.047 A 
ATOM      9  C9  IND d   1      -2.365   0.976   0.992  0.00  0.00    -0.096 A 
ATOM     10  HN1 IND d   1      -2.966   3.835   0.053  0.00  0.00     0.298 HD
ENDROOT
TORSDOF 0
ENDMDL
