MODEL 1
REMARK minimizedAffinity 3.67167306
REMARK minimizedRMSD -1
REMARK  0 active torsions:
REMARK  status: ('A' for Active; 'I' for Inactive)
ROOT
ATOM      1  N1  IND d   1      -3.551   1.973   0.950  0.00  0.00    -0.196 N 
ATOM      2  C2  IND d   1      -4.042   2.285  -0.287  0.00  0.00     0.054 A 
ATOM      3  C3  IND d   1      -3.033   2.385  -1.181  0.00  0.00    -0.031 A 
ATOM      4  C4  IND d   1      -0.512   1.978  -0.855  0.00  0.00     0.051 A 
ATOM      5  C5  IND d   1       0.420   1.708   0.107  0.00  0.00    -0.031 A 
ATOM      6  C6  IND d   1       0.068   1.506   1.426  0.00  0.00     0.015 A 
ATOM      7  C7  IND d   1      -1.235   1.555   1.832  0.00  0.00    -0.016 A 
ATOM      8  C8  IND d   1      -2.184   1.836   0.858  0.00  0.00    -0.047 A 
ATOM      9  C9  IND d   1      -1.829   2.084  -0.474  0.00  0.00    -0.096 A 
ATOM     10  HN1 IND d   1      -4.018   1.879   1.666  0.00  0.00     0.298 HD
ENDROOT
TORSDOF 0
ENDMDL
