MODEL 1
REMARK minimizedAffinity 0.0322878212
REMARK minimizedRMSD -1
REMARK  0 active torsions:
REMARK  status: ('A' for Active; 'I' for Inactive)
ROOT
ATOM      1  N1  IND d   1      -4.690   2.506   0.325  0.00  0.00    -0.196 N 
ATOM      2  C2  IND d   1      -5.485   1.585   0.949  0.00  0.00     0.054 A 
ATOM      3  C3  IND d   1      -4.745   0.539   1.378  0.00  0.00    -0.031 A 
ATOM      4  C4  IND d   1      -2.199   0.177   1.256  0.00  0.00     0.051 A 
ATOM      5  C5  IND d   1      -1.056   0.727   0.746  0.00  0.00    -0.031 A 
ATOM      6  C6  IND d   1      -1.066   1.923   0.058  0.00  0.00     0.015 A 
ATOM      7  C7  IND d   1      -2.223   2.623  -0.137  0.00  0.00    -0.016 A 
ATOM      8  C8  IND d   1      -3.386   2.064   0.374  0.00  0.00    -0.047 A 
ATOM      9  C9  IND d   1      -3.389   0.830   1.036  0.00  0.00    -0.096 A 
ATOM     10  HN1 IND d   1      -4.960   3.238  -0.037  0.00  0.00     0.298 HD
ENDROOT
TORSDOF 0
ENDMDL
