MODEL 1
REMARK minimizedAffinity 3.69856262
REMARK minimizedRMSD -1
REMARK  0 active torsions:
REMARK  status: ('A' for Active; 'I' for Inactive)
ROOT
ATOM      1  N1  IND d   1      -0.568  -0.629   2.752  0.00  0.00    -0.196 N 
ATOM      2  C2  IND d   1      -1.930  -0.731   2.695  0.00  0.00     0.054 A 
ATOM      3  C3  IND d   1      -2.408  -0.054   1.626  0.00  0.00    -0.031 A 
ATOM      4  C4  IND d   1      -1.128   1.207  -0.217  0.00  0.00     0.051 A 
ATOM      5  C5  IND d   1       0.129   1.607  -0.575  0.00  0.00    -0.031 A 
ATOM      6  C6  IND d   1       1.240   1.273   0.171  0.00  0.00     0.015 A 
ATOM      7  C7  IND d   1       1.137   0.513   1.302  0.00  0.00    -0.016 A 
ATOM      8  C8  IND d   1      -0.138   0.111   1.672  0.00  0.00    -0.047 A 
ATOM      9  C9  IND d   1      -1.275   0.483   0.943  0.00  0.00    -0.096 A 
ATOM     10  HN1 IND d   1      -0.065  -0.970   3.359  0.00  0.00     0.298 HD
ENDROOT
TORSDOF 0
ENDMDL
