MODEL 1
REMARK minimizedAffinity 6.38404322
REMARK minimizedRMSD -1
REMARK  0 active torsions:
REMARK  status: ('A' for Active; 'I' for Inactive)
ROOT
ATOM      1  N1  IND d   1      -2.634  -0.234   1.849  0.00  0.00    -0.196 N 
ATOM      2  C2  IND d   1      -3.835   0.002   1.240  0.00  0.00     0.054 A 
ATOM      3  C3  IND d   1      -3.752   1.090   0.442  0.00  0.00    -0.031 A 
ATOM      4  C4  IND d   1      -1.718   2.574  -0.093  0.00  0.00     0.051 A 
ATOM      5  C5  IND d   1      -0.410   2.775   0.251  0.00  0.00    -0.031 A 
ATOM      6  C6  IND d   1       0.237   1.965   1.161  0.00  0.00     0.015 A 
ATOM      7  C7  IND d   1      -0.400   0.912   1.756  0.00  0.00    -0.016 A 
ATOM      8  C8  IND d   1      -1.729   0.710   1.414  0.00  0.00    -0.047 A 
ATOM      9  C9  IND d   1      -2.403   1.554   0.523  0.00  0.00    -0.096 A 
ATOM     10  HN1 IND d   1      -2.471  -0.866   2.409  0.00  0.00     0.298 HD
ENDROOT
TORSDOF 0
ENDMDL
