MODEL 1
REMARK minimizedAffinity 9.41523647
REMARK minimizedRMSD -1
REMARK  0 active torsions:
REMARK  status: ('A' for Active; 'I' for Inactive)
ROOT
ATOM      1  N1  IND d   1      -3.253   1.733   0.750  0.00  0.00    -0.196 N 
ATOM      2  C2  IND d   1      -3.249   2.632  -0.280  0.00  0.00     0.054 A 
ATOM      3  C3  IND d   1      -1.982   2.890  -0.675  0.00  0.00    -0.031 A 
ATOM      4  C4  IND d   1       0.231   1.874   0.162  0.00  0.00     0.051 A 
ATOM      5  C5  IND d   1       0.739   1.037   1.116  0.00  0.00    -0.031 A 
ATOM      6  C6  IND d   1      -0.074   0.374   2.013  0.00  0.00     0.015 A 
ATOM      7  C7  IND d   1      -1.432   0.515   1.982  0.00  0.00    -0.016 A 
ATOM      8  C8  IND d   1      -1.951   1.370   1.019  0.00  0.00    -0.047 A 
ATOM      9  C9  IND d   1      -1.129   2.078   0.134  0.00  0.00    -0.096 A 
ATOM     10  HN1 IND d   1      -3.950   1.444   1.161  0.00  0.00     0.298 HD
ENDROOT
TORSDOF 0
ENDMDL
