MODEL 1
REMARK minimizedAffinity -2.63521171
REMARK minimizedRMSD -1
REMARK  0 active torsions:
REMARK  status: ('A' for Active; 'I' for Inactive)
ROOT
ATOM      1  N1  IND d   1      -4.261   2.978   0.188  0.00  0.00    -0.196 N 
ATOM      2  C2  IND d   1      -5.250   2.197   0.720  0.00  0.00     0.054 A 
ATOM      3  C3  IND d   1      -4.755   0.992   1.081  0.00  0.00    -0.031 A 
ATOM      4  C4  IND d   1      -2.333   0.123   0.985  0.00  0.00     0.051 A 
ATOM      5  C5  IND d   1      -1.084   0.461   0.545  0.00  0.00    -0.031 A 
ATOM      6  C6  IND d   1      -0.825   1.680  -0.046  0.00  0.00     0.015 A 
ATOM      7  C7  IND d   1      -1.806   2.616  -0.210  0.00  0.00    -0.016 A 
ATOM      8  C8  IND d   1      -3.077   2.274   0.230  0.00  0.00    -0.047 A 
ATOM      9  C9  IND d   1      -3.356   1.022   0.792  0.00  0.00    -0.096 A 
ATOM     10  HN1 IND d   1      -4.362   3.774  -0.120  0.00  0.00     0.298 HD
ENDROOT
TORSDOF 0
ENDMDL
