MODEL 1
REMARK minimizedAffinity 5.40159178
REMARK minimizedRMSD -1
REMARK  0 active torsions:
REMARK  status: ('A' for Active; 'I' for Inactive)
ROOT
ATOM      1  N1  IND d   1       0.522  -0.119   0.864  0.00  0.00    -0.196 N 
ATOM      2  C2  IND d   1       1.630   0.662   0.693  0.00  0.00     0.054 A 
ATOM      3  C3  IND d   1       1.279   1.965   0.608  0.00  0.00    -0.031 A 
ATOM      4  C4  IND d   1      -1.046   3.050   0.828  0.00  0.00     0.051 A 
ATOM      5  C5  IND d   1      -2.371   2.740   0.955  0.00  0.00    -0.031 A 
ATOM      6  C6  IND d   1      -2.808   1.436   1.063  0.00  0.00     0.015 A 
ATOM      7  C7  IND d   1      -1.932   0.388   1.059  0.00  0.00    -0.016 A 
ATOM      8  C8  IND d   1      -0.586   0.698   0.924  0.00  0.00    -0.047 A 
ATOM      9  C9  IND d   1      -0.139   2.017   0.771  0.00  0.00    -0.096 A 
ATOM     10  HN1 IND d   1       0.517  -0.977   0.924  0.00  0.00     0.298 HD
ENDROOT
TORSDOF 0
ENDMDL
