MODEL 1
REMARK minimizedAffinity -1.55912483
REMARK minimizedRMSD -1
REMARK  0 active torsions:
REMARK  status: ('A' for Active; 'I' for Inactive)
ROOT
ATOM      1  N1  IND d   1      -1.163   2.907   0.273  0.00  0.00    -0.196 N 
ATOM      2  C2  IND d   1      -0.004   2.324   0.702  0.00  0.00     0.054 A 
ATOM      3  C3  IND d   1      -0.261   1.116   1.253  0.00  0.00    -0.031 A 
ATOM      4  C4  IND d   1      -2.496  -0.144   1.463  0.00  0.00     0.051 A 
ATOM      5  C5  IND d   1      -3.837  -0.001   1.247  0.00  0.00    -0.031 A 
ATOM      6  C6  IND d   1      -4.367   1.141   0.682  0.00  0.00     0.015 A 
ATOM      7  C7  IND d   1      -3.570   2.182   0.299  0.00  0.00    -0.016 A 
ATOM      8  C8  IND d   1      -2.207   2.043   0.523  0.00  0.00    -0.047 A 
ATOM      9  C9  IND d   1      -1.668   0.904   1.135  0.00  0.00    -0.096 A 
ATOM     10  HN1 IND d   1      -1.230   3.682  -0.092  0.00  0.00     0.298 HD
ENDROOT
TORSDOF 0
ENDMDL
