MODEL 1
REMARK minimizedAffinity 2.62083697
REMARK minimizedRMSD -1
REMARK  0 active torsions:
REMARK  status: ('A' for Active; 'I' for Inactive)
ROOT
ATOM      1  N1  IND d   1      -0.047  -0.139   1.484  0.00  0.00    -0.196 N 
ATOM      2  C2  IND d   1       0.935   0.811   1.523  0.00  0.00     0.054 A 
ATOM      3  C3  IND d   1       0.442   2.013   1.149  0.00  0.00    -0.031 A 
ATOM      4  C4  IND d   1      -1.969   2.672   0.531  0.00  0.00     0.051 A 
ATOM      5  C5  IND d   1      -3.209   2.140   0.318  0.00  0.00    -0.031 A 
ATOM      6  C6  IND d   1      -3.465   0.795   0.489  0.00  0.00     0.015 A 
ATOM      7  C7  IND d   1      -2.488  -0.071   0.892  0.00  0.00    -0.016 A 
ATOM      8  C8  IND d   1      -1.225   0.464   1.102  0.00  0.00    -0.047 A 
ATOM      9  C9  IND d   1      -0.949   1.821   0.890  0.00  0.00    -0.096 A 
ATOM     10  HN1 IND d   1       0.054  -0.973   1.667  0.00  0.00     0.298 HD
ENDROOT
TORSDOF 0
ENDMDL
