MODEL 1
REMARK minimizedAffinity 2.26990342
REMARK minimizedRMSD -1
REMARK  0 active torsions:
REMARK  status: ('A' for Active; 'I' for Inactive)
ROOT
ATOM      1  N1  IND d   1      -3.509   1.773   0.641  0.00  0.00    -0.196 N 
ATOM      2  C2  IND d   1      -3.522   3.044   0.136  0.00  0.00     0.054 A 
ATOM      3  C3  IND d   1      -2.260   3.472  -0.092  0.00  0.00    -0.031 A 
ATOM      4  C4  IND d   1      -0.030   2.217   0.195  0.00  0.00     0.051 A 
ATOM      5  C5  IND d   1       0.494   1.045   0.662  0.00  0.00    -0.031 A 
ATOM      6  C6  IND d   1      -0.306   0.033   1.153  0.00  0.00     0.015 A 
ATOM      7  C7  IND d   1      -1.667   0.153   1.185  0.00  0.00    -0.016 A 
ATOM      8  C8  IND d   1      -2.202   1.345   0.719  0.00  0.00    -0.047 A 
ATOM      9  C9  IND d   1      -1.392   2.392   0.259  0.00  0.00    -0.096 A 
ATOM     10  HN1 IND d   1      -4.201   1.318   0.872  0.00  0.00     0.298 HD
ENDROOT
TORSDOF 0
ENDMDL
