MODEL 1
REMARK minimizedAffinity -1.0743866
REMARK minimizedRMSD -1
REMARK  0 active torsions:
REMARK  status: ('A' for Active; 'I' for Inactive)
ROOT
ATOM      1  N1  IND d   1      -3.215   2.795  -0.016  0.00  0.00    -0.196 N 
ATOM      2  C2  IND d   1      -4.254   2.278   0.707  0.00  0.00     0.054 A 
ATOM      3  C3  IND d   1      -3.851   1.184   1.392  0.00  0.00    -0.031 A 
ATOM      4  C4  IND d   1      -1.511   0.124   1.552  0.00  0.00     0.051 A 
ATOM      5  C5  IND d   1      -0.247   0.220   1.040  0.00  0.00    -0.031 A 
ATOM      6  C6  IND d   1       0.099   1.202   0.134  0.00  0.00     0.015 A 
ATOM      7  C7  IND d   1      -0.806   2.134  -0.287  0.00  0.00    -0.016 A 
ATOM      8  C8  IND d   1      -2.092   2.035   0.225  0.00  0.00    -0.047 A 
ATOM      9  C9  IND d   1      -2.461   1.015   1.112  0.00  0.00    -0.096 A 
ATOM     10  HN1 IND d   1      -3.256   3.480  -0.534  0.00  0.00     0.298 HD
ENDROOT
TORSDOF 0
ENDMDL
