MODEL 1
REMARK minimizedAffinity -3.30033994
REMARK minimizedRMSD -1
REMARK  0 active torsions:
REMARK  status: ('A' for Active; 'I' for Inactive)
ROOT
ATOM      1  N1  IND d   1      -3.602   2.558  -0.421  0.00  0.00    -0.196 N 
ATOM      2  C2  IND d   1      -4.484   1.829   0.328  0.00  0.00     0.054 A 
ATOM      3  C3  IND d   1      -3.825   0.909   1.067  0.00  0.00    -0.031 A 
ATOM      4  C4  IND d   1      -1.293   0.491   1.282  0.00  0.00     0.051 A 
ATOM      5  C5  IND d   1      -0.090   0.882   0.766  0.00  0.00    -0.031 A 
ATOM      6  C6  IND d   1       0.007   1.874  -0.189  0.00  0.00     0.015 A 
ATOM      7  C7  IND d   1      -1.101   2.522  -0.657  0.00  0.00    -0.016 A 
ATOM      8  C8  IND d   1      -2.325   2.122  -0.141  0.00  0.00    -0.047 A 
ATOM      9  C9  IND d   1      -2.433   1.088   0.797  0.00  0.00    -0.096 A 
ATOM     10  HN1 IND d   1      -3.810   3.183  -0.973  0.00  0.00     0.298 HD
ENDROOT
TORSDOF 0
ENDMDL
