MODEL 1
REMARK minimizedAffinity 1.54231
REMARK minimizedRMSD -1
REMARK  0 active torsions:
REMARK  status: ('A' for Active; 'I' for Inactive)
ROOT
ATOM      1  N1  IND d   1      -3.641   1.018   1.176  0.00  0.00    -0.196 N 
ATOM      2  C2  IND d   1      -4.195   1.939   0.332  0.00  0.00     0.054 A 
ATOM      3  C3  IND d   1      -3.231   2.565  -0.380  0.00  0.00    -0.031 A 
ATOM      4  C4  IND d   1      -0.688   2.163  -0.395  0.00  0.00     0.051 A 
ATOM      5  C5  IND d   1       0.293   1.449   0.233  0.00  0.00    -0.031 A 
ATOM      6  C6  IND d   1       0.007   0.534   1.226  0.00  0.00     0.015 A 
ATOM      7  C7  IND d   1      -1.277   0.290   1.621  0.00  0.00    -0.016 A 
ATOM      8  C8  IND d   1      -2.276   1.019   0.991  0.00  0.00    -0.047 A 
ATOM      9  C9  IND d   1      -1.988   1.979   0.012  0.00  0.00    -0.096 A 
ATOM     10  HN1 IND d   1      -4.072   0.522   1.730  0.00  0.00     0.298 HD
ENDROOT
TORSDOF 0
ENDMDL
