MODEL 1
REMARK minimizedAffinity -1.15506399
REMARK minimizedRMSD -1
REMARK  0 active torsions:
REMARK  status: ('A' for Active; 'I' for Inactive)
ROOT
ATOM      1  N1  IND d   1      -3.532   0.731   1.011  0.00  0.00    -0.196 N 
ATOM      2  C2  IND d   1      -4.419   1.697   0.627  0.00  0.00     0.054 A 
ATOM      3  C3  IND d   1      -3.796   2.639  -0.117  0.00  0.00    -0.031 A 
ATOM      4  C4  IND d   1      -1.350   2.741  -0.912  0.00  0.00     0.051 A 
ATOM      5  C5  IND d   1      -0.148   2.103  -0.785  0.00  0.00    -0.031 A 
ATOM      6  C6  IND d   1      -0.011   0.950  -0.039  0.00  0.00     0.015 A 
ATOM      7  C7  IND d   1      -1.077   0.383   0.600  0.00  0.00    -0.016 A 
ATOM      8  C8  IND d   1      -2.298   1.033   0.478  0.00  0.00    -0.047 A 
ATOM      9  C9  IND d   1      -2.434   2.227  -0.242  0.00  0.00    -0.096 A 
ATOM     10  HN1 IND d   1      -3.714   0.049   1.502  0.00  0.00     0.298 HD
ENDROOT
TORSDOF 0
ENDMDL
