MODEL 1
REMARK minimizedAffinity 3.1155839
REMARK minimizedRMSD -1
REMARK  0 active torsions:
REMARK  status: ('A' for Active; 'I' for Inactive)
ROOT
ATOM      1  N1  IND d   1      -4.803   3.147   0.231  0.00  0.00    -0.196 N 
ATOM      2  C2  IND d   1      -5.772   2.354   0.781  0.00  0.00     0.054 A 
ATOM      3  C3  IND d   1      -5.243   1.179   1.187  0.00  0.00    -0.031 A 
ATOM      4  C4  IND d   1      -2.794   0.385   1.142  0.00  0.00     0.051 A 
ATOM      5  C5  IND d   1      -1.552   0.747   0.701  0.00  0.00    -0.031 A 
ATOM      6  C6  IND d   1      -1.326   1.954   0.071  0.00  0.00     0.015 A 
ATOM      7  C7  IND d   1      -2.335   2.852  -0.133  0.00  0.00    -0.016 A 
ATOM      8  C8  IND d   1      -3.598   2.484   0.307  0.00  0.00    -0.047 A 
ATOM      9  C9  IND d   1      -3.843   1.243   0.910  0.00  0.00    -0.096 A 
ATOM     10  HN1 IND d   1      -4.926   3.929  -0.105  0.00  0.00     0.298 HD
ENDROOT
TORSDOF 0
ENDMDL
