MODEL 1
REMARK minimizedAffinity 7.34190941
REMARK minimizedRMSD -1
REMARK  0 active torsions:
REMARK  status: ('A' for Active; 'I' for Inactive)
ROOT
ATOM      1  N1  IND d   1       2.055   1.229   2.547  0.00  0.00    -0.196 N 
ATOM      2  C2  IND d   1       2.509   1.150   1.259  0.00  0.00     0.054 A 
ATOM      3  C3  IND d   1       1.521   1.469   0.393  0.00  0.00    -0.031 A 
ATOM      4  C4  IND d   1      -0.885   2.249   0.869  0.00  0.00     0.051 A 
ATOM      5  C5  IND d   1      -1.773   2.441   1.891  0.00  0.00    -0.031 A 
ATOM      6  C6  IND d   1      -1.422   2.237   3.210  0.00  0.00     0.015 A 
ATOM      7  C7  IND d   1      -0.161   1.843   3.559  0.00  0.00    -0.016 A 
ATOM      8  C8  IND d   1       0.741   1.640   2.524  0.00  0.00    -0.047 A 
ATOM      9  C9  IND d   1       0.378   1.805   1.181  0.00  0.00    -0.096 A 
ATOM     10  HN1 IND d   1       2.514   1.052   3.252  0.00  0.00     0.298 HD
ENDROOT
TORSDOF 0
ENDMDL
