MODEL 1
REMARK minimizedAffinity -2.80232382
REMARK minimizedRMSD -1
REMARK  0 active torsions:
REMARK  status: ('A' for Active; 'I' for Inactive)
ROOT
ATOM      1  C4' PXY d   1      -4.312   2.625   4.219  0.00  0.00     0.077 C 
ATOM      2  C1' PXY d   1       0.166   5.900   5.844  0.00  0.00     0.077 C 
ATOM      3  C1  PXY d   1      -1.002   5.030   5.422  0.00  0.00    -0.082 A 
ATOM      4  C2  PXY d   1      -1.840   5.466   4.495  0.00  0.00     0.003 A 
ATOM      5  C3  PXY d   1      -2.920   4.706   4.125  0.00  0.00     0.003 A 
ATOM      6  C4  PXY d   1      -3.113   3.465   4.670  0.00  0.00    -0.082 A 
ATOM      7  C5  PXY d   1      -2.256   3.009   5.608  0.00  0.00     0.003 A 
ATOM      8  C6  PXY d   1      -1.190   3.813   6.000  0.00  0.00     0.003 A 
ENDROOT
TORSDOF 0
ENDMDL
