MODEL 1
REMARK minimizedAffinity 2.94292378
REMARK minimizedRMSD -1
REMARK  0 active torsions:
REMARK  status: ('A' for Active; 'I' for Inactive)
ROOT
ATOM      1  C4' PXY d   1      -2.028  -0.016   1.158  0.00  0.00     0.077 C 
ATOM      2  C1' PXY d   1      -3.373   2.683  -3.773  0.00  0.00     0.077 C 
ATOM      3  C1  PXY d   1      -3.033   1.973  -2.478  0.00  0.00    -0.082 A 
ATOM      4  C2  PXY d   1      -1.908   2.268  -1.846  0.00  0.00     0.003 A 
ATOM      5  C3  PXY d   1      -1.570   1.612  -0.690  0.00  0.00     0.003 A 
ATOM      6  C4  PXY d   1      -2.416   0.683  -0.147  0.00  0.00    -0.082 A 
ATOM      7  C5  PXY d   1      -3.570   0.384  -0.781  0.00  0.00     0.003 A 
ATOM      8  C6  PXY d   1      -3.876   1.031  -1.975  0.00  0.00     0.003 A 
ENDROOT
TORSDOF 0
ENDMDL
