MODEL 1
REMARK minimizedAffinity 6.93321991
REMARK minimizedRMSD -1
REMARK  0 active torsions:
REMARK  status: ('A' for Active; 'I' for Inactive)
ROOT
ATOM      1  C4' PXY d   1       1.244  -3.893   2.054  0.00  0.00     0.077 C 
ATOM      2  C1' PXY d   1       1.775   1.849   1.649  0.00  0.00     0.077 C 
ATOM      3  C1  PXY d   1       1.633   0.343   1.742  0.00  0.00    -0.082 A 
ATOM      4  C2  PXY d   1       1.294  -0.212   2.894  0.00  0.00     0.003 A 
ATOM      5  C3  PXY d   1       1.193  -1.575   3.005  0.00  0.00     0.003 A 
ATOM      6  C4  PXY d   1       1.389  -2.375   1.911  0.00  0.00    -0.082 A 
ATOM      7  C5  PXY d   1       1.725  -1.816   0.729  0.00  0.00     0.003 A 
ATOM      8  C6  PXY d   1       1.863  -0.433   0.648  0.00  0.00     0.003 A 
ENDROOT
TORSDOF 0
ENDMDL
