MODEL 1
REMARK minimizedAffinity 0.578395188
REMARK minimizedRMSD -1
REMARK  0 active torsions:
REMARK  status: ('A' for Active; 'I' for Inactive)
ROOT
ATOM      1  C4' PXY d   1      -3.332   5.059   4.243  0.00  0.00     0.077 C 
ATOM      2  C1' PXY d   1       2.272   5.927   5.364  0.00  0.00     0.077 C 
ATOM      3  C1  PXY d   1       0.803   5.708   5.060  0.00  0.00    -0.082 A 
ATOM      4  C2  PXY d   1       0.005   5.226   6.000  0.00  0.00     0.003 A 
ATOM      5  C3  PXY d   1      -1.319   4.992   5.732  0.00  0.00     0.003 A 
ATOM      6  C4  PXY d   1      -1.844   5.305   4.507  0.00  0.00    -0.082 A 
ATOM      7  C5  PXY d   1      -1.040   5.807   3.547  0.00  0.00     0.003 A 
ATOM      8  C6  PXY d   1       0.311   5.999   3.826  0.00  0.00     0.003 A 
ENDROOT
TORSDOF 0
ENDMDL
