MODEL 1
REMARK minimizedAffinity -3.73220444
REMARK minimizedRMSD -1
REMARK  0 active torsions:
REMARK  status: ('A' for Active; 'I' for Inactive)
ROOT
ATOM      1  C4' PXY d   1      -4.117   3.122   5.999  0.00  0.00     0.077 C 
ATOM      2  C1' PXY d   1       0.659   5.999   4.475  0.00  0.00     0.077 C 
ATOM      3  C1  PXY d   1      -0.600   5.256   4.874  0.00  0.00    -0.082 A 
ATOM      4  C2  PXY d   1      -0.505   4.134   5.568  0.00  0.00     0.003 A 
ATOM      5  C3  PXY d   1      -1.633   3.432   5.909  0.00  0.00     0.003 A 
ATOM      6  C4  PXY d   1      -2.873   3.911   5.582  0.00  0.00    -0.082 A 
ATOM      7  C5  PXY d   1      -2.978   5.061   4.883  0.00  0.00     0.003 A 
ATOM      8  C6  PXY d   1      -1.820   5.737   4.511  0.00  0.00     0.003 A 
ENDROOT
TORSDOF 0
ENDMDL
