MODEL 1
REMARK minimizedAffinity -2.38877392
REMARK minimizedRMSD -1
REMARK  0 active torsions:
REMARK  status: ('A' for Active; 'I' for Inactive)
ROOT
ATOM      1  C4' PXY d   1       5.999  -3.938   1.652  0.00  0.00     0.077 C 
ATOM      2  C1' PXY d   1       0.382  -2.581   1.482  0.00  0.00     0.077 C 
ATOM      3  C1  PXY d   1       1.858  -2.925   1.522  0.00  0.00    -0.082 A 
ATOM      4  C2  PXY d   1       2.237  -4.191   1.455  0.00  0.00     0.003 A 
ATOM      5  C3  PXY d   1       3.566  -4.522   1.522  0.00  0.00     0.003 A 
ATOM      6  C4  PXY d   1       4.520  -3.544   1.605  0.00  0.00    -0.082 A 
ATOM      7  C5  PXY d   1       4.142  -2.249   1.663  0.00  0.00     0.003 A 
ATOM      8  C6  PXY d   1       2.786  -1.937   1.635  0.00  0.00     0.003 A 
ENDROOT
TORSDOF 0
ENDMDL
