MODEL 1
REMARK minimizedAffinity 1.36086607
REMARK minimizedRMSD -1
REMARK  0 active torsions:
REMARK  status: ('A' for Active; 'I' for Inactive)
ROOT
ATOM      1  C4' PXY d   1       3.053   5.998   5.141  0.00  0.00     0.077 C 
ATOM      2  C1' PXY d   1      -2.632   5.112   4.578  0.00  0.00     0.077 C 
ATOM      3  C1  PXY d   1      -1.139   5.336   4.716  0.00  0.00    -0.082 A 
ATOM      4  C2  PXY d   1      -0.645   5.761   5.867  0.00  0.00     0.003 A 
ATOM      5  C3  PXY d   1       0.699   6.000   6.000  0.00  0.00     0.003 A 
ATOM      6  C4  PXY d   1       1.553   5.749   4.959  0.00  0.00    -0.082 A 
ATOM      7  C5  PXY d   1       1.058   5.305   3.784  0.00  0.00     0.003 A 
ATOM      8  C6  PXY d   1      -0.314   5.109   3.658  0.00  0.00     0.003 A 
ENDROOT
TORSDOF 0
ENDMDL
