MODEL 1
REMARK minimizedAffinity -2.6036582
REMARK minimizedRMSD -1
REMARK  0 active torsions:
REMARK  status: ('A' for Active; 'I' for Inactive)
ROOT
ATOM      1  C4' PXY d   1      -4.115   5.490   4.909  0.00  0.00     0.077 C 
ATOM      2  C1' PXY d   1       1.663   5.673   4.938  0.00  0.00     0.077 C 
ATOM      3  C1  PXY d   1       0.148   5.626   4.917  0.00  0.00    -0.082 A 
ATOM      4  C2  PXY d   1      -0.533   5.996   5.990  0.00  0.00     0.003 A 
ATOM      5  C3  PXY d   1      -1.902   5.930   6.000  0.00  0.00     0.003 A 
ATOM      6  C4  PXY d   1      -2.584   5.530   4.882  0.00  0.00    -0.082 A 
ATOM      7  C5  PXY d   1      -1.897   5.161   3.780  0.00  0.00     0.003 A 
ATOM      8  C6  PXY d   1      -0.506   5.197   3.804  0.00  0.00     0.003 A 
ENDROOT
TORSDOF 0
ENDMDL
