MODEL 1
REMARK minimizedAffinity 3.00452876
REMARK minimizedRMSD -1
REMARK  0 active torsions:
REMARK  status: ('A' for Active; 'I' for Inactive)
ROOT
ATOM      1  C4' PXY d   1       4.031  -0.025   0.061  0.00  0.00     0.077 C 
ATOM      2  C1' PXY d   1       0.043  -3.805   1.858  0.00  0.00     0.077 C 
ATOM      3  C1  PXY d   1       1.080  -2.804   1.387  0.00  0.00    -0.082 A 
ATOM      4  C2  PXY d   1       2.144  -3.227   0.725  0.00  0.00     0.003 A 
ATOM      5  C3  PXY d   1       3.108  -2.340   0.320  0.00  0.00     0.003 A 
ATOM      6  C4  PXY d   1       2.954  -0.998   0.547  0.00  0.00    -0.082 A 
ATOM      7  C5  PXY d   1       1.865  -0.557   1.212  0.00  0.00     0.003 A 
ATOM      8  C6  PXY d   1       0.919  -1.479   1.652  0.00  0.00     0.003 A 
ENDROOT
TORSDOF 0
ENDMDL
