MODEL 1
REMARK minimizedAffinity 1.24076855
REMARK minimizedRMSD -1
REMARK  0 active torsions:
REMARK  status: ('A' for Active; 'I' for Inactive)
ROOT
ATOM      1  C4' PXY d   1       0.878  -5.999   3.381  0.00  0.00     0.077 C 
ATOM      2  C1' PXY d   1       2.609  -1.356   0.404  0.00  0.00     0.077 C 
ATOM      3  C1  PXY d   1       2.167  -2.579   1.182  0.00  0.00    -0.082 A 
ATOM      4  C2  PXY d   1       0.876  -2.822   1.341  0.00  0.00     0.003 A 
ATOM      5  C3  PXY d   1       0.458  -3.907   2.069  0.00  0.00     0.003 A 
ATOM      6  C4  PXY d   1       1.371  -4.781   2.595  0.00  0.00    -0.082 A 
ATOM      7  C5  PXY d   1       2.690  -4.546   2.428  0.00  0.00     0.003 A 
ATOM      8  C6  PXY d   1       3.094  -3.417   1.721  0.00  0.00     0.003 A 
ENDROOT
TORSDOF 0
ENDMDL
