MODEL 1
REMARK minimizedAffinity 0.802654684
REMARK minimizedRMSD -1
REMARK  0 active torsions:
REMARK  status: ('A' for Active; 'I' for Inactive)
ROOT
ATOM      1  C4' PXY d   1       5.450  -6.000   1.215  0.00  0.00     0.077 C 
ATOM      2  C1' PXY d   1       3.124  -0.748   1.861  0.00  0.00     0.077 C 
ATOM      3  C1  PXY d   1       3.746  -2.120   1.691  0.00  0.00    -0.082 A 
ATOM      4  C2  PXY d   1       3.004  -3.124   1.253  0.00  0.00     0.003 A 
ATOM      5  C3  PXY d   1       3.542  -4.379   1.124  0.00  0.00     0.003 A 
ATOM      6  C4  PXY d   1       4.867  -4.595   1.394  0.00  0.00    -0.082 A 
ATOM      7  C5  PXY d   1       5.633  -3.573   1.830  0.00  0.00     0.003 A 
ATOM      8  C6  PXY d   1       5.057  -2.317   1.994  0.00  0.00     0.003 A 
ENDROOT
TORSDOF 0
ENDMDL
