MODEL 1
REMARK minimizedAffinity -3.63526011
REMARK minimizedRMSD -1
REMARK  2 active torsions:
REMARK  status: ('A' for Active; 'I' for Inactive)
REMARK    1  A    between atoms: C1_2  and  C2_3 
REMARK    2  A    between atoms: C2_3  and  C3_4 
ROOT
ATOM      1  C3  UNL d   1       1.308  -1.110  -0.846  0.00  0.00    -0.075 A 
ATOM      2  C4  UNL d   1       0.368  -1.567  -1.782  0.00  0.00     0.002 A 
ATOM      3  C5  UNL d   1      -0.045  -2.900  -1.778  0.00  0.00     0.002 A 
ATOM      4  C6  UNL d   1       0.482  -3.793  -0.847  0.00  0.00    -0.004 A 
ATOM      5  C7  UNL d   1       1.429  -3.353   0.076  0.00  0.00     0.002 A 
ATOM      6  C8  UNL d   1       1.840  -2.019   0.077  0.00  0.00     0.002 A 
ENDROOT
BRANCH   1   7
ATOM      7  C2  UNL d   1       1.737   0.338  -0.826  0.00  0.00     0.056 C 
BRANCH   7   8
ATOM      8  C1  UNL d   1       0.755   1.270  -0.108  0.00  0.00     0.007 C 
ATOM      9  C   UNL d   1       1.025   1.389   1.386  0.00  0.00     0.009 C 
ENDBRANCH   7   8
ENDBRANCH   1   7
TORSDOF 2
ENDMDL
