MODEL 1
REMARK minimizedAffinity -1.41326177
REMARK minimizedRMSD -1
REMARK  2 active torsions:
REMARK  status: ('A' for Active; 'I' for Inactive)
REMARK    1  A    between atoms: C1_2  and  C2_3 
REMARK    2  A    between atoms: C2_3  and  C3_4 
ROOT
ATOM      1  C3  UNL d   1       1.149  -0.267  -1.086  0.00  0.00    -0.075 A 
ATOM      2  C4  UNL d   1       1.854   0.404  -0.076  0.00  0.00     0.002 A 
ATOM      3  C5  UNL d   1       2.383   1.674  -0.305  0.00  0.00     0.002 A 
ATOM      4  C6  UNL d   1       2.224   2.285  -1.547  0.00  0.00    -0.004 A 
ATOM      5  C7  UNL d   1       1.541   1.621  -2.564  0.00  0.00     0.002 A 
ATOM      6  C8  UNL d   1       1.006   0.351  -2.336  0.00  0.00     0.002 A 
ENDROOT
BRANCH   1   7
ATOM      7  C2  UNL d   1       0.548  -1.629  -0.835  0.00  0.00     0.056 C 
BRANCH   7   8
ATOM      8  C1  UNL d   1       1.119  -2.346   0.393  0.00  0.00     0.007 C 
ATOM      9  C   UNL d   1       0.379  -3.632   0.736  0.00  0.00     0.009 C 
ENDBRANCH   7   8
ENDBRANCH   1   7
TORSDOF 2
ENDMDL
