MODEL 1
REMARK minimizedAffinity -2.70427179
REMARK minimizedRMSD -1
REMARK  2 active torsions:
REMARK  status: ('A' for Active; 'I' for Inactive)
REMARK    1  A    between atoms: C1_2  and  C2_3 
REMARK    2  A    between atoms: C2_3  and  C3_4 
ROOT
ATOM      1  C3  UNL d   1       1.859   2.692  -1.133  0.00  0.00    -0.075 A 
ATOM      2  C4  UNL d   1       1.748   2.483   0.250  0.00  0.00     0.002 A 
ATOM      3  C5  UNL d   1       1.333   1.248   0.748  0.00  0.00     0.002 A 
ATOM      4  C6  UNL d   1       1.012   0.212  -0.127  0.00  0.00    -0.004 A 
ATOM      5  C7  UNL d   1       1.102   0.414  -1.502  0.00  0.00     0.002 A 
ATOM      6  C8  UNL d   1       1.522   1.647  -2.004  0.00  0.00     0.002 A 
ENDROOT
BRANCH   1   7
ATOM      7  C2  UNL d   1       2.336   4.017  -1.678  0.00  0.00     0.056 C 
BRANCH   7   8
ATOM      8  C1  UNL d   1       2.555   5.090  -0.606  0.00  0.00     0.007 C 
ATOM      9  C   UNL d   1       3.742   5.998  -0.900  0.00  0.00     0.009 C 
ENDBRANCH   7   8
ENDBRANCH   1   7
TORSDOF 2
ENDMDL
