MODEL 1
REMARK minimizedAffinity 5.94095087
REMARK minimizedRMSD -1
REMARK  2 active torsions:
REMARK  status: ('A' for Active; 'I' for Inactive)
REMARK    1  A    between atoms: C1_2  and  C2_3 
REMARK    2  A    between atoms: C2_3  and  C3_4 
ROOT
ATOM      1  C3  UNL d   1       1.871   2.224  -1.603  0.00  0.00    -0.075 A 
ATOM      2  C4  UNL d   1       0.679   1.907  -2.270  0.00  0.00     0.002 A 
ATOM      3  C5  UNL d   1      -0.040   0.762  -1.930  0.00  0.00     0.002 A 
ATOM      4  C6  UNL d   1       0.427  -0.085  -0.927  0.00  0.00    -0.004 A 
ATOM      5  C7  UNL d   1       1.618   0.211  -0.268  0.00  0.00     0.002 A 
ATOM      6  C8  UNL d   1       2.338   1.359  -0.604  0.00  0.00     0.002 A 
ENDROOT
BRANCH   1   7
ATOM      7  C2  UNL d   1       2.639   3.478  -1.946  0.00  0.00     0.056 C 
BRANCH   7   8
ATOM      8  C1  UNL d   1       1.811   4.764  -1.845  0.00  0.00     0.007 C 
ATOM      9  C   UNL d   1       2.652   5.997  -1.542  0.00  0.00     0.009 C 
ENDBRANCH   7   8
ENDBRANCH   1   7
TORSDOF 2
ENDMDL
