MODEL 1
REMARK minimizedAffinity 3.11606169
REMARK minimizedRMSD -1
REMARK  2 active torsions:
REMARK  status: ('A' for Active; 'I' for Inactive)
REMARK    1  A    between atoms: C1_2  and  C2_3 
REMARK    2  A    between atoms: C2_3  and  C3_4 
ROOT
ATOM      1  C3  UNL d   1       1.087  -0.476  -2.238  0.00  0.00    -0.075 A 
ATOM      2  C4  UNL d   1       1.255   0.883  -2.541  0.00  0.00     0.002 A 
ATOM      3  C5  UNL d   1       1.453   1.816  -1.523  0.00  0.00     0.002 A 
ATOM      4  C6  UNL d   1       1.475   1.406  -0.192  0.00  0.00    -0.004 A 
ATOM      5  C7  UNL d   1       1.292   0.061   0.122  0.00  0.00     0.002 A 
ATOM      6  C8  UNL d   1       1.099  -0.876  -0.895  0.00  0.00     0.002 A 
ENDROOT
BRANCH   1   7
ATOM      7  C2  UNL d   1       0.902  -1.496  -3.336  0.00  0.00     0.056 C 
BRANCH   7   8
ATOM      8  C1  UNL d   1       2.201  -1.891  -4.046  0.00  0.00     0.007 C 
ATOM      9  C   UNL d   1       2.079  -1.894  -5.564  0.00  0.00     0.009 C 
ENDBRANCH   7   8
ENDBRANCH   1   7
TORSDOF 2
ENDMDL
