MODEL 1
REMARK minimizedAffinity -5.65026283
REMARK minimizedRMSD -1
REMARK  2 active torsions:
REMARK  status: ('A' for Active; 'I' for Inactive)
REMARK    1  A    between atoms: C1_2  and  C2_3 
REMARK    2  A    between atoms: C2_3  and  C3_4 
ROOT
ATOM      1  C3  UNL d   1       0.437   0.742   0.387  0.00  0.00    -0.075 A 
ATOM      2  C4  UNL d   1       1.674   1.321   0.068  0.00  0.00     0.002 A 
ATOM      3  C5  UNL d   1       2.261   1.095  -1.178  0.00  0.00     0.002 A 
ATOM      4  C6  UNL d   1       1.625   0.283  -2.114  0.00  0.00    -0.004 A 
ATOM      5  C7  UNL d   1       0.404  -0.311  -1.801  0.00  0.00     0.002 A 
ATOM      6  C8  UNL d   1      -0.188  -0.083  -0.558  0.00  0.00     0.002 A 
ENDROOT
BRANCH   1   7
ATOM      7  C2  UNL d   1      -0.218   1.006   1.722  0.00  0.00     0.056 C 
BRANCH   7   8
ATOM      8  C1  UNL d   1      -1.744   0.863   1.708  0.00  0.00     0.007 C 
ATOM      9  C   UNL d   1      -2.472   2.189   1.883  0.00  0.00     0.009 C 
ENDBRANCH   7   8
ENDBRANCH   1   7
TORSDOF 2
ENDMDL
