MODEL 1
REMARK minimizedAffinity 7.1329937
REMARK minimizedRMSD -1
REMARK  2 active torsions:
REMARK  status: ('A' for Active; 'I' for Inactive)
REMARK    1  A    between atoms: C1_2  and  C2_3 
REMARK    2  A    between atoms: C2_3  and  C3_4 
ROOT
ATOM      1  C3  UNL d   1      -3.022   2.964   1.848  0.00  0.00    -0.075 A 
ATOM      2  C4  UNL d   1      -1.963   3.491   2.601  0.00  0.00     0.002 A 
ATOM      3  C5  UNL d   1      -1.646   2.957   3.850  0.00  0.00     0.002 A 
ATOM      4  C6  UNL d   1      -2.390   1.898   4.366  0.00  0.00    -0.004 A 
ATOM      5  C7  UNL d   1      -3.455   1.377   3.635  0.00  0.00     0.002 A 
ATOM      6  C8  UNL d   1      -3.771   1.906   2.382  0.00  0.00     0.002 A 
ENDROOT
BRANCH   1   7
ATOM      7  C2  UNL d   1      -3.351   3.518   0.482  0.00  0.00     0.056 C 
BRANCH   7   8
ATOM      8  C1  UNL d   1      -2.961   2.594  -0.676  0.00  0.00     0.007 C 
ATOM      9  C   UNL d   1      -2.887   3.311  -2.018  0.00  0.00     0.009 C 
ENDBRANCH   7   8
ENDBRANCH   1   7
TORSDOF 2
ENDMDL
