MODEL 1
REMARK minimizedAffinity -2.07444143
REMARK minimizedRMSD -1
REMARK  2 active torsions:
REMARK  status: ('A' for Active; 'I' for Inactive)
REMARK    1  A    between atoms: C1_2  and  C2_3 
REMARK    2  A    between atoms: C2_3  and  C3_4 
ROOT
ATOM      1  C3  UNL d   1       1.794   2.506  -1.155  0.00  0.00    -0.075 A 
ATOM      2  C4  UNL d   1       1.638   2.469   0.238  0.00  0.00     0.002 A 
ATOM      3  C5  UNL d   1       1.560   1.249   0.910  0.00  0.00     0.002 A 
ATOM      4  C6  UNL d   1       1.626   0.053   0.198  0.00  0.00    -0.004 A 
ATOM      5  C7  UNL d   1       1.764   0.078  -1.188  0.00  0.00     0.002 A 
ATOM      6  C8  UNL d   1       1.847   1.297  -1.862  0.00  0.00     0.002 A 
ENDROOT
BRANCH   1   7
ATOM      7  C2  UNL d   1       1.909   3.823  -1.885  0.00  0.00     0.056 C 
BRANCH   7   8
ATOM      8  C1  UNL d   1       1.617   5.048  -1.012  0.00  0.00     0.007 C 
ATOM      9  C   UNL d   1       2.801   5.999  -0.898  0.00  0.00     0.009 C 
ENDBRANCH   7   8
ENDBRANCH   1   7
TORSDOF 2
ENDMDL
