MODEL 1
REMARK minimizedAffinity 10.7995472
REMARK minimizedRMSD -1
REMARK  2 active torsions:
REMARK  status: ('A' for Active; 'I' for Inactive)
REMARK    1  A    between atoms: C1_2  and  C2_3 
REMARK    2  A    between atoms: C2_3  and  C3_4 
ROOT
ATOM      1  C3  UNL d   1       1.880   3.501  -1.830  0.00  0.00    -0.075 A 
ATOM      2  C4  UNL d   1       1.898   2.590  -0.764  0.00  0.00     0.002 A 
ATOM      3  C5  UNL d   1       0.954   1.565  -0.693  0.00  0.00     0.002 A 
ATOM      4  C6  UNL d   1      -0.022   1.443  -1.679  0.00  0.00    -0.004 A 
ATOM      5  C7  UNL d   1      -0.059   2.352  -2.734  0.00  0.00     0.002 A 
ATOM      6  C8  UNL d   1       0.886   3.377  -2.809  0.00  0.00     0.002 A 
ENDROOT
BRANCH   1   7
ATOM      7  C2  UNL d   1       2.916   4.595  -1.928  0.00  0.00     0.056 C 
BRANCH   7   8
ATOM      8  C1  UNL d   1       2.444   5.952  -1.394  0.00  0.00     0.007 C 
ATOM      9  C   UNL d   1       2.338   5.995   0.124  0.00  0.00     0.009 C 
ENDBRANCH   7   8
ENDBRANCH   1   7
TORSDOF 2
ENDMDL
