MODEL 1
REMARK minimizedAffinity 2.32450175
REMARK minimizedRMSD -1
REMARK  2 active torsions:
REMARK  status: ('A' for Active; 'I' for Inactive)
REMARK    1  A    between atoms: C1_2  and  C2_3 
REMARK    2  A    between atoms: C2_3  and  C3_4 
ROOT
ATOM      1  C3  UNL d   1       1.933   2.384  -1.915  0.00  0.00    -0.075 A 
ATOM      2  C4  UNL d   1       1.852   1.862  -0.615  0.00  0.00     0.002 A 
ATOM      3  C5  UNL d   1       1.301   0.600  -0.392  0.00  0.00     0.002 A 
ATOM      4  C6  UNL d   1       0.817  -0.151  -1.460  0.00  0.00    -0.004 A 
ATOM      5  C7  UNL d   1       0.877   0.364  -2.753  0.00  0.00     0.002 A 
ATOM      6  C8  UNL d   1       1.432   1.625  -2.980  0.00  0.00     0.002 A 
ENDROOT
BRANCH   1   7
ATOM      7  C2  UNL d   1       2.555   3.736  -2.167  0.00  0.00     0.056 C 
BRANCH   7   8
ATOM      8  C1  UNL d   1       2.500   4.682  -0.962  0.00  0.00     0.007 C 
ATOM      9  C   UNL d   1       3.225   6.000  -1.200  0.00  0.00     0.009 C 
ENDBRANCH   7   8
ENDBRANCH   1   7
TORSDOF 2
ENDMDL
