MODEL 1
REMARK minimizedAffinity 6.47288275
REMARK minimizedRMSD -1
REMARK  2 active torsions:
REMARK  status: ('A' for Active; 'I' for Inactive)
REMARK    1  A    between atoms: C1_2  and  C2_3 
REMARK    2  A    between atoms: C2_3  and  C3_4 
ROOT
ATOM      1  C3  UNL d   1       1.266   2.318  -1.284  0.00  0.00    -0.075 A 
ATOM      2  C4  UNL d   1       1.505   2.358   0.097  0.00  0.00     0.002 A 
ATOM      3  C5  UNL d   1       1.419   1.197   0.866  0.00  0.00     0.002 A 
ATOM      4  C6  UNL d   1       1.083  -0.015   0.267  0.00  0.00    -0.004 A 
ATOM      5  C7  UNL d   1       0.827  -0.064  -1.102  0.00  0.00     0.002 A 
ATOM      6  C8  UNL d   1       0.917   1.096  -1.874  0.00  0.00     0.002 A 
ENDROOT
BRANCH   1   7
ATOM      7  C2  UNL d   1       1.386   3.565  -2.126  0.00  0.00     0.056 C 
BRANCH   7   8
ATOM      8  C1  UNL d   1       2.635   4.402  -1.826  0.00  0.00     0.007 C 
ATOM      9  C   UNL d   1       2.322   5.863  -1.531  0.00  0.00     0.009 C 
ENDBRANCH   7   8
ENDBRANCH   1   7
TORSDOF 2
ENDMDL
