MODEL 1
REMARK minimizedAffinity -0.620536208
REMARK minimizedRMSD -1
REMARK  2 active torsions:
REMARK  status: ('A' for Active; 'I' for Inactive)
REMARK    1  A    between atoms: C1_2  and  C2_3 
REMARK    2  A    between atoms: C2_3  and  C3_4 
ROOT
ATOM      1  C3  UNL d   1       0.380  -1.624  -1.292  0.00  0.00    -0.075 A 
ATOM      2  C4  UNL d   1      -0.606  -2.275  -2.047  0.00  0.00     0.002 A 
ATOM      3  C5  UNL d   1      -0.982  -3.584  -1.744  0.00  0.00     0.002 A 
ATOM      4  C6  UNL d   1      -0.371  -4.261  -0.691  0.00  0.00    -0.004 A 
ATOM      5  C7  UNL d   1       0.622  -3.630   0.056  0.00  0.00     0.002 A 
ATOM      6  C8  UNL d   1       0.996  -2.319  -0.242  0.00  0.00     0.002 A 
ENDROOT
BRANCH   1   7
ATOM      7  C2  UNL d   1       0.770  -0.197  -1.596  0.00  0.00     0.056 C 
BRANCH   7   8
ATOM      8  C1  UNL d   1       0.344   0.809  -0.522  0.00  0.00     0.007 C 
ATOM      9  C   UNL d   1       1.365   0.960   0.598  0.00  0.00     0.009 C 
ENDBRANCH   7   8
ENDBRANCH   1   7
TORSDOF 2
ENDMDL
