MODEL 1
REMARK minimizedAffinity 3.29088664
REMARK minimizedRMSD -1
REMARK  0 active torsions:
REMARK  status: ('A' for Active; 'I' for Inactive)
ROOT
ATOM      1  C1  BNZ d   1       2.164  -0.534  -0.316  0.00  0.00     0.000 A 
ATOM      2  C2  BNZ d   1       3.318   0.088   0.078  0.00  0.00     0.000 A 
ATOM      3  C3  BNZ d   1       3.731   1.244  -0.522  0.00  0.00     0.000 A 
ATOM      4  C4  BNZ d   1       3.011   1.755  -1.542  0.00  0.00     0.000 A 
ATOM      5  C5  BNZ d   1       1.849   1.134  -1.957  0.00  0.00     0.000 A 
ATOM      6  C6  BNZ d   1       1.417  -0.008  -1.324  0.00  0.00     0.000 A 
ENDROOT
TORSDOF 0
ENDMDL
