MODEL 1
REMARK minimizedAffinity 4.29333782
REMARK minimizedRMSD -1
REMARK  0 active torsions:
REMARK  status: ('A' for Active; 'I' for Inactive)
ROOT
ATOM      1  C1  BNZ d   1      -1.440  -0.326   2.827  0.00  0.00     0.000 A 
ATOM      2  C2  BNZ d   1      -2.331   0.084   1.871  0.00  0.00     0.000 A 
ATOM      3  C3  BNZ d   1      -1.995   0.063   0.546  0.00  0.00     0.000 A 
ATOM      4  C4  BNZ d   1      -0.757  -0.328   0.182  0.00  0.00     0.000 A 
ATOM      5  C5  BNZ d   1       0.156  -0.735   1.135  0.00  0.00     0.000 A 
ATOM      6  C6  BNZ d   1      -0.199  -0.750   2.464  0.00  0.00     0.000 A 
ENDROOT
TORSDOF 0
ENDMDL
