MODEL 1
REMARK minimizedAffinity 0.572630942
REMARK minimizedRMSD -1
REMARK  0 active torsions:
REMARK  status: ('A' for Active; 'I' for Inactive)
ROOT
ATOM      1  C1  BNZ d   1       1.509   5.991   3.486  0.00  0.00     0.000 A 
ATOM      2  C2  BNZ d   1       2.874   6.000   3.586  0.00  0.00     0.000 A 
ATOM      3  C3  BNZ d   1       3.487   5.984   4.808  0.00  0.00     0.000 A 
ATOM      4  C4  BNZ d   1       2.734   5.999   5.927  0.00  0.00     0.000 A 
ATOM      5  C5  BNZ d   1       1.356   5.999   5.842  0.00  0.00     0.000 A 
ATOM      6  C6  BNZ d   1       0.743   5.976   4.611  0.00  0.00     0.000 A 
ENDROOT
TORSDOF 0
ENDMDL
