MODEL 1
REMARK minimizedAffinity 0.811493337
REMARK minimizedRMSD -1
REMARK  0 active torsions:
REMARK  status: ('A' for Active; 'I' for Inactive)
ROOT
ATOM      1  C1  BNZ d   1       3.184   5.993   4.772  0.00  0.00     0.000 A 
ATOM      2  C2  BNZ d   1       2.463   5.999   3.608  0.00  0.00     0.000 A 
ATOM      3  C3  BNZ d   1       1.097   5.957   3.631  0.00  0.00     0.000 A 
ATOM      4  C4  BNZ d   1       0.456   5.869   4.815  0.00  0.00     0.000 A 
ATOM      5  C5  BNZ d   1       1.169   5.853   5.996  0.00  0.00     0.000 A 
ATOM      6  C6  BNZ d   1       2.543   5.935   5.971  0.00  0.00     0.000 A 
ENDROOT
TORSDOF 0
ENDMDL
