MODEL 1
REMARK minimizedAffinity -3.18336582
REMARK minimizedRMSD -1
REMARK  0 active torsions:
REMARK  status: ('A' for Active; 'I' for Inactive)
ROOT
ATOM      1  C1  BNZ d   1      -0.172  -2.802   3.007  0.00  0.00     0.000 A 
ATOM      2  C2  BNZ d   1      -0.581  -1.512   2.791  0.00  0.00     0.000 A 
ATOM      3  C3  BNZ d   1      -0.149  -0.815   1.698  0.00  0.00     0.000 A 
ATOM      4  C4  BNZ d   1       0.721  -1.393   0.844  0.00  0.00     0.000 A 
ATOM      5  C5  BNZ d   1       1.150  -2.688   1.053  0.00  0.00     0.000 A 
ATOM      6  C6  BNZ d   1       0.682  -3.401   2.133  0.00  0.00     0.000 A 
ENDROOT
TORSDOF 0
ENDMDL
