MODEL 1
REMARK minimizedAffinity -1.59144044
REMARK minimizedRMSD -1
REMARK  0 active torsions:
REMARK  status: ('A' for Active; 'I' for Inactive)
ROOT
ATOM      1  C1  BNZ d   1      -4.032   1.035  -4.638  0.00  0.00     0.000 A 
ATOM      2  C2  BNZ d   1      -3.222   0.422  -3.719  0.00  0.00     0.000 A 
ATOM      3  C3  BNZ d   1      -3.706  -0.565  -2.907  0.00  0.00     0.000 A 
ATOM      4  C4  BNZ d   1      -5.008  -0.909  -2.986  0.00  0.00     0.000 A 
ATOM      5  C5  BNZ d   1      -5.840  -0.293  -3.900  0.00  0.00     0.000 A 
ATOM      6  C6  BNZ d   1      -5.339   0.673  -4.743  0.00  0.00     0.000 A 
ENDROOT
TORSDOF 0
ENDMDL
