MODEL 1
REMARK minimizedAffinity -0.370349556
REMARK minimizedRMSD -1
REMARK  0 active torsions:
REMARK  status: ('A' for Active; 'I' for Inactive)
ROOT
ATOM      1  C1  BNZ d   1       0.374  -1.523   1.170  0.00  0.00     0.000 A 
ATOM      2  C2  BNZ d   1       0.851  -2.765   1.495  0.00  0.00     0.000 A 
ATOM      3  C3  BNZ d   1       0.321  -3.465   2.543  0.00  0.00     0.000 A 
ATOM      4  C4  BNZ d   1      -0.655  -2.908   3.287  0.00  0.00     0.000 A 
ATOM      5  C5  BNZ d   1      -1.141  -1.653   2.978  0.00  0.00     0.000 A 
ATOM      6  C6  BNZ d   1      -0.632  -0.967   1.899  0.00  0.00     0.000 A 
ENDROOT
TORSDOF 0
ENDMDL
