MODEL 1
REMARK minimizedAffinity -1.67854714
REMARK minimizedRMSD -1
REMARK  0 active torsions:
REMARK  status: ('A' for Active; 'I' for Inactive)
ROOT
ATOM      1  C1  BNZ d   1       1.404  -2.291   1.105  0.00  0.00     0.000 A 
ATOM      2  C2  BNZ d   1       1.620  -1.592  -0.053  0.00  0.00     0.000 A 
ATOM      3  C3  BNZ d   1       0.939  -0.435  -0.310  0.00  0.00     0.000 A 
ATOM      4  C4  BNZ d   1       0.014  -0.001   0.570  0.00  0.00     0.000 A 
ATOM      5  C5  BNZ d   1      -0.222  -0.699   1.737  0.00  0.00     0.000 A 
ATOM      6  C6  BNZ d   1       0.493  -1.842   2.011  0.00  0.00     0.000 A 
ENDROOT
TORSDOF 0
ENDMDL
