MODEL 1
REMARK minimizedAffinity 1.52959096
REMARK minimizedRMSD -1
REMARK  0 active torsions:
REMARK  status: ('A' for Active; 'I' for Inactive)
ROOT
ATOM      1  C1  BNZ d   1      -3.048   1.789  -2.889  0.00  0.00     0.000 A 
ATOM      2  C2  BNZ d   1      -4.133   0.975  -3.074  0.00  0.00     0.000 A 
ATOM      3  C3  BNZ d   1      -5.370   1.502  -3.319  0.00  0.00     0.000 A 
ATOM      4  C4  BNZ d   1      -5.528   2.841  -3.338  0.00  0.00     0.000 A 
ATOM      5  C5  BNZ d   1      -4.446   3.676  -3.143  0.00  0.00     0.000 A 
ATOM      6  C6  BNZ d   1      -3.195   3.141  -2.936  0.00  0.00     0.000 A 
ENDROOT
TORSDOF 0
ENDMDL
