MODEL 1
REMARK minimizedAffinity 0.0978138968
REMARK minimizedRMSD -1
REMARK  0 active torsions:
REMARK  status: ('A' for Active; 'I' for Inactive)
ROOT
ATOM      1  C1  BNZ d   1      -1.965   0.004   1.125  0.00  0.00     0.000 A 
ATOM      2  C2  BNZ d   1      -2.393  -0.117   2.420  0.00  0.00     0.000 A 
ATOM      3  C3  BNZ d   1      -1.620  -0.743   3.357  0.00  0.00     0.000 A 
ATOM      4  C4  BNZ d   1      -0.440  -1.282   2.991  0.00  0.00     0.000 A 
ATOM      5  C5  BNZ d   1       0.002  -1.177   1.687  0.00  0.00     0.000 A 
ATOM      6  C6  BNZ d   1      -0.761  -0.512   0.755  0.00  0.00     0.000 A 
ENDROOT
TORSDOF 0
ENDMDL
