MODEL 1
REMARK minimizedAffinity 11.9892187
REMARK minimizedRMSD -1
REMARK  0 active torsions:
REMARK  status: ('A' for Active; 'I' for Inactive)
ROOT
ATOM      1  C   UNL d   1      -0.419   0.317   1.958  0.00  0.00     0.124 A 
ATOM      2  C1  UNL d   1      -0.896  -0.982   2.071  0.00  0.00     0.062 A 
ATOM      3  C2  UNL d   1      -0.378  -1.991   1.264  0.00  0.00     0.162 A 
ATOM      4  C3  UNL d   1       0.625  -1.706   0.338  0.00  0.00    -0.034 A 
ATOM      5  C4  UNL d   1       1.099  -0.397   0.229  0.00  0.00     0.162 A 
ATOM      6  C5  UNL d   1       0.578   0.608   1.037  0.00  0.00     0.062 A 
ATOM      7  F   UNL d   1       1.040   1.862   0.927  0.00  0.00    -0.097 F 
ATOM      8  F1  UNL d   1       2.063  -0.088  -0.651  0.00  0.00    -0.096 F 
ATOM      9  I   UNL d   1       1.403  -3.212  -0.870  0.00  0.00    -0.060 I 
ATOM     10  F2  UNL d   1      -0.858  -3.237   1.395  0.00  0.00    -0.096 F 
ATOM     11  F3  UNL d   1      -1.860  -1.265   2.959  0.00  0.00    -0.097 F 
ATOM     12  F4  UNL d   1      -0.921   1.286   2.734  0.00  0.00    -0.092 F 
ENDROOT
TORSDOF 0
ENDMDL
