MODEL 1
REMARK minimizedAffinity -2.5077312
REMARK minimizedRMSD -1
REMARK  0 active torsions:
REMARK  status: ('A' for Active; 'I' for Inactive)
ROOT
ATOM      1  C   UNL d   1      -0.197   2.267   0.543  0.00  0.00     0.124 A 
ATOM      2  C1  UNL d   1      -0.054   1.923  -0.794  0.00  0.00     0.062 A 
ATOM      3  C2  UNL d   1      -0.045   0.584  -1.175  0.00  0.00     0.162 A 
ATOM      4  C3  UNL d   1      -0.180  -0.421  -0.218  0.00  0.00    -0.034 A 
ATOM      5  C4  UNL d   1      -0.323  -0.067   1.125  0.00  0.00     0.162 A 
ATOM      6  C5  UNL d   1      -0.331   1.272   1.501  0.00  0.00     0.062 A 
ATOM      7  F   UNL d   1      -0.469   1.603   2.793  0.00  0.00    -0.097 F 
ATOM      8  F1  UNL d   1      -0.455  -1.008   2.072  0.00  0.00    -0.096 F 
ATOM      9  I   UNL d   1      -0.167  -2.424  -0.783  0.00  0.00    -0.060 I 
ATOM     10  F2  UNL d   1       0.094   0.281  -2.474  0.00  0.00    -0.096 F 
ATOM     11  F3  UNL d   1       0.076   2.882  -1.722  0.00  0.00    -0.097 F 
ATOM     12  F4  UNL d   1      -0.205   3.556   0.907  0.00  0.00    -0.092 F 
ENDROOT
TORSDOF 0
ENDMDL
