MODEL 1
REMARK minimizedAffinity -1.09672213
REMARK minimizedRMSD -1
REMARK  0 active torsions:
REMARK  status: ('A' for Active; 'I' for Inactive)
ROOT
ATOM      1  C   UNL d   1      -0.505   2.614   0.566  0.00  0.00     0.124 A 
ATOM      2  C1  UNL d   1      -0.394   2.336  -0.789  0.00  0.00     0.062 A 
ATOM      3  C2  UNL d   1      -0.079   1.049  -1.216  0.00  0.00     0.162 A 
ATOM      4  C3  UNL d   1       0.126   0.029  -0.287  0.00  0.00    -0.034 A 
ATOM      5  C4  UNL d   1       0.013   0.317   1.075  0.00  0.00     0.162 A 
ATOM      6  C5  UNL d   1      -0.301   1.604   1.497  0.00  0.00     0.062 A 
ATOM      7  F   UNL d   1      -0.408   1.871   2.807  0.00  0.00    -0.097 F 
ATOM      8  F1  UNL d   1       0.204  -0.640   1.995  0.00  0.00    -0.096 F 
ATOM      9  I   UNL d   1       0.597  -1.896  -0.922  0.00  0.00    -0.060 I 
ATOM     10  F2  UNL d   1       0.021   0.809  -2.532  0.00  0.00    -0.096 F 
ATOM     11  F3  UNL d   1      -0.590   3.309  -1.690  0.00  0.00    -0.097 F 
ATOM     12  F4  UNL d   1      -0.807   3.853   0.975  0.00  0.00    -0.092 F 
ENDROOT
TORSDOF 0
ENDMDL
