MODEL 1
REMARK minimizedAffinity 1.3408103
REMARK minimizedRMSD -1
REMARK  0 active torsions:
REMARK  status: ('A' for Active; 'I' for Inactive)
ROOT
ATOM      1  C   UNL d   1      -0.110   2.201   0.508  0.00  0.00     0.124 A 
ATOM      2  C1  UNL d   1       0.013   1.250   1.511  0.00  0.00     0.062 A 
ATOM      3  C2  UNL d   1       0.083  -0.103   1.189  0.00  0.00     0.162 A 
ATOM      4  C3  UNL d   1       0.033  -0.512  -0.143  0.00  0.00    -0.034 A 
ATOM      5  C4  UNL d   1      -0.092   0.450  -1.147  0.00  0.00     0.162 A 
ATOM      6  C5  UNL d   1      -0.162   1.800  -0.820  0.00  0.00     0.062 A 
ATOM      7  F   UNL d   1      -0.281   2.717  -1.791  0.00  0.00    -0.097 F 
ATOM      8  F1  UNL d   1      -0.144   0.090  -2.438  0.00  0.00    -0.096 F 
ATOM      9  I   UNL d   1       0.138  -2.534  -0.628  0.00  0.00    -0.060 I 
ATOM     10  F2  UNL d   1       0.202  -1.000   2.180  0.00  0.00    -0.096 F 
ATOM     11  F3  UNL d   1       0.062   1.634   2.795  0.00  0.00    -0.097 F 
ATOM     12  F4  UNL d   1      -0.179   3.501   0.820  0.00  0.00    -0.092 F 
ENDROOT
TORSDOF 0
ENDMDL
