MODEL 1
REMARK minimizedAffinity 0.54613179
REMARK minimizedRMSD -1
REMARK  0 active torsions:
REMARK  status: ('A' for Active; 'I' for Inactive)
ROOT
ATOM      1  C   UNL d   1      -0.595   2.742   0.283  0.00  0.00     0.124 A 
ATOM      2  C1  UNL d   1       0.131   1.971   1.180  0.00  0.00     0.062 A 
ATOM      3  C2  UNL d   1       0.631   0.731   0.793  0.00  0.00     0.162 A 
ATOM      4  C3  UNL d   1       0.407   0.254  -0.499  0.00  0.00    -0.034 A 
ATOM      5  C4  UNL d   1      -0.325   1.035  -1.395  0.00  0.00     0.162 A 
ATOM      6  C5  UNL d   1      -0.822   2.274  -1.003  0.00  0.00     0.062 A 
ATOM      7  F   UNL d   1      -1.523   3.017  -1.871  0.00  0.00    -0.097 F 
ATOM      8  F1  UNL d   1      -0.559   0.607  -2.645  0.00  0.00    -0.096 F 
ATOM      9  I   UNL d   1       1.152  -1.600  -1.082  0.00  0.00    -0.060 I 
ATOM     10  F2  UNL d   1       1.329   0.007   1.680  0.00  0.00    -0.096 F 
ATOM     11  F3  UNL d   1       0.351   2.420   2.424  0.00  0.00    -0.097 F 
ATOM     12  F4  UNL d   1      -1.075   3.934   0.659  0.00  0.00    -0.092 F 
ENDROOT
TORSDOF 0
ENDMDL
