MODEL 1
REMARK minimizedAffinity -2.04881501
REMARK minimizedRMSD -1
REMARK  0 active torsions:
REMARK  status: ('A' for Active; 'I' for Inactive)
ROOT
ATOM      1  C   UNL d   1      -0.674   2.438   0.247  0.00  0.00     0.124 A 
ATOM      2  C1  UNL d   1      -0.146   2.191  -1.013  0.00  0.00     0.062 A 
ATOM      3  C2  UNL d   1       0.205   0.897  -1.383  0.00  0.00     0.162 A 
ATOM      4  C3  UNL d   1       0.030  -0.162  -0.492  0.00  0.00    -0.034 A 
ATOM      5  C4  UNL d   1      -0.500   0.094   0.773  0.00  0.00     0.162 A 
ATOM      6  C5  UNL d   1      -0.850   1.390   1.139  0.00  0.00     0.062 A 
ATOM      7  F   UNL d   1      -1.360   1.627   2.356  0.00  0.00    -0.097 F 
ATOM      8  F1  UNL d   1      -0.682  -0.901   1.655  0.00  0.00    -0.096 F 
ATOM      9  I   UNL d   1       0.554  -2.100  -1.042  0.00  0.00    -0.060 I 
ATOM     10  F2  UNL d   1       0.713   0.687  -2.607  0.00  0.00    -0.096 F 
ATOM     11  F3  UNL d   1       0.026   3.203  -1.877  0.00  0.00    -0.097 F 
ATOM     12  F4  UNL d   1      -1.010   3.685   0.600  0.00  0.00    -0.092 F 
ENDROOT
TORSDOF 0
ENDMDL
