MODEL 1
REMARK minimizedAffinity -5.54616022
REMARK minimizedRMSD -1
REMARK  0 active torsions:
REMARK  status: ('A' for Active; 'I' for Inactive)
ROOT
ATOM      1  C   UNL d   1      -0.585   3.102   0.445  0.00  0.00     0.124 A 
ATOM      2  C1  UNL d   1      -0.449   2.924  -0.924  0.00  0.00     0.062 A 
ATOM      3  C2  UNL d   1      -0.141   1.668  -1.440  0.00  0.00     0.162 A 
ATOM      4  C3  UNL d   1       0.033   0.580  -0.585  0.00  0.00    -0.034 A 
ATOM      5  C4  UNL d   1      -0.104   0.767   0.792  0.00  0.00     0.162 A 
ATOM      6  C5  UNL d   1      -0.412   2.024   1.302  0.00  0.00     0.062 A 
ATOM      7  F   UNL d   1      -0.543   2.194   2.626  0.00  0.00    -0.097 F 
ATOM      8  F1  UNL d   1       0.056  -0.258   1.642  0.00  0.00    -0.096 F 
ATOM      9  I   UNL d   1       0.494  -1.299  -1.351  0.00  0.00    -0.060 I 
ATOM     10  F2  UNL d   1      -0.015   1.525  -2.767  0.00  0.00    -0.096 F 
ATOM     11  F3  UNL d   1      -0.614   3.964  -1.754  0.00  0.00    -0.097 F 
ATOM     12  F4  UNL d   1      -0.880   4.312   0.939  0.00  0.00    -0.092 F 
ENDROOT
TORSDOF 0
ENDMDL
