MODEL 1
REMARK minimizedAffinity -6.04924297
REMARK minimizedRMSD -1
REMARK  0 active torsions:
REMARK  status: ('A' for Active; 'I' for Inactive)
ROOT
ATOM      1  C   UNL d   1      -0.660   0.656   1.623  0.00  0.00     0.124 A 
ATOM      2  C1  UNL d   1      -0.026   0.367   0.423  0.00  0.00     0.062 A 
ATOM      3  C2  UNL d   1       0.085   1.342  -0.564  0.00  0.00     0.162 A 
ATOM      4  C3  UNL d   1      -0.439   2.617  -0.355  0.00  0.00    -0.034 A 
ATOM      5  C4  UNL d   1      -1.076   2.901   0.855  0.00  0.00     0.162 A 
ATOM      6  C5  UNL d   1      -1.184   1.923   1.838  0.00  0.00     0.062 A 
ATOM      7  F   UNL d   1      -1.798   2.205   2.996  0.00  0.00    -0.097 F 
ATOM      8  F1  UNL d   1      -1.592   4.117   1.089  0.00  0.00    -0.096 F 
ATOM      9  I   UNL d   1      -0.276   4.079  -1.828  0.00  0.00    -0.060 I 
ATOM     10  F2  UNL d   1       0.703   1.034  -1.714  0.00  0.00    -0.096 F 
ATOM     11  F3  UNL d   1       0.481  -0.857   0.212  0.00  0.00    -0.097 F 
ATOM     12  F4  UNL d   1      -0.766  -0.284   2.570  0.00  0.00    -0.092 F 
ENDROOT
TORSDOF 0
ENDMDL
