MODEL 1
REMARK minimizedAffinity -3.61647749
REMARK minimizedRMSD -1
REMARK  0 active torsions:
REMARK  status: ('A' for Active; 'I' for Inactive)
ROOT
ATOM      1  N1  IND d   1      -0.376  -0.671  -1.642  0.00  0.00    -0.196 N 
ATOM      2  C2  IND d   1      -0.093  -0.122  -0.423  0.00  0.00     0.054 A 
ATOM      3  C3  IND d   1      -0.880  -0.665   0.532  0.00  0.00    -0.031 A 
ATOM      4  C4  IND d   1      -2.630  -2.543   0.336  0.00  0.00     0.051 A 
ATOM      5  C5  IND d   1      -3.265  -3.332  -0.582  0.00  0.00    -0.031 A 
ATOM      6  C6  IND d   1      -2.961  -3.275  -1.927  0.00  0.00     0.015 A 
ATOM      7  C7  IND d   1      -1.999  -2.431  -2.405  0.00  0.00    -0.016 A 
ATOM      8  C8  IND d   1      -1.357  -1.623  -1.477  0.00  0.00    -0.047 A 
ATOM      9  C9  IND d   1      -1.691  -1.647  -0.117  0.00  0.00    -0.096 A 
ATOM     10  HN1 IND d   1      -0.004  -0.457  -2.388  0.00  0.00     0.298 HD
ENDROOT
TORSDOF 0
ENDMDL
