MODEL 1
REMARK minimizedAffinity -1.38149476
REMARK minimizedRMSD -1
REMARK  0 active torsions:
REMARK  status: ('A' for Active; 'I' for Inactive)
ROOT
ATOM      1  N1  IND d   1      -0.938  -2.130  -0.336  0.00  0.00    -0.196 N 
ATOM      2  C2  IND d   1      -0.712  -0.781  -0.334  0.00  0.00     0.054 A 
ATOM      3  C3  IND d   1      -1.089  -0.240  -1.515  0.00  0.00    -0.031 A 
ATOM      4  C4  IND d   1      -2.196  -1.363  -3.550  0.00  0.00     0.051 A 
ATOM      5  C5  IND d   1      -2.569  -2.585  -4.035  0.00  0.00    -0.031 A 
ATOM      6  C6  IND d   1      -2.417  -3.740  -3.297  0.00  0.00     0.015 A 
ATOM      7  C7  IND d   1      -1.894  -3.715  -2.035  0.00  0.00    -0.016 A 
ATOM      8  C8  IND d   1      -1.508  -2.477  -1.541  0.00  0.00    -0.047 A 
ATOM      9  C9  IND d   1      -1.620  -1.307  -2.302  0.00  0.00    -0.096 A 
ATOM     10  HN1 IND d   1      -0.756  -2.670   0.308  0.00  0.00     0.298 HD
ENDROOT
TORSDOF 0
ENDMDL
