MODEL 1
REMARK minimizedAffinity -2.94745016
REMARK minimizedRMSD -1
REMARK  0 active torsions:
REMARK  status: ('A' for Active; 'I' for Inactive)
ROOT
ATOM      1  N1  IND d   1      -1.160  -2.422   0.019  0.00  0.00    -0.196 N 
ATOM      2  C2  IND d   1      -0.895  -1.082   0.062  0.00  0.00     0.054 A 
ATOM      3  C3  IND d   1      -1.306  -0.484  -1.079  0.00  0.00    -0.031 A 
ATOM      4  C4  IND d   1      -2.528  -1.495  -3.106  0.00  0.00     0.051 A 
ATOM      5  C5  IND d   1      -2.956  -2.686  -3.622  0.00  0.00    -0.031 A 
ATOM      6  C6  IND d   1      -2.806  -3.874  -2.935  0.00  0.00     0.015 A 
ATOM      7  C7  IND d   1      -2.231  -3.913  -1.697  0.00  0.00    -0.016 A 
ATOM      8  C8  IND d   1      -1.789  -2.706  -1.173  0.00  0.00    -0.047 A 
ATOM      9  C9  IND d   1      -1.900  -1.504  -1.883  0.00  0.00    -0.096 A 
ATOM     10  HN1 IND d   1      -0.966  -2.992   0.633  0.00  0.00     0.298 HD
ENDROOT
TORSDOF 0
ENDMDL
