MODEL 1
REMARK minimizedAffinity -1.03689694
REMARK minimizedRMSD -1
REMARK  0 active torsions:
REMARK  status: ('A' for Active; 'I' for Inactive)
ROOT
ATOM      1  N1  IND d   1      -1.739  -3.704  -1.264  0.00  0.00    -0.196 N 
ATOM      2  C2  IND d   1      -1.992  -3.861  -2.599  0.00  0.00     0.054 A 
ATOM      3  C3  IND d   1      -1.943  -2.666  -3.230  0.00  0.00    -0.031 A 
ATOM      4  C4  IND d   1      -1.367  -0.340  -2.289  0.00  0.00     0.051 A 
ATOM      5  C5  IND d   1      -1.100   0.312  -1.118  0.00  0.00    -0.031 A 
ATOM      6  C6  IND d   1      -1.028  -0.355   0.088  0.00  0.00     0.015 A 
ATOM      7  C7  IND d   1      -1.210  -1.707   0.166  0.00  0.00    -0.016 A 
ATOM      8  C8  IND d   1      -1.489  -2.371  -1.020  0.00  0.00    -0.047 A 
ATOM      9  C9  IND d   1      -1.605  -1.694  -2.240  0.00  0.00    -0.096 A 
ATOM     10  HN1 IND d   1      -1.737  -4.331  -0.677  0.00  0.00     0.298 HD
ENDROOT
TORSDOF 0
ENDMDL
