MODEL 1
REMARK minimizedAffinity 1.39447021
REMARK minimizedRMSD -1
REMARK  0 active torsions:
REMARK  status: ('A' for Active; 'I' for Inactive)
ROOT
ATOM      1  N1  IND d   1      -0.215  -1.073   0.306  0.00  0.00    -0.196 N 
ATOM      2  C2  IND d   1       0.317   0.090  -0.176  0.00  0.00     0.054 A 
ATOM      3  C3  IND d   1      -0.143   0.337  -1.423  0.00  0.00    -0.031 A 
ATOM      4  C4  IND d   1      -1.854  -0.981  -2.825  0.00  0.00     0.051 A 
ATOM      5  C5  IND d   1      -2.590  -2.132  -2.824  0.00  0.00    -0.031 A 
ATOM      6  C6  IND d   1      -2.573  -3.006  -1.756  0.00  0.00     0.015 A 
ATOM      7  C7  IND d   1      -1.826  -2.754  -0.640  0.00  0.00    -0.016 A 
ATOM      8  C8  IND d   1      -1.072  -1.589  -0.641  0.00  0.00    -0.047 A 
ATOM      9  C9  IND d   1      -1.052  -0.720  -1.740  0.00  0.00    -0.096 A 
ATOM     10  HN1 IND d   1      -0.044  -1.424   1.072  0.00  0.00     0.298 HD
ENDROOT
TORSDOF 0
ENDMDL
