MODEL 1
REMARK minimizedAffinity 7.00176668
REMARK minimizedRMSD -1
REMARK  0 active torsions:
REMARK  status: ('A' for Active; 'I' for Inactive)
ROOT
ATOM      1  N1  IND d   1      -2.592   1.177   1.902  0.00  0.00    -0.196 N 
ATOM      2  C2  IND d   1      -2.537   0.226   2.883  0.00  0.00     0.054 A 
ATOM      3  C3  IND d   1      -1.719  -0.784   2.513  0.00  0.00    -0.031 A 
ATOM      4  C4  IND d   1      -0.289  -1.036   0.387  0.00  0.00     0.051 A 
ATOM      5  C5  IND d   1      -0.035  -0.441  -0.817  0.00  0.00    -0.031 A 
ATOM      6  C6  IND d   1      -0.630   0.749  -1.182  0.00  0.00     0.015 A 
ATOM      7  C7  IND d   1      -1.497   1.398  -0.348  0.00  0.00    -0.016 A 
ATOM      8  C8  IND d   1      -1.763   0.793   0.872  0.00  0.00    -0.047 A 
ATOM      9  C9  IND d   1      -1.195  -0.437   1.230  0.00  0.00    -0.096 A 
ATOM     10  HN1 IND d   1      -3.065   1.895   1.925  0.00  0.00     0.298 HD
ENDROOT
TORSDOF 0
ENDMDL
