MODEL 1
REMARK minimizedAffinity 4.60651445
REMARK minimizedRMSD -1
REMARK  0 active torsions:
REMARK  status: ('A' for Active; 'I' for Inactive)
ROOT
ATOM      1  N1  IND d   1      -4.638   4.443   0.838  0.00  0.00    -0.196 N 
ATOM      2  C2  IND d   1      -4.870   5.758   1.130  0.00  0.00     0.054 A 
ATOM      3  C3  IND d   1      -4.637   5.998   2.440  0.00  0.00    -0.031 A 
ATOM      4  C4  IND d   1      -3.770   4.403   4.265  0.00  0.00     0.051 A 
ATOM      5  C5  IND d   1      -3.449   3.093   4.488  0.00  0.00    -0.031 A 
ATOM      6  C6  IND d   1      -3.507   2.148   3.484  0.00  0.00     0.015 A 
ATOM      7  C7  IND d   1      -3.878   2.481   2.212  0.00  0.00    -0.016 A 
ATOM      8  C8  IND d   1      -4.212   3.809   1.984  0.00  0.00    -0.047 A 
ATOM      9  C9  IND d   1      -4.196   4.764   3.009  0.00  0.00    -0.096 A 
ATOM     10  HN1 IND d   1      -4.741   4.074   0.068  0.00  0.00     0.298 HD
ENDROOT
TORSDOF 0
ENDMDL
