MODEL 1
REMARK minimizedAffinity 2.63458157
REMARK minimizedRMSD -1
REMARK  0 active torsions:
REMARK  status: ('A' for Active; 'I' for Inactive)
ROOT
ATOM      1  N1  IND d   1      -5.029  -5.968  -1.508  0.00  0.00    -0.196 N 
ATOM      2  C2  IND d   1      -5.999  -5.595  -0.621  0.00  0.00     0.054 A 
ATOM      3  C3  IND d   1      -5.974  -4.257  -0.432  0.00  0.00    -0.031 A 
ATOM      4  C4  IND d   1      -4.493  -2.474  -1.552  0.00  0.00     0.051 A 
ATOM      5  C5  IND d   1      -3.434  -2.335  -2.405  0.00  0.00    -0.031 A 
ATOM      6  C6  IND d   1      -2.843  -3.421  -3.017  0.00  0.00     0.015 A 
ATOM      7  C7  IND d   1      -3.297  -4.692  -2.807  0.00  0.00    -0.016 A 
ATOM      8  C8  IND d   1      -4.368  -4.838  -1.936  0.00  0.00    -0.047 A 
ATOM      9  C9  IND d   1      -4.945  -3.744  -1.279  0.00  0.00    -0.096 A 
ATOM     10  HN1 IND d   1      -4.860  -6.774  -1.758  0.00  0.00     0.298 HD
ENDROOT
TORSDOF 0
ENDMDL
