MODEL 1
REMARK minimizedAffinity 2.67436337
REMARK minimizedRMSD -1
REMARK  0 active torsions:
REMARK  status: ('A' for Active; 'I' for Inactive)
ROOT
ATOM      1  N1  IND d   1      -3.777   5.770   0.747  0.00  0.00    -0.196 N 
ATOM      2  C2  IND d   1      -4.966   5.796   0.072  0.00  0.00     0.054 A 
ATOM      3  C3  IND d   1      -6.000   5.847   0.942  0.00  0.00    -0.031 A 
ATOM      4  C4  IND d   1      -5.969   6.000   3.511  0.00  0.00     0.051 A 
ATOM      5  C5  IND d   1      -5.120   5.971   4.582  0.00  0.00    -0.031 A 
ATOM      6  C6  IND d   1      -3.752   5.874   4.426  0.00  0.00     0.015 A 
ATOM      7  C7  IND d   1      -3.179   5.814   3.187  0.00  0.00    -0.016 A 
ATOM      8  C8  IND d   1      -4.039   5.836   2.098  0.00  0.00    -0.047 A 
ATOM      9  C9  IND d   1      -5.430   5.891   2.251  0.00  0.00    -0.096 A 
ATOM     10  HN1 IND d   1      -2.998   5.721   0.388  0.00  0.00     0.298 HD
ENDROOT
TORSDOF 0
ENDMDL
