MODEL 1
REMARK minimizedAffinity 13.8571138
REMARK minimizedRMSD -1
REMARK  0 active torsions:
REMARK  status: ('A' for Active; 'I' for Inactive)
ROOT
ATOM      1  N1  IND d   1       0.456  -1.163   0.892  0.00  0.00    -0.196 N 
ATOM      2  C2  IND d   1       0.318  -0.849  -0.432  0.00  0.00     0.054 A 
ATOM      3  C3  IND d   1      -0.860  -0.222  -0.647  0.00  0.00    -0.031 A 
ATOM      4  C4  IND d   1      -2.669   0.484   1.044  0.00  0.00     0.051 A 
ATOM      5  C5  IND d   1      -3.007   0.384   2.364  0.00  0.00    -0.031 A 
ATOM      6  C6  IND d   1      -2.191  -0.247   3.280  0.00  0.00     0.015 A 
ATOM      7  C7  IND d   1      -0.995  -0.794   2.910  0.00  0.00    -0.016 A 
ATOM      8  C8  IND d   1      -0.651  -0.701   1.569  0.00  0.00    -0.047 A 
ATOM      9  C9  IND d   1      -1.495  -0.099   0.627  0.00  0.00    -0.096 A 
ATOM     10  HN1 IND d   1       1.122  -1.578   1.242  0.00  0.00     0.298 HD
ENDROOT
TORSDOF 0
ENDMDL
