MODEL 1
REMARK minimizedAffinity -3.92402172
REMARK minimizedRMSD -1
REMARK  0 active torsions:
REMARK  status: ('A' for Active; 'I' for Inactive)
ROOT
ATOM      1  N1  IND d   1      -4.086   3.369   2.609  0.00  0.00    -0.196 N 
ATOM      2  C2  IND d   1      -3.835   2.108   3.073  0.00  0.00     0.054 A 
ATOM      3  C3  IND d   1      -4.139   2.021   4.388  0.00  0.00    -0.031 A 
ATOM      4  C4  IND d   1      -5.158   3.794   5.951  0.00  0.00     0.051 A 
ATOM      5  C5  IND d   1      -5.529   5.109   5.992  0.00  0.00    -0.031 A 
ATOM      6  C6  IND d   1      -5.438   5.927   4.884  0.00  0.00     0.015 A 
ATOM      7  C7  IND d   1      -4.982   5.455   3.686  0.00  0.00    -0.016 A 
ATOM      8  C8  IND d   1      -4.598   4.122   3.643  0.00  0.00    -0.047 A 
ATOM      9  C9  IND d   1      -4.648   3.298   4.775  0.00  0.00    -0.096 A 
ATOM     10  HN1 IND d   1      -3.948   3.645   1.807  0.00  0.00     0.298 HD
ENDROOT
TORSDOF 0
ENDMDL
