MODEL 1
REMARK minimizedAffinity -2.07018661
REMARK minimizedRMSD -1
REMARK  0 active torsions:
REMARK  status: ('A' for Active; 'I' for Inactive)
ROOT
ATOM      1  N1  IND d   1      -4.947   3.900   2.140  0.00  0.00    -0.196 N 
ATOM      2  C2  IND d   1      -5.404   5.025   1.512  0.00  0.00     0.054 A 
ATOM      3  C3  IND d   1      -5.655   5.999   2.415  0.00  0.00    -0.031 A 
ATOM      4  C4  IND d   1      -5.291   5.999   4.964  0.00  0.00     0.051 A 
ATOM      5  C5  IND d   1      -4.927   5.186   6.000  0.00  0.00    -0.031 A 
ATOM      6  C6  IND d   1      -4.540   3.877   5.798  0.00  0.00     0.015 A 
ATOM      7  C7  IND d   1      -4.492   3.333   4.546  0.00  0.00    -0.016 A 
ATOM      8  C8  IND d   1      -4.869   4.154   3.492  0.00  0.00    -0.047 A 
ATOM      9  C9  IND d   1      -5.303   5.470   3.695  0.00  0.00    -0.096 A 
ATOM     10  HN1 IND d   1      -4.744   3.158   1.756  0.00  0.00     0.298 HD
ENDROOT
TORSDOF 0
ENDMDL
