MODEL 1
REMARK minimizedAffinity -3.43896008
REMARK minimizedRMSD -1
REMARK  0 active torsions:
REMARK  status: ('A' for Active; 'I' for Inactive)
ROOT
ATOM      1  N1  IND d   1      -5.245   3.875   2.145  0.00  0.00    -0.196 N 
ATOM      2  C2  IND d   1      -5.649   5.013   1.504  0.00  0.00     0.054 A 
ATOM      3  C3  IND d   1      -5.883   6.000   2.398  0.00  0.00    -0.031 A 
ATOM      4  C4  IND d   1      -5.568   5.999   4.953  0.00  0.00     0.051 A 
ATOM      5  C5  IND d   1      -5.253   5.178   5.999  0.00  0.00    -0.031 A 
ATOM      6  C6  IND d   1      -4.909   3.855   5.810  0.00  0.00     0.015 A 
ATOM      7  C7  IND d   1      -4.857   3.304   4.561  0.00  0.00    -0.016 A 
ATOM      8  C8  IND d   1      -5.184   4.133   3.497  0.00  0.00    -0.047 A 
ATOM      9  C9  IND d   1      -5.574   5.465   3.686  0.00  0.00    -0.096 A 
ATOM     10  HN1 IND d   1      -5.061   3.125   1.767  0.00  0.00     0.298 HD
ENDROOT
TORSDOF 0
ENDMDL
