MODEL 1
REMARK minimizedAffinity -0.52479291
REMARK minimizedRMSD -1
REMARK  0 active torsions:
REMARK  status: ('A' for Active; 'I' for Inactive)
ROOT
ATOM      1  N1  IND d   1      -5.173   3.976   1.529  0.00  0.00    -0.196 N 
ATOM      2  C2  IND d   1      -5.830   5.063   1.024  0.00  0.00     0.054 A 
ATOM      3  C3  IND d   1      -6.000   5.999   1.985  0.00  0.00    -0.031 A 
ATOM      4  C4  IND d   1      -5.190   5.999   4.428  0.00  0.00     0.051 A 
ATOM      5  C5  IND d   1      -4.577   5.209   5.360  0.00  0.00    -0.031 A 
ATOM      6  C6  IND d   1      -4.120   3.943   5.055  0.00  0.00     0.015 A 
ATOM      7  C7  IND d   1      -4.250   3.422   3.799  0.00  0.00    -0.016 A 
ATOM      8  C8  IND d   1      -4.877   4.219   2.852  0.00  0.00    -0.047 A 
ATOM      9  C9  IND d   1      -5.381   5.488   3.166  0.00  0.00    -0.096 A 
ATOM     10  HN1 IND d   1      -4.978   3.261   1.093  0.00  0.00     0.298 HD
ENDROOT
TORSDOF 0
ENDMDL
