MODEL 1
REMARK minimizedAffinity -1.29362762
REMARK minimizedRMSD -1
REMARK  0 active torsions:
REMARK  status: ('A' for Active; 'I' for Inactive)
ROOT
ATOM      1  N1  IND d   1      -3.848   5.398   1.870  0.00  0.00    -0.196 N 
ATOM      2  C2  IND d   1      -4.975   5.748   1.180  0.00  0.00     0.054 A 
ATOM      3  C3  IND d   1      -5.991   6.000   2.035  0.00  0.00    -0.031 A 
ATOM      4  C4  IND d   1      -6.000   5.998   4.610  0.00  0.00     0.051 A 
ATOM      5  C5  IND d   1      -5.215   5.706   5.689  0.00  0.00    -0.031 A 
ATOM      6  C6  IND d   1      -3.907   5.290   5.548  0.00  0.00     0.015 A 
ATOM      7  C7  IND d   1      -3.329   5.161   4.317  0.00  0.00    -0.016 A 
ATOM      8  C8  IND d   1      -4.126   5.451   3.218  0.00  0.00    -0.047 A 
ATOM      9  C9  IND d   1      -5.467   5.832   3.354  0.00  0.00    -0.096 A 
ATOM     10  HN1 IND d   1      -3.093   5.181   1.520  0.00  0.00     0.298 HD
ENDROOT
TORSDOF 0
ENDMDL
