MODEL 1
REMARK minimizedAffinity -2.26506424
REMARK minimizedRMSD -1
REMARK  0 active torsions:
REMARK  status: ('A' for Active; 'I' for Inactive)
ROOT
ATOM      1  C   UNL d   1      -0.734  -0.159   0.000  0.00  0.00     0.023 A 
ATOM      2  C1  UNL d   1       0.309   0.106  -0.888  0.00  0.00     0.003 A 
ATOM      3  C2  UNL d   1       1.136   1.213  -0.686  0.00  0.00     0.048 A 
ATOM      4  C3  UNL d   1       0.914   2.051   0.407  0.00  0.00     0.023 A 
ATOM      5  C4  UNL d   1      -0.128   1.790   1.298  0.00  0.00     0.048 A 
ATOM      6  C5  UNL d   1      -0.952   0.682   1.091  0.00  0.00     0.003 A 
ATOM      7  I   UNL d   1       2.143   3.699   0.710  0.00  0.00    -0.146 I 
ENDROOT
TORSDOF 0
ENDMDL
