MODEL 1
REMARK minimizedAffinity -3.26607966
REMARK minimizedRMSD -1
REMARK  0 active torsions:
REMARK  status: ('A' for Active; 'I' for Inactive)
ROOT
ATOM      1  C   UNL d   1       0.043   1.236  -0.419  0.00  0.00     0.023 A 
ATOM      2  C1  UNL d   1       0.177   0.309  -1.453  0.00  0.00     0.003 A 
ATOM      3  C2  UNL d   1       0.195  -1.058  -1.169  0.00  0.00     0.048 A 
ATOM      4  C3  UNL d   1       0.076  -1.492   0.151  0.00  0.00     0.023 A 
ATOM      5  C4  UNL d   1      -0.060  -0.569   1.189  0.00  0.00     0.048 A 
ATOM      6  C5  UNL d   1      -0.076   0.797   0.900  0.00  0.00     0.003 A 
ATOM      7  I   UNL d   1       0.102  -3.526   0.575  0.00  0.00    -0.146 I 
ENDROOT
TORSDOF 0
ENDMDL
