MODEL 1
REMARK minimizedAffinity -4.31474829
REMARK minimizedRMSD -1
REMARK  0 active torsions:
REMARK  status: ('A' for Active; 'I' for Inactive)
ROOT
ATOM      1  C   UNL d   1      -0.776  -2.523   0.453  0.00  0.00     0.023 A 
ATOM      2  C1  UNL d   1       0.007  -2.174  -0.647  0.00  0.00     0.003 A 
ATOM      3  C2  UNL d   1       0.255  -0.829  -0.932  0.00  0.00     0.048 A 
ATOM      4  C3  UNL d   1      -0.284   0.162  -0.111  0.00  0.00     0.023 A 
ATOM      5  C4  UNL d   1      -1.068  -0.183   0.991  0.00  0.00     0.048 A 
ATOM      6  C5  UNL d   1      -1.313  -1.529   1.271  0.00  0.00     0.003 A 
ATOM      7  I   UNL d   1       0.083   2.164  -0.532  0.00  0.00    -0.146 I 
ENDROOT
TORSDOF 0
ENDMDL
