MODEL 1
REMARK minimizedAffinity -2.09975219
REMARK minimizedRMSD -1
REMARK  0 active torsions:
REMARK  status: ('A' for Active; 'I' for Inactive)
ROOT
ATOM      1  C   UNL d   1      -0.421  -2.884   0.310  0.00  0.00     0.023 A 
ATOM      2  C1  UNL d   1      -1.255  -2.030   1.032  0.00  0.00     0.003 A 
ATOM      3  C2  UNL d   1      -1.036  -0.651   1.005  0.00  0.00     0.048 A 
ATOM      4  C3  UNL d   1       0.018  -0.133   0.253  0.00  0.00     0.023 A 
ATOM      5  C4  UNL d   1       0.854  -0.983  -0.472  0.00  0.00     0.048 A 
ATOM      6  C5  UNL d   1       0.632  -2.361  -0.441  0.00  0.00     0.003 A 
ATOM      7  I   UNL d   1       0.345   1.919   0.211  0.00  0.00    -0.146 I 
ENDROOT
TORSDOF 0
ENDMDL
