MODEL 1
REMARK minimizedAffinity -4.39697313
REMARK minimizedRMSD -1
REMARK  0 active torsions:
REMARK  status: ('A' for Active; 'I' for Inactive)
ROOT
ATOM      1  C   UNL d   1      -0.491  -2.166   0.437  0.00  0.00     0.023 A 
ATOM      2  C1  UNL d   1      -0.013  -1.703  -0.789  0.00  0.00     0.003 A 
ATOM      3  C2  UNL d   1       0.302  -0.352  -0.952  0.00  0.00     0.048 A 
ATOM      4  C3  UNL d   1       0.139   0.530   0.115  0.00  0.00     0.023 A 
ATOM      5  C4  UNL d   1      -0.339   0.071   1.344  0.00  0.00     0.048 A 
ATOM      6  C5  UNL d   1      -0.654  -1.280   1.502  0.00  0.00     0.003 A 
ATOM      7  I   UNL d   1       0.608   2.540  -0.124  0.00  0.00    -0.146 I 
ENDROOT
TORSDOF 0
ENDMDL
