MODEL 1
REMARK minimizedAffinity -4.58970547
REMARK minimizedRMSD -1
REMARK  0 active torsions:
REMARK  status: ('A' for Active; 'I' for Inactive)
ROOT
ATOM      1  C   UNL d   1      -0.141  -3.420   0.774  0.00  0.00     0.023 A 
ATOM      2  C1  UNL d   1      -1.030  -2.502   1.333  0.00  0.00     0.003 A 
ATOM      3  C2  UNL d   1      -1.049  -1.181   0.881  0.00  0.00     0.048 A 
ATOM      4  C3  UNL d   1      -0.176  -0.785  -0.131  0.00  0.00     0.023 A 
ATOM      5  C4  UNL d   1       0.715  -1.699  -0.695  0.00  0.00     0.048 A 
ATOM      6  C5  UNL d   1       0.731  -3.019  -0.239  0.00  0.00     0.003 A 
ATOM      7  I   UNL d   1      -0.203   1.181  -0.806  0.00  0.00    -0.146 I 
ENDROOT
TORSDOF 0
ENDMDL
