MODEL 1
REMARK minimizedAffinity -5.22891426
REMARK minimizedRMSD -1
REMARK  0 active torsions:
REMARK  status: ('A' for Active; 'I' for Inactive)
ROOT
ATOM      1  C   UNL d   1       0.019  -3.620  -0.951  0.00  0.00     0.023 A 
ATOM      2  C1  UNL d   1       0.247  -2.776  -2.038  0.00  0.00     0.003 A 
ATOM      3  C2  UNL d   1       0.279  -1.392  -1.854  0.00  0.00     0.048 A 
ATOM      4  C3  UNL d   1       0.082  -0.859  -0.581  0.00  0.00     0.023 A 
ATOM      5  C4  UNL d   1      -0.146  -1.699   0.510  0.00  0.00     0.048 A 
ATOM      6  C5  UNL d   1      -0.177  -3.082   0.321  0.00  0.00     0.003 A 
ATOM      7  I   UNL d   1       0.129   1.201  -0.305  0.00  0.00    -0.146 I 
ENDROOT
TORSDOF 0
ENDMDL
