MODEL 1
REMARK minimizedAffinity -3.57440948
REMARK minimizedRMSD -1
REMARK  0 active torsions:
REMARK  status: ('A' for Active; 'I' for Inactive)
ROOT
ATOM      1  C   UNL d   1       0.343  -2.985   0.903  0.00  0.00     0.023 A 
ATOM      2  C1  UNL d   1       1.389  -2.466   0.141  0.00  0.00     0.003 A 
ATOM      3  C2  UNL d   1       1.318  -1.159  -0.345  0.00  0.00     0.048 A 
ATOM      4  C3  UNL d   1       0.199  -0.376  -0.064  0.00  0.00     0.023 A 
ATOM      5  C4  UNL d   1      -0.850  -0.891   0.699  0.00  0.00     0.048 A 
ATOM      6  C5  UNL d   1      -0.775  -2.199   1.182  0.00  0.00     0.003 A 
ATOM      7  I   UNL d   1       0.092   1.570  -0.786  0.00  0.00    -0.146 I 
ENDROOT
TORSDOF 0
ENDMDL
