MODEL 1
REMARK minimizedAffinity -3.37978363
REMARK minimizedRMSD -1
REMARK  0 active torsions:
REMARK  status: ('A' for Active; 'I' for Inactive)
ROOT
ATOM      1  C   UNL d   1      -0.539  -2.614   0.142  0.00  0.00     0.023 A 
ATOM      2  C1  UNL d   1       0.318  -2.194  -0.875  0.00  0.00     0.003 A 
ATOM      3  C2  UNL d   1       0.741  -0.864  -0.929  0.00  0.00     0.048 A 
ATOM      4  C3  UNL d   1       0.304   0.040   0.039  0.00  0.00     0.023 A 
ATOM      5  C4  UNL d   1      -0.553  -0.376   1.059  0.00  0.00     0.048 A 
ATOM      6  C5  UNL d   1      -0.974  -1.707   1.108  0.00  0.00     0.003 A 
ATOM      7  I   UNL d   1       0.932   2.020  -0.039  0.00  0.00    -0.146 I 
ENDROOT
TORSDOF 0
ENDMDL
