MODEL 1
REMARK minimizedAffinity -4.03478384
REMARK minimizedRMSD -1
REMARK  0 active torsions:
REMARK  status: ('A' for Active; 'I' for Inactive)
ROOT
ATOM      1  C   UNL d   1      -0.602  -2.307   0.750  0.00  0.00     0.023 A 
ATOM      2  C1  UNL d   1       0.495  -2.017  -0.062  0.00  0.00     0.003 A 
ATOM      3  C2  UNL d   1       1.013  -0.721  -0.100  0.00  0.00     0.048 A 
ATOM      4  C3  UNL d   1       0.430   0.280   0.677  0.00  0.00     0.023 A 
ATOM      5  C4  UNL d   1      -0.667  -0.006   1.491  0.00  0.00     0.048 A 
ATOM      6  C5  UNL d   1      -1.182  -1.303   1.525  0.00  0.00     0.003 A 
ATOM      7  I   UNL d   1       1.201   2.209   0.623  0.00  0.00    -0.146 I 
ENDROOT
TORSDOF 0
ENDMDL
