MODEL 1
REMARK minimizedAffinity 10.3140726
REMARK minimizedRMSD -1
REMARK  0 active torsions:
REMARK  status: ('A' for Active; 'I' for Inactive)
ROOT
ATOM      1  C1  DEN d   1      -5.001   0.382  -1.874  0.00  0.00     0.130 A 
ATOM      2  C2  DEN d   1      -6.000  -0.659  -2.103  0.00  0.00    -0.031 A 
ATOM      3  C3  DEN d   1      -5.993  -1.562  -0.934  0.00  0.00     0.027 A 
ATOM      4  C4  DEN d   1      -4.544  -1.448   1.197  0.00  0.00     0.027 A 
ATOM      5  C5  DEN d   1      -3.546  -0.749   1.839  0.00  0.00    -0.003 A 
ATOM      6  C6  DEN d   1      -2.944   0.346   1.278  0.00  0.00     0.001 A 
ATOM      7  C7  DEN d   1      -3.366   0.802   0.058  0.00  0.00     0.017 A 
ATOM      8  C8  DEN d   1      -4.367   0.099  -0.599  0.00  0.00    -0.094 A 
ATOM      9  C9  DEN d   1      -4.972  -0.998  -0.011  0.00  0.00    -0.072 A 
ENDROOT
TORSDOF 0
ENDMDL
