MODEL 1
REMARK minimizedAffinity 7.74941015
REMARK minimizedRMSD -1
REMARK  0 active torsions:
REMARK  status: ('A' for Active; 'I' for Inactive)
ROOT
ATOM      1  C1  DEN d   1       0.111   2.395   1.560  0.00  0.00     0.130 A 
ATOM      2  C2  DEN d   1       0.654   2.644   2.892  0.00  0.00    -0.031 A 
ATOM      3  C3  DEN d   1       1.597   1.554   3.212  0.00  0.00     0.027 A 
ATOM      4  C4  DEN d   1       2.269  -0.482   1.779  0.00  0.00     0.027 A 
ATOM      5  C5  DEN d   1       2.064  -1.128   0.580  0.00  0.00    -0.003 A 
ATOM      6  C6  DEN d   1       1.175  -0.667  -0.355  0.00  0.00     0.001 A 
ATOM      7  C7  DEN d   1       0.492   0.498  -0.125  0.00  0.00     0.017 A 
ATOM      8  C8  DEN d   1       0.688   1.151   1.085  0.00  0.00    -0.094 A 
ATOM      9  C9  DEN d   1       1.600   0.675   2.012  0.00  0.00    -0.072 A 
ENDROOT
TORSDOF 0
ENDMDL
