MODEL 1
REMARK minimizedAffinity 6.64501047
REMARK minimizedRMSD -1
REMARK  0 active torsions:
REMARK  status: ('A' for Active; 'I' for Inactive)
ROOT
ATOM      1  C1  DEN d   1       0.010  -3.563   0.007  0.00  0.00     0.130 A 
ATOM      2  C2  DEN d   1      -0.548  -3.344  -1.324  0.00  0.00    -0.031 A 
ATOM      3  C3  DEN d   1       0.092  -2.142  -1.895  0.00  0.00     0.027 A 
ATOM      4  C4  DEN d   1       1.887  -0.610  -0.854  0.00  0.00     0.027 A 
ATOM      5  C5  DEN d   1       2.663  -0.388   0.263  0.00  0.00    -0.003 A 
ATOM      6  C6  DEN d   1       2.584  -1.181   1.376  0.00  0.00     0.001 A 
ATOM      7  C7  DEN d   1       1.743  -2.263   1.381  0.00  0.00     0.017 A 
ATOM      8  C8  DEN d   1       0.953  -2.490   0.262  0.00  0.00    -0.094 A 
ATOM      9  C9  DEN d   1       1.056  -1.683  -0.859  0.00  0.00    -0.072 A 
ENDROOT
TORSDOF 0
ENDMDL
