MODEL 1
REMARK minimizedAffinity -3.4465723
REMARK minimizedRMSD -1
REMARK  0 active torsions:
REMARK  status: ('A' for Active; 'I' for Inactive)
ROOT
ATOM      1  C1  DEN d   1      -0.279  -6.000   2.858  0.00  0.00     0.130 A 
ATOM      2  C2  DEN d   1      -0.437  -4.963   3.875  0.00  0.00    -0.031 A 
ATOM      3  C3  DEN d   1      -0.949  -3.748   3.211  0.00  0.00     0.027 A 
ATOM      4  C4  DEN d   1      -1.515  -3.374   0.723  0.00  0.00     0.027 A 
ATOM      5  C5  DEN d   1      -1.533  -3.958  -0.525  0.00  0.00    -0.003 A 
ATOM      6  C6  DEN d   1      -1.105  -5.242  -0.736  0.00  0.00     0.001 A 
ATOM      7  C7  DEN d   1      -0.684  -6.000   0.325  0.00  0.00     0.017 A 
ATOM      8  C8  DEN d   1      -0.656  -5.415   1.584  0.00  0.00    -0.094 A 
ATOM      9  C9  DEN d   1      -1.104  -4.120   1.779  0.00  0.00    -0.072 A 
ENDROOT
TORSDOF 0
ENDMDL
