MODEL 1
REMARK minimizedAffinity 4.23740721
REMARK minimizedRMSD -1
REMARK  0 active torsions:
REMARK  status: ('A' for Active; 'I' for Inactive)
ROOT
ATOM      1  C1  DEN d   1      -0.943  -1.198   5.998  0.00  0.00     0.130 A 
ATOM      2  C2  DEN d   1       0.019  -0.099   5.982  0.00  0.00    -0.031 A 
ATOM      3  C3  DEN d   1       1.372  -0.678   5.861  0.00  0.00     0.027 A 
ATOM      4  C4  DEN d   1       2.066  -3.157   5.692  0.00  0.00     0.027 A 
ATOM      5  C5  DEN d   1       1.603  -4.454   5.675  0.00  0.00    -0.003 A 
ATOM      6  C6  DEN d   1       0.272  -4.755   5.797  0.00  0.00     0.001 A 
ATOM      7  C7  DEN d   1      -0.647  -3.744   5.897  0.00  0.00     0.017 A 
ATOM      8  C8  DEN d   1      -0.186  -2.434   5.923  0.00  0.00    -0.094 A 
ATOM      9  C9  DEN d   1       1.162  -2.149   5.785  0.00  0.00    -0.072 A 
ENDROOT
TORSDOF 0
ENDMDL
