MODEL 1
REMARK minimizedAffinity 0.0799730644
REMARK minimizedRMSD -1
REMARK  0 active torsions:
REMARK  status: ('A' for Active; 'I' for Inactive)
ROOT
ATOM      1  C1  DEN d   1       0.797  -1.869   5.989  0.00  0.00     0.130 A 
ATOM      2  C2  DEN d   1      -0.661  -1.785   5.962  0.00  0.00    -0.031 A 
ATOM      3  C3  DEN d   1      -1.197  -3.161   5.955  0.00  0.00     0.027 A 
ATOM      4  C4  DEN d   1       0.082  -5.401   5.987  0.00  0.00     0.027 A 
ATOM      5  C5  DEN d   1       1.332  -5.980   6.000  0.00  0.00    -0.003 A 
ATOM      6  C6  DEN d   1       2.482  -5.236   5.976  0.00  0.00     0.001 A 
ATOM      7  C7  DEN d   1       2.405  -3.868   5.983  0.00  0.00     0.017 A 
ATOM      8  C8  DEN d   1       1.149  -3.277   5.963  0.00  0.00    -0.094 A 
ATOM      9  C9  DEN d   1      -0.002  -4.046   6.000  0.00  0.00    -0.072 A 
ENDROOT
TORSDOF 0
ENDMDL
