MODEL 1
REMARK minimizedAffinity 3.16835642
REMARK minimizedRMSD -1
REMARK  0 active torsions:
REMARK  status: ('A' for Active; 'I' for Inactive)
ROOT
ATOM      1  C1  DEN d   1       2.129  -2.718   5.973  0.00  0.00     0.130 A 
ATOM      2  C2  DEN d   1       1.988  -1.265   5.945  0.00  0.00    -0.031 A 
ATOM      3  C3  DEN d   1       0.547  -0.946   5.937  0.00  0.00     0.027 A 
ATOM      4  C4  DEN d   1      -1.471  -2.553   5.971  0.00  0.00     0.027 A 
ATOM      5  C5  DEN d   1      -1.851  -3.877   5.985  0.00  0.00    -0.003 A 
ATOM      6  C6  DEN d   1      -0.939  -4.899   5.962  0.00  0.00     0.001 A 
ATOM      7  C7  DEN d   1       0.400  -4.614   5.969  0.00  0.00     0.017 A 
ATOM      8  C8  DEN d   1       0.792  -3.281   5.947  0.00  0.00    -0.094 A 
ATOM      9  C9  DEN d   1      -0.145  -2.263   5.983  0.00  0.00    -0.072 A 
ENDROOT
TORSDOF 0
ENDMDL
