MODEL 1
REMARK minimizedAffinity 4.54763699
REMARK minimizedRMSD -1
REMARK  0 active torsions:
REMARK  status: ('A' for Active; 'I' for Inactive)
ROOT
ATOM      1  C1  DEN d   1       0.458  -2.268  -1.747  0.00  0.00     0.130 A 
ATOM      2  C2  DEN d   1      -0.951  -2.050  -2.065  0.00  0.00    -0.031 A 
ATOM      3  C3  DEN d   1      -1.422  -0.893  -1.277  0.00  0.00     0.027 A 
ATOM      4  C4  DEN d   1      -0.114   0.576   0.391  0.00  0.00     0.027 A 
ATOM      5  C5  DEN d   1       1.108   0.771   0.997  0.00  0.00    -0.003 A 
ATOM      6  C6  DEN d   1       2.180  -0.048   0.759  0.00  0.00     0.001 A 
ATOM      7  C7  DEN d   1       2.064  -1.073  -0.142  0.00  0.00     0.017 A 
ATOM      8  C8  DEN d   1       0.834  -1.280  -0.752  0.00  0.00    -0.094 A 
ATOM      9  C9  DEN d   1      -0.235  -0.434  -0.508  0.00  0.00    -0.072 A 
ENDROOT
TORSDOF 0
ENDMDL
