MODEL 1
REMARK minimizedAffinity 0.106369808
REMARK minimizedRMSD -1
REMARK  0 active torsions:
REMARK  status: ('A' for Active; 'I' for Inactive)
ROOT
ATOM      1  C1  DEN d   1       1.030  -5.297   5.961  0.00  0.00     0.130 A 
ATOM      2  C2  DEN d   1      -0.410  -5.542   5.979  0.00  0.00    -0.031 A 
ATOM      3  C3  DEN d   1      -1.095  -4.233   5.990  0.00  0.00     0.027 A 
ATOM      4  C4  DEN d   1      -0.071  -1.866   5.976  0.00  0.00     0.027 A 
ATOM      5  C5  DEN d   1       1.107  -1.152   5.973  0.00  0.00    -0.003 A 
ATOM      6  C6  DEN d   1       2.332  -1.765   6.000  0.00  0.00     0.001 A 
ATOM      7  C7  DEN d   1       2.407  -3.133   5.985  0.00  0.00     0.017 A 
ATOM      8  C8  DEN d   1       1.224  -3.859   5.996  0.00  0.00    -0.094 A 
ATOM      9  C9  DEN d   1      -0.005  -3.221   5.956  0.00  0.00    -0.072 A 
ENDROOT
TORSDOF 0
ENDMDL
