MODEL 1
REMARK minimizedAffinity 16.6872215
REMARK minimizedRMSD -1
REMARK  0 active torsions:
REMARK  status: ('A' for Active; 'I' for Inactive)
ROOT
ATOM      1  N1  IND d   1      -0.382   3.846   0.029  0.00  0.00    -0.196 N 
ATOM      2  C2  IND d   1       0.788   3.190  -0.236  0.00  0.00     0.054 A 
ATOM      3  C3  IND d   1       0.689   2.501  -1.395  0.00  0.00    -0.031 A 
ATOM      4  C4  IND d   1      -1.262   2.392  -3.071  0.00  0.00     0.051 A 
ATOM      5  C5  IND d   1      -2.556   2.795  -3.246  0.00  0.00    -0.031 A 
ATOM      6  C6  IND d   1      -3.204   3.588  -2.320  0.00  0.00     0.015 A 
ATOM      7  C7  IND d   1      -2.575   4.018  -1.186  0.00  0.00    -0.016 A 
ATOM      8  C8  IND d   1      -1.263   3.604  -1.002  0.00  0.00    -0.047 A 
ATOM      9  C9  IND d   1      -0.615   2.765  -1.917  0.00  0.00    -0.096 A 
ATOM     10  HN1 IND d   1      -0.541   4.328   0.723  0.00  0.00     0.298 HD
ENDROOT
TORSDOF 0
ENDMDL
