MODEL 1
REMARK minimizedAffinity 10.642149
REMARK minimizedRMSD -1
REMARK  0 active torsions:
REMARK  status: ('A' for Active; 'I' for Inactive)
ROOT
ATOM      1  N1  IND d   1      -3.714  -3.866   2.909  0.00  0.00    -0.196 N 
ATOM      2  C2  IND d   1      -2.624  -3.078   2.664  0.00  0.00     0.054 A 
ATOM      3  C3  IND d   1      -2.204  -3.240   1.389  0.00  0.00    -0.031 A 
ATOM      4  C4  IND d   1      -3.218  -4.669  -0.498  0.00  0.00     0.051 A 
ATOM      5  C5  IND d   1      -4.196  -5.590  -0.744  0.00  0.00    -0.031 A 
ATOM      6  C6  IND d   1      -5.084  -5.990   0.233  0.00  0.00     0.015 A 
ATOM      7  C7  IND d   1      -5.033  -5.472   1.497  0.00  0.00    -0.016 A 
ATOM      8  C8  IND d   1      -4.036  -4.542   1.753  0.00  0.00    -0.047 A 
ATOM      9  C9  IND d   1      -3.106  -4.164   0.776  0.00  0.00    -0.096 A 
ATOM     10  HN1 IND d   1      -4.129  -3.929   3.660  0.00  0.00     0.298 HD
ENDROOT
TORSDOF 0
ENDMDL
