MODEL 1
REMARK minimizedAffinity 15.109477
REMARK minimizedRMSD -1
REMARK  0 active torsions:
REMARK  status: ('A' for Active; 'I' for Inactive)
ROOT
ATOM      1  N1  IND d   1       3.077   0.762   2.958  0.00  0.00    -0.196 N 
ATOM      2  C2  IND d   1       4.111   0.277   2.206  0.00  0.00     0.054 A 
ATOM      3  C3  IND d   1       3.711  -0.802   1.497  0.00  0.00    -0.031 A 
ATOM      4  C4  IND d   1       1.380  -1.883   1.339  0.00  0.00     0.051 A 
ATOM      5  C5  IND d   1       0.123  -1.815   1.871  0.00  0.00    -0.031 A 
ATOM      6  C6  IND d   1      -0.222  -0.863   2.809  0.00  0.00     0.015 A 
ATOM      7  C7  IND d   1       0.679   0.067   3.244  0.00  0.00    -0.016 A 
ATOM      8  C8  IND d   1       1.959  -0.004   2.712  0.00  0.00    -0.047 A 
ATOM      9  C9  IND d   1       2.326  -0.994   1.791  0.00  0.00    -0.096 A 
ATOM     10  HN1 IND d   1       3.119   1.433   3.495  0.00  0.00     0.298 HD
ENDROOT
TORSDOF 0
ENDMDL
