MODEL 1
REMARK minimizedAffinity 4.94643974
REMARK minimizedRMSD -1
REMARK  0 active torsions:
REMARK  status: ('A' for Active; 'I' for Inactive)
ROOT
ATOM      1  N1  IND d   1      -5.755  -4.772  -0.246  0.00  0.00    -0.196 N 
ATOM      2  C2  IND d   1      -4.778  -5.550  -0.803  0.00  0.00     0.054 A 
ATOM      3  C3  IND d   1      -3.604  -5.361  -0.161  0.00  0.00    -0.031 A 
ATOM      4  C4  IND d   1      -3.078  -3.901   1.893  0.00  0.00     0.051 A 
ATOM      5  C5  IND d   1      -3.639  -2.980   2.732  0.00  0.00    -0.031 A 
ATOM      6  C6  IND d   1      -4.962  -2.603   2.621  0.00  0.00     0.015 A 
ATOM      7  C7  IND d   1      -5.779  -3.144   1.669  0.00  0.00    -0.016 A 
ATOM      8  C8  IND d   1      -5.211  -4.075   0.811  0.00  0.00    -0.047 A 
ATOM      9  C9  IND d   1      -3.858  -4.430   0.892  0.00  0.00    -0.096 A 
ATOM     10  HN1 IND d   1      -6.572  -4.725  -0.511  0.00  0.00     0.298 HD
ENDROOT
TORSDOF 0
ENDMDL
