MODEL 1
REMARK minimizedAffinity 15.6417284
REMARK minimizedRMSD -1
REMARK  0 active torsions:
REMARK  status: ('A' for Active; 'I' for Inactive)
ROOT
ATOM      1  N1  IND d   1       3.628   0.884   3.159  0.00  0.00    -0.196 N 
ATOM      2  C2  IND d   1       4.415   0.499   2.109  0.00  0.00     0.054 A 
ATOM      3  C3  IND d   1       3.765  -0.405   1.341  0.00  0.00    -0.031 A 
ATOM      4  C4  IND d   1       1.369  -1.319   1.564  0.00  0.00     0.051 A 
ATOM      5  C5  IND d   1       0.277  -1.289   2.385  0.00  0.00    -0.031 A 
ATOM      6  C6  IND d   1       0.244  -0.517   3.528  0.00  0.00     0.015 A 
ATOM      7  C7  IND d   1       1.303   0.268   3.887  0.00  0.00    -0.016 A 
ATOM      8  C8  IND d   1       2.417   0.236   3.060  0.00  0.00    -0.047 A 
ATOM      9  C9  IND d   1       2.472  -0.579   1.921  0.00  0.00    -0.096 A 
ATOM     10  HN1 IND d   1       3.852   1.438   3.777  0.00  0.00     0.298 HD
ENDROOT
TORSDOF 0
ENDMDL
