MODEL 1
REMARK minimizedAffinity 19.384306
REMARK minimizedRMSD -1
REMARK  0 active torsions:
REMARK  status: ('A' for Active; 'I' for Inactive)
ROOT
ATOM      1  N1  IND d   1      -0.218   2.061  -0.284  0.00  0.00    -0.196 N 
ATOM      2  C2  IND d   1       0.799   2.964  -0.416  0.00  0.00     0.054 A 
ATOM      3  C3  IND d   1       0.651   3.677  -1.555  0.00  0.00    -0.031 A 
ATOM      4  C4  IND d   1      -1.241   3.597  -3.299  0.00  0.00     0.051 A 
ATOM      5  C5  IND d   1      -2.373   2.907  -3.629  0.00  0.00    -0.031 A 
ATOM      6  C6  IND d   1      -2.857   1.880  -2.844  0.00  0.00     0.015 A 
ATOM      7  C7  IND d   1      -2.229   1.512  -1.688  0.00  0.00    -0.016 A 
ATOM      8  C8  IND d   1      -1.075   2.206  -1.353  0.00  0.00    -0.047 A 
ATOM      9  C9  IND d   1      -0.556   3.220  -2.168  0.00  0.00    -0.096 A 
ATOM     10  HN1 IND d   1      -0.308   1.497   0.359  0.00  0.00     0.298 HD
ENDROOT
TORSDOF 0
ENDMDL
