MODEL 1
REMARK minimizedAffinity 13.8435383
REMARK minimizedRMSD -1
REMARK  0 active torsions:
REMARK  status: ('A' for Active; 'I' for Inactive)
ROOT
ATOM      1  N1  IND d   1      -2.428  -2.294   3.958  0.00  0.00    -0.196 N 
ATOM      2  C2  IND d   1      -2.840  -3.370   3.221  0.00  0.00     0.054 A 
ATOM      3  C3  IND d   1      -1.954  -3.629   2.233  0.00  0.00    -0.031 A 
ATOM      4  C4  IND d   1       0.289  -2.482   1.705  0.00  0.00     0.051 A 
ATOM      5  C5  IND d   1       1.074  -1.427   2.079  0.00  0.00    -0.031 A 
ATOM      6  C6  IND d   1       0.726  -0.593   3.121  0.00  0.00     0.015 A 
ATOM      7  C7  IND d   1      -0.420  -0.789   3.839  0.00  0.00    -0.016 A 
ATOM      8  C8  IND d   1      -1.223  -1.855   3.458  0.00  0.00    -0.047 A 
ATOM      9  C9  IND d   1      -0.896  -2.680   2.373  0.00  0.00    -0.096 A 
ATOM     10  HN1 IND d   1      -2.852  -1.951   4.623  0.00  0.00     0.298 HD
ENDROOT
TORSDOF 0
ENDMDL
