MODEL 1
REMARK minimizedAffinity 19.7778854
REMARK minimizedRMSD -1
REMARK  0 active torsions:
REMARK  status: ('A' for Active; 'I' for Inactive)
ROOT
ATOM      1  N1  IND d   1      -2.697   2.629  -2.536  0.00  0.00    -0.196 N 
ATOM      2  C2  IND d   1      -3.748   2.800  -1.679  0.00  0.00     0.054 A 
ATOM      3  C3  IND d   1      -3.302   2.956  -0.412  0.00  0.00    -0.031 A 
ATOM      4  C4  IND d   1      -0.886   3.066   0.469  0.00  0.00     0.051 A 
ATOM      5  C5  IND d   1       0.414   2.925   0.070  0.00  0.00    -0.031 A 
ATOM      6  C6  IND d   1       0.750   2.675  -1.245  0.00  0.00     0.015 A 
ATOM      7  C7  IND d   1      -0.205   2.568  -2.216  0.00  0.00    -0.016 A 
ATOM      8  C8  IND d   1      -1.526   2.705  -1.814  0.00  0.00    -0.047 A 
ATOM      9  C9  IND d   1      -1.876   2.916  -0.474  0.00  0.00    -0.096 A 
ATOM     10  HN1 IND d   1      -2.757   2.496  -3.383  0.00  0.00     0.298 HD
ENDROOT
TORSDOF 0
ENDMDL
