MODEL 1
REMARK minimizedAffinity 18.3539181
REMARK minimizedRMSD -1
REMARK  0 active torsions:
REMARK  status: ('A' for Active; 'I' for Inactive)
ROOT
ATOM      1  N1  IND d   1       2.985   0.501   3.509  0.00  0.00    -0.196 N 
ATOM      2  C2  IND d   1       3.599   0.140   2.342  0.00  0.00     0.054 A 
ATOM      3  C3  IND d   1       2.752  -0.573   1.566  0.00  0.00    -0.031 A 
ATOM      4  C4  IND d   1       0.281  -1.176   1.968  0.00  0.00     0.051 A 
ATOM      5  C5  IND d   1      -0.708  -1.097   2.908  0.00  0.00    -0.031 A 
ATOM      6  C6  IND d   1      -0.514  -0.466   4.119  0.00  0.00     0.015 A 
ATOM      7  C7  IND d   1       0.679   0.122   4.433  0.00  0.00    -0.016 A 
ATOM      8  C8  IND d   1       1.688   0.038   3.484  0.00  0.00    -0.047 A 
ATOM      9  C9  IND d   1       1.510  -0.639   2.270  0.00  0.00    -0.096 A 
ATOM     10  HN1 IND d   1       3.348   0.944   4.151  0.00  0.00     0.298 HD
ENDROOT
TORSDOF 0
ENDMDL
