MODEL 1
REMARK minimizedAffinity 12.0224581
REMARK minimizedRMSD -1
REMARK  0 active torsions:
REMARK  status: ('A' for Active; 'I' for Inactive)
ROOT
ATOM      1  N1  IND d   1       3.045  -1.157   1.878  0.00  0.00    -0.196 N 
ATOM      2  C2  IND d   1       2.077  -1.730   1.102  0.00  0.00     0.054 A 
ATOM      3  C3  IND d   1       0.864  -1.592   1.683  0.00  0.00    -0.031 A 
ATOM      4  C4  IND d   1       0.223  -0.371   3.858  0.00  0.00     0.051 A 
ATOM      5  C5  IND d   1       0.769   0.277   4.930  0.00  0.00    -0.031 A 
ATOM      6  C6  IND d   1       2.128   0.487   5.041  0.00  0.00     0.015 A 
ATOM      7  C7  IND d   1       2.995   0.064   4.074  0.00  0.00    -0.016 A 
ATOM      8  C8  IND d   1       2.446  -0.600   2.987  0.00  0.00    -0.047 A 
ATOM      9  C9  IND d   1       1.071  -0.853   2.889  0.00  0.00    -0.096 A 
ATOM     10  HN1 IND d   1       3.887  -1.146   1.703  0.00  0.00     0.298 HD
ENDROOT
TORSDOF 0
ENDMDL
