MODEL 1
REMARK minimizedAffinity 4.40361214
REMARK minimizedRMSD -1
REMARK  0 active torsions:
REMARK  status: ('A' for Active; 'I' for Inactive)
ROOT
ATOM      1  N1  IND d   1      -1.391  -0.996   5.586  0.00  0.00    -0.196 N 
ATOM      2  C2  IND d   1      -0.254  -0.250   5.723  0.00  0.00     0.054 A 
ATOM      3  C3  IND d   1       0.502  -0.333   4.605  0.00  0.00    -0.031 A 
ATOM      4  C4  IND d   1       0.018  -1.554   2.391  0.00  0.00     0.051 A 
ATOM      5  C5  IND d   1      -0.878  -2.401   1.802  0.00  0.00    -0.031 A 
ATOM      6  C6  IND d   1      -2.016  -2.829   2.456  0.00  0.00     0.015 A 
ATOM      7  C7  IND d   1      -2.306  -2.416   3.725  0.00  0.00    -0.016 A 
ATOM      8  C8  IND d   1      -1.394  -1.562   4.329  0.00  0.00    -0.047 A 
ATOM      9  C9  IND d   1      -0.217  -1.157   3.687  0.00  0.00    -0.096 A 
ATOM     10  HN1 IND d   1      -2.001  -1.096   6.183  0.00  0.00     0.298 HD
ENDROOT
TORSDOF 0
ENDMDL
