MODEL 1
REMARK minimizedAffinity 23.9335823
REMARK minimizedRMSD -1
REMARK  0 active torsions:
REMARK  status: ('A' for Active; 'I' for Inactive)
ROOT
ATOM      1  N1  IND d   1       1.326  -0.867   2.531  0.00  0.00    -0.196 N 
ATOM      2  C2  IND d   1       0.378  -1.508   1.783  0.00  0.00     0.054 A 
ATOM      3  C3  IND d   1      -0.749  -1.688   2.508  0.00  0.00    -0.031 A 
ATOM      4  C4  IND d   1      -1.294  -0.920   4.904  0.00  0.00     0.051 A 
ATOM      5  C5  IND d   1      -0.730  -0.328   6.000  0.00  0.00    -0.031 A 
ATOM      6  C6  IND d   1       0.573   0.125   5.994  0.00  0.00     0.015 A 
ATOM      7  C7  IND d   1       1.361   0.014   4.884  0.00  0.00    -0.016 A 
ATOM      8  C8  IND d   1       0.795  -0.592   3.772  0.00  0.00    -0.047 A 
ATOM      9  C9  IND d   1      -0.514  -1.093   3.785  0.00  0.00    -0.096 A 
ATOM     10  HN1 IND d   1       2.121  -0.668   2.270  0.00  0.00     0.298 HD
ENDROOT
TORSDOF 0
ENDMDL
