MODEL 1
REMARK minimizedAffinity 26.0931206
REMARK minimizedRMSD -1
REMARK  0 active torsions:
REMARK  status: ('A' for Active; 'I' for Inactive)
ROOT
ATOM      1  N1  IND d   1       0.164  -0.007   4.185  0.00  0.00    -0.196 N 
ATOM      2  C2  IND d   1      -0.723  -0.487   3.261  0.00  0.00     0.054 A 
ATOM      3  C3  IND d   1      -0.080  -0.811   2.117  0.00  0.00    -0.031 A 
ATOM      4  C4  IND d   1       2.436  -0.731   1.575  0.00  0.00     0.051 A 
ATOM      5  C5  IND d   1       3.636  -0.329   2.089  0.00  0.00    -0.031 A 
ATOM      6  C6  IND d   1       3.743   0.208   3.356  0.00  0.00     0.015 A 
ATOM      7  C7  IND d   1       2.650   0.355   4.162  0.00  0.00    -0.016 A 
ATOM      8  C8  IND d   1       1.428  -0.045   3.640  0.00  0.00    -0.047 A 
ATOM      9  C9  IND d   1       1.307  -0.552   2.340  0.00  0.00    -0.096 A 
ATOM     10  HN1 IND d   1      -0.035   0.272   4.973  0.00  0.00     0.298 HD
ENDROOT
TORSDOF 0
ENDMDL
