MODEL 1
REMARK minimizedAffinity 7.23231316
REMARK minimizedRMSD -1
REMARK  0 active torsions:
REMARK  status: ('A' for Active; 'I' for Inactive)
ROOT
ATOM      1  N1  IND d   1      -4.524   3.872  -0.590  0.00  0.00    -0.196 N 
ATOM      2  C2  IND d   1      -4.647   5.204  -0.872  0.00  0.00     0.054 A 
ATOM      3  C3  IND d   1      -3.677   5.596  -1.727  0.00  0.00    -0.031 A 
ATOM      4  C4  IND d   1      -1.843   4.198  -2.872  0.00  0.00     0.051 A 
ATOM      5  C5  IND d   1      -1.306   2.941  -2.900  0.00  0.00    -0.031 A 
ATOM      6  C6  IND d   1      -1.827   1.909  -2.147  0.00  0.00     0.015 A 
ATOM      7  C7  IND d   1      -2.916   2.093  -1.342  0.00  0.00    -0.016 A 
ATOM      8  C8  IND d   1      -3.459   3.370  -1.305  0.00  0.00    -0.047 A 
ATOM      9  C9  IND d   1      -2.908   4.431  -2.035  0.00  0.00    -0.096 A 
ATOM     10  HN1 IND d   1      -5.027   3.423  -0.057  0.00  0.00     0.298 HD
ENDROOT
TORSDOF 0
ENDMDL
