MODEL 1
REMARK minimizedAffinity 15.785531
REMARK minimizedRMSD -1
REMARK  0 active torsions:
REMARK  status: ('A' for Active; 'I' for Inactive)
ROOT
ATOM      1  N1  IND d   1      -2.151   4.314  -1.959  0.00  0.00    -0.196 N 
ATOM      2  C2  IND d   1      -2.498   2.992  -1.950  0.00  0.00     0.054 A 
ATOM      3  C3  IND d   1      -2.523   2.504  -3.211  0.00  0.00    -0.031 A 
ATOM      4  C4  IND d   1      -1.930   3.669  -5.428  0.00  0.00     0.051 A 
ATOM      5  C5  IND d   1      -1.592   4.887  -5.948  0.00  0.00    -0.031 A 
ATOM      6  C6  IND d   1      -1.416   5.998  -5.149  0.00  0.00     0.015 A 
ATOM      7  C7  IND d   1      -1.563   5.930  -3.792  0.00  0.00    -0.016 A 
ATOM      8  C8  IND d   1      -1.913   4.696  -3.261  0.00  0.00    -0.047 A 
ATOM      9  C9  IND d   1      -2.134   3.575  -4.072  0.00  0.00    -0.096 A 
ATOM     10  HN1 IND d   1      -2.092   4.822  -1.268  0.00  0.00     0.298 HD
ENDROOT
TORSDOF 0
ENDMDL
