MODEL 1
REMARK minimizedAffinity 19.5878906
REMARK minimizedRMSD -1
REMARK  0 active torsions:
REMARK  status: ('A' for Active; 'I' for Inactive)
ROOT
ATOM      1  N1  IND d   1      -2.176   1.962  -3.522  0.00  0.00    -0.196 N 
ATOM      2  C2  IND d   1      -1.765   2.249  -2.250  0.00  0.00     0.054 A 
ATOM      3  C3  IND d   1      -1.522   3.573  -2.122  0.00  0.00    -0.031 A 
ATOM      4  C4  IND d   1      -1.828   5.466  -3.839  0.00  0.00     0.051 A 
ATOM      5  C5  IND d   1      -2.147   5.691  -5.149  0.00  0.00    -0.031 A 
ATOM      6  C6  IND d   1      -2.501   4.664  -6.000  0.00  0.00     0.015 A 
ATOM      7  C7  IND d   1      -2.561   3.369  -5.568  0.00  0.00    -0.016 A 
ATOM      8  C8  IND d   1      -2.232   3.136  -4.240  0.00  0.00    -0.047 A 
ATOM      9  C9  IND d   1      -1.830   4.169  -3.383  0.00  0.00    -0.096 A 
ATOM     10  HN1 IND d   1      -2.367   1.180  -3.823  0.00  0.00     0.298 HD
ENDROOT
TORSDOF 0
ENDMDL
