MODEL 1
REMARK minimizedAffinity 1.85095346
REMARK minimizedRMSD -1
REMARK  0 active torsions:
REMARK  status: ('A' for Active; 'I' for Inactive)
ROOT
ATOM      1  N1  IND d   1      -2.063   0.043   1.058  0.00  0.00    -0.196 N 
ATOM      2  C2  IND d   1      -2.410  -1.278   1.112  0.00  0.00     0.054 A 
ATOM      3  C3  IND d   1      -1.359  -2.054   0.764  0.00  0.00    -0.031 A 
ATOM      4  C4  IND d   1       1.051  -1.373   0.168  0.00  0.00     0.051 A 
ATOM      5  C5  IND d   1       1.838  -0.278  -0.051  0.00  0.00    -0.031 A 
ATOM      6  C6  IND d   1       1.355   1.007   0.094  0.00  0.00     0.015 A 
ATOM      7  C7  IND d   1       0.066   1.245   0.476  0.00  0.00    -0.016 A 
ATOM      8  C8  IND d   1      -0.738   0.134   0.693  0.00  0.00    -0.047 A 
ATOM      9  C9  IND d   1      -0.266  -1.171   0.506  0.00  0.00    -0.096 A 
ATOM     10  HN1 IND d   1      -2.585   0.706   1.225  0.00  0.00     0.298 HD
ENDROOT
TORSDOF 0
ENDMDL
