MODEL 1
REMARK minimizedAffinity 4.20210695
REMARK minimizedRMSD -1
REMARK  1 active torsions:
REMARK  status: ('A' for Active; 'I' for Inactive)
REMARK    1  A    between atoms: C3_4  and  O_7 
ROOT
ATOM      1  C   UNL d   1      -0.154  -2.825  -5.951  0.00  0.00    -0.033 A 
ATOM      2  C1  UNL d   1      -1.464  -2.344  -5.993  0.00  0.00     0.039 A 
ATOM      3  C2  UNL d   1      -2.538  -3.236  -5.988  0.00  0.00    -0.080 A 
ATOM      4  C3  UNL d   1      -2.289  -4.605  -5.939  0.00  0.00     0.150 A 
ATOM      5  C4  UNL d   1      -0.987  -5.091  -5.893  0.00  0.00    -0.007 A 
ATOM      6  C5  UNL d   1       0.084  -4.199  -5.900  0.00  0.00     0.039 A 
ENDROOT
BRANCH   4   7
ATOM      7  O   UNL d   1      -3.305  -5.514  -5.937  0.00  0.00    -0.526 OA
ATOM      8  H5  UNL d   1      -4.147  -5.035  -6.000  0.00  0.00     0.418 HD
ENDBRANCH   4   7
TORSDOF 1
ENDMDL
