MODEL 1
REMARK minimizedAffinity 1.2055074
REMARK minimizedRMSD -1
REMARK  1 active torsions:
REMARK  status: ('A' for Active; 'I' for Inactive)
REMARK    1  A    between atoms: C3_4  and  O_7 
ROOT
ATOM      1  C   UNL d   1      -0.020   5.206  -2.426  0.00  0.00    -0.033 A 
ATOM      2  C1  UNL d   1      -0.295   4.749  -3.716  0.00  0.00     0.039 A 
ATOM      3  C2  UNL d   1      -1.592   4.361  -4.059  0.00  0.00    -0.080 A 
ATOM      4  C3  UNL d   1      -2.603   4.437  -3.105  0.00  0.00     0.150 A 
ATOM      5  C4  UNL d   1      -2.336   4.895  -1.819  0.00  0.00    -0.007 A 
ATOM      6  C5  UNL d   1      -1.040   5.280  -1.478  0.00  0.00     0.039 A 
ENDROOT
BRANCH   4   7
ATOM      7  O   UNL d   1      -3.883   4.066  -3.391  0.00  0.00    -0.526 OA
ATOM      8  H5  UNL d   1      -3.912   3.743  -4.308  0.00  0.00     0.418 HD
ENDBRANCH   4   7
TORSDOF 1
ENDMDL
