MODEL 1
REMARK minimizedAffinity 0.741988778
REMARK minimizedRMSD -1
REMARK  1 active torsions:
REMARK  status: ('A' for Active; 'I' for Inactive)
REMARK    1  A    between atoms: C3_4  and  O_7 
ROOT
ATOM      1  C   UNL d   1      -2.386  -6.000  -5.962  0.00  0.00    -0.033 A 
ATOM      2  C1  UNL d   1      -3.424  -5.066  -5.986  0.00  0.00     0.039 A 
ATOM      3  C2  UNL d   1      -3.135  -3.700  -6.000  0.00  0.00    -0.080 A 
ATOM      4  C3  UNL d   1      -1.807  -3.281  -5.989  0.00  0.00     0.150 A 
ATOM      5  C4  UNL d   1      -0.769  -4.207  -5.969  0.00  0.00    -0.007 A 
ATOM      6  C5  UNL d   1      -1.059  -5.570  -5.955  0.00  0.00     0.039 A 
ENDROOT
BRANCH   4   7
ATOM      7  O   UNL d   1      -1.477  -1.959  -5.997  0.00  0.00    -0.526 OA
ATOM      8  H5  UNL d   1      -2.296  -1.437  -5.982  0.00  0.00     0.418 HD
ENDBRANCH   4   7
TORSDOF 1
ENDMDL
