MODEL 1
REMARK minimizedAffinity 3.26178527
REMARK minimizedRMSD -1
REMARK  1 active torsions:
REMARK  status: ('A' for Active; 'I' for Inactive)
REMARK    1  A    between atoms: C3_4  and  O_7 
ROOT
ATOM      1  C   UNL d   1      -0.911   5.999  -2.100  0.00  0.00    -0.033 A 
ATOM      2  C1  UNL d   1      -0.413   4.854  -2.724  0.00  0.00     0.039 A 
ATOM      3  C2  UNL d   1      -0.161   3.703  -1.976  0.00  0.00    -0.080 A 
ATOM      4  C3  UNL d   1      -0.413   3.709  -0.607  0.00  0.00     0.150 A 
ATOM      5  C4  UNL d   1      -0.913   4.845   0.021  0.00  0.00    -0.007 A 
ATOM      6  C5  UNL d   1      -1.163   5.994  -0.728  0.00  0.00     0.039 A 
ENDROOT
BRANCH   4   7
ATOM      7  O   UNL d   1      -0.179   2.610   0.166  0.00  0.00    -0.526 OA
ATOM      8  H5  UNL d   1       0.193   1.911  -0.398  0.00  0.00     0.418 HD
ENDBRANCH   4   7
TORSDOF 1
ENDMDL
