MODEL 1
REMARK minimizedAffinity -3.04176378
REMARK minimizedRMSD -1
REMARK  1 active torsions:
REMARK  status: ('A' for Active; 'I' for Inactive)
REMARK    1  A    between atoms: C3_4  and  O_7 
ROOT
ATOM      1  C   UNL d   1      -1.969  -5.185  -5.999  0.00  0.00    -0.033 A 
ATOM      2  C1  UNL d   1      -2.049  -3.791  -5.980  0.00  0.00     0.039 A 
ATOM      3  C2  UNL d   1      -3.294  -3.162  -5.942  0.00  0.00    -0.080 A 
ATOM      4  C3  UNL d   1      -4.451  -3.936  -5.923  0.00  0.00     0.150 A 
ATOM      5  C4  UNL d   1      -4.379  -5.325  -5.937  0.00  0.00    -0.007 A 
ATOM      6  C5  UNL d   1      -3.135  -5.952  -5.976  0.00  0.00     0.039 A 
ENDROOT
BRANCH   4   7
ATOM      7  O   UNL d   1      -5.689  -3.366  -5.891  0.00  0.00    -0.526 OA
ATOM      8  H5  UNL d   1      -5.584  -2.401  -5.913  0.00  0.00     0.418 HD
ENDBRANCH   4   7
TORSDOF 1
ENDMDL
