MODEL 1
REMARK minimizedAffinity 1.7871958
REMARK minimizedRMSD -1
REMARK  1 active torsions:
REMARK  status: ('A' for Active; 'I' for Inactive)
REMARK    1  A    between atoms: C3_4  and  O_7 
ROOT
ATOM      1  C   UNL d   1      -0.432  -3.627  -5.992  0.00  0.00    -0.033 A 
ATOM      2  C1  UNL d   1      -1.667  -2.975  -5.991  0.00  0.00     0.039 A 
ATOM      3  C2  UNL d   1      -2.850  -3.718  -5.992  0.00  0.00    -0.080 A 
ATOM      4  C3  UNL d   1      -2.784  -5.108  -5.993  0.00  0.00     0.150 A 
ATOM      5  C4  UNL d   1      -1.557  -5.764  -5.991  0.00  0.00    -0.007 A 
ATOM      6  C5  UNL d   1      -0.377  -5.021  -5.991  0.00  0.00     0.039 A 
ENDROOT
BRANCH   4   7
ATOM      7  O   UNL d   1      -3.911  -5.875  -5.999  0.00  0.00    -0.526 OA
ATOM      8  H5  UNL d   1      -4.684  -5.287  -6.030  0.00  0.00     0.418 HD
ENDBRANCH   4   7
TORSDOF 1
ENDMDL
