MODEL 1
REMARK minimizedAffinity 0.344999999
REMARK minimizedRMSD -1
REMARK  0 active torsions:
REMARK  status: ('A' for Active; 'I' for Inactive)
ROOT
ATOM      1  C   UNL d   1      -2.028  -0.058   1.028  0.00  0.00     0.124 A 
ATOM      2  C1  UNL d   1      -1.763   0.751  -0.068  0.00  0.00     0.062 A 
ATOM      3  C2  UNL d   1      -0.506   1.328  -0.224  0.00  0.00     0.162 A 
ATOM      4  C3  UNL d   1       0.496   1.097   0.717  0.00  0.00    -0.034 A 
ATOM      5  C4  UNL d   1       0.222   0.282   1.817  0.00  0.00     0.162 A 
ATOM      6  C5  UNL d   1      -1.036  -0.292   1.969  0.00  0.00     0.062 A 
ATOM      7  F   UNL d   1      -1.290  -1.074   3.029  0.00  0.00    -0.097 F 
ATOM      8  F1  UNL d   1       1.163   0.039   2.741  0.00  0.00    -0.096 F 
ATOM      9  I   UNL d   1       2.377   1.957   0.487  0.00  0.00    -0.060 I 
ATOM     10  F2  UNL d   1      -0.278   2.106  -1.293  0.00  0.00    -0.096 F 
ATOM     11  F3  UNL d   1      -2.721   0.979  -0.978  0.00  0.00    -0.097 F 
ATOM     12  F4  UNL d   1      -3.239  -0.611   1.177  0.00  0.00    -0.092 F 
ENDROOT
TORSDOF 0
ENDMDL
