MODEL 1
REMARK minimizedAffinity -0.311719835
REMARK minimizedRMSD -1
REMARK  0 active torsions:
REMARK  status: ('A' for Active; 'I' for Inactive)
ROOT
ATOM      1  C   UNL d   1       1.379  -1.241  -3.248  0.00  0.00     0.124 A 
ATOM      2  C1  UNL d   1       1.412   0.026  -2.682  0.00  0.00     0.062 A 
ATOM      3  C2  UNL d   1       0.818   0.255  -1.444  0.00  0.00     0.162 A 
ATOM      4  C3  UNL d   1       0.186  -0.785  -0.763  0.00  0.00    -0.034 A 
ATOM      5  C4  UNL d   1       0.156  -2.056  -1.340  0.00  0.00     0.162 A 
ATOM      6  C5  UNL d   1       0.751  -2.280  -2.577  0.00  0.00     0.062 A 
ATOM      7  F   UNL d   1       0.718  -3.505  -3.122  0.00  0.00    -0.097 F 
ATOM      8  F1  UNL d   1      -0.443  -3.079  -0.712  0.00  0.00    -0.096 F 
ATOM      9  I   UNL d   1      -0.704  -0.446   1.087  0.00  0.00    -0.060 I 
ATOM     10  F2  UNL d   1       0.865   1.490  -0.921  0.00  0.00    -0.096 F 
ATOM     11  F3  UNL d   1       2.017   1.032  -3.329  0.00  0.00    -0.097 F 
ATOM     12  F4  UNL d   1       1.951  -1.458  -4.439  0.00  0.00    -0.092 F 
ENDROOT
TORSDOF 0
ENDMDL
