MODEL 1
REMARK minimizedAffinity -3.02552938
REMARK minimizedRMSD -1
REMARK  0 active torsions:
REMARK  status: ('A' for Active; 'I' for Inactive)
ROOT
ATOM      1  C   UNL d   1      -0.623  -0.322   2.251  0.00  0.00     0.124 A 
ATOM      2  C1  UNL d   1      -1.384  -0.369   1.090  0.00  0.00     0.062 A 
ATOM      3  C2  UNL d   1      -0.764  -0.318  -0.155  0.00  0.00     0.162 A 
ATOM      4  C3  UNL d   1       0.624  -0.221  -0.247  0.00  0.00    -0.034 A 
ATOM      5  C4  UNL d   1       1.382  -0.173   0.924  0.00  0.00     0.162 A 
ATOM      6  C5  UNL d   1       0.758  -0.224   2.167  0.00  0.00     0.062 A 
ATOM      7  F   UNL d   1       1.495  -0.179   3.286  0.00  0.00    -0.097 F 
ATOM      8  F1  UNL d   1       2.719  -0.080   0.872  0.00  0.00    -0.096 F 
ATOM      9  I   UNL d   1       1.554  -0.144  -2.107  0.00  0.00    -0.060 I 
ATOM     10  F2  UNL d   1      -1.524  -0.365  -1.260  0.00  0.00    -0.096 F 
ATOM     11  F3  UNL d   1      -2.719  -0.462   1.169  0.00  0.00    -0.097 F 
ATOM     12  F4  UNL d   1      -1.222  -0.370   3.447  0.00  0.00    -0.092 F 
ENDROOT
TORSDOF 0
ENDMDL
