MODEL 1
REMARK minimizedAffinity -1.92142105
REMARK minimizedRMSD -1
REMARK  0 active torsions:
REMARK  status: ('A' for Active; 'I' for Inactive)
ROOT
ATOM      1  C   UNL d   1      -1.353  -0.551   0.671  0.00  0.00     0.124 A 
ATOM      2  C1  UNL d   1      -0.909   0.063  -0.492  0.00  0.00     0.062 A 
ATOM      3  C2  UNL d   1       0.283   0.781  -0.493  0.00  0.00     0.162 A 
ATOM      4  C3  UNL d   1       1.041   0.889   0.674  0.00  0.00    -0.034 A 
ATOM      5  C4  UNL d   1       0.587   0.270   1.840  0.00  0.00     0.162 A 
ATOM      6  C5  UNL d   1      -0.605  -0.447   1.836  0.00  0.00     0.062 A 
ATOM      7  F   UNL d   1      -1.033  -1.039   2.960  0.00  0.00    -0.097 F 
ATOM      8  F1  UNL d   1       1.291   0.354   2.979  0.00  0.00    -0.096 F 
ATOM      9  I   UNL d   1       2.824   1.962   0.676  0.00  0.00    -0.060 I 
ATOM     10  F2  UNL d   1       0.688   1.364  -1.631  0.00  0.00    -0.096 F 
ATOM     11  F3  UNL d   1      -1.630  -0.036  -1.617  0.00  0.00    -0.097 F 
ATOM     12  F4  UNL d   1      -2.501  -1.241   0.670  0.00  0.00    -0.092 F 
ENDROOT
TORSDOF 0
ENDMDL
