MODEL 1
REMARK minimizedAffinity 1.58316731
REMARK minimizedRMSD -1
REMARK  0 active torsions:
REMARK  status: ('A' for Active; 'I' for Inactive)
ROOT
ATOM      1  C   UNL d   1      -1.872  -0.574   0.992  0.00  0.00     0.124 A 
ATOM      2  C1  UNL d   1      -0.600  -1.117   1.107  0.00  0.00     0.062 A 
ATOM      3  C2  UNL d   1       0.336  -0.928   0.094  0.00  0.00     0.162 A 
ATOM      4  C3  UNL d   1       0.003  -0.191  -1.043  0.00  0.00    -0.034 A 
ATOM      5  C4  UNL d   1      -1.279   0.352  -1.151  0.00  0.00     0.162 A 
ATOM      6  C5  UNL d   1      -2.210   0.160  -0.136  0.00  0.00     0.062 A 
ATOM      7  F   UNL d   1      -3.439   0.686  -0.248  0.00  0.00    -0.097 F 
ATOM      8  F1  UNL d   1      -1.632   1.065  -2.231  0.00  0.00    -0.096 F 
ATOM      9  I   UNL d   1       1.399   0.094  -2.560  0.00  0.00    -0.060 I 
ATOM     10  F2  UNL d   1       1.557  -1.465   0.231  0.00  0.00    -0.096 F 
ATOM     11  F3  UNL d   1      -0.271  -1.827   2.196  0.00  0.00    -0.097 F 
ATOM     12  F4  UNL d   1      -2.770  -0.758   1.968  0.00  0.00    -0.092 F 
ENDROOT
TORSDOF 0
ENDMDL
