MODEL 1
REMARK minimizedAffinity -2.68312263
REMARK minimizedRMSD -1
REMARK  0 active torsions:
REMARK  status: ('A' for Active; 'I' for Inactive)
ROOT
ATOM      1  C   UNL d   1      -1.067   0.630  -1.279  0.00  0.00     0.124 A 
ATOM      2  C1  UNL d   1       0.147   0.359  -0.663  0.00  0.00     0.062 A 
ATOM      3  C2  UNL d   1       0.186   0.004   0.682  0.00  0.00     0.162 A 
ATOM      4  C3  UNL d   1      -0.994  -0.083   1.421  0.00  0.00    -0.034 A 
ATOM      5  C4  UNL d   1      -2.211   0.192   0.795  0.00  0.00     0.162 A 
ATOM      6  C5  UNL d   1      -2.245   0.546  -0.550  0.00  0.00     0.062 A 
ATOM      7  F   UNL d   1      -3.418   0.807  -1.144  0.00  0.00    -0.097 F 
ATOM      8  F1  UNL d   1      -3.365   0.118   1.476  0.00  0.00    -0.096 F 
ATOM      9  I   UNL d   1      -0.941  -0.612   3.433  0.00  0.00    -0.060 I 
ATOM     10  F2  UNL d   1       1.373  -0.252   1.252  0.00  0.00    -0.096 F 
ATOM     11  F3  UNL d   1       1.286   0.440  -1.365  0.00  0.00    -0.097 F 
ATOM     12  F4  UNL d   1      -1.101   0.971  -2.574  0.00  0.00    -0.092 F 
ENDROOT
TORSDOF 0
ENDMDL
