MODEL 1
REMARK minimizedAffinity -0.836154759
REMARK minimizedRMSD -1
REMARK  0 active torsions:
REMARK  status: ('A' for Active; 'I' for Inactive)
ROOT
ATOM      1  C   UNL d   1      -0.524  -0.157   3.006  0.00  0.00     0.124 A 
ATOM      2  C1  UNL d   1       0.457   0.709   2.544  0.00  0.00     0.062 A 
ATOM      3  C2  UNL d   1       0.774   0.749   1.189  0.00  0.00     0.162 A 
ATOM      4  C3  UNL d   1       0.108  -0.079   0.285  0.00  0.00    -0.034 A 
ATOM      5  C4  UNL d   1      -0.878  -0.947   0.758  0.00  0.00     0.162 A 
ATOM      6  C5  UNL d   1      -1.191  -0.984   2.113  0.00  0.00     0.062 A 
ATOM      7  F   UNL d   1      -2.140  -1.820   2.557  0.00  0.00    -0.097 F 
ATOM      8  F1  UNL d   1      -1.539  -1.757  -0.083  0.00  0.00    -0.096 F 
ATOM      9  I   UNL d   1       0.578  -0.022  -1.741  0.00  0.00    -0.060 I 
ATOM     10  F2  UNL d   1       1.727   1.595   0.771  0.00  0.00    -0.096 F 
ATOM     11  F3  UNL d   1       1.104   1.508   3.405  0.00  0.00    -0.097 F 
ATOM     12  F4  UNL d   1      -0.827  -0.194   4.310  0.00  0.00    -0.092 F 
ENDROOT
TORSDOF 0
ENDMDL
