MODEL 1
REMARK minimizedAffinity -5.3729434
REMARK minimizedRMSD -1
REMARK  0 active torsions:
REMARK  status: ('A' for Active; 'I' for Inactive)
ROOT
ATOM      1  C   UNL d   1      -1.531  -0.096   2.642  0.00  0.00     0.124 A 
ATOM      2  C1  UNL d   1      -0.174  -0.044   2.353  0.00  0.00     0.062 A 
ATOM      3  C2  UNL d   1       0.256   0.148   1.043  0.00  0.00     0.162 A 
ATOM      4  C3  UNL d   1      -0.672   0.291   0.012  0.00  0.00    -0.034 A 
ATOM      5  C4  UNL d   1      -2.035   0.237   0.310  0.00  0.00     0.162 A 
ATOM      6  C5  UNL d   1      -2.460   0.045   1.621  0.00  0.00     0.062 A 
ATOM      7  F   UNL d   1      -3.771  -0.005   1.898  0.00  0.00    -0.097 F 
ATOM      8  F1  UNL d   1      -2.954   0.371  -0.658  0.00  0.00    -0.096 F 
ATOM      9  I   UNL d   1      -0.033   0.579  -1.948  0.00  0.00    -0.060 I 
ATOM     10  F2  UNL d   1       1.573   0.194   0.793  0.00  0.00    -0.096 F 
ATOM     11  F3  UNL d   1       0.725  -0.181   3.338  0.00  0.00    -0.097 F 
ATOM     12  F4  UNL d   1      -1.942  -0.282   3.903  0.00  0.00    -0.092 F 
ENDROOT
TORSDOF 0
ENDMDL
