MODEL 1
REMARK minimizedAffinity -2.48016453
REMARK minimizedRMSD -1
REMARK  0 active torsions:
REMARK  status: ('A' for Active; 'I' for Inactive)
ROOT
ATOM      1  C   UNL d   1       0.844   0.152   2.608  0.00  0.00     0.124 A 
ATOM      2  C1  UNL d   1       1.472   0.779   1.540  0.00  0.00     0.062 A 
ATOM      3  C2  UNL d   1       0.801   0.943   0.332  0.00  0.00     0.162 A 
ATOM      4  C3  UNL d   1      -0.507   0.480   0.184  0.00  0.00    -0.034 A 
ATOM      5  C4  UNL d   1      -1.131  -0.150   1.262  0.00  0.00     0.162 A 
ATOM      6  C5  UNL d   1      -0.457  -0.312   2.468  0.00  0.00     0.062 A 
ATOM      7  F   UNL d   1      -1.065  -0.918   3.498  0.00  0.00    -0.097 F 
ATOM      8  F1  UNL d   1      -2.388  -0.607   1.154  0.00  0.00    -0.096 F 
ATOM      9  I   UNL d   1      -1.513   0.724  -1.621  0.00  0.00    -0.060 I 
ATOM     10  F2  UNL d   1       1.432   1.552  -0.683  0.00  0.00    -0.096 F 
ATOM     11  F3  UNL d   1       2.728   1.227   1.673  0.00  0.00    -0.097 F 
ATOM     12  F4  UNL d   1       1.492  -0.006   3.769  0.00  0.00    -0.092 F 
ENDROOT
TORSDOF 0
ENDMDL
