MODEL 1
REMARK minimizedAffinity -2.37776423
REMARK minimizedRMSD -1
REMARK  0 active torsions:
REMARK  status: ('A' for Active; 'I' for Inactive)
ROOT
ATOM      1  C   UNL d   1      -0.314  -0.306   2.304  0.00  0.00     0.124 A 
ATOM      2  C1  UNL d   1       0.974   0.066   1.947  0.00  0.00     0.062 A 
ATOM      3  C2  UNL d   1       1.327   0.166   0.604  0.00  0.00     0.162 A 
ATOM      4  C3  UNL d   1       0.390  -0.106  -0.392  0.00  0.00    -0.034 A 
ATOM      5  C4  UNL d   1      -0.904  -0.481  -0.025  0.00  0.00     0.162 A 
ATOM      6  C5  UNL d   1      -1.252  -0.579   1.318  0.00  0.00     0.062 A 
ATOM      7  F   UNL d   1      -2.497  -0.939   1.662  0.00  0.00    -0.097 F 
ATOM      8  F1  UNL d   1      -1.830  -0.750  -0.957  0.00  0.00    -0.096 F 
ATOM      9  I   UNL d   1       0.914   0.041  -2.401  0.00  0.00    -0.060 I 
ATOM     10  F2  UNL d   1       2.580   0.527   0.288  0.00  0.00    -0.096 F 
ATOM     11  F3  UNL d   1       1.882   0.330   2.898  0.00  0.00    -0.097 F 
ATOM     12  F4  UNL d   1      -0.651  -0.402   3.597  0.00  0.00    -0.092 F 
ENDROOT
TORSDOF 0
ENDMDL
