MODEL 1
REMARK minimizedAffinity -2.60979176
REMARK minimizedRMSD -1
REMARK  0 active torsions:
REMARK  status: ('A' for Active; 'I' for Inactive)
ROOT
ATOM      1  C   UNL d   1      -0.427  -0.310   2.205  0.00  0.00     0.124 A 
ATOM      2  C1  UNL d   1       0.853   0.196   2.023  0.00  0.00     0.062 A 
ATOM      3  C2  UNL d   1       1.403   0.265   0.746  0.00  0.00     0.162 A 
ATOM      4  C3  UNL d   1       0.673  -0.172  -0.359  0.00  0.00    -0.034 A 
ATOM      5  C4  UNL d   1      -0.613  -0.681  -0.168  0.00  0.00     0.162 A 
ATOM      6  C5  UNL d   1      -1.158  -0.748   1.110  0.00  0.00     0.062 A 
ATOM      7  F   UNL d   1      -2.394  -1.238   1.284  0.00  0.00    -0.097 F 
ATOM      8  F1  UNL d   1      -1.342  -1.111  -1.209  0.00  0.00    -0.096 F 
ATOM      9  I   UNL d   1       1.492  -0.071  -2.270  0.00  0.00    -0.060 I 
ATOM     10  F2  UNL d   1       2.641   0.759   0.600  0.00  0.00    -0.096 F 
ATOM     11  F3  UNL d   1       1.561   0.619   3.080  0.00  0.00    -0.097 F 
ATOM     12  F4  UNL d   1      -0.953  -0.376   3.435  0.00  0.00    -0.092 F 
ENDROOT
TORSDOF 0
ENDMDL
