MODEL 1
REMARK minimizedAffinity -3.40414214
REMARK minimizedRMSD -1
REMARK  0 active torsions:
REMARK  status: ('A' for Active; 'I' for Inactive)
ROOT
ATOM      1  C   UNL d   1      -1.691   0.143   2.673  0.00  0.00     0.124 A 
ATOM      2  C1  UNL d   1      -2.522   0.113   1.562  0.00  0.00     0.062 A 
ATOM      3  C2  UNL d   1      -1.983   0.203   0.281  0.00  0.00     0.162 A 
ATOM      4  C3  UNL d   1      -0.605   0.322   0.105  0.00  0.00    -0.034 A 
ATOM      5  C4  UNL d   1       0.225   0.353   1.227  0.00  0.00     0.162 A 
ATOM      6  C5  UNL d   1      -0.318   0.263   2.504  0.00  0.00     0.062 A 
ATOM      7  F   UNL d   1       0.486   0.292   3.577  0.00  0.00    -0.097 F 
ATOM      8  F1  UNL d   1       1.555   0.467   1.093  0.00  0.00    -0.096 F 
ATOM      9  I   UNL d   1       0.205   0.456  -1.808  0.00  0.00    -0.060 I 
ATOM     10  F2  UNL d   1      -2.811   0.171  -0.774  0.00  0.00    -0.096 F 
ATOM     11  F3  UNL d   1      -3.849  -0.001   1.722  0.00  0.00    -0.097 F 
ATOM     12  F4  UNL d   1      -2.212   0.058   3.903  0.00  0.00    -0.092 F 
ENDROOT
TORSDOF 0
ENDMDL
