MODEL 1
REMARK minimizedAffinity 0.870098412
REMARK minimizedRMSD -1
REMARK  0 active torsions:
REMARK  status: ('A' for Active; 'I' for Inactive)
ROOT
ATOM      1  C   UNL d   1      -0.791  -0.150   2.311  0.00  0.00     0.124 A 
ATOM      2  C1  UNL d   1       0.575   0.058   2.181  0.00  0.00     0.062 A 
ATOM      3  C2  UNL d   1       1.163   0.081   0.919  0.00  0.00     0.162 A 
ATOM      4  C3  UNL d   1       0.384  -0.103  -0.223  0.00  0.00    -0.034 A 
ATOM      5  C4  UNL d   1      -0.989  -0.313  -0.085  0.00  0.00     0.162 A 
ATOM      6  C5  UNL d   1      -1.571  -0.336   1.178  0.00  0.00     0.062 A 
ATOM      7  F   UNL d   1      -2.891  -0.537   1.302  0.00  0.00    -0.097 F 
ATOM      8  F1  UNL d   1      -1.767  -0.494  -1.162  0.00  0.00    -0.096 F 
ATOM      9  I   UNL d   1       1.259  -0.069  -2.111  0.00  0.00    -0.060 I 
ATOM     10  F2  UNL d   1       2.485   0.285   0.824  0.00  0.00    -0.096 F 
ATOM     11  F3  UNL d   1       1.332   0.236   3.273  0.00  0.00    -0.097 F 
ATOM     12  F4  UNL d   1      -1.353  -0.174   3.526  0.00  0.00    -0.092 F 
ENDROOT
TORSDOF 0
ENDMDL
