MODEL 1
REMARK minimizedAffinity -2.26522994
REMARK minimizedRMSD -1
REMARK  0 active torsions:
REMARK  status: ('A' for Active; 'I' for Inactive)
ROOT
ATOM      1  C   UNL d   1       0.317  -0.337   2.178  0.00  0.00     0.124 A 
ATOM      2  C1  UNL d   1       1.254   0.042   1.227  0.00  0.00     0.062 A 
ATOM      3  C2  UNL d   1       0.872   0.223  -0.099  0.00  0.00     0.162 A 
ATOM      4  C3  UNL d   1      -0.455   0.027  -0.482  0.00  0.00    -0.034 A 
ATOM      5  C4  UNL d   1      -1.392  -0.356   0.481  0.00  0.00     0.162 A 
ATOM      6  C5  UNL d   1      -1.004  -0.536   1.804  0.00  0.00     0.062 A 
ATOM      7  F   UNL d   1      -1.911  -0.902   2.722  0.00  0.00    -0.097 F 
ATOM      8  F1  UNL d   1      -2.676  -0.553   0.147  0.00  0.00    -0.096 F 
ATOM      9  I   UNL d   1      -1.031   0.297  -2.463  0.00  0.00    -0.060 I 
ATOM     10  F2  UNL d   1       1.798   0.590  -0.996  0.00  0.00    -0.096 F 
ATOM     11  F3  UNL d   1       2.532   0.234   1.586  0.00  0.00    -0.097 F 
ATOM     12  F4  UNL d   1       0.688  -0.512   3.453  0.00  0.00    -0.092 F 
ENDROOT
TORSDOF 0
ENDMDL
