MODEL 1
REMARK minimizedAffinity 2.8854425
REMARK minimizedRMSD -1
REMARK  0 active torsions:
REMARK  status: ('A' for Active; 'I' for Inactive)
ROOT
ATOM      1  C   UNL d   1      -0.184   0.239  -1.773  0.00  0.00     0.124 A 
ATOM      2  C1  UNL d   1      -1.411   0.389  -1.140  0.00  0.00     0.062 A 
ATOM      3  C2  UNL d   1      -1.504   0.268   0.243  0.00  0.00     0.162 A 
ATOM      4  C3  UNL d   1      -0.367  -0.002   1.004  0.00  0.00    -0.034 A 
ATOM      5  C4  UNL d   1       0.863  -0.152   0.361  0.00  0.00     0.162 A 
ATOM      6  C5  UNL d   1       0.951  -0.031  -1.022  0.00  0.00     0.062 A 
ATOM      7  F   UNL d   1       2.137  -0.175  -1.631  0.00  0.00    -0.097 F 
ATOM      8  F1  UNL d   1       1.976  -0.413   1.062  0.00  0.00    -0.096 F 
ATOM      9  I   UNL d   1      -0.502  -0.184   3.073  0.00  0.00    -0.060 I 
ATOM     10  F2  UNL d   1      -2.702   0.417   0.828  0.00  0.00    -0.096 F 
ATOM     11  F3  UNL d   1      -2.509   0.649  -1.864  0.00  0.00    -0.097 F 
ATOM     12  F4  UNL d   1      -0.098   0.355  -3.104  0.00  0.00    -0.092 F 
ENDROOT
TORSDOF 0
ENDMDL
