MODEL 1
REMARK minimizedAffinity -3.04560757
REMARK minimizedRMSD -1
REMARK  0 active torsions:
REMARK  status: ('A' for Active; 'I' for Inactive)
ROOT
ATOM      1  C   UNL d   1      -1.631  -0.325   1.628  0.00  0.00     0.124 A 
ATOM      2  C1  UNL d   1      -2.087   0.268   0.459  0.00  0.00     0.062 A 
ATOM      3  C2  UNL d   1      -1.306   0.235  -0.693  0.00  0.00     0.162 A 
ATOM      4  C3  UNL d   1      -0.061  -0.394  -0.681  0.00  0.00    -0.034 A 
ATOM      5  C4  UNL d   1       0.391  -0.987   0.499  0.00  0.00     0.162 A 
ATOM      6  C5  UNL d   1      -0.393  -0.952   1.647  0.00  0.00     0.062 A 
ATOM      7  F   UNL d   1       0.049  -1.525   2.776  0.00  0.00    -0.097 F 
ATOM      8  F1  UNL d   1       1.583  -1.601   0.545  0.00  0.00    -0.096 F 
ATOM      9  I   UNL d   1       1.110  -0.446  -2.401  0.00  0.00    -0.060 I 
ATOM     10  F2  UNL d   1      -1.771   0.815  -1.809  0.00  0.00    -0.096 F 
ATOM     11  F3  UNL d   1      -3.282   0.874   0.438  0.00  0.00    -0.097 F 
ATOM     12  F4  UNL d   1      -2.384  -0.291   2.735  0.00  0.00    -0.092 F 
ENDROOT
TORSDOF 0
ENDMDL
