MODEL 1
REMARK minimizedAffinity 10.9661942
REMARK minimizedRMSD -1
REMARK  0 active torsions:
REMARK  status: ('A' for Active; 'I' for Inactive)
ROOT
ATOM      1  C1  DEN d   1       5.092  -1.490   1.530  0.00  0.00     0.130 A 
ATOM      2  C2  DEN d   1       5.999  -2.173   2.448  0.00  0.00    -0.031 A 
ATOM      3  C3  DEN d   1       5.187  -2.793   3.515  0.00  0.00     0.027 A 
ATOM      4  C4  DEN d   1       2.627  -2.764   3.829  0.00  0.00     0.027 A 
ATOM      5  C5  DEN d   1       1.437  -2.302   3.311  0.00  0.00    -0.003 A 
ATOM      6  C6  DEN d   1       1.386  -1.515   2.191  0.00  0.00     0.001 A 
ATOM      7  C7  DEN d   1       2.542  -1.203   1.526  0.00  0.00     0.017 A 
ATOM      8  C8  DEN d   1       3.746  -1.659   2.047  0.00  0.00    -0.094 A 
ATOM      9  C9  DEN d   1       3.777  -2.464   3.173  0.00  0.00    -0.072 A 
ENDROOT
TORSDOF 0
ENDMDL
