MODEL 1
REMARK minimizedAffinity 4.58188677
REMARK minimizedRMSD -1
REMARK  0 active torsions:
REMARK  status: ('A' for Active; 'I' for Inactive)
ROOT
ATOM      1  C1  DEN d   1       3.826   4.992  -5.204  0.00  0.00     0.130 A 
ATOM      2  C2  DEN d   1       4.940   5.500  -6.000  0.00  0.00    -0.031 A 
ATOM      3  C3  DEN d   1       5.979   5.987  -5.070  0.00  0.00     0.027 A 
ATOM      4  C4  DEN d   1       5.973   5.999  -2.491  0.00  0.00     0.027 A 
ATOM      5  C5  DEN d   1       5.240   5.682  -1.369  0.00  0.00    -0.003 A 
ATOM      6  C6  DEN d   1       3.981   5.149  -1.446  0.00  0.00     0.001 A 
ATOM      7  C7  DEN d   1       3.434   4.874  -2.671  0.00  0.00     0.017 A 
ATOM      8  C8  DEN d   1       4.164   5.198  -3.808  0.00  0.00    -0.094 A 
ATOM      9  C9  DEN d   1       5.440   5.725  -3.709  0.00  0.00    -0.072 A 
ENDROOT
TORSDOF 0
ENDMDL
