MODEL 1
REMARK minimizedAffinity 1.18603802
REMARK minimizedRMSD -1
REMARK  0 active torsions:
REMARK  status: ('A' for Active; 'I' for Inactive)
ROOT
ATOM      1  C1  DEN d   1       2.442  -0.706  -3.801  0.00  0.00     0.130 A 
ATOM      2  C2  DEN d   1       3.015  -1.966  -3.337  0.00  0.00    -0.031 A 
ATOM      3  C3  DEN d   1       4.391  -2.064  -3.863  0.00  0.00     0.027 A 
ATOM      4  C4  DEN d   1       5.685  -0.392  -5.341  0.00  0.00     0.027 A 
ATOM      5  C5  DEN d   1       5.611   0.816  -6.000  0.00  0.00    -0.003 A 
ATOM      6  C6  DEN d   1       4.473   1.578  -6.000  0.00  0.00     0.001 A 
ATOM      7  C7  DEN d   1       3.377   1.163  -5.291  0.00  0.00     0.017 A 
ATOM      8  C8  DEN d   1       3.442  -0.057  -4.630  0.00  0.00    -0.094 A 
ATOM      9  C9  DEN d   1       4.606  -0.808  -4.632  0.00  0.00    -0.072 A 
ENDROOT
TORSDOF 0
ENDMDL
