MODEL 1
REMARK minimizedAffinity 8.56655121
REMARK minimizedRMSD -1
REMARK  0 active torsions:
REMARK  status: ('A' for Active; 'I' for Inactive)
ROOT
ATOM      1  C1  DEN d   1       0.976  -1.835   4.785  0.00  0.00     0.130 A 
ATOM      2  C2  DEN d   1       1.010  -0.683   5.683  0.00  0.00    -0.031 A 
ATOM      3  C3  DEN d   1       1.230   0.527   4.865  0.00  0.00     0.027 A 
ATOM      4  C4  DEN d   1       1.517   0.728   2.310  0.00  0.00     0.027 A 
ATOM      5  C5  DEN d   1       1.575   0.023   1.128  0.00  0.00    -0.003 A 
ATOM      6  C6  DEN d   1       1.471  -1.342   1.086  0.00  0.00     0.001 A 
ATOM      7  C7  DEN d   1       1.260  -2.043   2.244  0.00  0.00     0.017 A 
ATOM      8  C8  DEN d   1       1.208  -1.340   3.440  0.00  0.00    -0.094 A 
ATOM      9  C9  DEN d   1       1.303   0.041   3.460  0.00  0.00    -0.072 A 
ENDROOT
TORSDOF 0
ENDMDL
