MODEL 1
REMARK minimizedAffinity 7.88956642
REMARK minimizedRMSD -1
REMARK  0 active torsions:
REMARK  status: ('A' for Active; 'I' for Inactive)
ROOT
ATOM      1  C1  DEN d   1       0.192  -1.208   5.200  0.00  0.00     0.130 A 
ATOM      2  C2  DEN d   1       0.437  -2.522   5.789  0.00  0.00    -0.031 A 
ATOM      3  C3  DEN d   1       1.133  -3.350   4.784  0.00  0.00     0.027 A 
ATOM      4  C4  DEN d   1       1.857  -2.727   2.388  0.00  0.00     0.027 A 
ATOM      5  C5  DEN d   1       1.857  -1.729   1.439  0.00  0.00    -0.003 A 
ATOM      6  C6  DEN d   1       1.276  -0.509   1.662  0.00  0.00     0.001 A 
ATOM      7  C7  DEN d   1       0.711  -0.239   2.881  0.00  0.00     0.017 A 
ATOM      8  C8  DEN d   1       0.701  -1.243   3.840  0.00  0.00    -0.094 A 
ATOM      9  C9  DEN d   1       1.304  -2.466   3.599  0.00  0.00    -0.072 A 
ENDROOT
TORSDOF 0
ENDMDL
