MODEL 1
REMARK minimizedAffinity 15.5981731
REMARK minimizedRMSD -1
REMARK  0 active torsions:
REMARK  status: ('A' for Active; 'I' for Inactive)
ROOT
ATOM      1  C1  DEN d   1      -3.203   2.379  -0.511  0.00  0.00     0.130 A 
ATOM      2  C2  DEN d   1      -2.145   1.783   0.301  0.00  0.00    -0.031 A 
ATOM      3  C3  DEN d   1      -1.811   0.467  -0.279  0.00  0.00     0.027 A 
ATOM      4  C4  DEN d   1      -2.821  -0.699  -2.346  0.00  0.00     0.027 A 
ATOM      5  C5  DEN d   1      -3.755  -0.589  -3.352  0.00  0.00    -0.003 A 
ATOM      6  C6  DEN d   1      -4.587   0.493  -3.461  0.00  0.00     0.001 A 
ATOM      7  C7  DEN d   1      -4.470   1.531  -2.574  0.00  0.00     0.017 A 
ATOM      8  C8  DEN d   1      -3.536   1.424  -1.553  0.00  0.00    -0.094 A 
ATOM      9  C9  DEN d   1      -2.696   0.327  -1.467  0.00  0.00    -0.072 A 
ENDROOT
TORSDOF 0
ENDMDL
