MODEL 1
REMARK minimizedAffinity 12.851655
REMARK minimizedRMSD -1
REMARK  0 active torsions:
REMARK  status: ('A' for Active; 'I' for Inactive)
ROOT
ATOM      1  C1  DEN d   1      -4.033   1.709  -2.469  0.00  0.00     0.130 A 
ATOM      2  C2  DEN d   1      -3.712   0.349  -2.894  0.00  0.00    -0.031 A 
ATOM      3  C3  DEN d   1      -2.864  -0.266  -1.854  0.00  0.00     0.027 A 
ATOM      4  C4  DEN d   1      -2.026   0.747   0.365  0.00  0.00     0.027 A 
ATOM      5  C5  DEN d   1      -2.028   1.875   1.156  0.00  0.00    -0.003 A 
ATOM      6  C6  DEN d   1      -2.666   3.028   0.781  0.00  0.00     0.001 A 
ATOM      7  C7  DEN d   1      -3.366   3.065  -0.396  0.00  0.00     0.017 A 
ATOM      8  C8  DEN d   1      -3.361   1.934  -1.202  0.00  0.00    -0.094 A 
ATOM      9  C9  DEN d   1      -2.721   0.774  -0.800  0.00  0.00    -0.072 A 
ENDROOT
TORSDOF 0
ENDMDL
