MODEL 1
REMARK minimizedAffinity 8.70991325
REMARK minimizedRMSD -1
REMARK  0 active torsions:
REMARK  status: ('A' for Active; 'I' for Inactive)
ROOT
ATOM      1  C1  DEN d   1       1.815  -2.587   4.943  0.00  0.00     0.130 A 
ATOM      2  C2  DEN d   1       1.213  -1.699   5.934  0.00  0.00    -0.031 A 
ATOM      3  C3  DEN d   1       0.742  -0.487   5.235  0.00  0.00     0.027 A 
ATOM      4  C4  DEN d   1       0.880   0.095   2.726  0.00  0.00     0.027 A 
ATOM      5  C5  DEN d   1       1.316  -0.342   1.494  0.00  0.00    -0.003 A 
ATOM      6  C6  DEN d   1       1.973  -1.533   1.333  0.00  0.00     0.001 A 
ATOM      7  C7  DEN d   1       2.174  -2.349   2.414  0.00  0.00     0.017 A 
ATOM      8  C8  DEN d   1       1.744  -1.912   3.660  0.00  0.00    -0.094 A 
ATOM      9  C9  DEN d   1       1.071  -0.710   3.801  0.00  0.00    -0.072 A 
ENDROOT
TORSDOF 0
ENDMDL
