MODEL 1
REMARK minimizedAffinity 1.97067761
REMARK minimizedRMSD -1
REMARK  0 active torsions:
REMARK  status: ('A' for Active; 'I' for Inactive)
ROOT
ATOM      1  C1  DEN d   1       2.122  -0.645   1.397  0.00  0.00     0.130 A 
ATOM      2  C2  DEN d   1       2.322  -2.068   1.136  0.00  0.00    -0.031 A 
ATOM      3  C3  DEN d   1       2.135  -2.796   2.407  0.00  0.00     0.027 A 
ATOM      4  C4  DEN d   1       1.552  -1.864   4.740  0.00  0.00     0.027 A 
ATOM      5  C5  DEN d   1       1.297  -0.717   5.459  0.00  0.00    -0.003 A 
ATOM      6  C6  DEN d   1       1.333   0.527   4.886  0.00  0.00     0.001 A 
ATOM      7  C7  DEN d   1       1.585   0.650   3.546  0.00  0.00     0.017 A 
ATOM      8  C8  DEN d   1       1.851  -0.501   2.816  0.00  0.00    -0.094 A 
ATOM      9  C9  DEN d   1       1.798  -1.750   3.410  0.00  0.00    -0.072 A 
ENDROOT
TORSDOF 0
ENDMDL
