MODEL 1
REMARK minimizedAffinity 4.64724731
REMARK minimizedRMSD -1
REMARK  0 active torsions:
REMARK  status: ('A' for Active; 'I' for Inactive)
ROOT
ATOM      1  C1  DEN d   1       0.522  -1.759   5.397  0.00  0.00     0.130 A 
ATOM      2  C2  DEN d   1       1.062  -2.975   5.999  0.00  0.00    -0.031 A 
ATOM      3  C3  DEN d   1       2.082  -3.524   5.083  0.00  0.00     0.027 A 
ATOM      4  C4  DEN d   1       2.877  -2.611   2.805  0.00  0.00     0.027 A 
ATOM      5  C5  DEN d   1       2.703  -1.611   1.874  0.00  0.00    -0.003 A 
ATOM      6  C6  DEN d   1       1.773  -0.618   2.034  0.00  0.00     0.001 A 
ATOM      7  C7  DEN d   1       1.013  -0.577   3.173  0.00  0.00     0.017 A 
ATOM      8  C8  DEN d   1       1.178  -1.585   4.113  0.00  0.00    -0.094 A 
ATOM      9  C9  DEN d   1       2.132  -2.574   3.939  0.00  0.00    -0.072 A 
ENDROOT
TORSDOF 0
ENDMDL
