MODEL 1
REMARK minimizedAffinity 4.68914223
REMARK minimizedRMSD -1
REMARK  1 active torsions:
REMARK  status: ('A' for Active; 'I' for Inactive)
REMARK    1  A    between atoms: N_2  and  C1_3 
ROOT
ATOM      1  C1  UNL d   1      -0.511   1.484  -0.152  0.00  0.00     0.143 A 
ATOM      2  C2  UNL d   1       0.590   2.225  -0.595  0.00  0.00    -0.057 A 
ATOM      3  C3  UNL d   1       1.847   2.087   0.007  0.00  0.00     0.033 A 
ATOM      4  C4  UNL d   1       2.018   1.225   1.085  0.00  0.00    -0.042 A 
ATOM      5  C5  UNL d   1       0.931   0.498   1.558  0.00  0.00     0.033 A 
ATOM      6  C6  UNL d   1      -0.320   0.634   0.949  0.00  0.00    -0.057 A 
ENDROOT
BRANCH   1   7
ATOM      7  N   UNL d   1      -1.808   1.649  -0.645  0.00  0.00    -0.732 N 
ATOM      8  C   UNL d   1      -2.225   0.983  -1.860  0.00  0.00     0.284 C 
ATOM      9  H3  UNL d   1      -2.508   1.642   0.094  0.00  0.00     0.395 HD
ENDBRANCH   1   7
TORSDOF 1
ENDMDL
