MODEL 1
REMARK minimizedAffinity -3.18408585
REMARK minimizedRMSD -1
REMARK  1 active torsions:
REMARK  status: ('A' for Active; 'I' for Inactive)
REMARK    1  A    between atoms: N_2  and  C1_3 
ROOT
ATOM      1  C1  UNL d   1      -1.198  -0.108  -0.933  0.00  0.00     0.143 A 
ATOM      2  C2  UNL d   1      -2.274   0.778  -1.054  0.00  0.00    -0.057 A 
ATOM      3  C3  UNL d   1      -3.176   0.683  -2.121  0.00  0.00     0.033 A 
ATOM      4  C4  UNL d   1      -3.000  -0.284  -3.105  0.00  0.00    -0.042 A 
ATOM      5  C5  UNL d   1      -1.923  -1.159  -3.018  0.00  0.00     0.033 A 
ATOM      6  C6  UNL d   1      -1.030  -1.064  -1.947  0.00  0.00    -0.057 A 
ENDROOT
BRANCH   1   7
ATOM      7  N   UNL d   1      -0.211  -0.003   0.050  0.00  0.00    -0.732 N 
ATOM      8  C   UNL d   1       0.634   1.170   0.124  0.00  0.00     0.284 C 
ATOM      9  H3  UNL d   1      -0.526  -0.346   0.955  0.00  0.00     0.395 HD
ENDBRANCH   1   7
TORSDOF 1
ENDMDL
