MODEL 1
REMARK minimizedAffinity -3.50070405
REMARK minimizedRMSD -1
REMARK  1 active torsions:
REMARK  status: ('A' for Active; 'I' for Inactive)
REMARK    1  A    between atoms: N_2  and  C1_3 
ROOT
ATOM      1  C1  UNL d   1      -0.184  -0.080   0.348  0.00  0.00     0.143 A 
ATOM      2  C2  UNL d   1       0.684   0.978   0.053  0.00  0.00    -0.057 A 
ATOM      3  C3  UNL d   1       1.975   1.029   0.592  0.00  0.00     0.033 A 
ATOM      4  C4  UNL d   1       2.413   0.034   1.460  0.00  0.00    -0.042 A 
ATOM      5  C5  UNL d   1       1.560  -1.014   1.786  0.00  0.00     0.033 A 
ATOM      6  C6  UNL d   1       0.273  -1.063   1.240  0.00  0.00    -0.057 A 
ENDROOT
BRANCH   1   7
ATOM      7  N   UNL d   1      -1.513  -0.137  -0.077  0.00  0.00    -0.732 N 
ATOM      8  C   UNL d   1      -1.842  -0.053  -1.484  0.00  0.00     0.284 C 
ATOM      9  H3  UNL d   1      -2.055  -0.829   0.435  0.00  0.00     0.395 HD
ENDBRANCH   1   7
TORSDOF 1
ENDMDL
