MODEL 1
REMARK minimizedAffinity 6.32686281
REMARK minimizedRMSD -1
REMARK  0 active torsions:
REMARK  status: ('A' for Active; 'I' for Inactive)
ROOT
ATOM      1  C2' OXE d   1       0.842   4.630  -2.290  0.00  0.00     0.078 C 
ATOM      2  C1' OXE d   1      -1.840   4.860  -1.494  0.00  0.00     0.078 C 
ATOM      3  C1  OXE d   1      -0.893   4.133  -0.573  0.00  0.00    -0.078 A 
ATOM      4  C2  OXE d   1       0.408   3.984  -0.992  0.00  0.00    -0.078 A 
ATOM      5  C3  OXE d   1       1.335   3.369  -0.157  0.00  0.00     0.003 A 
ATOM      6  C4  OXE d   1       0.923   2.766   1.037  0.00  0.00    -0.002 A 
ATOM      7  C5  OXE d   1      -0.405   2.870   1.464  0.00  0.00    -0.002 A 
ATOM      8  C6  OXE d   1      -1.314   3.586   0.693  0.00  0.00     0.003 A 
ENDROOT
TORSDOF 0
ENDMDL
