MODEL 1
REMARK minimizedAffinity 3.24975538
REMARK minimizedRMSD -1
REMARK  0 active torsions:
REMARK  status: ('A' for Active; 'I' for Inactive)
ROOT
ATOM      1  C2' OXE d   1      -3.739   5.784  -4.538  0.00  0.00     0.078 C 
ATOM      2  C1' OXE d   1      -5.283   5.799  -2.195  0.00  0.00     0.078 C 
ATOM      3  C1  OXE d   1      -5.273   4.538  -3.022  0.00  0.00    -0.078 A 
ATOM      4  C2  OXE d   1      -4.552   4.555  -4.192  0.00  0.00    -0.078 A 
ATOM      5  C3  OXE d   1      -4.464   3.401  -4.964  0.00  0.00     0.003 A 
ATOM      6  C4  OXE d   1      -5.227   2.272  -4.642  0.00  0.00    -0.002 A 
ATOM      7  C5  OXE d   1      -6.000   2.247  -3.476  0.00  0.00    -0.002 A 
ATOM      8  C6  OXE d   1      -6.000   3.354  -2.635  0.00  0.00     0.003 A 
ENDROOT
TORSDOF 0
ENDMDL
