MODEL 1
REMARK minimizedAffinity 2.98386574
REMARK minimizedRMSD -1
REMARK  0 active torsions:
REMARK  status: ('A' for Active; 'I' for Inactive)
ROOT
ATOM      1  C2' OXE d   1       0.531   5.101  -2.425  0.00  0.00     0.078 C 
ATOM      2  C1' OXE d   1      -2.166   4.955  -1.660  0.00  0.00     0.078 C 
ATOM      3  C1  OXE d   1      -1.147   4.281  -0.776  0.00  0.00    -0.078 A 
ATOM      4  C2  OXE d   1       0.166   4.318  -1.183  0.00  0.00    -0.078 A 
ATOM      5  C3  OXE d   1       1.153   3.759  -0.376  0.00  0.00     0.003 A 
ATOM      6  C4  OXE d   1       0.806   3.028   0.766  0.00  0.00    -0.002 A 
ATOM      7  C5  OXE d   1      -0.529   2.945   1.177  0.00  0.00    -0.002 A 
ATOM      8  C6  OXE d   1      -1.511   3.600   0.442  0.00  0.00     0.003 A 
ENDROOT
TORSDOF 0
ENDMDL
