MODEL 1
REMARK minimizedAffinity 12.3173199
REMARK minimizedRMSD -1
REMARK  0 active torsions:
REMARK  status: ('A' for Active; 'I' for Inactive)
ROOT
ATOM      1  C2' OXE d   1      -1.329  -3.045  -2.345  0.00  0.00     0.078 C 
ATOM      2  C1' OXE d   1       0.441  -5.051  -1.495  0.00  0.00     0.078 C 
ATOM      3  C1  OXE d   1       0.853  -3.615  -1.288  0.00  0.00    -0.078 A 
ATOM      4  C2  OXE d   1       0.002  -2.640  -1.749  0.00  0.00    -0.078 A 
ATOM      5  C3  OXE d   1       0.308  -1.299  -1.534  0.00  0.00     0.003 A 
ATOM      6  C4  OXE d   1       1.546  -0.933  -0.991  0.00  0.00    -0.002 A 
ATOM      7  C5  OXE d   1       2.445  -1.910  -0.551  0.00  0.00    -0.002 A 
ATOM      8  C6  OXE d   1       2.096  -3.253  -0.653  0.00  0.00     0.003 A 
ENDROOT
TORSDOF 0
ENDMDL
