MODEL 1
REMARK minimizedAffinity 1.86871505
REMARK minimizedRMSD -1
REMARK  0 active torsions:
REMARK  status: ('A' for Active; 'I' for Inactive)
ROOT
ATOM      1  C2' OXE d   1      -1.480  -3.739  -2.952  0.00  0.00     0.078 C 
ATOM      2  C1' OXE d   1       0.372  -5.338  -1.575  0.00  0.00     0.078 C 
ATOM      3  C1  OXE d   1       0.398  -3.851  -1.320  0.00  0.00    -0.078 A 
ATOM      4  C2  OXE d   1      -0.480  -3.071  -2.033  0.00  0.00    -0.078 A 
ATOM      5  C3  OXE d   1      -0.534  -1.701  -1.796  0.00  0.00     0.003 A 
ATOM      6  C4  OXE d   1       0.401  -1.090  -0.952  0.00  0.00    -0.002 A 
ATOM      7  C5  OXE d   1       1.330  -1.861  -0.246  0.00  0.00    -0.002 A 
ATOM      8  C6  OXE d   1       1.314  -3.245  -0.386  0.00  0.00     0.003 A 
ENDROOT
TORSDOF 0
ENDMDL
