MODEL 1
REMARK minimizedAffinity 1.67350531
REMARK minimizedRMSD -1
REMARK  0 active torsions:
REMARK  status: ('A' for Active; 'I' for Inactive)
ROOT
ATOM      1  C2' OXE d   1      -3.813  -0.386   2.119  0.00  0.00     0.078 C 
ATOM      2  C1' OXE d   1      -5.997   0.959   3.260  0.00  0.00     0.078 C 
ATOM      3  C1  OXE d   1      -5.454  -0.245   3.988  0.00  0.00    -0.078 A 
ATOM      4  C2  OXE d   1      -4.415  -0.925   3.399  0.00  0.00    -0.078 A 
ATOM      5  C3  OXE d   1      -3.841  -2.011   4.054  0.00  0.00     0.003 A 
ATOM      6  C4  OXE d   1      -4.411  -2.509   5.232  0.00  0.00    -0.002 A 
ATOM      7  C5  OXE d   1      -5.494  -1.855   5.829  0.00  0.00    -0.002 A 
ATOM      8  C6  OXE d   1      -5.999  -0.700   5.243  0.00  0.00     0.003 A 
ENDROOT
TORSDOF 0
ENDMDL
