MODEL 1
REMARK minimizedAffinity 4.00517797
REMARK minimizedRMSD -1
REMARK  0 active torsions:
REMARK  status: ('A' for Active; 'I' for Inactive)
ROOT
ATOM      1  C2' OXE d   1       2.735   2.888   3.238  0.00  0.00     0.078 C 
ATOM      2  C1' OXE d   1       0.134   1.832   3.233  0.00  0.00     0.078 C 
ATOM      3  C1  OXE d   1       0.615   2.523   1.981  0.00  0.00    -0.078 A 
ATOM      4  C2  OXE d   1       1.872   3.078   2.009  0.00  0.00    -0.078 A 
ATOM      5  C3  OXE d   1       2.386   3.679   0.864  0.00  0.00     0.003 A 
ATOM      6  C4  OXE d   1       1.578   3.859  -0.266  0.00  0.00    -0.002 A 
ATOM      7  C5  OXE d   1       0.281   3.337  -0.301  0.00  0.00    -0.002 A 
ATOM      8  C6  OXE d   1      -0.200   2.630   0.796  0.00  0.00     0.003 A 
ENDROOT
TORSDOF 0
ENDMDL
