MODEL 1
REMARK minimizedAffinity 8.86796379
REMARK minimizedRMSD -1
REMARK  0 active torsions:
REMARK  status: ('A' for Active; 'I' for Inactive)
ROOT
ATOM      1  C2' OXE d   1       5.998  -5.935   0.011  0.00  0.00     0.078 C 
ATOM      2  C1' OXE d   1       4.518  -6.000  -2.374  0.00  0.00     0.078 C 
ATOM      3  C1  OXE d   1       4.719  -4.662  -1.707  0.00  0.00    -0.078 A 
ATOM      4  C2  OXE d   1       5.404  -4.646  -0.516  0.00  0.00    -0.078 A 
ATOM      5  C3  OXE d   1       5.665  -3.432   0.113  0.00  0.00     0.003 A 
ATOM      6  C4  OXE d   1       5.105  -2.246  -0.376  0.00  0.00    -0.002 A 
ATOM      7  C5  OXE d   1       4.369  -2.245  -1.566  0.00  0.00    -0.002 A 
ATOM      8  C6  OXE d   1       4.204  -3.436  -2.265  0.00  0.00     0.003 A 
ENDROOT
TORSDOF 0
ENDMDL
