MODEL 1
REMARK minimizedAffinity 3.62738657
REMARK minimizedRMSD -1
REMARK  0 active torsions:
REMARK  status: ('A' for Active; 'I' for Inactive)
ROOT
ATOM      1  C2' OXE d   1       0.014   2.980   2.251  0.00  0.00     0.078 C 
ATOM      2  C1' OXE d   1      -0.197   1.242   0.057  0.00  0.00     0.078 C 
ATOM      3  C1  OXE d   1      -0.356   2.720  -0.198  0.00  0.00    -0.078 A 
ATOM      4  C2  OXE d   1      -0.297   3.559   0.888  0.00  0.00    -0.078 A 
ATOM      5  C3  OXE d   1      -0.383   4.936   0.701  0.00  0.00     0.003 A 
ATOM      6  C4  OXE d   1      -0.681   5.463  -0.561  0.00  0.00    -0.002 A 
ATOM      7  C5  OXE d   1      -0.784   4.622  -1.675  0.00  0.00    -0.002 A 
ATOM      8  C6  OXE d   1      -0.582   3.256  -1.518  0.00  0.00     0.003 A 
ENDROOT
TORSDOF 0
ENDMDL
