MODEL 1
REMARK minimizedAffinity -1.22320163
REMARK minimizedRMSD -1
REMARK  1 active torsions:
REMARK  status: ('A' for Active; 'I' for Inactive)
REMARK    1  A    between atoms: N_2  and  C1_3 
ROOT
ATOM      1  C1  UNL d   1       0.650  -1.001  -0.844  0.00  0.00     0.143 A 
ATOM      2  C2  UNL d   1       1.312  -2.181  -0.486  0.00  0.00    -0.057 A 
ATOM      3  C3  UNL d   1       1.587  -3.175  -1.433  0.00  0.00     0.033 A 
ATOM      4  C4  UNL d   1       1.178  -3.019  -2.753  0.00  0.00    -0.042 A 
ATOM      5  C5  UNL d   1       0.497  -1.865  -3.127  0.00  0.00     0.033 A 
ATOM      6  C6  UNL d   1       0.231  -0.873  -2.178  0.00  0.00    -0.057 A 
ENDROOT
BRANCH   1   7
ATOM      7  N   UNL d   1       0.261  -0.020   0.070  0.00  0.00    -0.732 N 
ATOM      8  C   UNL d   1      -0.474  -0.375   1.265  0.00  0.00     0.284 C 
ATOM      9  H3  UNL d   1       0.984   0.681   0.220  0.00  0.00     0.395 HD
ENDBRANCH   1   7
TORSDOF 1
ENDMDL
