MODEL 1
REMARK minimizedAffinity -4.0173192
REMARK minimizedRMSD -1
REMARK  1 active torsions:
REMARK  status: ('A' for Active; 'I' for Inactive)
REMARK    1  A    between atoms: N_2  and  C1_3 
ROOT
ATOM      1  C1  UNL d   1       0.331  -1.608  -0.633  0.00  0.00     0.143 A 
ATOM      2  C2  UNL d   1      -0.897  -2.176  -0.277  0.00  0.00    -0.057 A 
ATOM      3  C3  UNL d   1      -1.618  -1.710   0.829  0.00  0.00     0.033 A 
ATOM      4  C4  UNL d   1      -1.108  -0.685   1.619  0.00  0.00    -0.042 A 
ATOM      5  C5  UNL d   1       0.122  -0.122   1.298  0.00  0.00     0.033 A 
ATOM      6  C6  UNL d   1       0.835  -0.587   0.188  0.00  0.00    -0.057 A 
ENDROOT
BRANCH   1   7
ATOM      7  N   UNL d   1       1.142  -2.091  -1.663  0.00  0.00    -0.732 N 
ATOM      8  C   UNL d   1       0.559  -2.735  -2.820  0.00  0.00     0.284 C 
ATOM      9  H3  UNL d   1       1.911  -1.461  -1.881  0.00  0.00     0.395 HD
ENDBRANCH   1   7
TORSDOF 1
ENDMDL
