MODEL 1
REMARK minimizedAffinity -3.22837138
REMARK minimizedRMSD -1
REMARK  1 active torsions:
REMARK  status: ('A' for Active; 'I' for Inactive)
REMARK    1  A    between atoms: N_2  and  C1_3 
ROOT
ATOM      1  C1  UNL d   1       0.083  -1.377  -1.096  0.00  0.00     0.143 A 
ATOM      2  C2  UNL d   1      -1.004  -1.562  -0.235  0.00  0.00    -0.057 A 
ATOM      3  C3  UNL d   1      -1.032  -0.974   1.035  0.00  0.00     0.033 A 
ATOM      4  C4  UNL d   1       0.043  -0.211   1.479  0.00  0.00    -0.042 A 
ATOM      5  C5  UNL d   1       1.145  -0.034   0.650  0.00  0.00     0.033 A 
ATOM      6  C6  UNL d   1       1.164  -0.619  -0.620  0.00  0.00    -0.057 A 
ENDROOT
BRANCH   1   7
ATOM      7  N   UNL d   1       0.215  -2.017  -2.331  0.00  0.00    -0.732 N 
ATOM      8  C   UNL d   1       0.148  -3.459  -2.426  0.00  0.00     0.284 C 
ATOM      9  H3  UNL d   1      -0.278  -1.528  -3.076  0.00  0.00     0.395 HD
ENDBRANCH   1   7
TORSDOF 1
ENDMDL
