MODEL 1
REMARK minimizedAffinity -1.47120965
REMARK minimizedRMSD -1
REMARK  1 active torsions:
REMARK  status: ('A' for Active; 'I' for Inactive)
REMARK    1  A    between atoms: N_2  and  C1_3 
ROOT
ATOM      1  C1  UNL d   1       0.034  -1.324  -0.500  0.00  0.00     0.143 A 
ATOM      2  C2  UNL d   1      -0.690  -1.892   0.554  0.00  0.00    -0.057 A 
ATOM      3  C3  UNL d   1      -1.290  -1.094   1.535  0.00  0.00     0.033 A 
ATOM      4  C4  UNL d   1      -1.151   0.289   1.497  0.00  0.00    -0.042 A 
ATOM      5  C5  UNL d   1      -0.415   0.874   0.472  0.00  0.00     0.033 A 
ATOM      6  C6  UNL d   1       0.176   0.073  -0.509  0.00  0.00    -0.057 A 
ENDROOT
BRANCH   1   7
ATOM      7  N   UNL d   1       0.737  -2.068  -1.451  0.00  0.00    -0.732 N 
ATOM      8  C   UNL d   1       0.228  -3.341  -1.913  0.00  0.00     0.284 C 
ATOM      9  H3  UNL d   1       1.129  -1.485  -2.187  0.00  0.00     0.395 HD
ENDBRANCH   1   7
TORSDOF 1
ENDMDL
