MODEL 1
REMARK minimizedAffinity -3.10479712
REMARK minimizedRMSD -1
REMARK  1 active torsions:
REMARK  status: ('A' for Active; 'I' for Inactive)
REMARK    1  A    between atoms: N_2  and  C1_3 
ROOT
ATOM      1  C1  UNL d   1       0.169  -2.188  -1.118  0.00  0.00     0.143 A 
ATOM      2  C2  UNL d   1      -1.044  -2.249  -0.423  0.00  0.00    -0.057 A 
ATOM      3  C3  UNL d   1      -1.340  -1.342   0.602  0.00  0.00     0.033 A 
ATOM      4  C4  UNL d   1      -0.413  -0.373   0.971  0.00  0.00    -0.042 A 
ATOM      5  C5  UNL d   1       0.809  -0.309   0.311  0.00  0.00     0.033 A 
ATOM      6  C6  UNL d   1       1.096  -1.213  -0.716  0.00  0.00    -0.057 A 
ENDROOT
BRANCH   1   7
ATOM      7  N   UNL d   1       0.562  -3.122  -2.079  0.00  0.00    -0.732 N 
ATOM      8  C   UNL d   1      -0.165  -3.251  -3.323  0.00  0.00     0.284 C 
ATOM      9  H3  UNL d   1       1.573  -3.171  -2.181  0.00  0.00     0.395 HD
ENDBRANCH   1   7
TORSDOF 1
ENDMDL
