MODEL 1
REMARK minimizedAffinity -2.43008614
REMARK minimizedRMSD -1
REMARK  1 active torsions:
REMARK  status: ('A' for Active; 'I' for Inactive)
REMARK    1  A    between atoms: N_2  and  C1_3 
ROOT
ATOM      1  C1  UNL d   1       0.884  -1.703  -0.899  0.00  0.00     0.143 A 
ATOM      2  C2  UNL d   1       1.694  -0.787  -0.220  0.00  0.00    -0.057 A 
ATOM      3  C3  UNL d   1       1.222  -0.092   0.900  0.00  0.00     0.033 A 
ATOM      4  C4  UNL d   1      -0.082  -0.280   1.344  0.00  0.00    -0.042 A 
ATOM      5  C5  UNL d   1      -0.913  -1.166   0.669  0.00  0.00     0.033 A 
ATOM      6  C6  UNL d   1      -0.434  -1.863  -0.445  0.00  0.00    -0.057 A 
ENDROOT
BRANCH   1   7
ATOM      7  N   UNL d   1       1.262  -2.351  -2.078  0.00  0.00    -0.732 N 
ATOM      8  C   UNL d   1       0.462  -3.431  -2.614  0.00  0.00     0.284 C 
ATOM      9  H3  UNL d   1       1.614  -1.705  -2.781  0.00  0.00     0.395 HD
ENDBRANCH   1   7
TORSDOF 1
ENDMDL
