MODEL 1
REMARK minimizedAffinity -0.181985334
REMARK minimizedRMSD -1
REMARK  1 active torsions:
REMARK  status: ('A' for Active; 'I' for Inactive)
REMARK    1  A    between atoms: N_2  and  C1_3 
ROOT
ATOM      1  C1  UNL d   1       0.098  -0.808  -0.256  0.00  0.00     0.143 A 
ATOM      2  C2  UNL d   1      -0.507  -1.478   0.812  0.00  0.00    -0.057 A 
ATOM      3  C3  UNL d   1      -1.006  -0.780   1.919  0.00  0.00     0.033 A 
ATOM      4  C4  UNL d   1      -0.882   0.603   1.990  0.00  0.00    -0.042 A 
ATOM      5  C5  UNL d   1      -0.262   1.288   0.951  0.00  0.00     0.033 A 
ATOM      6  C6  UNL d   1       0.228   0.586  -0.155  0.00  0.00    -0.057 A 
ENDROOT
BRANCH   1   7
ATOM      7  N   UNL d   1       0.701  -1.453  -1.338  0.00  0.00    -0.732 N 
ATOM      8  C   UNL d   1       0.826  -2.895  -1.360  0.00  0.00     0.284 C 
ATOM      9  H3  UNL d   1       0.435  -1.045  -2.231  0.00  0.00     0.395 HD
ENDBRANCH   1   7
TORSDOF 1
ENDMDL
