MODEL 1
REMARK minimizedAffinity -4.50202608
REMARK minimizedRMSD -1
REMARK  1 active torsions:
REMARK  status: ('A' for Active; 'I' for Inactive)
REMARK    1  A    between atoms: N_2  and  C1_3 
ROOT
ATOM      1  C1  UNL d   1       0.642  -0.579   0.272  0.00  0.00     0.143 A 
ATOM      2  C2  UNL d   1       0.105   0.713   0.273  0.00  0.00    -0.057 A 
ATOM      3  C3  UNL d   1      -0.836   1.108   1.232  0.00  0.00     0.033 A 
ATOM      4  C4  UNL d   1      -1.279   0.205   2.193  0.00  0.00    -0.042 A 
ATOM      5  C5  UNL d   1      -0.778  -1.092   2.196  0.00  0.00     0.033 A 
ATOM      6  C6  UNL d   1       0.167  -1.478   1.240  0.00  0.00    -0.057 A 
ENDROOT
BRANCH   1   7
ATOM      7  N   UNL d   1       1.506  -1.062  -0.714  0.00  0.00    -0.732 N 
ATOM      8  C   UNL d   1       1.121  -2.179  -1.549  0.00  0.00     0.284 C 
ATOM      9  H3  UNL d   1       1.982  -0.314  -1.213  0.00  0.00     0.395 HD
ENDBRANCH   1   7
TORSDOF 1
ENDMDL
