MODEL 1
REMARK minimizedAffinity -5.01957989
REMARK minimizedRMSD -1
REMARK  1 active torsions:
REMARK  status: ('A' for Active; 'I' for Inactive)
REMARK    1  A    between atoms: N_2  and  C1_3 
ROOT
ATOM      1  C1  UNL d   1       0.099   2.295  -0.360  0.00  0.00     0.143 A 
ATOM      2  C2  UNL d   1       0.479   1.158  -1.080  0.00  0.00    -0.057 A 
ATOM      3  C3  UNL d   1       0.071  -0.122  -0.685  0.00  0.00     0.033 A 
ATOM      4  C4  UNL d   1      -0.703  -0.290   0.458  0.00  0.00    -0.042 A 
ATOM      5  C5  UNL d   1      -1.072   0.824   1.204  0.00  0.00     0.033 A 
ATOM      6  C6  UNL d   1      -0.667   2.100   0.800  0.00  0.00    -0.057 A 
ENDROOT
BRANCH   1   7
ATOM      7  N   UNL d   1       0.554   3.585  -0.645  0.00  0.00    -0.732 N 
ATOM      8  C   UNL d   1       0.520   4.619   0.366  0.00  0.00     0.284 C 
ATOM      9  H3  UNL d   1       1.400   3.582  -1.209  0.00  0.00     0.395 HD
ENDBRANCH   1   7
TORSDOF 1
ENDMDL
