MODEL 1
REMARK minimizedAffinity -1.67972791
REMARK minimizedRMSD -1
REMARK  1 active torsions:
REMARK  status: ('A' for Active; 'I' for Inactive)
REMARK    1  A    between atoms: N_2  and  C1_3 
ROOT
ATOM      1  C1  UNL d   1      -0.264   0.336   1.313  0.00  0.00     0.143 A 
ATOM      2  C2  UNL d   1      -0.175  -1.060   1.322  0.00  0.00    -0.057 A 
ATOM      3  C3  UNL d   1       0.499  -1.751   0.307  0.00  0.00     0.033 A 
ATOM      4  C4  UNL d   1       1.073  -1.057  -0.752  0.00  0.00    -0.042 A 
ATOM      5  C5  UNL d   1       0.976   0.329  -0.794  0.00  0.00     0.033 A 
ATOM      6  C6  UNL d   1       0.308   1.014   0.225  0.00  0.00    -0.057 A 
ENDROOT
BRANCH   1   7
ATOM      7  N   UNL d   1      -1.004   1.074   2.240  0.00  0.00    -0.732 N 
ATOM      8  C   UNL d   1      -1.129   2.510   2.107  0.00  0.00     0.284 C 
ATOM      9  H3  UNL d   1      -1.865   0.605   2.511  0.00  0.00     0.395 HD
ENDBRANCH   1   7
TORSDOF 1
ENDMDL
