MODEL 1
REMARK minimizedAffinity -2.66097856
REMARK minimizedRMSD -1
REMARK  1 active torsions:
REMARK  status: ('A' for Active; 'I' for Inactive)
REMARK    1  A    between atoms: N_2  and  C1_3 
ROOT
ATOM      1  C1  UNL d   1       0.026  -1.240  -0.712  0.00  0.00     0.143 A 
ATOM      2  C2  UNL d   1       0.747  -0.057  -0.516  0.00  0.00    -0.057 A 
ATOM      3  C3  UNL d   1       0.461   0.800   0.553  0.00  0.00     0.033 A 
ATOM      4  C4  UNL d   1      -0.576   0.503   1.432  0.00  0.00    -0.042 A 
ATOM      5  C5  UNL d   1      -1.323  -0.655   1.242  0.00  0.00     0.033 A 
ATOM      6  C6  UNL d   1      -1.027  -1.510   0.176  0.00  0.00    -0.057 A 
ENDROOT
BRANCH   1   7
ATOM      7  N   UNL d   1       0.198  -2.083  -1.813  0.00  0.00    -0.732 N 
ATOM      8  C   UNL d   1       0.364  -3.509  -1.630  0.00  0.00     0.284 C 
ATOM      9  H3  UNL d   1      -0.404  -1.831  -2.593  0.00  0.00     0.395 HD
ENDBRANCH   1   7
TORSDOF 1
ENDMDL
