MODEL 1
REMARK minimizedAffinity -2.30379081
REMARK minimizedRMSD -1
REMARK  1 active torsions:
REMARK  status: ('A' for Active; 'I' for Inactive)
REMARK    1  A    between atoms: N_2  and  C1_3 
ROOT
ATOM      1  C1  UNL d   1       0.459  -1.165  -0.597  0.00  0.00     0.143 A 
ATOM      2  C2  UNL d   1      -0.143  -1.083   0.664  0.00  0.00    -0.057 A 
ATOM      3  C3  UNL d   1      -0.575   0.143   1.183  0.00  0.00     0.033 A 
ATOM      4  C4  UNL d   1      -0.386   1.317   0.461  0.00  0.00    -0.042 A 
ATOM      5  C5  UNL d   1       0.232   1.263  -0.783  0.00  0.00     0.033 A 
ATOM      6  C6  UNL d   1       0.656   0.034  -1.300  0.00  0.00    -0.057 A 
ENDROOT
BRANCH   1   7
ATOM      7  N   UNL d   1       0.999  -2.340  -1.126  0.00  0.00    -0.732 N 
ATOM      8  C   UNL d   1       0.314  -3.057  -2.179  0.00  0.00     0.284 C 
ATOM      9  H3  UNL d   1       2.008  -2.282  -1.249  0.00  0.00     0.395 HD
ENDBRANCH   1   7
TORSDOF 1
ENDMDL
