MODEL 1
REMARK minimizedAffinity -1.53428543
REMARK minimizedRMSD -1
REMARK  0 active torsions:
REMARK  status: ('A' for Active; 'I' for Inactive)
ROOT
ATOM      1  C   UNL d   1      -1.834   0.257   2.814  0.00  0.00     0.077 C 
ATOM      2  C1  UNL d   1      -0.626   0.241   1.925  0.00  0.00    -0.074 A 
ATOM      3  C2  UNL d   1       0.663   0.213   2.466  0.00  0.00    -0.005 A 
ATOM      4  C3  UNL d   1       1.777   0.189   1.626  0.00  0.00     0.006 A 
ATOM      5  C4  UNL d   1       1.613   0.194   0.240  0.00  0.00    -0.005 A 
ATOM      6  C5  UNL d   1       0.331   0.221  -0.318  0.00  0.00    -0.074 A 
ATOM      7  C6  UNL d   1       0.136   0.217  -1.805  0.00  0.00     0.077 C 
ATOM      8  C7  UNL d   1      -0.784   0.238   0.532  0.00  0.00    -0.001 A 
ENDROOT
TORSDOF 0
ENDMDL
