MODEL 1
REMARK minimizedAffinity -2.07974029
REMARK minimizedRMSD -1
REMARK  0 active torsions:
REMARK  status: ('A' for Active; 'I' for Inactive)
ROOT
ATOM      1  C   UNL d   1      -2.970   0.366   0.907  0.00  0.00     0.077 C 
ATOM      2  C1  UNL d   1      -1.499   0.194   0.674  0.00  0.00    -0.074 A 
ATOM      3  C2  UNL d   1      -0.607   0.103   1.748  0.00  0.00    -0.005 A 
ATOM      4  C3  UNL d   1       0.758  -0.067   1.516  0.00  0.00     0.006 A 
ATOM      5  C4  UNL d   1       1.244  -0.147   0.210  0.00  0.00    -0.005 A 
ATOM      6  C5  UNL d   1       0.368  -0.059  -0.876  0.00  0.00    -0.074 A 
ATOM      7  C6  UNL d   1       0.873  -0.153  -2.285  0.00  0.00     0.077 C 
ATOM      8  C7  UNL d   1      -1.003   0.105  -0.635  0.00  0.00    -0.001 A 
ENDROOT
TORSDOF 0
ENDMDL
