MODEL 1
REMARK minimizedAffinity -5.38649178
REMARK minimizedRMSD -1
REMARK  0 active torsions:
REMARK  status: ('A' for Active; 'I' for Inactive)
ROOT
ATOM      1  C   UNL d   1      -3.993   0.644   0.882  0.00  0.00     0.077 C 
ATOM      2  C1  UNL d   1      -2.673   0.253   1.478  0.00  0.00    -0.074 A 
ATOM      3  C2  UNL d   1      -2.561  -0.053   2.838  0.00  0.00    -0.005 A 
ATOM      4  C3  UNL d   1      -1.328  -0.424   3.375  0.00  0.00     0.006 A 
ATOM      5  C4  UNL d   1      -0.198  -0.492   2.560  0.00  0.00    -0.005 A 
ATOM      6  C5  UNL d   1      -0.291  -0.191   1.198  0.00  0.00    -0.074 A 
ATOM      7  C6  UNL d   1       0.912  -0.269   0.306  0.00  0.00     0.077 C 
ATOM      8  C7  UNL d   1      -1.535   0.174   0.663  0.00  0.00    -0.001 A 
ENDROOT
TORSDOF 0
ENDMDL
