MODEL 1
REMARK minimizedAffinity -2.03828716
REMARK minimizedRMSD -1
REMARK  0 active torsions:
REMARK  status: ('A' for Active; 'I' for Inactive)
ROOT
ATOM      1  C   UNL d   1       1.205   0.248  -2.707  0.00  0.00     0.077 C 
ATOM      2  C1  UNL d   1       0.395   0.336  -1.448  0.00  0.00    -0.074 A 
ATOM      3  C2  UNL d   1      -0.930   0.784  -1.477  0.00  0.00    -0.005 A 
ATOM      4  C3  UNL d   1      -1.675   0.852  -0.299  0.00  0.00     0.006 A 
ATOM      5  C4  UNL d   1      -1.103   0.474   0.917  0.00  0.00    -0.005 A 
ATOM      6  C5  UNL d   1       0.220   0.023   0.964  0.00  0.00    -0.074 A 
ATOM      7  C6  UNL d   1       0.846  -0.396   2.261  0.00  0.00     0.077 C 
ATOM      8  C7  UNL d   1       0.959  -0.049  -0.224  0.00  0.00    -0.001 A 
ENDROOT
TORSDOF 0
ENDMDL
