MODEL 1
REMARK minimizedAffinity -4.13659859
REMARK minimizedRMSD -1
REMARK  0 active torsions:
REMARK  status: ('A' for Active; 'I' for Inactive)
ROOT
ATOM      1  C   UNL d   1       0.582   0.378  -1.114  0.00  0.00     0.077 C 
ATOM      2  C1  UNL d   1      -0.094   0.131   0.201  0.00  0.00    -0.074 A 
ATOM      3  C2  UNL d   1       0.623   0.191   1.401  0.00  0.00    -0.005 A 
ATOM      4  C3  UNL d   1      -0.021  -0.031   2.618  0.00  0.00     0.006 A 
ATOM      5  C4  UNL d   1      -1.387  -0.315   2.647  0.00  0.00    -0.005 A 
ATOM      6  C5  UNL d   1      -2.121  -0.379   1.459  0.00  0.00    -0.074 A 
ATOM      7  C6  UNL d   1      -3.591  -0.674   1.474  0.00  0.00     0.077 C 
ATOM      8  C7  UNL d   1      -1.467  -0.148   0.240  0.00  0.00    -0.001 A 
ENDROOT
TORSDOF 0
ENDMDL
