MODEL 1
REMARK minimizedAffinity -4.34262037
REMARK minimizedRMSD -1
REMARK  0 active torsions:
REMARK  status: ('A' for Active; 'I' for Inactive)
ROOT
ATOM      1  C   UNL d   1      -0.296   0.892  -1.082  0.00  0.00     0.077 C 
ATOM      2  C1  UNL d   1      -0.011   0.342   0.283  0.00  0.00    -0.074 A 
ATOM      3  C2  UNL d   1       1.300   0.089   0.697  0.00  0.00    -0.005 A 
ATOM      4  C3  UNL d   1       1.550  -0.414   1.974  0.00  0.00     0.006 A 
ATOM      5  C4  UNL d   1       0.493  -0.669   2.848  0.00  0.00    -0.005 A 
ATOM      6  C5  UNL d   1      -0.825  -0.422   2.452  0.00  0.00    -0.074 A 
ATOM      7  C6  UNL d   1      -1.973  -0.681   3.383  0.00  0.00     0.077 C 
ATOM      8  C7  UNL d   1      -1.068   0.091   1.170  0.00  0.00    -0.001 A 
ENDROOT
TORSDOF 0
ENDMDL
