MODEL 1
REMARK minimizedAffinity -4.70394278
REMARK minimizedRMSD -1
REMARK  0 active torsions:
REMARK  status: ('A' for Active; 'I' for Inactive)
ROOT
ATOM      1  C   UNL d   1      -2.605   0.987  -1.227  0.00  0.00     0.077 C 
ATOM      2  C1  UNL d   1      -1.403   0.511  -0.466  0.00  0.00    -0.074 A 
ATOM      3  C2  UNL d   1      -0.114   0.680  -0.981  0.00  0.00    -0.005 A 
ATOM      4  C3  UNL d   1       0.995   0.240  -0.258  0.00  0.00     0.006 A 
ATOM      5  C4  UNL d   1       0.826  -0.371   0.985  0.00  0.00    -0.005 A 
ATOM      6  C5  UNL d   1      -0.455  -0.548   1.516  0.00  0.00    -0.074 A 
ATOM      7  C6  UNL d   1      -0.654  -1.194   2.855  0.00  0.00     0.077 C 
ATOM      8  C7  UNL d   1      -1.564  -0.097   0.787  0.00  0.00    -0.001 A 
ENDROOT
TORSDOF 0
ENDMDL
