MODEL 1
REMARK minimizedAffinity -1.17863917
REMARK minimizedRMSD -1
REMARK  0 active torsions:
REMARK  status: ('A' for Active; 'I' for Inactive)
ROOT
ATOM      1  C   UNL d   1       0.821   1.429   3.280  0.00  0.00     0.077 C 
ATOM      2  C1  UNL d   1       0.447   0.900   1.927  0.00  0.00    -0.074 A 
ATOM      3  C2  UNL d   1       1.408   0.323   1.090  0.00  0.00    -0.005 A 
ATOM      4  C3  UNL d   1       1.043  -0.173  -0.161  0.00  0.00     0.006 A 
ATOM      5  C4  UNL d   1      -0.283  -0.099  -0.588  0.00  0.00    -0.005 A 
ATOM      6  C5  UNL d   1      -1.258   0.473   0.236  0.00  0.00    -0.074 A 
ATOM      7  C6  UNL d   1      -2.690   0.551  -0.202  0.00  0.00     0.077 C 
ATOM      8  C7  UNL d   1      -0.885   0.963   1.495  0.00  0.00    -0.001 A 
ENDROOT
TORSDOF 0
ENDMDL
