MODEL 1
REMARK minimizedAffinity -3.02642345
REMARK minimizedRMSD -1
REMARK  0 active torsions:
REMARK  status: ('A' for Active; 'I' for Inactive)
ROOT
ATOM      1  C   UNL d   1       2.020   0.504   0.134  0.00  0.00     0.077 C 
ATOM      2  C1  UNL d   1       0.846   0.054   0.951  0.00  0.00    -0.074 A 
ATOM      3  C2  UNL d   1       0.994  -0.275   2.303  0.00  0.00    -0.005 A 
ATOM      4  C3  UNL d   1      -0.109  -0.682   3.053  0.00  0.00     0.006 A 
ATOM      5  C4  UNL d   1      -1.369  -0.765   2.461  0.00  0.00    -0.005 A 
ATOM      6  C5  UNL d   1      -1.538  -0.439   1.111  0.00  0.00    -0.074 A 
ATOM      7  C6  UNL d   1      -2.888  -0.513   0.461  0.00  0.00     0.077 C 
ATOM      8  C7  UNL d   1      -0.426  -0.024   0.366  0.00  0.00    -0.001 A 
ENDROOT
TORSDOF 0
ENDMDL
