MODEL 1
REMARK minimizedAffinity -4.76860666
REMARK minimizedRMSD -1
REMARK  0 active torsions:
REMARK  status: ('A' for Active; 'I' for Inactive)
ROOT
ATOM      1  C   UNL d   1      -1.377  -0.782   3.172  0.00  0.00     0.077 C 
ATOM      2  C1  UNL d   1      -0.726  -0.366   1.887  0.00  0.00    -0.074 A 
ATOM      3  C2  UNL d   1      -1.486  -0.141   0.735  0.00  0.00    -0.005 A 
ATOM      4  C3  UNL d   1      -0.867   0.255  -0.451  0.00  0.00     0.006 A 
ATOM      5  C4  UNL d   1       0.516   0.430  -0.496  0.00  0.00    -0.005 A 
ATOM      6  C5  UNL d   1       1.293   0.211   0.646  0.00  0.00    -0.074 A 
ATOM      7  C6  UNL d   1       2.780   0.405   0.617  0.00  0.00     0.077 C 
ATOM      8  C7  UNL d   1       0.663  -0.180   1.835  0.00  0.00    -0.001 A 
ENDROOT
TORSDOF 0
ENDMDL
