MODEL 1
REMARK minimizedAffinity -1.98943675
REMARK minimizedRMSD -1
REMARK  0 active torsions:
REMARK  status: ('A' for Active; 'I' for Inactive)
ROOT
ATOM      1  C   UNL d   1      -3.035  -0.177   0.387  0.00  0.00     0.077 C 
ATOM      2  C1  UNL d   1      -1.554  -0.080   0.171  0.00  0.00    -0.074 A 
ATOM      3  C2  UNL d   1      -0.660  -0.238   1.236  0.00  0.00    -0.005 A 
ATOM      4  C3  UNL d   1       0.715  -0.154   1.018  0.00  0.00     0.006 A 
ATOM      5  C4  UNL d   1       1.210   0.088  -0.263  0.00  0.00    -0.005 A 
ATOM      6  C5  UNL d   1       0.332   0.248  -1.340  0.00  0.00    -0.074 A 
ATOM      7  C6  UNL d   1       0.848   0.499  -2.726  0.00  0.00     0.077 C 
ATOM      8  C7  UNL d   1      -1.048   0.155  -1.115  0.00  0.00    -0.001 A 
ENDROOT
TORSDOF 0
ENDMDL
