MODEL 1
REMARK minimizedAffinity -6.16949892
REMARK minimizedRMSD -1
REMARK  0 active torsions:
REMARK  status: ('A' for Active; 'I' for Inactive)
ROOT
ATOM      1  C   UNL d   1       1.233   0.048   0.384  0.00  0.00     0.077 C 
ATOM      2  C1  UNL d   1       0.007   0.064   1.248  0.00  0.00    -0.074 A 
ATOM      3  C2  UNL d   1       0.091  -0.196   2.620  0.00  0.00    -0.005 A 
ATOM      4  C3  UNL d   1      -1.056  -0.168   3.412  0.00  0.00     0.006 A 
ATOM      5  C4  UNL d   1      -2.297   0.118   2.842  0.00  0.00    -0.005 A 
ATOM      6  C5  UNL d   1      -2.401   0.381   1.473  0.00  0.00    -0.074 A 
ATOM      7  C6  UNL d   1      -3.725   0.700   0.846  0.00  0.00     0.077 C 
ATOM      8  C7  UNL d   1      -1.242   0.358   0.684  0.00  0.00    -0.001 A 
ENDROOT
TORSDOF 0
ENDMDL
