MODEL 1
REMARK minimizedAffinity -3.55476236
REMARK minimizedRMSD -1
REMARK  0 active torsions:
REMARK  status: ('A' for Active; 'I' for Inactive)
ROOT
ATOM      1  C   UNL d   1      -3.309   0.712   0.785  0.00  0.00     0.077 C 
ATOM      2  C1  UNL d   1      -1.819   0.550   0.737  0.00  0.00    -0.074 A 
ATOM      3  C2  UNL d   1      -1.056   0.567   1.909  0.00  0.00    -0.005 A 
ATOM      4  C3  UNL d   1       0.328   0.406   1.850  0.00  0.00     0.006 A 
ATOM      5  C4  UNL d   1       0.963   0.227   0.620  0.00  0.00    -0.005 A 
ATOM      6  C5  UNL d   1       0.216   0.206  -0.562  0.00  0.00    -0.074 A 
ATOM      7  C6  UNL d   1       0.881   0.005  -1.892  0.00  0.00     0.077 C 
ATOM      8  C7  UNL d   1      -1.175   0.362  -0.494  0.00  0.00    -0.001 A 
ENDROOT
TORSDOF 0
ENDMDL
