MODEL 1
REMARK minimizedAffinity -5.94435072
REMARK minimizedRMSD -1
REMARK  0 active torsions:
REMARK  status: ('A' for Active; 'I' for Inactive)
ROOT
ATOM      1  C   UNL d   1      -1.998  -0.186   2.983  0.00  0.00     0.077 C 
ATOM      2  C1  UNL d   1      -0.801  -0.249   2.081  0.00  0.00    -0.074 A 
ATOM      3  C2  UNL d   1       0.495  -0.256   2.607  0.00  0.00    -0.005 A 
ATOM      4  C3  UNL d   1       1.599  -0.324   1.756  0.00  0.00     0.006 A 
ATOM      5  C4  UNL d   1       1.418  -0.385   0.374  0.00  0.00    -0.005 A 
ATOM      6  C5  UNL d   1       0.130  -0.379  -0.170  0.00  0.00    -0.074 A 
ATOM      7  C6  UNL d   1      -0.083  -0.454  -1.653  0.00  0.00     0.077 C 
ATOM      8  C7  UNL d   1      -0.974  -0.318   0.692  0.00  0.00    -0.001 A 
ENDROOT
TORSDOF 0
ENDMDL
