MODEL 1
REMARK minimizedAffinity -4.2227087
REMARK minimizedRMSD -1
REMARK  0 active torsions:
REMARK  status: ('A' for Active; 'I' for Inactive)
ROOT
ATOM      1  C   UNL d   1      -0.448  -0.900   1.398  0.00  0.00     0.077 C 
ATOM      2  C1  UNL d   1      -0.297  -0.409  -0.011  0.00  0.00    -0.074 A 
ATOM      3  C2  UNL d   1      -0.686   0.886  -0.366  0.00  0.00    -0.005 A 
ATOM      4  C3  UNL d   1      -0.531   1.332  -1.678  0.00  0.00     0.006 A 
ATOM      5  C4  UNL d   1       0.015   0.489  -2.647  0.00  0.00    -0.005 A 
ATOM      6  C5  UNL d   1       0.411  -0.809  -2.310  0.00  0.00    -0.074 A 
ATOM      7  C6  UNL d   1       1.008  -1.725  -3.337  0.00  0.00     0.077 C 
ATOM      8  C7  UNL d   1       0.258  -1.248  -0.988  0.00  0.00    -0.001 A 
ENDROOT
TORSDOF 0
ENDMDL
