MODEL 1
REMARK minimizedAffinity -1.85413706
REMARK minimizedRMSD -1
REMARK  1 active torsions:
REMARK  status: ('A' for Active; 'I' for Inactive)
REMARK    1  A    between atoms: N_2  and  C1_3 
ROOT
ATOM      1  C1  UNL d   1      -0.284  -0.038   0.542  0.00  0.00     0.143 A 
ATOM      2  C2  UNL d   1       0.299  -1.276   0.836  0.00  0.00    -0.057 A 
ATOM      3  C3  UNL d   1       1.201  -1.881  -0.047  0.00  0.00     0.033 A 
ATOM      4  C4  UNL d   1       1.515  -1.272  -1.257  0.00  0.00    -0.042 A 
ATOM      5  C5  UNL d   1       0.928  -0.054  -1.581  0.00  0.00     0.033 A 
ATOM      6  C6  UNL d   1       0.033   0.549  -0.693  0.00  0.00    -0.057 A 
ENDROOT
BRANCH   1   7
ATOM      7  N   UNL d   1      -1.263   0.568   1.333  0.00  0.00    -0.732 N 
ATOM      8  C   UNL d   1      -1.082   0.694   2.763  0.00  0.00     0.284 C 
ATOM      9  H3  UNL d   1      -1.665   1.392   0.891  0.00  0.00     0.395 HD
ENDBRANCH   1   7
TORSDOF 1
ENDMDL
