MODEL 1
REMARK minimizedAffinity -0.725731671
REMARK minimizedRMSD -1
REMARK  1 active torsions:
REMARK  status: ('A' for Active; 'I' for Inactive)
REMARK    1  A    between atoms: N_2  and  C1_3 
ROOT
ATOM      1  C1  UNL d   1      -1.538   0.340   1.353  0.00  0.00     0.143 A 
ATOM      2  C2  UNL d   1      -2.745  -0.181   1.833  0.00  0.00    -0.057 A 
ATOM      3  C3  UNL d   1      -3.251   0.191   3.084  0.00  0.00     0.033 A 
ATOM      4  C4  UNL d   1      -2.542   1.073   3.893  0.00  0.00    -0.042 A 
ATOM      5  C5  UNL d   1      -1.328   1.584   3.448  0.00  0.00     0.033 A 
ATOM      6  C6  UNL d   1      -0.831   1.213   2.194  0.00  0.00    -0.057 A 
ENDROOT
BRANCH   1   7
ATOM      7  N   UNL d   1      -0.934  -0.067   0.161  0.00  0.00    -0.732 N 
ATOM      8  C   UNL d   1      -0.138  -1.274   0.113  0.00  0.00     0.284 C 
ATOM      9  H3  UNL d   1      -1.540   0.064  -0.646  0.00  0.00     0.395 HD
ENDBRANCH   1   7
TORSDOF 1
ENDMDL
