MODEL 1
REMARK minimizedAffinity -3.75779843
REMARK minimizedRMSD -1
REMARK  1 active torsions:
REMARK  status: ('A' for Active; 'I' for Inactive)
REMARK    1  A    between atoms: N_2  and  C1_3 
ROOT
ATOM      1  C1  UNL d   1       1.170  -0.671  -0.608  0.00  0.00     0.143 A 
ATOM      2  C2  UNL d   1       2.151  -1.100  -1.510  0.00  0.00    -0.057 A 
ATOM      3  C3  UNL d   1       2.985  -0.186  -2.164  0.00  0.00     0.033 A 
ATOM      4  C4  UNL d   1       2.835   1.180  -1.949  0.00  0.00    -0.042 A 
ATOM      5  C5  UNL d   1       1.850   1.631  -1.076  0.00  0.00     0.033 A 
ATOM      6  C6  UNL d   1       1.024   0.712  -0.421  0.00  0.00    -0.057 A 
ENDROOT
BRANCH   1   7
ATOM      7  N   UNL d   1       0.244  -1.524  -0.002  0.00  0.00    -0.732 N 
ATOM      8  C   UNL d   1      -1.167  -1.413  -0.302  0.00  0.00     0.284 C 
ATOM      9  H3  UNL d   1       0.582  -2.482   0.061  0.00  0.00     0.395 HD
ENDBRANCH   1   7
TORSDOF 1
ENDMDL
