MODEL 1
REMARK minimizedAffinity -2.80009627
REMARK minimizedRMSD -1
REMARK  1 active torsions:
REMARK  status: ('A' for Active; 'I' for Inactive)
REMARK    1  A    between atoms: N_2  and  C1_3 
ROOT
ATOM      1  C1  UNL d   1      -0.327  -0.307   0.110  0.00  0.00     0.143 A 
ATOM      2  C2  UNL d   1       0.035  -1.548   0.645  0.00  0.00    -0.057 A 
ATOM      3  C3  UNL d   1       1.225  -2.181   0.268  0.00  0.00     0.033 A 
ATOM      4  C4  UNL d   1       2.063  -1.596  -0.675  0.00  0.00    -0.042 A 
ATOM      5  C5  UNL d   1       1.711  -0.375  -1.239  0.00  0.00     0.033 A 
ATOM      6  C6  UNL d   1       0.524   0.256  -0.853  0.00  0.00    -0.057 A 
ENDROOT
BRANCH   1   7
ATOM      7  N   UNL d   1      -1.545   0.327   0.371  0.00  0.00    -0.732 N 
ATOM      8  C   UNL d   1      -2.110   0.319   1.703  0.00  0.00     0.284 C 
ATOM      9  H3  UNL d   1      -1.629   1.219  -0.111  0.00  0.00     0.395 HD
ENDBRANCH   1   7
TORSDOF 1
ENDMDL
