MODEL 1
REMARK minimizedAffinity 7.0963254
REMARK minimizedRMSD -1
REMARK  1 active torsions:
REMARK  status: ('A' for Active; 'I' for Inactive)
REMARK    1  A    between atoms: N_2  and  C1_3 
ROOT
ATOM      1  C1  UNL d   1      -4.547  -2.115   3.432  0.00  0.00     0.143 A 
ATOM      2  C2  UNL d   1      -3.995  -1.343   2.404  0.00  0.00    -0.057 A 
ATOM      3  C3  UNL d   1      -2.847  -0.570   2.613  0.00  0.00     0.033 A 
ATOM      4  C4  UNL d   1      -2.246  -0.531   3.867  0.00  0.00    -0.042 A 
ATOM      5  C5  UNL d   1      -2.793  -1.270   4.910  0.00  0.00     0.033 A 
ATOM      6  C6  UNL d   1      -3.935  -2.046   4.693  0.00  0.00    -0.057 A 
ENDROOT
BRANCH   1   7
ATOM      7  N   UNL d   1      -5.743  -2.827   3.313  0.00  0.00    -0.732 N 
ATOM      8  C   UNL d   1      -5.735  -4.271   3.216  0.00  0.00     0.284 C 
ATOM      9  H3  UNL d   1      -6.478  -2.455   3.911  0.00  0.00     0.395 HD
ENDBRANCH   1   7
TORSDOF 1
ENDMDL
