MODEL 1
REMARK minimizedAffinity -2.89307666
REMARK minimizedRMSD -1
REMARK  1 active torsions:
REMARK  status: ('A' for Active; 'I' for Inactive)
REMARK    1  A    between atoms: N_2  and  C1_3 
ROOT
ATOM      1  C1  UNL d   1       1.357  -0.857  -1.115  0.00  0.00     0.143 A 
ATOM      2  C2  UNL d   1       0.678  -1.441  -0.040  0.00  0.00    -0.057 A 
ATOM      3  C3  UNL d   1      -0.347  -0.759   0.627  0.00  0.00     0.033 A 
ATOM      4  C4  UNL d   1      -0.692   0.534   0.249  0.00  0.00    -0.042 A 
ATOM      5  C5  UNL d   1      -0.013   1.144  -0.800  0.00  0.00     0.033 A 
ATOM      6  C6  UNL d   1       1.005   0.455  -1.467  0.00  0.00    -0.057 A 
ENDROOT
BRANCH   1   7
ATOM      7  N   UNL d   1       2.451  -1.445  -1.755  0.00  0.00    -0.732 N 
ATOM      8  C   UNL d   1       3.208  -0.709  -2.746  0.00  0.00     0.284 C 
ATOM      9  H3  UNL d   1       3.023  -1.996  -1.120  0.00  0.00     0.395 HD
ENDBRANCH   1   7
TORSDOF 1
ENDMDL
