MODEL 1
REMARK minimizedAffinity -4.60025883
REMARK minimizedRMSD -1
REMARK  1 active torsions:
REMARK  status: ('A' for Active; 'I' for Inactive)
REMARK    1  A    between atoms: N_2  and  C1_3 
ROOT
ATOM      1  C1  UNL d   1      -0.332   0.156  -0.337  0.00  0.00     0.143 A 
ATOM      2  C2  UNL d   1       0.144  -1.159  -0.378  0.00  0.00    -0.057 A 
ATOM      3  C3  UNL d   1       1.236  -1.511  -1.181  0.00  0.00     0.033 A 
ATOM      4  C4  UNL d   1       1.854  -0.556  -1.982  0.00  0.00    -0.042 A 
ATOM      5  C5  UNL d   1       1.382   0.751  -1.976  0.00  0.00     0.033 A 
ATOM      6  C6  UNL d   1       0.296   1.098  -1.167  0.00  0.00    -0.057 A 
ENDROOT
BRANCH   1   7
ATOM      7  N   UNL d   1      -1.475   0.548   0.365  0.00  0.00    -0.732 N 
ATOM      8  C   UNL d   1      -1.366   1.373   1.548  0.00  0.00     0.284 C 
ATOM      9  H3  UNL d   1      -2.241   0.806  -0.253  0.00  0.00     0.395 HD
ENDBRANCH   1   7
TORSDOF 1
ENDMDL
