MODEL 1
REMARK minimizedAffinity -1.70147061
REMARK minimizedRMSD -1
REMARK  1 active torsions:
REMARK  status: ('A' for Active; 'I' for Inactive)
REMARK    1  A    between atoms: N_2  and  C1_3 
ROOT
ATOM      1  C1  UNL d   1       0.524   0.886  -1.966  0.00  0.00     0.143 A 
ATOM      2  C2  UNL d   1       1.466  -0.016  -2.472  0.00  0.00    -0.057 A 
ATOM      3  C3  UNL d   1       1.647  -1.278  -1.893  0.00  0.00     0.033 A 
ATOM      4  C4  UNL d   1       0.907  -1.650  -0.776  0.00  0.00    -0.042 A 
ATOM      5  C5  UNL d   1      -0.017  -0.760  -0.240  0.00  0.00     0.033 A 
ATOM      6  C6  UNL d   1      -0.198   0.496  -0.827  0.00  0.00    -0.057 A 
ENDROOT
BRANCH   1   7
ATOM      7  N   UNL d   1       0.367   2.192  -2.437  0.00  0.00    -0.732 N 
ATOM      8  C   UNL d   1      -0.528   3.113  -1.770  0.00  0.00     0.284 C 
ATOM      9  H3  UNL d   1       1.248   2.607  -2.731  0.00  0.00     0.395 HD
ENDBRANCH   1   7
TORSDOF 1
ENDMDL
