MODEL 1
REMARK minimizedAffinity -3.42082906
REMARK minimizedRMSD -1
REMARK  1 active torsions:
REMARK  status: ('A' for Active; 'I' for Inactive)
REMARK    1  A    between atoms: N_2  and  C1_3 
ROOT
ATOM      1  C1  UNL d   1      -0.347   0.091  -0.219  0.00  0.00     0.143 A 
ATOM      2  C2  UNL d   1       0.477  -1.039  -0.253  0.00  0.00    -0.057 A 
ATOM      3  C3  UNL d   1       1.560  -1.121  -1.137  0.00  0.00     0.033 A 
ATOM      4  C4  UNL d   1       1.821  -0.083  -2.025  0.00  0.00    -0.042 A 
ATOM      5  C5  UNL d   1       1.001   1.039  -2.025  0.00  0.00     0.033 A 
ATOM      6  C6  UNL d   1      -0.075   1.118  -1.136  0.00  0.00    -0.057 A 
ENDROOT
BRANCH   1   7
ATOM      7  N   UNL d   1      -1.497   0.191   0.568  0.00  0.00    -0.732 N 
ATOM      8  C   UNL d   1      -1.430   0.737   1.906  0.00  0.00     0.284 C 
ATOM      9  H3  UNL d   1      -2.307   0.497   0.034  0.00  0.00     0.395 HD
ENDBRANCH   1   7
TORSDOF 1
ENDMDL
