MODEL 1
REMARK minimizedAffinity -4.8533783
REMARK minimizedRMSD -1
REMARK  1 active torsions:
REMARK  status: ('A' for Active; 'I' for Inactive)
REMARK    1  A    between atoms: N_2  and  C1_3 
ROOT
ATOM      1  C1  UNL d   1       0.777   0.826  -0.694  0.00  0.00     0.143 A 
ATOM      2  C2  UNL d   1       1.617  -0.264  -0.441  0.00  0.00    -0.057 A 
ATOM      3  C3  UNL d   1       2.860  -0.385  -1.073  0.00  0.00     0.033 A 
ATOM      4  C4  UNL d   1       3.274   0.570  -1.995  0.00  0.00    -0.042 A 
ATOM      5  C5  UNL d   1       2.445   1.649  -2.281  0.00  0.00     0.033 A 
ATOM      6  C6  UNL d   1       1.207   1.768  -1.641  0.00  0.00    -0.057 A 
ENDROOT
BRANCH   1   7
ATOM      7  N   UNL d   1      -0.512   0.953  -0.171  0.00  0.00    -0.732 N 
ATOM      8  C   UNL d   1      -1.259  -0.217   0.240  0.00  0.00     0.284 C 
ATOM      9  H3  UNL d   1      -0.599   1.745   0.461  0.00  0.00     0.395 HD
ENDBRANCH   1   7
TORSDOF 1
ENDMDL
