MODEL 1
REMARK minimizedAffinity -3.11194587
REMARK minimizedRMSD -1
REMARK  1 active torsions:
REMARK  status: ('A' for Active; 'I' for Inactive)
REMARK    1  A    between atoms: N_2  and  C1_3 
ROOT
ATOM      1  C1  UNL d   1       0.276   0.260  -1.672  0.00  0.00     0.143 A 
ATOM      2  C2  UNL d   1       0.287  -0.836  -0.803  0.00  0.00    -0.057 A 
ATOM      3  C3  UNL d   1      -0.446  -0.826   0.390  0.00  0.00     0.033 A 
ATOM      4  C4  UNL d   1      -1.183   0.298   0.750  0.00  0.00    -0.042 A 
ATOM      5  C5  UNL d   1      -1.189   1.409  -0.086  0.00  0.00     0.033 A 
ATOM      6  C6  UNL d   1      -0.460   1.389  -1.279  0.00  0.00    -0.057 A 
ENDROOT
BRANCH   1   7
ATOM      7  N   UNL d   1       1.062   0.349  -2.823  0.00  0.00    -0.732 N 
ATOM      8  C   UNL d   1       2.183  -0.544  -3.020  0.00  0.00     0.284 C 
ATOM      9  H3  UNL d   1       0.507   0.511  -3.661  0.00  0.00     0.395 HD
ENDBRANCH   1   7
TORSDOF 1
ENDMDL
