MODEL 1
REMARK minimizedAffinity -4.0364213
REMARK minimizedRMSD -1
REMARK  1 active torsions:
REMARK  status: ('A' for Active; 'I' for Inactive)
REMARK    1  A    between atoms: N_2  and  C1_3 
ROOT
ATOM      1  C1  UNL d   1       1.991   0.770  -2.411  0.00  0.00     0.143 A 
ATOM      2  C2  UNL d   1       2.609  -0.485  -2.403  0.00  0.00    -0.057 A 
ATOM      3  C3  UNL d   1       3.670  -0.778  -3.268  0.00  0.00     0.033 A 
ATOM      4  C4  UNL d   1       4.115   0.174  -4.180  0.00  0.00    -0.042 A 
ATOM      5  C5  UNL d   1       3.499   1.420  -4.223  0.00  0.00     0.033 A 
ATOM      6  C6  UNL d   1       2.444   1.709  -3.352  0.00  0.00    -0.057 A 
ENDROOT
BRANCH   1   7
ATOM      7  N   UNL d   1       0.868   1.090  -1.644  0.00  0.00    -0.732 N 
ATOM      8  C   UNL d   1       0.817   0.756  -0.237  0.00  0.00     0.284 C 
ATOM      9  H3  UNL d   1       0.494   2.009  -1.867  0.00  0.00     0.395 HD
ENDBRANCH   1   7
TORSDOF 1
ENDMDL
