MODEL 1
REMARK minimizedAffinity 21.0312576
REMARK minimizedRMSD -1
REMARK  1 active torsions:
REMARK  status: ('A' for Active; 'I' for Inactive)
REMARK    1  A    between atoms: C1_2  and  C2_3 
ROOT
ATOM      1  C2  UNL d   1       3.831   3.749  -3.528  0.00  0.00    -0.081 A 
ATOM      2  C3  UNL d   1       4.218   2.475  -3.097  0.00  0.00     0.006 A 
ATOM      3  C4  UNL d   1       3.391   1.731  -2.252  0.00  0.00     0.002 A 
ATOM      4  C5  UNL d   1       2.160   2.247  -1.831  0.00  0.00    -0.080 A 
ATOM      5  C6  UNL d   1       1.249   1.447  -0.948  0.00  0.00     0.076 C 
ATOM      6  C7  UNL d   1       1.781   3.527  -2.247  0.00  0.00     0.002 A 
ATOM      7  C8  UNL d   1       2.609   4.271  -3.092  0.00  0.00     0.006 A 
ENDROOT
BRANCH   1   8
ATOM      8  C1  UNL d   1       4.692   4.527  -4.492  0.00  0.00     0.054 C 
ATOM      9  C   UNL d   1       5.997   3.798  -4.780  0.00  0.00     0.018 C 
ENDBRANCH   1   8
TORSDOF 1
ENDMDL
