MODEL 1
REMARK minimizedAffinity 13.2508154
REMARK minimizedRMSD -1
REMARK  1 active torsions:
REMARK  status: ('A' for Active; 'I' for Inactive)
REMARK    1  A    between atoms: C1_2  and  C2_3 
ROOT
ATOM      1  C2  UNL d   1      -1.758  -2.782  -5.923  0.00  0.00    -0.081 A 
ATOM      2  C3  UNL d   1      -2.677  -3.837  -5.976  0.00  0.00     0.006 A 
ATOM      3  C4  UNL d   1      -4.050  -3.580  -5.971  0.00  0.00     0.002 A 
ATOM      4  C5  UNL d   1      -4.527  -2.265  -5.921  0.00  0.00    -0.080 A 
ATOM      5  C6  UNL d   1      -5.998  -1.975  -5.946  0.00  0.00     0.076 C 
ATOM      6  C7  UNL d   1      -3.608  -1.212  -5.850  0.00  0.00     0.002 A 
ATOM      7  C8  UNL d   1      -2.235  -1.469  -5.854  0.00  0.00     0.006 A 
ENDROOT
BRANCH   1   8
ATOM      8  C1  UNL d   1      -0.277  -3.052  -5.994  0.00  0.00     0.054 C 
ATOM      9  C   UNL d   1       0.528  -1.857  -5.503  0.00  0.00     0.018 C 
ENDBRANCH   1   8
TORSDOF 1
ENDMDL
