MODEL 1
REMARK minimizedAffinity 13.8721771
REMARK minimizedRMSD -1
REMARK  1 active torsions:
REMARK  status: ('A' for Active; 'I' for Inactive)
REMARK    1  A    between atoms: C1_2  and  C2_3 
ROOT
ATOM      1  C2  UNL d   1      -3.742   0.275   3.918  0.00  0.00    -0.081 A 
ATOM      2  C3  UNL d   1      -4.925   0.600   3.242  0.00  0.00     0.006 A 
ATOM      3  C4  UNL d   1      -4.918   0.808   1.861  0.00  0.00     0.002 A 
ATOM      4  C5  UNL d   1      -3.730   0.688   1.132  0.00  0.00    -0.080 A 
ATOM      5  C6  UNL d   1      -3.714   0.879  -0.356  0.00  0.00     0.076 C 
ATOM      6  C7  UNL d   1      -2.545   0.381   1.809  0.00  0.00     0.002 A 
ATOM      7  C8  UNL d   1      -2.552   0.173   3.190  0.00  0.00     0.006 A 
ENDROOT
BRANCH   1   8
ATOM      8  C1  UNL d   1      -3.759  -0.013   5.397  0.00  0.00     0.054 C 
ATOM      9  C   UNL d   1      -3.429  -1.472   5.680  0.00  0.00     0.018 C 
ENDBRANCH   1   8
TORSDOF 1
ENDMDL
