MODEL 1
REMARK minimizedAffinity 0.31215167
REMARK minimizedRMSD -1
REMARK  1 active torsions:
REMARK  status: ('A' for Active; 'I' for Inactive)
REMARK    1  A    between atoms: C1_2  and  C2_3 
ROOT
ATOM      1  C2  UNL d   1      -0.076   0.467   2.419  0.00  0.00    -0.081 A 
ATOM      2  C3  UNL d   1      -1.035   1.088   3.230  0.00  0.00     0.006 A 
ATOM      3  C4  UNL d   1      -2.340   1.273   2.768  0.00  0.00     0.002 A 
ATOM      4  C5  UNL d   1      -2.710   0.834   1.492  0.00  0.00    -0.080 A 
ATOM      5  C6  UNL d   1      -4.116   1.000   0.996  0.00  0.00     0.076 C 
ATOM      6  C7  UNL d   1      -1.748   0.230   0.676  0.00  0.00     0.002 A 
ATOM      7  C8  UNL d   1      -0.443   0.045   1.137  0.00  0.00     0.006 A 
ENDROOT
BRANCH   1   8
ATOM      8  C1  UNL d   1       1.315   0.208   2.939  0.00  0.00     0.054 C 
ATOM      9  C   UNL d   1       2.365   0.885   2.070  0.00  0.00     0.018 C 
ENDBRANCH   1   8
TORSDOF 1
ENDMDL
