MODEL 1
REMARK minimizedAffinity 12.9760113
REMARK minimizedRMSD -1
REMARK  1 active torsions:
REMARK  status: ('A' for Active; 'I' for Inactive)
REMARK    1  A    between atoms: C1_2  and  C2_3 
ROOT
ATOM      1  C2  UNL d   1       5.935  -3.217   4.963  0.00  0.00    -0.081 A 
ATOM      2  C3  UNL d   1       5.776  -1.909   5.435  0.00  0.00     0.006 A 
ATOM      3  C4  UNL d   1       5.656  -0.843   4.540  0.00  0.00     0.002 A 
ATOM      4  C5  UNL d   1       5.686  -1.068   3.160  0.00  0.00    -0.080 A 
ATOM      5  C6  UNL d   1       5.529   0.064   2.188  0.00  0.00     0.076 C 
ATOM      6  C7  UNL d   1       5.863  -2.373   2.688  0.00  0.00     0.002 A 
ATOM      7  C8  UNL d   1       5.983  -3.439   3.582  0.00  0.00     0.006 A 
ENDROOT
BRANCH   1   8
ATOM      8  C1  UNL d   1       5.999  -4.376   5.924  0.00  0.00     0.054 C 
ATOM      9  C   UNL d   1       5.991  -5.708   5.187  0.00  0.00     0.018 C 
ENDBRANCH   1   8
TORSDOF 1
ENDMDL
