MODEL 1
REMARK minimizedAffinity 7.93205976
REMARK minimizedRMSD -1
REMARK  1 active torsions:
REMARK  status: ('A' for Active; 'I' for Inactive)
REMARK    1  A    between atoms: C1_2  and  C2_3 
ROOT
ATOM      1  C2  UNL d   1      -4.064   0.770   2.568  0.00  0.00    -0.081 A 
ATOM      2  C3  UNL d   1      -3.426   1.903   2.048  0.00  0.00     0.006 A 
ATOM      3  C4  UNL d   1      -2.074   2.138   2.310  0.00  0.00     0.002 A 
ATOM      4  C5  UNL d   1      -1.336   1.240   3.088  0.00  0.00    -0.080 A 
ATOM      5  C6  UNL d   1       0.124   1.464   3.352  0.00  0.00     0.076 C 
ATOM      6  C7  UNL d   1      -1.977   0.117   3.622  0.00  0.00     0.002 A 
ATOM      7  C8  UNL d   1      -3.329  -0.118   3.361  0.00  0.00     0.006 A 
ENDROOT
BRANCH   1   8
ATOM      8  C1  UNL d   1      -5.505   0.480   2.234  0.00  0.00     0.054 C 
ATOM      9  C   UNL d   1      -5.638  -0.801   1.424  0.00  0.00     0.018 C 
ENDBRANCH   1   8
TORSDOF 1
ENDMDL
