MODEL 1
REMARK minimizedAffinity 0.704812407
REMARK minimizedRMSD -1
REMARK  1 active torsions:
REMARK  status: ('A' for Active; 'I' for Inactive)
REMARK    1  A    between atoms: C1_2  and  C2_3 
ROOT
ATOM      1  C2  UNL d   1      -1.681  -2.846   0.759  0.00  0.00    -0.081 A 
ATOM      2  C3  UNL d   1      -1.032  -1.647   1.078  0.00  0.00     0.006 A 
ATOM      3  C4  UNL d   1      -1.757  -0.458   1.196  0.00  0.00     0.002 A 
ATOM      4  C5  UNL d   1      -3.142  -0.450   1.005  0.00  0.00    -0.080 A 
ATOM      5  C6  UNL d   1      -3.936   0.813   1.158  0.00  0.00     0.076 C 
ATOM      6  C7  UNL d   1      -3.789  -1.645   0.669  0.00  0.00     0.002 A 
ATOM      7  C8  UNL d   1      -3.065  -2.833   0.550  0.00  0.00     0.006 A 
ENDROOT
BRANCH   1   8
ATOM      8  C1  UNL d   1      -0.912  -4.140   0.695  0.00  0.00     0.054 C 
ATOM      9  C   UNL d   1      -0.009  -4.308   1.909  0.00  0.00     0.018 C 
ENDBRANCH   1   8
TORSDOF 1
ENDMDL
