MODEL 1
REMARK minimizedAffinity 0.29265511
REMARK minimizedRMSD -1
REMARK  1 active torsions:
REMARK  status: ('A' for Active; 'I' for Inactive)
REMARK    1  A    between atoms: C1_2  and  C2_3 
ROOT
ATOM      1  C2  UNL d   1      -1.551   1.336   2.674  0.00  0.00    -0.081 A 
ATOM      2  C3  UNL d   1      -1.589   0.641   1.459  0.00  0.00     0.006 A 
ATOM      3  C4  UNL d   1      -2.801   0.448   0.791  0.00  0.00     0.002 A 
ATOM      4  C5  UNL d   1      -3.993   0.954   1.322  0.00  0.00    -0.080 A 
ATOM      5  C6  UNL d   1      -5.296   0.780   0.600  0.00  0.00     0.076 C 
ATOM      6  C7  UNL d   1      -3.957   1.633   2.545  0.00  0.00     0.002 A 
ATOM      7  C8  UNL d   1      -2.746   1.825   3.213  0.00  0.00     0.006 A 
ENDROOT
BRANCH   1   8
ATOM      8  C1  UNL d   1      -0.238   1.602   3.364  0.00  0.00     0.054 C 
ATOM      9  C   UNL d   1       0.695   0.404   3.259  0.00  0.00     0.018 C 
ENDBRANCH   1   8
TORSDOF 1
ENDMDL
