MODEL 1
REMARK minimizedAffinity 8.65194798
REMARK minimizedRMSD -1
REMARK  1 active torsions:
REMARK  status: ('A' for Active; 'I' for Inactive)
REMARK    1  A    between atoms: C1_2  and  C2_3 
ROOT
ATOM      1  C2  UNL d   1      -3.140   0.641   1.376  0.00  0.00    -0.081 A 
ATOM      2  C3  UNL d   1      -3.202   1.571   2.421  0.00  0.00     0.006 A 
ATOM      3  C4  UNL d   1      -2.052   1.903   3.141  0.00  0.00     0.002 A 
ATOM      4  C5  UNL d   1      -0.822   1.318   2.824  0.00  0.00    -0.080 A 
ATOM      5  C6  UNL d   1       0.426   1.689   3.570  0.00  0.00     0.076 C 
ATOM      6  C7  UNL d   1      -0.763   0.376   1.792  0.00  0.00     0.002 A 
ATOM      7  C8  UNL d   1      -1.913   0.042   1.072  0.00  0.00     0.006 A 
ENDROOT
BRANCH   1   8
ATOM      8  C1  UNL d   1      -4.365   0.328   0.555  0.00  0.00     0.054 C 
ATOM      9  C   UNL d   1      -4.595  -1.173   0.453  0.00  0.00     0.018 C 
ENDBRANCH   1   8
TORSDOF 1
ENDMDL
