MODEL 1
REMARK minimizedAffinity 4.52008581
REMARK minimizedRMSD -1
REMARK  1 active torsions:
REMARK  status: ('A' for Active; 'I' for Inactive)
REMARK    1  A    between atoms: C1_2  and  C2_3 
ROOT
ATOM      1  C2  UNL d   1      -5.548  -1.998   3.229  0.00  0.00    -0.081 A 
ATOM      2  C3  UNL d   1      -5.345  -2.100   1.847  0.00  0.00     0.006 A 
ATOM      3  C4  UNL d   1      -4.869  -1.008   1.119  0.00  0.00     0.002 A 
ATOM      4  C5  UNL d   1      -4.581   0.202   1.760  0.00  0.00    -0.080 A 
ATOM      5  C6  UNL d   1      -4.040   1.373   0.994  0.00  0.00     0.076 C 
ATOM      6  C7  UNL d   1      -4.800   0.310   3.137  0.00  0.00     0.002 A 
ATOM      7  C8  UNL d   1      -5.277  -0.782   3.866  0.00  0.00     0.006 A 
ENDROOT
BRANCH   1   8
ATOM      8  C1  UNL d   1      -6.000  -3.193   4.028  0.00  0.00     0.054 C 
ATOM      9  C   UNL d   1      -5.334  -3.228   5.397  0.00  0.00     0.018 C 
ENDBRANCH   1   8
TORSDOF 1
ENDMDL
