MODEL 1
REMARK minimizedAffinity -0.0237968247
REMARK minimizedRMSD -1
REMARK  1 active torsions:
REMARK  status: ('A' for Active; 'I' for Inactive)
REMARK    1  A    between atoms: C1_2  and  C2_3 
ROOT
ATOM      1  C2  UNL d   1      -5.110   1.786   4.168  0.00  0.00    -0.081 A 
ATOM      2  C3  UNL d   1      -4.151   0.820   4.496  0.00  0.00     0.006 A 
ATOM      3  C4  UNL d   1      -3.287   0.319   3.520  0.00  0.00     0.002 A 
ATOM      4  C5  UNL d   1      -3.363   0.781   2.201  0.00  0.00    -0.080 A 
ATOM      5  C6  UNL d   1      -2.421   0.274   1.149  0.00  0.00     0.076 C 
ATOM      6  C7  UNL d   1      -4.333   1.733   1.869  0.00  0.00     0.002 A 
ATOM      7  C8  UNL d   1      -5.197   2.233   2.845  0.00  0.00     0.006 A 
ENDROOT
BRANCH   1   8
ATOM      8  C1  UNL d   1      -6.000   2.375   5.233  0.00  0.00     0.054 C 
ATOM      9  C   UNL d   1      -5.955   3.896   5.212  0.00  0.00     0.018 C 
ENDBRANCH   1   8
TORSDOF 1
ENDMDL
