MODEL 1
REMARK minimizedAffinity 7.47280979
REMARK minimizedRMSD -1
REMARK  1 active torsions:
REMARK  status: ('A' for Active; 'I' for Inactive)
REMARK    1  A    between atoms: C1_2  and  C2_3 
ROOT
ATOM      1  C2  UNL d   1      -3.102  -0.209   1.393  0.00  0.00    -0.081 A 
ATOM      2  C3  UNL d   1      -3.256   0.436   2.627  0.00  0.00     0.006 A 
ATOM      3  C4  UNL d   1      -2.139   0.877   3.340  0.00  0.00     0.002 A 
ATOM      4  C5  UNL d   1      -0.851   0.688   2.829  0.00  0.00    -0.080 A 
ATOM      5  C6  UNL d   1       0.355   1.184   3.570  0.00  0.00     0.076 C 
ATOM      6  C7  UNL d   1      -0.695   0.028   1.605  0.00  0.00     0.002 A 
ATOM      7  C8  UNL d   1      -1.812  -0.414   0.892  0.00  0.00     0.006 A 
ENDROOT
BRANCH   1   8
ATOM      8  C1  UNL d   1      -4.308  -0.628   0.592  0.00  0.00     0.054 C 
ATOM      9  C   UNL d   1      -4.242  -2.104   0.224  0.00  0.00     0.018 C 
ENDBRANCH   1   8
TORSDOF 1
ENDMDL
