MODEL 1
REMARK minimizedAffinity 4.08837128
REMARK minimizedRMSD -1
REMARK  1 active torsions:
REMARK  status: ('A' for Active; 'I' for Inactive)
REMARK    1  A    between atoms: C1_2  and  C2_3 
ROOT
ATOM      1  C2  UNL d   1      -3.165   0.187   1.511  0.00  0.00    -0.081 A 
ATOM      2  C3  UNL d   1      -2.035  -0.626   1.668  0.00  0.00     0.006 A 
ATOM      3  C4  UNL d   1      -0.839  -0.090   2.153  0.00  0.00     0.002 A 
ATOM      4  C5  UNL d   1      -0.755   1.263   2.496  0.00  0.00    -0.080 A 
ATOM      5  C6  UNL d   1       0.514   1.844   3.046  0.00  0.00     0.076 C 
ATOM      6  C7  UNL d   1      -1.878   2.079   2.323  0.00  0.00     0.002 A 
ATOM      7  C8  UNL d   1      -3.074   1.545   1.837  0.00  0.00     0.006 A 
ENDROOT
BRANCH   1   8
ATOM      8  C1  UNL d   1      -4.474  -0.401   1.050  0.00  0.00     0.054 C 
ATOM      9  C   UNL d   1      -4.268  -1.751   0.378  0.00  0.00     0.018 C 
ENDBRANCH   1   8
TORSDOF 1
ENDMDL
