MODEL 1
REMARK minimizedAffinity 9.02026749
REMARK minimizedRMSD -1
REMARK  1 active torsions:
REMARK  status: ('A' for Active; 'I' for Inactive)
REMARK    1  A    between atoms: C1_2  and  C2_3 
ROOT
ATOM      1  C2  UNL d   1      -0.463   0.947   2.797  0.00  0.00    -0.081 A 
ATOM      2  C3  UNL d   1      -1.635   1.401   3.415  0.00  0.00     0.006 A 
ATOM      3  C4  UNL d   1      -2.878   1.196   2.813  0.00  0.00     0.002 A 
ATOM      4  C5  UNL d   1      -2.973   0.528   1.587  0.00  0.00    -0.080 A 
ATOM      5  C6  UNL d   1      -4.304   0.275   0.945  0.00  0.00     0.076 C 
ATOM      6  C7  UNL d   1      -1.801   0.090   0.961  0.00  0.00     0.002 A 
ATOM      7  C8  UNL d   1      -0.557   0.295   1.562  0.00  0.00     0.006 A 
ENDROOT
BRANCH   1   8
ATOM      8  C1  UNL d   1       0.873   1.109   3.474  0.00  0.00     0.054 C 
ATOM      9  C   UNL d   1       1.046   2.515   4.030  0.00  0.00     0.018 C 
ENDBRANCH   1   8
TORSDOF 1
ENDMDL
