MODEL 1
REMARK minimizedAffinity 4.12826157
REMARK minimizedRMSD -1
REMARK  1 active torsions:
REMARK  status: ('A' for Active; 'I' for Inactive)
REMARK    1  A    between atoms: C1_2  and  C2_3 
ROOT
ATOM      1  C2  UNL d   1      -3.588  -1.020   0.839  0.00  0.00    -0.081 A 
ATOM      2  C3  UNL d   1      -4.465   0.038   1.111  0.00  0.00     0.006 A 
ATOM      3  C4  UNL d   1      -4.011   1.184   1.768  0.00  0.00     0.002 A 
ATOM      4  C5  UNL d   1      -2.672   1.295   2.157  0.00  0.00    -0.080 A 
ATOM      5  C6  UNL d   1      -2.164   2.532   2.836  0.00  0.00     0.076 C 
ATOM      6  C7  UNL d   1      -1.799   0.232   1.902  0.00  0.00     0.002 A 
ATOM      7  C8  UNL d   1      -2.253  -0.915   1.245  0.00  0.00     0.006 A 
ENDROOT
BRANCH   1   8
ATOM      8  C1  UNL d   1      -4.059  -2.229   0.073  0.00  0.00     0.054 C 
ATOM      9  C   UNL d   1      -3.094  -3.395   0.232  0.00  0.00     0.018 C 
ENDBRANCH   1   8
TORSDOF 1
ENDMDL
