MODEL 1
REMARK minimizedAffinity -2.3847301
REMARK minimizedRMSD -1
REMARK  1 active torsions:
REMARK  status: ('A' for Active; 'I' for Inactive)
REMARK    1  A    between atoms: C3_4  and  O_7 
ROOT
ATOM      1  C   UNL d   1      -1.975  -5.002   5.998  0.00  0.00    -0.033 A 
ATOM      2  C1  UNL d   1      -1.498  -3.690   6.000  0.00  0.00     0.039 A 
ATOM      3  C2  UNL d   1      -0.369  -3.355   5.250  0.00  0.00    -0.080 A 
ATOM      4  C3  UNL d   1       0.272  -4.339   4.503  0.00  0.00     0.150 A 
ATOM      5  C4  UNL d   1      -0.200  -5.647   4.493  0.00  0.00    -0.007 A 
ATOM      6  C5  UNL d   1      -1.327  -5.981   5.244  0.00  0.00     0.039 A 
ENDROOT
BRANCH   4   7
ATOM      7  O   UNL d   1       1.380  -4.060   3.759  0.00  0.00    -0.526 OA
ATOM      8  H5  UNL d   1       1.608  -3.124   3.885  0.00  0.00     0.418 HD
ENDBRANCH   4   7
TORSDOF 1
ENDMDL
