MODEL 1
REMARK minimizedAffinity 1.67792761
REMARK minimizedRMSD -1
REMARK  1 active torsions:
REMARK  status: ('A' for Active; 'I' for Inactive)
REMARK    1  A    between atoms: C3_4  and  O_7 
ROOT
ATOM      1  C   UNL d   1       3.567   0.805  -0.724  0.00  0.00    -0.033 A 
ATOM      2  C1  UNL d   1       4.207  -0.225  -1.415  0.00  0.00     0.039 A 
ATOM      3  C2  UNL d   1       3.653  -1.507  -1.429  0.00  0.00    -0.080 A 
ATOM      4  C3  UNL d   1       2.461  -1.744  -0.750  0.00  0.00     0.150 A 
ATOM      5  C4  UNL d   1       1.817  -0.721  -0.063  0.00  0.00    -0.007 A 
ATOM      6  C5  UNL d   1       2.371   0.558  -0.049  0.00  0.00     0.039 A 
ENDROOT
BRANCH   4   7
ATOM      7  O   UNL d   1       1.886  -2.980  -0.732  0.00  0.00    -0.526 OA
ATOM      8  H5  UNL d   1       2.457  -3.593  -1.224  0.00  0.00     0.418 HD
ENDBRANCH   4   7
TORSDOF 1
ENDMDL
