MODEL 1
REMARK minimizedAffinity 5.25015259
REMARK minimizedRMSD -1
REMARK  1 active torsions:
REMARK  status: ('A' for Active; 'I' for Inactive)
REMARK    1  A    between atoms: C3_4  and  O_7 
ROOT
ATOM      1  C   UNL d   1       2.483  -1.498  -0.240  0.00  0.00    -0.033 A 
ATOM      2  C1  UNL d   1       1.823  -1.549  -1.469  0.00  0.00     0.039 A 
ATOM      3  C2  UNL d   1       0.835  -2.510  -1.693  0.00  0.00    -0.080 A 
ATOM      4  C3  UNL d   1       0.517  -3.412  -0.681  0.00  0.00     0.150 A 
ATOM      5  C4  UNL d   1       1.168  -3.364   0.547  0.00  0.00    -0.007 A 
ATOM      6  C5  UNL d   1       2.155  -2.405   0.768  0.00  0.00     0.039 A 
ENDROOT
BRANCH   4   7
ATOM      7  O   UNL d   1      -0.437  -4.371  -0.855  0.00  0.00    -0.526 OA
ATOM      8  H5  UNL d   1      -0.781  -4.302  -1.761  0.00  0.00     0.418 HD
ENDBRANCH   4   7
TORSDOF 1
ENDMDL
