MODEL 1
REMARK minimizedAffinity 3.7603488
REMARK minimizedRMSD -1
REMARK  1 active torsions:
REMARK  status: ('A' for Active; 'I' for Inactive)
REMARK    1  A    between atoms: C3_4  and  O_7 
ROOT
ATOM      1  C   UNL d   1       5.993   3.212   0.147  0.00  0.00    -0.033 A 
ATOM      2  C1  UNL d   1       5.484   3.044  -1.142  0.00  0.00     0.039 A 
ATOM      3  C2  UNL d   1       4.703   1.927  -1.447  0.00  0.00    -0.080 A 
ATOM      4  C3  UNL d   1       4.439   0.987  -0.454  0.00  0.00     0.150 A 
ATOM      5  C4  UNL d   1       4.940   1.150   0.833  0.00  0.00    -0.007 A 
ATOM      6  C5  UNL d   1       5.720   2.266   1.135  0.00  0.00     0.039 A 
ENDROOT
BRANCH   4   7
ATOM      7  O   UNL d   1       3.686  -0.121  -0.705  0.00  0.00    -0.526 OA
ATOM      8  H5  UNL d   1       3.432  -0.115  -1.643  0.00  0.00     0.418 HD
ENDBRANCH   4   7
TORSDOF 1
ENDMDL
