MODEL 1
REMARK minimizedAffinity 7.43224335
REMARK minimizedRMSD -1
REMARK  1 active torsions:
REMARK  status: ('A' for Active; 'I' for Inactive)
REMARK    1  A    between atoms: C3_4  and  O_7 
ROOT
ATOM      1  C   UNL d   1      -5.997   0.839  -1.465  0.00  0.00    -0.033 A 
ATOM      2  C1  UNL d   1      -5.852   1.575  -2.643  0.00  0.00     0.039 A 
ATOM      3  C2  UNL d   1      -4.627   1.591  -3.313  0.00  0.00    -0.080 A 
ATOM      4  C3  UNL d   1      -3.556   0.868  -2.795  0.00  0.00     0.150 A 
ATOM      5  C4  UNL d   1      -3.694   0.130  -1.624  0.00  0.00    -0.007 A 
ATOM      6  C5  UNL d   1      -4.918   0.116  -0.956  0.00  0.00     0.039 A 
ENDROOT
BRANCH   4   7
ATOM      7  O   UNL d   1      -2.340   0.857  -3.411  0.00  0.00    -0.526 OA
ATOM      8  H5  UNL d   1      -2.385   1.433  -4.192  0.00  0.00     0.418 HD
ENDBRANCH   4   7
TORSDOF 1
ENDMDL
