MODEL 1
REMARK minimizedAffinity 7.26447916
REMARK minimizedRMSD -1
REMARK  1 active torsions:
REMARK  status: ('A' for Active; 'I' for Inactive)
REMARK    1  A    between atoms: C3_4  and  O_7 
ROOT
ATOM      1  C   UNL d   1      -0.371   1.251   0.950  0.00  0.00    -0.033 A 
ATOM      2  C1  UNL d   1       0.800   1.308   1.708  0.00  0.00     0.039 A 
ATOM      3  C2  UNL d   1       1.203   2.514   2.283  0.00  0.00    -0.080 A 
ATOM      4  C3  UNL d   1       0.427   3.654   2.095  0.00  0.00     0.150 A 
ATOM      5  C4  UNL d   1      -0.743   3.604   1.344  0.00  0.00    -0.007 A 
ATOM      6  C5  UNL d   1      -1.143   2.399   0.769  0.00  0.00     0.039 A 
ENDROOT
BRANCH   4   7
ATOM      7  O   UNL d   1       0.783   4.855   2.633  0.00  0.00    -0.526 OA
ATOM      8  H5  UNL d   1       1.627   4.745   3.101  0.00  0.00     0.418 HD
ENDBRANCH   4   7
TORSDOF 1
ENDMDL
