MODEL 1
REMARK minimizedAffinity 2.85810304
REMARK minimizedRMSD -1
REMARK  1 active torsions:
REMARK  status: ('A' for Active; 'I' for Inactive)
REMARK    1  A    between atoms: C3_4  and  O_7 
ROOT
ATOM      1  C   UNL d   1       2.628  -3.447  -2.256  0.00  0.00    -0.033 A 
ATOM      2  C1  UNL d   1       3.376  -2.750  -3.206  0.00  0.00     0.039 A 
ATOM      3  C2  UNL d   1       3.928  -1.508  -2.887  0.00  0.00    -0.080 A 
ATOM      4  C3  UNL d   1       3.727  -0.976  -1.616  0.00  0.00     0.150 A 
ATOM      5  C4  UNL d   1       2.985  -1.667  -0.664  0.00  0.00    -0.007 A 
ATOM      6  C5  UNL d   1       2.434  -2.907  -0.984  0.00  0.00     0.039 A 
ENDROOT
BRANCH   4   7
ATOM      7  O   UNL d   1       4.242   0.235  -1.260  0.00  0.00    -0.526 OA
ATOM      8  H5  UNL d   1       4.706   0.610  -2.028  0.00  0.00     0.418 HD
ENDBRANCH   4   7
TORSDOF 1
ENDMDL
