MODEL 1
REMARK minimizedAffinity -5.2608633
REMARK minimizedRMSD -1
REMARK  0 active torsions:
REMARK  status: ('A' for Active; 'I' for Inactive)
ROOT
ATOM      1  C   UNL d   1       0.733  -2.452  -0.685  0.00  0.00    -0.002 A 
ATOM      2  C1  UNL d   1      -0.378  -1.660  -0.938  0.00  0.00     0.010 A 
ATOM      3  C2  UNL d   1      -0.319  -0.276  -0.760  0.00  0.00     0.041 A 
ATOM      4  C3  UNL d   1       0.887   0.304  -0.320  0.00  0.00    -0.075 A 
ATOM      5  S   UNL d   1       1.192   1.976  -0.033  0.00  0.00     0.015 SA
ATOM      6  C4  UNL d   1       2.805   1.679   0.432  0.00  0.00     0.022 A 
ATOM      7  C5  UNL d   1       3.119   0.341   0.375  0.00  0.00     0.026 A 
ATOM      8  C6  UNL d   1       2.019  -0.473  -0.059  0.00  0.00    -0.082 A 
ATOM      9  C7  UNL d   1       1.928  -1.873  -0.249  0.00  0.00     0.045 A 
ENDROOT
TORSDOF 0
ENDMDL
