MODEL 1
REMARK minimizedAffinity -2.22615242
REMARK minimizedRMSD -1
REMARK  0 active torsions:
REMARK  status: ('A' for Active; 'I' for Inactive)
ROOT
ATOM      1  C   UNL d   1       1.167  -2.759  -0.303  0.00  0.00    -0.002 A 
ATOM      2  C1  UNL d   1       2.187  -2.252   0.488  0.00  0.00     0.010 A 
ATOM      3  C2  UNL d   1       2.261  -0.884   0.762  0.00  0.00     0.041 A 
ATOM      4  C3  UNL d   1       1.281  -0.028   0.223  0.00  0.00    -0.075 A 
ATOM      5  S   UNL d   1       1.169   1.681   0.425  0.00  0.00     0.015 SA
ATOM      6  C4  UNL d   1      -0.236   1.777  -0.534  0.00  0.00     0.022 A 
ATOM      7  C5  UNL d   1      -0.624   0.546  -1.005  0.00  0.00     0.026 A 
ATOM      8  C6  UNL d   1       0.243  -0.515  -0.576  0.00  0.00    -0.082 A 
ATOM      9  C7  UNL d   1       0.197  -1.906  -0.836  0.00  0.00     0.045 A 
ENDROOT
TORSDOF 0
ENDMDL
