MODEL 1
REMARK minimizedAffinity -1.63914454
REMARK minimizedRMSD -1
REMARK  0 active torsions:
REMARK  status: ('A' for Active; 'I' for Inactive)
ROOT
ATOM      1  C   UNL d   1       2.246  -2.266  -0.383  0.00  0.00    -0.002 A 
ATOM      2  C1  UNL d   1       2.776  -1.218   0.356  0.00  0.00     0.010 A 
ATOM      3  C2  UNL d   1       1.989  -0.115   0.691  0.00  0.00     0.041 A 
ATOM      4  C3  UNL d   1       0.645  -0.083   0.268  0.00  0.00    -0.075 A 
ATOM      5  S   UNL d   1      -0.508   1.165   0.562  0.00  0.00     0.015 SA
ATOM      6  C4  UNL d   1      -1.732   0.336  -0.286  0.00  0.00     0.022 A 
ATOM      7  C5  UNL d   1      -1.289  -0.865  -0.788  0.00  0.00     0.026 A 
ATOM      8  C6  UNL d   1       0.088  -1.126  -0.477  0.00  0.00    -0.082 A 
ATOM      9  C7  UNL d   1       0.913  -2.230  -0.801  0.00  0.00     0.045 A 
ENDROOT
TORSDOF 0
ENDMDL
