MODEL 1
REMARK minimizedAffinity 1.29876256
REMARK minimizedRMSD -1
REMARK  0 active torsions:
REMARK  status: ('A' for Active; 'I' for Inactive)
ROOT
ATOM      1  C   UNL d   1      -0.285   1.752   0.325  0.00  0.00    -0.002 A 
ATOM      2  C1  UNL d   1       0.975   2.275   0.072  0.00  0.00     0.010 A 
ATOM      3  C2  UNL d   1       1.983   1.472  -0.466  0.00  0.00     0.041 A 
ATOM      4  C3  UNL d   1       1.699   0.122  -0.751  0.00  0.00    -0.075 A 
ATOM      5  S   UNL d   1       2.777  -1.049  -1.413  0.00  0.00     0.015 SA
ATOM      6  C4  UNL d   1       1.590  -2.272  -1.377  0.00  0.00     0.022 A 
ATOM      7  C5  UNL d   1       0.394  -1.815  -0.874  0.00  0.00     0.026 A 
ATOM      8  C6  UNL d   1       0.438  -0.428  -0.505  0.00  0.00    -0.082 A 
ATOM      9  C7  UNL d   1      -0.562   0.412   0.041  0.00  0.00     0.045 A 
ENDROOT
TORSDOF 0
ENDMDL
