MODEL 1
REMARK minimizedAffinity 14.5632944
REMARK minimizedRMSD -1
REMARK  3 active torsions:
REMARK  status: ('A' for Active; 'I' for Inactive)
REMARK    1  A    between atoms: C3'_2  and  C2'_3 
REMARK    2  A    between atoms: C2'_3  and  C1'_4 
REMARK    3  A    between atoms: C1'_4  and  C1_5 
ROOT
ATOM      1  C1  N4B d   1       2.052  -0.722   2.623  0.00  0.00    -0.075 A 
ATOM      2  C2  N4B d   1       1.676  -1.308   3.851  0.00  0.00     0.002 A 
ATOM      3  C3  N4B d   1       2.604  -1.991   4.599  0.00  0.00     0.002 A 
ATOM      4  C4  N4B d   1       3.904  -2.115   4.131  0.00  0.00    -0.004 A 
ATOM      5  C5  N4B d   1       4.265  -1.524   2.956  0.00  0.00     0.002 A 
ATOM      6  C6  N4B d   1       3.344  -0.832   2.196  0.00  0.00     0.002 A 
ENDROOT
BRANCH   1   7
ATOM      7  C1' N4B d   1       1.052  -0.039   1.730  0.00  0.00     0.057 C 
BRANCH   7   8
ATOM      8  C2' N4B d   1       0.450  -1.067   0.776  0.00  0.00     0.009 C 
BRANCH   8   9
ATOM      9  C3' N4B d   1      -1.022  -0.802   0.511  0.00  0.00     0.004 C 
ATOM     10  C4' N4B d   1      -1.674  -1.891  -0.288  0.00  0.00     0.003 C 
ENDBRANCH   8   9
ENDBRANCH   7   8
ENDBRANCH   1   7
TORSDOF 3
ENDMDL
