MODEL 1
REMARK minimizedAffinity 6.01071882
REMARK minimizedRMSD -1
REMARK  3 active torsions:
REMARK  status: ('A' for Active; 'I' for Inactive)
REMARK    1  A    between atoms: C3'_2  and  C2'_3 
REMARK    2  A    between atoms: C2'_3  and  C1'_4 
REMARK    3  A    between atoms: C1'_4  and  C1_5 
ROOT
ATOM      1  C1  N4B d   1       3.470  -2.090   4.204  0.00  0.00    -0.075 A 
ATOM      2  C2  N4B d   1       4.607  -1.690   3.469  0.00  0.00     0.002 A 
ATOM      3  C3  N4B d   1       5.859  -1.813   4.021  0.00  0.00     0.002 A 
ATOM      4  C4  N4B d   1       5.996  -2.314   5.307  0.00  0.00    -0.004 A 
ATOM      5  C5  N4B d   1       4.894  -2.722   6.000  0.00  0.00     0.002 A 
ATOM      6  C6  N4B d   1       3.630  -2.608   5.457  0.00  0.00     0.002 A 
ENDROOT
BRANCH   1   7
ATOM      7  C1' N4B d   1       2.074  -1.896   3.677  0.00  0.00     0.057 C 
BRANCH   7   8
ATOM      8  C2' N4B d   1       2.082  -0.774   2.643  0.00  0.00     0.009 C 
BRANCH   8   9
ATOM      9  C3' N4B d   1       1.465  -1.212   1.325  0.00  0.00     0.004 C 
ATOM     10  C4' N4B d   1       0.182  -0.498   1.020  0.00  0.00     0.003 C 
ENDBRANCH   8   9
ENDBRANCH   7   8
ENDBRANCH   1   7
TORSDOF 3
ENDMDL
