MODEL 1
REMARK minimizedAffinity 5.99046421
REMARK minimizedRMSD -1
REMARK  3 active torsions:
REMARK  status: ('A' for Active; 'I' for Inactive)
REMARK    1  A    between atoms: C3'_2  and  C2'_3 
REMARK    2  A    between atoms: C2'_3  and  C1'_4 
REMARK    3  A    between atoms: C1'_4  and  C1_5 
ROOT
ATOM      1  C1  N4B d   1       1.887  -2.203   3.536  0.00  0.00    -0.075 A 
ATOM      2  C2  N4B d   1       2.227  -1.202   4.473  0.00  0.00     0.002 A 
ATOM      3  C3  N4B d   1       2.653   0.029   4.037  0.00  0.00     0.002 A 
ATOM      4  C4  N4B d   1       2.764   0.274   2.677  0.00  0.00    -0.004 A 
ATOM      5  C5  N4B d   1       2.410  -0.689   1.779  0.00  0.00     0.002 A 
ATOM      6  C6  N4B d   1       1.976  -1.930   2.202  0.00  0.00     0.002 A 
ENDROOT
BRANCH   1   7
ATOM      7  C1' N4B d   1       1.499  -3.592   3.964  0.00  0.00     0.057 C 
BRANCH   7   8
ATOM      8  C2' N4B d   1       0.756  -3.517   5.295  0.00  0.00     0.009 C 
BRANCH   8   9
ATOM      9  C3' N4B d   1       0.448  -4.896   5.853  0.00  0.00     0.004 C 
ATOM     10  C4' N4B d   1       0.771  -5.998   4.888  0.00  0.00     0.003 C 
ENDBRANCH   8   9
ENDBRANCH   7   8
ENDBRANCH   1   7
TORSDOF 3
ENDMDL
