MODEL 1
REMARK minimizedAffinity 8.59683609
REMARK minimizedRMSD -1
REMARK  3 active torsions:
REMARK  status: ('A' for Active; 'I' for Inactive)
REMARK    1  A    between atoms: C3'_2  and  C2'_3 
REMARK    2  A    between atoms: C2'_3  and  C1'_4 
REMARK    3  A    between atoms: C1'_4  and  C1_5 
ROOT
ATOM      1  C1  N4B d   1       2.350  -0.869   3.344  0.00  0.00    -0.075 A 
ATOM      2  C2  N4B d   1       3.702  -1.031   3.717  0.00  0.00     0.002 A 
ATOM      3  C3  N4B d   1       4.055  -2.014   4.609  0.00  0.00     0.002 A 
ATOM      4  C4  N4B d   1       3.076  -2.831   5.153  0.00  0.00    -0.004 A 
ATOM      5  C5  N4B d   1       1.775  -2.684   4.768  0.00  0.00     0.002 A 
ATOM      6  C6  N4B d   1       1.406  -1.704   3.869  0.00  0.00     0.002 A 
ENDROOT
BRANCH   1   7
ATOM      7  C1' N4B d   1       1.904   0.246   2.438  0.00  0.00     0.057 C 
BRANCH   7   8
ATOM      8  C2' N4B d   1       2.688   1.510   2.777  0.00  0.00     0.009 C 
BRANCH   8   9
ATOM      9  C3' N4B d   1       2.330   2.050   4.151  0.00  0.00     0.004 C 
ATOM     10  C4' N4B d   1       3.061   3.316   4.487  0.00  0.00     0.003 C 
ENDBRANCH   8   9
ENDBRANCH   7   8
ENDBRANCH   1   7
TORSDOF 3
ENDMDL
