MODEL 1
REMARK minimizedAffinity -2.88402534
REMARK minimizedRMSD -1
REMARK  0 active torsions:
REMARK  status: ('A' for Active; 'I' for Inactive)
ROOT
ATOM      1  C1  BNZ d   1      -5.997  -3.764  -4.048  0.00  0.00     0.000 A 
ATOM      2  C2  BNZ d   1      -5.537  -3.782  -2.759  0.00  0.00     0.000 A 
ATOM      3  C3  BNZ d   1      -4.929  -4.895  -2.248  0.00  0.00     0.000 A 
ATOM      4  C4  BNZ d   1      -4.818  -6.000  -3.014  0.00  0.00     0.000 A 
ATOM      5  C5  BNZ d   1      -5.285  -6.000  -4.313  0.00  0.00     0.000 A 
ATOM      6  C6  BNZ d   1      -5.862  -4.865  -4.836  0.00  0.00     0.000 A 
ENDROOT
TORSDOF 0
ENDMDL
