MODEL 1
REMARK minimizedAffinity -1.79931009
REMARK minimizedRMSD -1
REMARK  0 active torsions:
REMARK  status: ('A' for Active; 'I' for Inactive)
ROOT
ATOM      1  C1  BNZ d   1       4.536  -1.483  -4.473  0.00  0.00     0.000 A 
ATOM      2  C2  BNZ d   1       3.748  -0.362  -4.476  0.00  0.00     0.000 A 
ATOM      3  C3  BNZ d   1       4.066   0.715  -5.255  0.00  0.00     0.000 A 
ATOM      4  C4  BNZ d   1       5.190   0.686  -5.999  0.00  0.00     0.000 A 
ATOM      5  C5  BNZ d   1       6.000  -0.432  -6.000  0.00  0.00     0.000 A 
ATOM      6  C6  BNZ d   1       5.656  -1.529  -5.244  0.00  0.00     0.000 A 
ENDROOT
TORSDOF 0
ENDMDL
