MODEL 1
REMARK minimizedAffinity -2.93105769
REMARK minimizedRMSD -1
REMARK  0 active torsions:
REMARK  status: ('A' for Active; 'I' for Inactive)
ROOT
ATOM      1  C1  BNZ d   1       5.999  -0.289  -5.136  0.00  0.00     0.000 A 
ATOM      2  C2  BNZ d   1       5.912   0.784  -5.982  0.00  0.00     0.000 A 
ATOM      3  C3  BNZ d   1       4.796   1.572  -6.000  0.00  0.00     0.000 A 
ATOM      4  C4  BNZ d   1       3.753   1.263  -5.201  0.00  0.00     0.000 A 
ATOM      5  C5  BNZ d   1       3.822   0.179  -4.349  0.00  0.00     0.000 A 
ATOM      6  C6  BNZ d   1       4.963  -0.589  -4.306  0.00  0.00     0.000 A 
ENDROOT
TORSDOF 0
ENDMDL
