MODEL 1
REMARK minimizedAffinity -3.53323579
REMARK minimizedRMSD -1
REMARK  0 active torsions:
REMARK  status: ('A' for Active; 'I' for Inactive)
ROOT
ATOM      1  C1  BNZ d   1      -5.651  -4.345  -3.363  0.00  0.00     0.000 A 
ATOM      2  C2  BNZ d   1      -5.891  -3.397  -4.322  0.00  0.00     0.000 A 
ATOM      3  C3  BNZ d   1      -6.000  -3.746  -5.639  0.00  0.00     0.000 A 
ATOM      4  C4  BNZ d   1      -5.829  -5.034  -6.000  0.00  0.00     0.000 A 
ATOM      5  C5  BNZ d   1      -5.577  -6.000  -5.046  0.00  0.00     0.000 A 
ATOM      6  C6  BNZ d   1      -5.507  -5.651  -3.716  0.00  0.00     0.000 A 
ENDROOT
TORSDOF 0
ENDMDL
