MODEL 1
REMARK minimizedAffinity 0.950463355
REMARK minimizedRMSD -1
REMARK  0 active torsions:
REMARK  status: ('A' for Active; 'I' for Inactive)
ROOT
ATOM      1  C1  BNZ d   1       5.141  -0.499  -3.870  0.00  0.00     0.000 A 
ATOM      2  C2  BNZ d   1       4.027   0.298  -3.888  0.00  0.00     0.000 A 
ATOM      3  C3  BNZ d   1       3.756   1.097  -4.963  0.00  0.00     0.000 A 
ATOM      4  C4  BNZ d   1       4.617   1.129  -6.000  0.00  0.00     0.000 A 
ATOM      5  C5  BNZ d   1       5.750   0.339  -5.992  0.00  0.00     0.000 A 
ATOM      6  C6  BNZ d   1       6.000  -0.494  -4.925  0.00  0.00     0.000 A 
ENDROOT
TORSDOF 0
ENDMDL
