MODEL 1
REMARK minimizedAffinity -2.89911985
REMARK minimizedRMSD -1
REMARK  0 active torsions:
REMARK  status: ('A' for Active; 'I' for Inactive)
ROOT
ATOM      1  C1  BNZ d   1      -6.000  -3.783  -4.259  0.00  0.00     0.000 A 
ATOM      2  C2  BNZ d   1      -5.877  -4.081  -5.591  0.00  0.00     0.000 A 
ATOM      3  C3  BNZ d   1      -5.208  -5.201  -5.999  0.00  0.00     0.000 A 
ATOM      4  C4  BNZ d   1      -4.629  -5.999  -5.079  0.00  0.00     0.000 A 
ATOM      5  C5  BNZ d   1      -4.735  -5.707  -3.733  0.00  0.00     0.000 A 
ATOM      6  C6  BNZ d   1      -5.443  -4.600  -3.324  0.00  0.00     0.000 A 
ENDROOT
TORSDOF 0
ENDMDL
