MODEL 1
REMARK minimizedAffinity -0.287938327
REMARK minimizedRMSD -1
REMARK  0 active torsions:
REMARK  status: ('A' for Active; 'I' for Inactive)
ROOT
ATOM      1  C1  BNZ d   1       0.728   4.623  -1.450  0.00  0.00     0.000 A 
ATOM      2  C2  BNZ d   1       1.547   4.298  -0.402  0.00  0.00     0.000 A 
ATOM      3  C3  BNZ d   1       1.210   3.297   0.465  0.00  0.00     0.000 A 
ATOM      4  C4  BNZ d   1       0.037   2.649   0.307  0.00  0.00     0.000 A 
ATOM      5  C5  BNZ d   1      -0.804   2.972  -0.740  0.00  0.00     0.000 A 
ATOM      6  C6  BNZ d   1      -0.443   3.954  -1.633  0.00  0.00     0.000 A 
ENDROOT
TORSDOF 0
ENDMDL
