MODEL 1
REMARK minimizedAffinity -2.37068605
REMARK minimizedRMSD -1
REMARK  0 active torsions:
REMARK  status: ('A' for Active; 'I' for Inactive)
ROOT
ATOM      1  C1  BNZ d   1      -5.267  -3.635  -2.974  0.00  0.00     0.000 A 
ATOM      2  C2  BNZ d   1      -4.885  -4.823  -2.410  0.00  0.00     0.000 A 
ATOM      3  C3  BNZ d   1      -5.033  -6.000  -3.089  0.00  0.00     0.000 A 
ATOM      4  C4  BNZ d   1      -5.599  -5.992  -4.314  0.00  0.00     0.000 A 
ATOM      5  C5  BNZ d   1      -5.998  -4.804  -4.892  0.00  0.00     0.000 A 
ATOM      6  C6  BNZ d   1      -5.812  -3.617  -4.222  0.00  0.00     0.000 A 
ENDROOT
TORSDOF 0
ENDMDL
