MODEL 1
REMARK minimizedAffinity -3.23988318
REMARK minimizedRMSD -1
REMARK  0 active torsions:
REMARK  status: ('A' for Active; 'I' for Inactive)
ROOT
ATOM      1  C1  BNZ d   1      -5.991  -3.818  -3.872  0.00  0.00     0.000 A 
ATOM      2  C2  BNZ d   1      -5.849  -3.833  -5.234  0.00  0.00     0.000 A 
ATOM      3  C3  BNZ d   1      -5.349  -4.933  -5.873  0.00  0.00     0.000 A 
ATOM      4  C4  BNZ d   1      -4.955  -6.000  -5.147  0.00  0.00     0.000 A 
ATOM      5  C5  BNZ d   1      -5.083  -5.996  -3.773  0.00  0.00     0.000 A 
ATOM      6  C6  BNZ d   1      -5.623  -4.902  -3.136  0.00  0.00     0.000 A 
ENDROOT
TORSDOF 0
ENDMDL
