MODEL 1
REMARK minimizedAffinity -2.52213788
REMARK minimizedRMSD -1
REMARK  0 active torsions:
REMARK  status: ('A' for Active; 'I' for Inactive)
ROOT
ATOM      1  C1  BNZ d   1       5.999  -0.773  -4.206  0.00  0.00     0.000 A 
ATOM      2  C2  BNZ d   1       5.212  -0.386  -3.154  0.00  0.00     0.000 A 
ATOM      3  C3  BNZ d   1       4.402   0.711  -3.252  0.00  0.00     0.000 A 
ATOM      4  C4  BNZ d   1       4.410   1.441  -4.386  0.00  0.00     0.000 A 
ATOM      5  C5  BNZ d   1       5.204   1.069  -5.452  0.00  0.00     0.000 A 
ATOM      6  C6  BNZ d   1       5.989  -0.058  -5.364  0.00  0.00     0.000 A 
ENDROOT
TORSDOF 0
ENDMDL
