MODEL 1
REMARK minimizedAffinity 8.42676544
REMARK minimizedRMSD -1
REMARK  0 active torsions:
REMARK  status: ('A' for Active; 'I' for Inactive)
ROOT
ATOM      1  C2' OXE d   1      -1.492   0.116  -0.648  0.00  0.00     0.078 C 
ATOM      2  C1' OXE d   1       0.558   1.835   0.204  0.00  0.00     0.078 C 
ATOM      3  C1  OXE d   1       0.942   0.442  -0.228  0.00  0.00    -0.078 A 
ATOM      4  C2  OXE d   1      -0.073  -0.407  -0.599  0.00  0.00    -0.078 A 
ATOM      5  C3  OXE d   1       0.232  -1.686  -1.058  0.00  0.00     0.003 A 
ATOM      6  C4  OXE d   1       1.546  -2.166  -1.000  0.00  0.00    -0.002 A 
ATOM      7  C5  OXE d   1       2.589  -1.330  -0.587  0.00  0.00    -0.002 A 
ATOM      8  C6  OXE d   1       2.310  -0.013  -0.240  0.00  0.00     0.003 A 
ENDROOT
TORSDOF 0
ENDMDL
