MODEL 1
REMARK minimizedAffinity 10.9892654
REMARK minimizedRMSD -1
REMARK  0 active torsions:
REMARK  status: ('A' for Active; 'I' for Inactive)
ROOT
ATOM      1  C2' OXE d   1       1.944  -1.852   0.044  0.00  0.00     0.078 C 
ATOM      2  C1' OXE d   1       1.011   0.706   0.726  0.00  0.00     0.078 C 
ATOM      3  C1  OXE d   1       0.116  -0.167  -0.118  0.00  0.00    -0.078 A 
ATOM      4  C2  OXE d   1       0.600  -1.400  -0.486  0.00  0.00    -0.078 A 
ATOM      5  C3  OXE d   1      -0.206  -2.266  -1.218  0.00  0.00     0.003 A 
ATOM      6  C4  OXE d   1      -1.443  -1.836  -1.713  0.00  0.00    -0.002 A 
ATOM      7  C5  OXE d   1      -1.938  -0.570  -1.383  0.00  0.00    -0.002 A 
ATOM      8  C6  OXE d   1      -1.191   0.259  -0.553  0.00  0.00     0.003 A 
ENDROOT
TORSDOF 0
ENDMDL
