MODEL 1
REMARK minimizedAffinity -2.7376709
REMARK minimizedRMSD -1
REMARK  0 active torsions:
REMARK  status: ('A' for Active; 'I' for Inactive)
ROOT
ATOM      1  C2' OXE d   1       2.201  -1.772  -0.065  0.00  0.00     0.078 C 
ATOM      2  C1' OXE d   1      -0.166  -2.520  -1.376  0.00  0.00     0.078 C 
ATOM      3  C1  OXE d   1      -0.077  -1.116  -0.830  0.00  0.00    -0.078 A 
ATOM      4  C2  OXE d   1       1.067  -0.774  -0.150  0.00  0.00    -0.078 A 
ATOM      5  C3  OXE d   1       1.223   0.525   0.326  0.00  0.00     0.003 A 
ATOM      6  C4  OXE d   1       0.165   1.438   0.253  0.00  0.00    -0.002 A 
ATOM      7  C5  OXE d   1      -1.024   1.097  -0.401  0.00  0.00    -0.002 A 
ATOM      8  C6  OXE d   1      -1.144  -0.159  -0.984  0.00  0.00     0.003 A 
ENDROOT
TORSDOF 0
ENDMDL
