MODEL 1
REMARK minimizedAffinity -5.03830147
REMARK minimizedRMSD -1
REMARK  0 active torsions:
REMARK  status: ('A' for Active; 'I' for Inactive)
ROOT
ATOM      1  C2' OXE d   1       2.117  -2.217  -0.028  0.00  0.00     0.078 C 
ATOM      2  C1' OXE d   1      -0.387  -2.454  -1.276  0.00  0.00     0.078 C 
ATOM      3  C1  OXE d   1      -0.005  -1.107  -0.715  0.00  0.00    -0.078 A 
ATOM      4  C2  OXE d   1       1.202  -1.012  -0.065  0.00  0.00    -0.078 A 
ATOM      5  C3  OXE d   1       1.627   0.221   0.422  0.00  0.00     0.003 A 
ATOM      6  C4  OXE d   1       0.771   1.328   0.393  0.00  0.00    -0.002 A 
ATOM      7  C5  OXE d   1      -0.479   1.242  -0.229  0.00  0.00    -0.002 A 
ATOM      8  C6  OXE d   1      -0.864   0.046  -0.825  0.00  0.00     0.003 A 
ENDROOT
TORSDOF 0
ENDMDL
