MODEL 1
REMARK minimizedAffinity 8.34991455
REMARK minimizedRMSD -1
REMARK  0 active torsions:
REMARK  status: ('A' for Active; 'I' for Inactive)
ROOT
ATOM      1  C2' OXE d   1       0.588  -2.891  -0.671  0.00  0.00     0.078 C 
ATOM      2  C1' OXE d   1       1.579  -0.328  -0.098  0.00  0.00     0.078 C 
ATOM      3  C1  OXE d   1       2.378  -1.197  -1.036  0.00  0.00    -0.078 A 
ATOM      4  C2  OXE d   1       1.910  -2.467  -1.275  0.00  0.00    -0.078 A 
ATOM      5  C3  OXE d   1       2.579  -3.290  -2.175  0.00  0.00     0.003 A 
ATOM      6  C4  OXE d   1       3.806  -2.894  -2.721  0.00  0.00    -0.002 A 
ATOM      7  C5  OXE d   1       4.321  -1.620  -2.460  0.00  0.00    -0.002 A 
ATOM      8  C6  OXE d   1       3.599  -0.745  -1.656  0.00  0.00     0.003 A 
ENDROOT
TORSDOF 0
ENDMDL
