MODEL 1
REMARK minimizedAffinity 10.0721331
REMARK minimizedRMSD -1
REMARK  0 active torsions:
REMARK  status: ('A' for Active; 'I' for Inactive)
ROOT
ATOM      1  C2' OXE d   1      -0.470  -2.817  -1.903  0.00  0.00     0.078 C 
ATOM      2  C1' OXE d   1       1.749  -2.368  -0.244  0.00  0.00     0.078 C 
ATOM      3  C1  OXE d   1       0.762  -1.241  -0.418  0.00  0.00    -0.078 A 
ATOM      4  C2  OXE d   1      -0.296  -1.454  -1.269  0.00  0.00    -0.078 A 
ATOM      5  C3  OXE d   1      -1.265  -0.467  -1.424  0.00  0.00     0.003 A 
ATOM      6  C4  OXE d   1      -1.092   0.795  -0.841  0.00  0.00    -0.002 A 
ATOM      7  C5  OXE d   1      -0.000   1.045  -0.003  0.00  0.00    -0.002 A 
ATOM      8  C6  OXE d   1       0.911   0.026   0.253  0.00  0.00     0.003 A 
ENDROOT
TORSDOF 0
ENDMDL
