MODEL 1
REMARK minimizedAffinity 5.06299257
REMARK minimizedRMSD -1
REMARK  0 active torsions:
REMARK  status: ('A' for Active; 'I' for Inactive)
ROOT
ATOM      1  C2' OXE d   1       1.119   0.428   0.168  0.00  0.00     0.078 C 
ATOM      2  C1' OXE d   1       0.615  -2.225  -0.597  0.00  0.00     0.078 C 
ATOM      3  C1  OXE d   1       1.912  -1.599  -1.043  0.00  0.00    -0.078 A 
ATOM      4  C2  OXE d   1       2.130  -0.285  -0.704  0.00  0.00    -0.078 A 
ATOM      5  C3  OXE d   1       3.334   0.325  -1.043  0.00  0.00     0.003 A 
ATOM      6  C4  OXE d   1       4.259  -0.339  -1.858  0.00  0.00    -0.002 A 
ATOM      7  C5  OXE d   1       4.040  -1.664  -2.248  0.00  0.00    -0.002 A 
ATOM      8  C6  OXE d   1       2.893  -2.321  -1.815  0.00  0.00     0.003 A 
ENDROOT
TORSDOF 0
ENDMDL
