MODEL 1
REMARK minimizedAffinity 10.9524603
REMARK minimizedRMSD -1
REMARK  0 active torsions:
REMARK  status: ('A' for Active; 'I' for Inactive)
ROOT
ATOM      1  C2' OXE d   1       1.099  -2.922  -0.230  0.00  0.00     0.078 C 
ATOM      2  C1' OXE d   1      -0.148  -1.952  -2.550  0.00  0.00     0.078 C 
ATOM      3  C1  OXE d   1      -0.565  -3.310  -2.043  0.00  0.00    -0.078 A 
ATOM      4  C2  OXE d   1       0.084  -3.797  -0.934  0.00  0.00    -0.078 A 
ATOM      5  C3  OXE d   1      -0.301  -5.020  -0.392  0.00  0.00     0.003 A 
ATOM      6  C4  OXE d   1      -1.233  -5.827  -1.054  0.00  0.00    -0.002 A 
ATOM      7  C5  OXE d   1      -1.877  -5.367  -2.208  0.00  0.00    -0.002 A 
ATOM      8  C6  OXE d   1      -1.586  -4.096  -2.690  0.00  0.00     0.003 A 
ENDROOT
TORSDOF 0
ENDMDL
