MODEL 1
REMARK minimizedAffinity -5.90548229
REMARK minimizedRMSD -1
REMARK  0 active torsions:
REMARK  status: ('A' for Active; 'I' for Inactive)
ROOT
ATOM      1  C4' PXY d   1       0.685  -1.074  -0.574  0.00  0.00     0.077 C 
ATOM      2  C1' PXY d   1      -2.062   3.646   1.321  0.00  0.00     0.077 C 
ATOM      3  C1  PXY d   1      -1.340   2.404   0.836  0.00  0.00    -0.082 A 
ATOM      4  C2  PXY d   1      -0.722   2.421  -0.333  0.00  0.00     0.003 A 
ATOM      5  C3  PXY d   1      -0.092   1.297  -0.801  0.00  0.00     0.003 A 
ATOM      6  C4  PXY d   1      -0.048   0.159  -0.040  0.00  0.00    -0.082 A 
ATOM      7  C5  PXY d   1      -0.668   0.137   1.159  0.00  0.00     0.003 A 
ATOM      8  C6  PXY d   1      -1.337   1.276   1.598  0.00  0.00     0.003 A 
ENDROOT
TORSDOF 0
ENDMDL
