MODEL 1
REMARK minimizedAffinity -4.53349066
REMARK minimizedRMSD -1
REMARK  0 active torsions:
REMARK  status: ('A' for Active; 'I' for Inactive)
ROOT
ATOM      1  C4' PXY d   1       0.941  -2.242  -2.209  0.00  0.00     0.077 C 
ATOM      2  C1' PXY d   1      -1.300   1.172   1.882  0.00  0.00     0.077 C 
ATOM      3  C1  PXY d   1      -0.724   0.277   0.803  0.00  0.00    -0.082 A 
ATOM      4  C2  PXY d   1       0.322  -0.486   1.075  0.00  0.00     0.003 A 
ATOM      5  C3  PXY d   1       0.875  -1.278   0.102  0.00  0.00     0.003 A 
ATOM      6  C4  PXY d   1       0.320  -1.330  -1.148  0.00  0.00    -0.082 A 
ATOM      7  C5  PXY d   1      -0.754  -0.562  -1.431  0.00  0.00     0.003 A 
ATOM      8  C6  PXY d   1      -1.275   0.266  -0.441  0.00  0.00     0.003 A 
ENDROOT
TORSDOF 0
ENDMDL
