MODEL 1
REMARK minimizedAffinity -4.94829845
REMARK minimizedRMSD -1
REMARK  0 active torsions:
REMARK  status: ('A' for Active; 'I' for Inactive)
ROOT
ATOM      1  C4' PXY d   1      -2.098   2.150   1.492  0.00  0.00     0.077 C 
ATOM      2  C1' PXY d   1       1.439  -1.628  -1.084  0.00  0.00     0.077 C 
ATOM      3  C1  PXY d   1       0.507  -0.647  -0.400  0.00  0.00    -0.082 A 
ATOM      4  C2  PXY d   1       0.078   0.416  -1.061  0.00  0.00     0.003 A 
ATOM      5  C3  PXY d   1      -0.739   1.331  -0.447  0.00  0.00     0.003 A 
ATOM      6  C4  PXY d   1      -1.164   1.128   0.839  0.00  0.00    -0.082 A 
ATOM      7  C5  PXY d   1      -0.739   0.040   1.516  0.00  0.00     0.003 A 
ATOM      8  C6  PXY d   1       0.123  -0.855   0.889  0.00  0.00     0.003 A 
ENDROOT
TORSDOF 0
ENDMDL
