MODEL 1
REMARK minimizedAffinity -3.17779422
REMARK minimizedRMSD -1
REMARK  0 active torsions:
REMARK  status: ('A' for Active; 'I' for Inactive)
ROOT
ATOM      1  C4' PXY d   1       1.600  -2.277  -1.284  0.00  0.00     0.077 C 
ATOM      2  C1' PXY d   1      -1.377   1.531   1.885  0.00  0.00     0.077 C 
ATOM      3  C1  PXY d   1      -0.597   0.541   1.044  0.00  0.00    -0.082 A 
ATOM      4  C2  PXY d   1      -0.613  -0.743   1.363  0.00  0.00     0.003 A 
ATOM      5  C3  PXY d   1       0.112  -1.649   0.632  0.00  0.00     0.003 A 
ATOM      6  C4  PXY d   1       0.819  -1.243  -0.469  0.00  0.00    -0.082 A 
ATOM      7  C5  PXY d   1       0.832   0.064  -0.806  0.00  0.00     0.003 A 
ATOM      8  C6  PXY d   1       0.122   0.973  -0.027  0.00  0.00     0.003 A 
ENDROOT
TORSDOF 0
ENDMDL
