MODEL 1
REMARK minimizedAffinity -4.89949131
REMARK minimizedRMSD -1
REMARK  0 active torsions:
REMARK  status: ('A' for Active; 'I' for Inactive)
ROOT
ATOM      1  C4' PXY d   1      -3.042   2.167   0.900  0.00  0.00     0.077 C 
ATOM      2  C1' PXY d   1       1.569  -1.125  -0.248  0.00  0.00     0.077 C 
ATOM      3  C1  PXY d   1       0.359  -0.267   0.065  0.00  0.00    -0.082 A 
ATOM      4  C2  PXY d   1      -0.404   0.172  -0.922  0.00  0.00     0.003 A 
ATOM      5  C3  PXY d   1      -1.484   0.976  -0.659  0.00  0.00     0.003 A 
ATOM      6  C4  PXY d   1      -1.816   1.290   0.631  0.00  0.00    -0.082 A 
ATOM      7  C5  PXY d   1      -1.048   0.837   1.645  0.00  0.00     0.003 A 
ATOM      8  C6  PXY d   1       0.067   0.056   1.354  0.00  0.00     0.003 A 
ENDROOT
TORSDOF 0
ENDMDL
