MODEL 1
REMARK minimizedAffinity -4.65112352
REMARK minimizedRMSD -1
REMARK  0 active torsions:
REMARK  status: ('A' for Active; 'I' for Inactive)
ROOT
ATOM      1  C4' PXY d   1       1.610  -1.211  -0.756  0.00  0.00     0.077 C 
ATOM      2  C1' PXY d   1      -2.535   2.201   1.389  0.00  0.00     0.077 C 
ATOM      3  C1  PXY d   1      -1.445   1.301   0.838  0.00  0.00    -0.082 A 
ATOM      4  C2  PXY d   1      -0.844   1.621  -0.296  0.00  0.00     0.003 A 
ATOM      5  C3  PXY d   1       0.120   0.803  -0.825  0.00  0.00     0.003 A 
ATOM      6  C4  PXY d   1       0.511  -0.327  -0.158  0.00  0.00    -0.082 A 
ATOM      7  C5  PXY d   1      -0.089  -0.655   1.005  0.00  0.00     0.003 A 
ATOM      8  C6  PXY d   1      -1.095   0.168   1.504  0.00  0.00     0.003 A 
ENDROOT
TORSDOF 0
ENDMDL
