MODEL 1
REMARK minimizedAffinity -4.26230955
REMARK minimizedRMSD -1
REMARK  0 active torsions:
REMARK  status: ('A' for Active; 'I' for Inactive)
ROOT
ATOM      1  C4' PXY d   1       0.829  -1.800  -1.275  0.00  0.00     0.077 C 
ATOM      2  C1' PXY d   1      -2.147   1.970   1.940  0.00  0.00     0.077 C 
ATOM      3  C1  PXY d   1      -1.373   0.986   1.086  0.00  0.00    -0.082 A 
ATOM      4  C2  PXY d   1      -0.875  -0.109   1.638  0.00  0.00     0.003 A 
ATOM      5  C3  PXY d   1      -0.145  -0.994   0.888  0.00  0.00     0.003 A 
ATOM      6  C4  PXY d   1       0.032  -0.783  -0.454  0.00  0.00    -0.082 A 
ATOM      7  C5  PXY d   1      -0.481   0.326  -1.027  0.00  0.00     0.003 A 
ATOM      8  C6  PXY d   1      -1.184   1.233  -0.238  0.00  0.00     0.003 A 
ENDROOT
TORSDOF 0
ENDMDL
