MODEL 1
REMARK minimizedAffinity -4.82299089
REMARK minimizedRMSD -1
REMARK  0 active torsions:
REMARK  status: ('A' for Active; 'I' for Inactive)
ROOT
ATOM      1  C4' PXY d   1       1.084  -1.233  -1.390  0.00  0.00     0.077 C 
ATOM      2  C1' PXY d   1      -2.289   2.248   1.760  0.00  0.00     0.077 C 
ATOM      3  C1  PXY d   1      -1.407   1.342   0.923  0.00  0.00    -0.082 A 
ATOM      4  C2  PXY d   1      -1.172   0.104   1.326  0.00  0.00     0.003 A 
ATOM      5  C3  PXY d   1      -0.351  -0.718   0.598  0.00  0.00     0.003 A 
ATOM      6  C4  PXY d   1       0.192  -0.286  -0.582  0.00  0.00    -0.082 A 
ATOM      7  C5  PXY d   1      -0.051   0.972  -1.005  0.00  0.00     0.003 A 
ATOM      8  C6  PXY d   1      -0.854   1.805  -0.231  0.00  0.00     0.003 A 
ENDROOT
TORSDOF 0
ENDMDL
