MODEL 1
REMARK minimizedAffinity -0.528808117
REMARK minimizedRMSD -1
REMARK  0 active torsions:
REMARK  status: ('A' for Active; 'I' for Inactive)
ROOT
ATOM      1  C4' PXY d   1       0.019   2.432  -2.273  0.00  0.00     0.077 C 
ATOM      2  C1' PXY d   1       0.168  -1.114   2.289  0.00  0.00     0.077 C 
ATOM      3  C1  PXY d   1       0.141  -0.188   1.089  0.00  0.00    -0.082 A 
ATOM      4  C2  PXY d   1      -0.640   0.880   1.104  0.00  0.00     0.003 A 
ATOM      5  C3  PXY d   1      -0.701   1.710   0.015  0.00  0.00     0.003 A 
ATOM      6  C4  PXY d   1       0.086   1.475  -1.081  0.00  0.00    -0.082 A 
ATOM      7  C5  PXY d   1       0.893   0.393  -1.100  0.00  0.00     0.003 A 
ATOM      8  C6  PXY d   1       0.910  -0.460  -0.000  0.00  0.00     0.003 A 
ENDROOT
TORSDOF 0
ENDMDL
