MODEL 1
REMARK minimizedAffinity -0.923847675
REMARK minimizedRMSD -1
REMARK  0 active torsions:
REMARK  status: ('A' for Active; 'I' for Inactive)
ROOT
ATOM      1  C4' PXY d   1       1.301  -3.856  -1.268  0.00  0.00     0.077 C 
ATOM      2  C1' PXY d   1       0.275   1.833  -1.204  0.00  0.00     0.077 C 
ATOM      3  C1  PXY d   1       0.537   0.340  -1.232  0.00  0.00    -0.082 A 
ATOM      4  C2  PXY d   1       0.810  -0.297  -0.105  0.00  0.00     0.003 A 
ATOM      5  C3  PXY d   1       1.081  -1.642  -0.116  0.00  0.00     0.003 A 
ATOM      6  C4  PXY d   1       1.021  -2.350  -1.286  0.00  0.00    -0.082 A 
ATOM      7  C5  PXY d   1       0.733  -1.709  -2.438  0.00  0.00     0.003 A 
ATOM      8  C6  PXY d   1       0.501  -0.337  -2.411  0.00  0.00     0.003 A 
ENDROOT
TORSDOF 0
ENDMDL
