MODEL 1
REMARK minimizedAffinity -3.62680054
REMARK minimizedRMSD -1
REMARK  0 active torsions:
REMARK  status: ('A' for Active; 'I' for Inactive)
ROOT
ATOM      1  C4' PXY d   1       1.208  -2.539  -1.397  0.00  0.00     0.077 C 
ATOM      2  C1' PXY d   1      -1.180   1.672   1.763  0.00  0.00     0.077 C 
ATOM      3  C1  PXY d   1      -0.556   0.574   0.924  0.00  0.00    -0.082 A 
ATOM      4  C2  PXY d   1      -0.481  -0.655   1.406  0.00  0.00     0.003 A 
ATOM      5  C3  PXY d   1       0.108  -1.653   0.673  0.00  0.00     0.003 A 
ATOM      6  C4  PXY d   1       0.578  -1.401  -0.588  0.00  0.00    -0.082 A 
ATOM      7  C5  PXY d   1       0.496  -0.151  -1.092  0.00  0.00     0.003 A 
ATOM      8  C6  PXY d   1      -0.069   0.856  -0.315  0.00  0.00     0.003 A 
ENDROOT
TORSDOF 0
ENDMDL
