MODEL 1
REMARK minimizedAffinity -5.16811466
REMARK minimizedRMSD -1
REMARK  0 active torsions:
REMARK  status: ('A' for Active; 'I' for Inactive)
ROOT
ATOM      1  C4' PXY d   1       1.332  -1.247  -0.676  0.00  0.00     0.077 C 
ATOM      2  C1' PXY d   1      -2.228   2.852   1.306  0.00  0.00     0.077 C 
ATOM      3  C1  PXY d   1      -1.292   1.773   0.799  0.00  0.00    -0.082 A 
ATOM      4  C2  PXY d   1      -0.696   1.922  -0.373  0.00  0.00     0.003 A 
ATOM      5  C3  PXY d   1       0.128   0.942  -0.862  0.00  0.00     0.003 A 
ATOM      6  C4  PXY d   1       0.387  -0.179  -0.120  0.00  0.00    -0.082 A 
ATOM      7  C5  PXY d   1      -0.209  -0.334   1.081  0.00  0.00     0.003 A 
ATOM      8  C6  PXY d   1      -1.075   0.654   1.541  0.00  0.00     0.003 A 
ENDROOT
TORSDOF 0
ENDMDL
