MODEL 1
REMARK minimizedAffinity -3.98742247
REMARK minimizedRMSD -1
REMARK  0 active torsions:
REMARK  status: ('A' for Active; 'I' for Inactive)
ROOT
ATOM      1  C4' PXY d   1       1.323  -1.825  -0.762  0.00  0.00     0.077 C 
ATOM      2  C1' PXY d   1      -2.314   2.065   1.485  0.00  0.00     0.077 C 
ATOM      3  C1  PXY d   1      -1.362   1.049   0.884  0.00  0.00    -0.082 A 
ATOM      4  C2  PXY d   1      -1.096  -0.067   1.542  0.00  0.00     0.003 A 
ATOM      5  C3  PXY d   1      -0.213  -0.982   1.028  0.00  0.00     0.003 A 
ATOM      6  C4  PXY d   1       0.362  -0.776  -0.198  0.00  0.00    -0.082 A 
ATOM      7  C5  PXY d   1       0.087   0.356  -0.880  0.00  0.00     0.003 A 
ATOM      8  C6  PXY d   1      -0.780   1.291  -0.322  0.00  0.00     0.003 A 
ENDROOT
TORSDOF 0
ENDMDL
