MODEL 1
REMARK minimizedAffinity -5.72371817
REMARK minimizedRMSD -1
REMARK  0 active torsions:
REMARK  status: ('A' for Active; 'I' for Inactive)
ROOT
ATOM      1  C4' PXY d   1       0.204  -1.394   2.844  0.00  0.00     0.077 C 
ATOM      2  C1' PXY d   1      -1.023   2.829  -0.908  0.00  0.00     0.077 C 
ATOM      3  C1  PXY d   1      -0.700   1.713   0.066  0.00  0.00    -0.082 A 
ATOM      4  C2  PXY d   1      -1.064   1.825   1.333  0.00  0.00     0.003 A 
ATOM      5  C3  PXY d   1      -0.753   0.840   2.234  0.00  0.00     0.003 A 
ATOM      6  C4  PXY d   1      -0.109  -0.296   1.823  0.00  0.00    -0.082 A 
ATOM      7  C5  PXY d   1       0.257  -0.423   0.530  0.00  0.00     0.003 A 
ATOM      8  C6  PXY d   1      -0.033   0.607  -0.361  0.00  0.00     0.003 A 
ENDROOT
TORSDOF 0
ENDMDL
