MODEL 1
REMARK minimizedAffinity -4.24438238
REMARK minimizedRMSD -1
REMARK  0 active torsions:
REMARK  status: ('A' for Active; 'I' for Inactive)
ROOT
ATOM      1  C4' PXY d   1       2.243   0.038  -1.132  0.00  0.00     0.077 C 
ATOM      2  C1' PXY d   1      -2.668   1.553   1.514  0.00  0.00     0.077 C 
ATOM      3  C1  PXY d   1      -1.377   1.149   0.830  0.00  0.00    -0.082 A 
ATOM      4  C2  PXY d   1      -0.883   1.906  -0.135  0.00  0.00     0.003 A 
ATOM      5  C3  PXY d   1       0.267   1.539  -0.786  0.00  0.00     0.003 A 
ATOM      6  C4  PXY d   1       0.947   0.412  -0.408  0.00  0.00    -0.082 A 
ATOM      7  C5  PXY d   1       0.455  -0.360   0.584  0.00  0.00     0.003 A 
ATOM      8  C6  PXY d   1      -0.735   0.008   1.204  0.00  0.00     0.003 A 
ENDROOT
TORSDOF 0
ENDMDL
