MODEL 1
REMARK minimizedAffinity -5.54060221
REMARK minimizedRMSD -1
REMARK  0 active torsions:
REMARK  status: ('A' for Active; 'I' for Inactive)
ROOT
ATOM      1  C4' PXY d   1       1.421  -0.821  -0.507  0.00  0.00     0.077 C 
ATOM      2  C1' PXY d   1      -2.244   3.372   1.043  0.00  0.00     0.077 C 
ATOM      3  C1  PXY d   1      -1.285   2.266   0.648  0.00  0.00    -0.082 A 
ATOM      4  C2  PXY d   1      -0.324   2.516  -0.226  0.00  0.00     0.003 A 
ATOM      5  C3  PXY d   1       0.532   1.519  -0.619  0.00  0.00     0.003 A 
ATOM      6  C4  PXY d   1       0.436   0.268  -0.072  0.00  0.00    -0.082 A 
ATOM      7  C5  PXY d   1      -0.536   0.008   0.829  0.00  0.00     0.003 A 
ATOM      8  C6  PXY d   1      -1.420   1.023   1.183  0.00  0.00     0.003 A 
ENDROOT
TORSDOF 0
ENDMDL
