MODEL 1
REMARK minimizedAffinity -4.02094316
REMARK minimizedRMSD -1
REMARK  0 active torsions:
REMARK  status: ('A' for Active; 'I' for Inactive)
ROOT
ATOM      1  C4' PXY d   1      -2.183   2.704   1.256  0.00  0.00     0.077 C 
ATOM      2  C1' PXY d   1       1.087  -1.750  -0.443  0.00  0.00     0.077 C 
ATOM      3  C1  PXY d   1       0.223  -0.590   0.012  0.00  0.00    -0.082 A 
ATOM      4  C2  PXY d   1      -0.021   0.409  -0.821  0.00  0.00     0.003 A 
ATOM      5  C3  PXY d   1      -0.774   1.481  -0.416  0.00  0.00     0.003 A 
ATOM      6  C4  PXY d   1      -1.325   1.507   0.837  0.00  0.00    -0.082 A 
ATOM      7  C5  PXY d   1      -1.088   0.487   1.689  0.00  0.00     0.003 A 
ATOM      8  C6  PXY d   1      -0.288  -0.573   1.272  0.00  0.00     0.003 A 
ENDROOT
TORSDOF 0
ENDMDL
