MODEL 1
REMARK minimizedAffinity -5.11477423
REMARK minimizedRMSD -1
REMARK  0 active torsions:
REMARK  status: ('A' for Active; 'I' for Inactive)
ROOT
ATOM      1  C4' PXY d   1       0.948  -0.830  -0.223  0.00  0.00     0.077 C 
ATOM      2  C1' PXY d   1      -1.418   4.369   0.667  0.00  0.00     0.077 C 
ATOM      3  C1  PXY d   1      -0.795   3.009   0.421  0.00  0.00    -0.082 A 
ATOM      4  C2  PXY d   1      -1.144   1.982   1.180  0.00  0.00     0.003 A 
ATOM      5  C3  PXY d   1      -0.567   0.753   0.992  0.00  0.00     0.003 A 
ATOM      6  C4  PXY d   1       0.338   0.559  -0.017  0.00  0.00    -0.082 A 
ATOM      7  C5  PXY d   1       0.692   1.599  -0.802  0.00  0.00     0.003 A 
ATOM      8  C6  PXY d   1       0.125   2.848  -0.569  0.00  0.00     0.003 A 
ENDROOT
TORSDOF 0
ENDMDL
