MODEL 1
REMARK minimizedAffinity -4.85946083
REMARK minimizedRMSD -1
REMARK  0 active torsions:
REMARK  status: ('A' for Active; 'I' for Inactive)
ROOT
ATOM      1  C4' PXY d   1      -2.413   2.107   1.764  0.00  0.00     0.077 C 
ATOM      2  C1' PXY d   1       1.370  -1.283  -0.995  0.00  0.00     0.077 C 
ATOM      3  C1  PXY d   1       0.374  -0.404  -0.264  0.00  0.00    -0.082 A 
ATOM      4  C2  PXY d   1      -0.098   0.681  -0.855  0.00  0.00     0.003 A 
ATOM      5  C3  PXY d   1      -0.974   1.504  -0.196  0.00  0.00     0.003 A 
ATOM      6  C4  PXY d   1      -1.413   1.185   1.061  0.00  0.00    -0.082 A 
ATOM      7  C5  PXY d   1      -0.944   0.073   1.666  0.00  0.00     0.003 A 
ATOM      8  C6  PXY d   1      -0.024  -0.727   0.996  0.00  0.00     0.003 A 
ENDROOT
TORSDOF 0
ENDMDL
