MODEL 1
REMARK minimizedAffinity -5.60033369
REMARK minimizedRMSD -1
REMARK  0 active torsions:
REMARK  status: ('A' for Active; 'I' for Inactive)
ROOT
ATOM      1  C4' PXY d   1       0.391  -0.896  -1.365  0.00  0.00     0.077 C 
ATOM      2  C1' PXY d   1      -1.420   4.569  -1.888  0.00  0.00     0.077 C 
ATOM      3  C1  PXY d   1      -0.957   3.132  -1.745  0.00  0.00    -0.082 A 
ATOM      4  C2  PXY d   1       0.338   2.865  -1.696  0.00  0.00     0.003 A 
ATOM      5  C3  PXY d   1       0.775   1.569  -1.599  0.00  0.00     0.003 A 
ATOM      6  C4  PXY d   1      -0.123   0.540  -1.499  0.00  0.00    -0.082 A 
ATOM      7  C5  PXY d   1      -1.446   0.806  -1.538  0.00  0.00     0.003 A 
ATOM      8  C6  PXY d   1      -1.869   2.125  -1.678  0.00  0.00     0.003 A 
ENDROOT
TORSDOF 0
ENDMDL
