MODEL 1
REMARK minimizedAffinity 0.428509414
REMARK minimizedRMSD -1
REMARK  0 active torsions:
REMARK  status: ('A' for Active; 'I' for Inactive)
ROOT
ATOM      1  C   UNL d   1      -0.687  -0.727   0.272  0.00  0.00     0.020 A 
ATOM      2  C1  UNL d   1       0.493  -1.468   0.318  0.00  0.00     0.020 A 
ATOM      3  C2  UNL d   1       1.727  -0.824   0.199  0.00  0.00     0.034 A 
ATOM      4  C3  UNL d   1       1.783   0.564   0.033  0.00  0.00     0.017 A 
ATOM      5  C4  UNL d   1       0.598   1.307  -0.013  0.00  0.00     0.017 A 
ATOM      6  C5  UNL d   1      -0.635   0.658   0.107  0.00  0.00     0.034 A 
ATOM      7 Cl   UNL d   1       0.587   3.024  -0.214  0.00  0.00    -0.070 Cl
ATOM      8 Cl1  UNL d   1       3.343   1.294  -0.107  0.00  0.00    -0.070 Cl
ENDROOT
TORSDOF 0
ENDMDL
