MODEL 1
REMARK minimizedAffinity -4.98384809
REMARK minimizedRMSD -1
REMARK  0 active torsions:
REMARK  status: ('A' for Active; 'I' for Inactive)
ROOT
ATOM      1  C   UNL d   1      -0.009  -0.583   0.790  0.00  0.00     0.020 A 
ATOM      2  C1  UNL d   1      -1.036   0.338   0.993  0.00  0.00     0.020 A 
ATOM      3  C2  UNL d   1      -0.860   1.673   0.621  0.00  0.00     0.034 A 
ATOM      4  C3  UNL d   1       0.345   2.090   0.043  0.00  0.00     0.017 A 
ATOM      5  C4  UNL d   1       1.374   1.164  -0.161  0.00  0.00     0.017 A 
ATOM      6  C5  UNL d   1       1.193  -0.171   0.214  0.00  0.00     0.034 A 
ATOM      7 Cl   UNL d   1       2.889   1.604  -0.868  0.00  0.00    -0.070 Cl
ATOM      8 Cl1  UNL d   1       0.492   3.755  -0.393  0.00  0.00    -0.070 Cl
ENDROOT
TORSDOF 0
ENDMDL
