MODEL 1
REMARK minimizedAffinity 1.85535991
REMARK minimizedRMSD -1
REMARK  0 active torsions:
REMARK  status: ('A' for Active; 'I' for Inactive)
ROOT
ATOM      1  C   UNL d   1       1.262  -1.447  -0.096  0.00  0.00     0.020 A 
ATOM      2  C1  UNL d   1       0.099  -1.552   0.666  0.00  0.00     0.020 A 
ATOM      3  C2  UNL d   1      -0.950  -2.365   0.233  0.00  0.00     0.034 A 
ATOM      4  C3  UNL d   1      -0.838  -3.078  -0.967  0.00  0.00     0.017 A 
ATOM      5  C4  UNL d   1       0.329  -2.972  -1.732  0.00  0.00     0.017 A 
ATOM      6  C5  UNL d   1       1.376  -2.156  -1.293  0.00  0.00     0.034 A 
ATOM      7 Cl   UNL d   1       0.540  -3.821  -3.222  0.00  0.00    -0.070 Cl
ATOM      8 Cl1  UNL d   1      -2.174  -4.065  -1.442  0.00  0.00    -0.070 Cl
ENDROOT
TORSDOF 0
ENDMDL
