MODEL 1
REMARK minimizedAffinity -0.234034374
REMARK minimizedRMSD -1
REMARK  0 active torsions:
REMARK  status: ('A' for Active; 'I' for Inactive)
ROOT
ATOM      1  C   UNL d   1       0.019  -1.429  -0.346  0.00  0.00     0.020 A 
ATOM      2  C1  UNL d   1       1.167  -1.366   0.444  0.00  0.00     0.020 A 
ATOM      3  C2  UNL d   1       2.052  -0.295   0.303  0.00  0.00     0.034 A 
ATOM      4  C3  UNL d   1       1.792   0.716  -0.629  0.00  0.00     0.017 A 
ATOM      5  C4  UNL d   1       0.640   0.651  -1.421  0.00  0.00     0.017 A 
ATOM      6  C5  UNL d   1      -0.243  -0.423  -1.277  0.00  0.00     0.034 A 
ATOM      7 Cl   UNL d   1       0.252   1.861  -2.593  0.00  0.00    -0.070 Cl
ATOM      8 Cl1  UNL d   1       2.931   2.010  -0.749  0.00  0.00    -0.070 Cl
ENDROOT
TORSDOF 0
ENDMDL
