MODEL 1
REMARK minimizedAffinity -5.0746479
REMARK minimizedRMSD -1
REMARK  0 active torsions:
REMARK  status: ('A' for Active; 'I' for Inactive)
ROOT
ATOM      1  C   UNL d   1      -1.789   2.119   0.758  0.00  0.00     0.020 A 
ATOM      2  C1  UNL d   1      -0.760   3.060   0.748  0.00  0.00     0.020 A 
ATOM      3  C2  UNL d   1       0.552   2.658   0.488  0.00  0.00     0.034 A 
ATOM      4  C3  UNL d   1       0.839   1.311   0.237  0.00  0.00     0.017 A 
ATOM      5  C4  UNL d   1      -0.194   0.367   0.247  0.00  0.00     0.017 A 
ATOM      6  C5  UNL d   1      -1.506   0.775   0.507  0.00  0.00     0.034 A 
ATOM      7 Cl   UNL d   1       0.082  -1.312  -0.055  0.00  0.00    -0.070 Cl
ATOM      8 Cl1  UNL d   1       2.483   0.885  -0.077  0.00  0.00    -0.070 Cl
ENDROOT
TORSDOF 0
ENDMDL
