MODEL 1
REMARK minimizedAffinity 0.118428633
REMARK minimizedRMSD -1
REMARK  0 active torsions:
REMARK  status: ('A' for Active; 'I' for Inactive)
ROOT
ATOM      1  C   UNL d   1      -0.879  -3.977  -2.804  0.00  0.00     0.020 A 
ATOM      2  C1  UNL d   1      -0.883  -4.404  -1.476  0.00  0.00     0.020 A 
ATOM      3  C2  UNL d   1      -0.739  -3.475  -0.444  0.00  0.00     0.034 A 
ATOM      4  C3  UNL d   1      -0.591  -2.114  -0.737  0.00  0.00     0.017 A 
ATOM      5  C4  UNL d   1      -0.587  -1.687  -2.070  0.00  0.00     0.017 A 
ATOM      6  C5  UNL d   1      -0.731  -2.622  -3.100  0.00  0.00     0.034 A 
ATOM      7 Cl   UNL d   1      -0.409  -0.025  -2.510  0.00  0.00    -0.070 Cl
ATOM      8 Cl1  UNL d   1      -0.418  -1.020   0.590  0.00  0.00    -0.070 Cl
ENDROOT
TORSDOF 0
ENDMDL
