MODEL 1
REMARK minimizedAffinity -5.00167608
REMARK minimizedRMSD -1
REMARK  0 active torsions:
REMARK  status: ('A' for Active; 'I' for Inactive)
ROOT
ATOM      1  C   UNL d   1       0.825   2.096  -1.433  0.00  0.00     0.020 A 
ATOM      2  C1  UNL d   1       1.003   3.318  -0.787  0.00  0.00     0.020 A 
ATOM      3  C2  UNL d   1       0.386   3.554   0.444  0.00  0.00     0.034 A 
ATOM      4  C3  UNL d   1      -0.411   2.565   1.032  0.00  0.00     0.017 A 
ATOM      5  C4  UNL d   1      -0.589   1.338   0.383  0.00  0.00     0.017 A 
ATOM      6  C5  UNL d   1       0.031   1.108  -0.850  0.00  0.00     0.034 A 
ATOM      7 Cl   UNL d   1      -1.557   0.070   1.046  0.00  0.00    -0.070 Cl
ATOM      8 Cl1  UNL d   1      -1.143   2.924   2.556  0.00  0.00    -0.070 Cl
ENDROOT
TORSDOF 0
ENDMDL
