MODEL 1
REMARK minimizedAffinity -5.35862303
REMARK minimizedRMSD -1
REMARK  0 active torsions:
REMARK  status: ('A' for Active; 'I' for Inactive)
ROOT
ATOM      1  C   UNL d   1       0.446   2.977   0.207  0.00  0.00     0.020 A 
ATOM      2  C1  UNL d   1       1.416   2.085  -0.249  0.00  0.00     0.020 A 
ATOM      3  C2  UNL d   1       1.112   0.728  -0.374  0.00  0.00     0.034 A 
ATOM      4  C3  UNL d   1      -0.164   0.258  -0.041  0.00  0.00     0.017 A 
ATOM      5  C4  UNL d   1      -1.136   1.155   0.416  0.00  0.00     0.017 A 
ATOM      6  C5  UNL d   1      -0.827   2.513   0.539  0.00  0.00     0.034 A 
ATOM      7 Cl   UNL d   1      -2.733   0.651   0.845  0.00  0.00    -0.070 Cl
ATOM      8 Cl1  UNL d   1      -0.470  -1.433  -0.220  0.00  0.00    -0.070 Cl
ENDROOT
TORSDOF 0
ENDMDL
