MODEL 1
REMARK minimizedAffinity 0.152676314
REMARK minimizedRMSD -1
REMARK  0 active torsions:
REMARK  status: ('A' for Active; 'I' for Inactive)
ROOT
ATOM      1  C   UNL d   1      -0.411   2.485   0.806  0.00  0.00     0.020 A 
ATOM      2  C1  UNL d   1      -1.529   1.752   0.410  0.00  0.00     0.020 A 
ATOM      3  C2  UNL d   1      -1.383   0.433  -0.023  0.00  0.00     0.034 A 
ATOM      4  C3  UNL d   1      -0.115  -0.158  -0.061  0.00  0.00     0.017 A 
ATOM      5  C4  UNL d   1       1.007   0.577   0.336  0.00  0.00     0.017 A 
ATOM      6  C5  UNL d   1       0.855   1.898   0.769  0.00  0.00     0.034 A 
ATOM      7 Cl   UNL d   1       2.604  -0.084   0.317  0.00  0.00    -0.070 Cl
ATOM      8 Cl1  UNL d   1      -0.007  -1.794  -0.608  0.00  0.00    -0.070 Cl
ENDROOT
TORSDOF 0
ENDMDL
