MODEL 1
REMARK minimizedAffinity -2.976686
REMARK minimizedRMSD -1
REMARK  0 active torsions:
REMARK  status: ('A' for Active; 'I' for Inactive)
ROOT
ATOM      1  C   UNL d   1      -2.557  -3.570  -1.446  0.00  0.00     0.020 A 
ATOM      2  C1  UNL d   1      -2.432  -3.341  -0.076  0.00  0.00     0.020 A 
ATOM      3  C2  UNL d   1      -1.318  -2.661   0.420  0.00  0.00     0.034 A 
ATOM      4  C3  UNL d   1      -0.324  -2.206  -0.454  0.00  0.00     0.017 A 
ATOM      5  C4  UNL d   1      -0.450  -2.436  -1.829  0.00  0.00     0.017 A 
ATOM      6  C5  UNL d   1      -1.568  -3.118  -2.320  0.00  0.00     0.034 A 
ATOM      7 Cl   UNL d   1       0.735  -1.906  -2.970  0.00  0.00    -0.070 Cl
ATOM      8 Cl1  UNL d   1       1.026  -1.372   0.228  0.00  0.00    -0.070 Cl
ENDROOT
TORSDOF 0
ENDMDL
