MODEL 1
REMARK minimizedAffinity -1.03122687
REMARK minimizedRMSD -1
REMARK  0 active torsions:
REMARK  status: ('A' for Active; 'I' for Inactive)
ROOT
ATOM      1  C   UNL d   1      -0.966   2.747   1.300  0.00  0.00     0.020 A 
ATOM      2  C1  UNL d   1      -1.942   1.752   1.298  0.00  0.00     0.020 A 
ATOM      3  C2  UNL d   1      -1.610   0.450   0.917  0.00  0.00     0.034 A 
ATOM      4  C3  UNL d   1      -0.299   0.140   0.538  0.00  0.00     0.017 A 
ATOM      5  C4  UNL d   1       0.680   1.140   0.541  0.00  0.00     0.017 A 
ATOM      6  C5  UNL d   1       0.342   2.442   0.923  0.00  0.00     0.034 A 
ATOM      7 Cl   UNL d   1       2.319   0.834   0.086  0.00  0.00    -0.070 Cl
ATOM      8 Cl1  UNL d   1       0.040  -1.491   0.080  0.00  0.00    -0.070 Cl
ENDROOT
TORSDOF 0
ENDMDL
