MODEL 1
REMARK minimizedAffinity -3.70216799
REMARK minimizedRMSD -1
REMARK  0 active torsions:
REMARK  status: ('A' for Active; 'I' for Inactive)
ROOT
ATOM      1  C   UNL d   1      -0.533   3.274   0.321  0.00  0.00     0.020 A 
ATOM      2  C1  UNL d   1      -1.581   2.384   0.549  0.00  0.00     0.020 A 
ATOM      3  C2  UNL d   1      -1.344   1.008   0.535  0.00  0.00     0.034 A 
ATOM      4  C3  UNL d   1      -0.056   0.518   0.292  0.00  0.00     0.017 A 
ATOM      5  C4  UNL d   1       0.996   1.413   0.063  0.00  0.00     0.017 A 
ATOM      6  C5  UNL d   1       0.753   2.790   0.079  0.00  0.00     0.034 A 
ATOM      7 Cl   UNL d   1       2.613   0.884  -0.243  0.00  0.00    -0.070 Cl
ATOM      8 Cl1  UNL d   1       0.165  -1.195   0.290  0.00  0.00    -0.070 Cl
ENDROOT
TORSDOF 0
ENDMDL
