MODEL 1
REMARK minimizedAffinity -2.25548339
REMARK minimizedRMSD -1
REMARK  0 active torsions:
REMARK  status: ('A' for Active; 'I' for Inactive)
ROOT
ATOM      1  C   UNL d   1       0.483   2.791  -0.187  0.00  0.00     0.020 A 
ATOM      2  C1  UNL d   1       0.109   1.528  -0.644  0.00  0.00     0.020 A 
ATOM      3  C2  UNL d   1      -0.724   0.722   0.135  0.00  0.00     0.034 A 
ATOM      4  C3  UNL d   1      -1.184   1.177   1.376  0.00  0.00     0.017 A 
ATOM      5  C4  UNL d   1      -0.807   2.445   1.834  0.00  0.00     0.017 A 
ATOM      6  C5  UNL d   1       0.026   3.248   1.050  0.00  0.00     0.034 A 
ATOM      7 Cl   UNL d   1      -1.335   3.076   3.354  0.00  0.00    -0.070 Cl
ATOM      8 Cl1  UNL d   1      -2.210   0.127   2.286  0.00  0.00    -0.070 Cl
ENDROOT
TORSDOF 0
ENDMDL
