MODEL 1
REMARK minimizedAffinity -4.07124662
REMARK minimizedRMSD -1
REMARK  0 active torsions:
REMARK  status: ('A' for Active; 'I' for Inactive)
ROOT
ATOM      1  C   UNL d   1       2.514   1.588   1.196  0.00  0.00     0.020 A 
ATOM      2  C1  UNL d   1       1.727   2.719   1.409  0.00  0.00     0.020 A 
ATOM      3  C2  UNL d   1       0.339   2.637   1.284  0.00  0.00     0.034 A 
ATOM      4  C3  UNL d   1      -0.267   1.422   0.946  0.00  0.00     0.017 A 
ATOM      5  C4  UNL d   1       0.523   0.287   0.733  0.00  0.00     0.017 A 
ATOM      6  C5  UNL d   1       1.913   0.374   0.859  0.00  0.00     0.034 A 
ATOM      7 Cl   UNL d   1      -0.152  -1.248   0.312  0.00  0.00    -0.070 Cl
ATOM      8 Cl1  UNL d   1      -1.989   1.393   0.809  0.00  0.00    -0.070 Cl
ENDROOT
TORSDOF 0
ENDMDL
