MODEL 1
REMARK minimizedAffinity -2.42241406
REMARK minimizedRMSD -1
REMARK  0 active torsions:
REMARK  status: ('A' for Active; 'I' for Inactive)
ROOT
ATOM      1  C   UNL d   1      -2.672  -4.041  -0.726  0.00  0.00     0.020 A 
ATOM      2  C1  UNL d   1      -1.968  -4.834  -1.632  0.00  0.00     0.020 A 
ATOM      3  C2  UNL d   1      -0.684  -4.462  -2.034  0.00  0.00     0.034 A 
ATOM      4  C3  UNL d   1      -0.099  -3.295  -1.530  0.00  0.00     0.017 A 
ATOM      5  C4  UNL d   1      -0.806  -2.500  -0.620  0.00  0.00     0.017 A 
ATOM      6  C5  UNL d   1      -2.092  -2.877  -0.221  0.00  0.00     0.034 A 
ATOM      7 Cl   UNL d   1      -0.150  -1.046   0.046  0.00  0.00    -0.070 Cl
ATOM      8 Cl1  UNL d   1       1.493  -2.896  -2.070  0.00  0.00    -0.070 Cl
ENDROOT
TORSDOF 0
ENDMDL
