MODEL 1
REMARK minimizedAffinity -5.17629242
REMARK minimizedRMSD -1
REMARK  0 active torsions:
REMARK  status: ('A' for Active; 'I' for Inactive)
ROOT
ATOM      1  C   UNL d   1       0.499   2.505   0.158  0.00  0.00     0.020 A 
ATOM      2  C1  UNL d   1      -0.687   2.257  -0.531  0.00  0.00     0.020 A 
ATOM      3  C2  UNL d   1      -1.026   0.950  -0.890  0.00  0.00     0.034 A 
ATOM      4  C3  UNL d   1      -0.177  -0.113  -0.560  0.00  0.00     0.017 A 
ATOM      5  C4  UNL d   1       1.014   0.138   0.132  0.00  0.00     0.017 A 
ATOM      6  C5  UNL d   1       1.348   1.448   0.488  0.00  0.00     0.034 A 
ATOM      7 Cl   UNL d   1       2.111  -1.122   0.574  0.00  0.00    -0.070 Cl
ATOM      8 Cl1  UNL d   1      -0.659  -1.703  -1.034  0.00  0.00    -0.070 Cl
ENDROOT
TORSDOF 0
ENDMDL
