MODEL 1
REMARK minimizedAffinity -1.81320238
REMARK minimizedRMSD -1
REMARK  0 active torsions:
REMARK  status: ('A' for Active; 'I' for Inactive)
ROOT
ATOM      1  C   UNL d   1       0.836  -0.829   1.426  0.00  0.00     0.172 C 
ATOM      2  N   UNL d   1      -0.535  -0.583   1.049  0.00  0.00    -0.070 N 
ATOM      3  C1  UNL d   1      -1.611  -0.591   1.897  0.00  0.00    -0.004 A 
ATOM      4  C2  UNL d   1      -2.737  -0.311   1.153  0.00  0.00    -0.047 A 
ATOM      5  C3  UNL d   1      -2.324  -0.129  -0.188  0.00  0.00    -0.047 A 
ATOM      6  C4  UNL d   1      -0.957  -0.303  -0.224  0.00  0.00    -0.004 A 
ENDROOT
TORSDOF 0
ENDMDL
