MODEL 1
REMARK minimizedAffinity -2.18195295
REMARK minimizedRMSD -1
REMARK  0 active torsions:
REMARK  status: ('A' for Active; 'I' for Inactive)
ROOT
ATOM      1  C   UNL d   1       1.635   0.663  -0.410  0.00  0.00     0.172 C 
ATOM      2  N   UNL d   1       0.540  -0.037   0.220  0.00  0.00    -0.070 N 
ATOM      3  C1  UNL d   1       0.657  -0.986   1.201  0.00  0.00    -0.004 A 
ATOM      4  C2  UNL d   1      -0.612  -1.408   1.533  0.00  0.00    -0.047 A 
ATOM      5  C3  UNL d   1      -1.523  -0.688   0.724  0.00  0.00    -0.047 A 
ATOM      6  C4  UNL d   1      -0.783   0.153  -0.080  0.00  0.00    -0.004 A 
ENDROOT
TORSDOF 0
ENDMDL
