MODEL 1
REMARK minimizedAffinity -2.71278954
REMARK minimizedRMSD -1
REMARK  0 active torsions:
REMARK  status: ('A' for Active; 'I' for Inactive)
ROOT
ATOM      1  C   UNL d   1       1.416  -0.133   0.257  0.00  0.00     0.172 C 
ATOM      2  N   UNL d   1       2.188   1.055   0.538  0.00  0.00    -0.070 N 
ATOM      3  C1  UNL d   1       2.265   1.690   1.748  0.00  0.00    -0.004 A 
ATOM      4  C2  UNL d   1       3.099   2.777   1.603  0.00  0.00    -0.047 A 
ATOM      5  C3  UNL d   1       3.539   2.796   0.258  0.00  0.00    -0.047 A 
ATOM      6  C4  UNL d   1       2.960   1.719  -0.379  0.00  0.00    -0.004 A 
ENDROOT
TORSDOF 0
ENDMDL
