MODEL 1
REMARK minimizedAffinity -3.57198906
REMARK minimizedRMSD -1
REMARK  0 active torsions:
REMARK  status: ('A' for Active; 'I' for Inactive)
ROOT
ATOM      1  C   UNL d   1      -2.653  -0.084   0.277  0.00  0.00     0.172 C 
ATOM      2  N   UNL d   1      -1.215  -0.115   0.149  0.00  0.00    -0.070 N 
ATOM      3  C1  UNL d   1      -0.495   0.386  -0.903  0.00  0.00    -0.004 A 
ATOM      4  C2  UNL d   1       0.840   0.161  -0.646  0.00  0.00    -0.047 A 
ATOM      5  C3  UNL d   1       0.926  -0.499   0.603  0.00  0.00    -0.047 A 
ATOM      6  C4  UNL d   1      -0.361  -0.657   1.073  0.00  0.00    -0.004 A 
ENDROOT
TORSDOF 0
ENDMDL
