MODEL 1
REMARK minimizedAffinity -2.65712738
REMARK minimizedRMSD -1
REMARK  0 active torsions:
REMARK  status: ('A' for Active; 'I' for Inactive)
ROOT
ATOM      1  C   UNL d   1       2.674   2.505   1.549  0.00  0.00     0.172 C 
ATOM      2  N   UNL d   1       1.830   1.553   0.868  0.00  0.00    -0.070 N 
ATOM      3  C1  UNL d   1       2.257   0.413   0.240  0.00  0.00    -0.004 A 
ATOM      4  C2  UNL d   1       1.150  -0.220  -0.284  0.00  0.00    -0.047 A 
ATOM      5  C3  UNL d   1       0.019   0.567   0.040  0.00  0.00    -0.047 A 
ATOM      6  C4  UNL d   1       0.469   1.658   0.753  0.00  0.00    -0.004 A 
ENDROOT
TORSDOF 0
ENDMDL
