MODEL 1
REMARK minimizedAffinity -2.72478962
REMARK minimizedRMSD -1
REMARK  0 active torsions:
REMARK  status: ('A' for Active; 'I' for Inactive)
ROOT
ATOM      1  C   UNL d   1      -2.991  -0.839  -0.004  0.00  0.00     0.172 C 
ATOM      2  N   UNL d   1      -1.576  -0.748   0.270  0.00  0.00    -0.070 N 
ATOM      3  C1  UNL d   1      -0.887  -1.513   1.173  0.00  0.00    -0.004 A 
ATOM      4  C2  UNL d   1       0.434  -1.122   1.136  0.00  0.00    -0.047 A 
ATOM      5  C3  UNL d   1       0.543  -0.085   0.179  0.00  0.00    -0.047 A 
ATOM      6  C4  UNL d   1      -0.717   0.126  -0.342  0.00  0.00    -0.004 A 
ENDROOT
TORSDOF 0
ENDMDL
