MODEL 1
REMARK minimizedAffinity -2.24953961
REMARK minimizedRMSD -1
REMARK  0 active torsions:
REMARK  status: ('A' for Active; 'I' for Inactive)
ROOT
ATOM      1  C   UNL d   1      -2.163  -0.217  -0.852  0.00  0.00     0.172 C 
ATOM      2  N   UNL d   1      -0.791  -0.051  -0.434  0.00  0.00    -0.070 N 
ATOM      3  C1  UNL d   1       0.246   0.345  -1.236  0.00  0.00    -0.004 A 
ATOM      4  C2  UNL d   1       1.387   0.381  -0.464  0.00  0.00    -0.047 A 
ATOM      5  C3  UNL d   1       1.023  -0.008   0.847  0.00  0.00    -0.047 A 
ATOM      6  C4  UNL d   1      -0.331  -0.270   0.838  0.00  0.00    -0.004 A 
ENDROOT
TORSDOF 0
ENDMDL
