MODEL 1
REMARK minimizedAffinity -2.96580076
REMARK minimizedRMSD -1
REMARK  0 active torsions:
REMARK  status: ('A' for Active; 'I' for Inactive)
ROOT
ATOM      1  C   UNL d   1       1.457   0.032   0.188  0.00  0.00     0.172 C 
ATOM      2  N   UNL d   1       0.034  -0.202   0.117  0.00  0.00    -0.070 N 
ATOM      3  C1  UNL d   1      -0.752  -0.013  -0.988  0.00  0.00    -0.004 A 
ATOM      4  C2  UNL d   1      -2.046  -0.346  -0.649  0.00  0.00    -0.047 A 
ATOM      5  C3  UNL d   1      -2.037  -0.748   0.708  0.00  0.00    -0.047 A 
ATOM      6  C4  UNL d   1      -0.737  -0.650   1.157  0.00  0.00    -0.004 A 
ENDROOT
TORSDOF 0
ENDMDL
