MODEL 1
REMARK minimizedAffinity -1.63050842
REMARK minimizedRMSD -1
REMARK  0 active torsions:
REMARK  status: ('A' for Active; 'I' for Inactive)
ROOT
ATOM      1  C   UNL d   1      -4.477   5.999   1.046  0.00  0.00     0.172 C 
ATOM      2  N   UNL d   1      -4.755   5.990   2.463  0.00  0.00    -0.070 N 
ATOM      3  C1  UNL d   1      -6.000   6.000   3.033  0.00  0.00    -0.004 A 
ATOM      4  C2  UNL d   1      -5.837   5.986   4.402  0.00  0.00    -0.047 A 
ATOM      5  C3  UNL d   1      -4.447   5.967   4.663  0.00  0.00    -0.047 A 
ATOM      6  C4  UNL d   1      -3.800   5.970   3.446  0.00  0.00    -0.004 A 
ENDROOT
TORSDOF 0
ENDMDL
