MODEL 1
REMARK minimizedAffinity -2.5908668
REMARK minimizedRMSD -1
REMARK  0 active torsions:
REMARK  status: ('A' for Active; 'I' for Inactive)
ROOT
ATOM      1  C   UNL d   1       1.837   0.244   0.130  0.00  0.00     0.172 C 
ATOM      2  N   UNL d   1       0.439  -0.019  -0.120  0.00  0.00    -0.070 N 
ATOM      3  C1  UNL d   1      -0.220   0.219  -1.296  0.00  0.00    -0.004 A 
ATOM      4  C2  UNL d   1      -1.533  -0.166  -1.129  0.00  0.00    -0.047 A 
ATOM      5  C3  UNL d   1      -1.667  -0.651   0.193  0.00  0.00    -0.047 A 
ATOM      6  C4  UNL d   1      -0.431  -0.549   0.796  0.00  0.00    -0.004 A 
ENDROOT
TORSDOF 0
ENDMDL
