MODEL 1
REMARK minimizedAffinity -3.74913549
REMARK minimizedRMSD -1
REMARK  0 active torsions:
REMARK  status: ('A' for Active; 'I' for Inactive)
ROOT
ATOM      1  C   UNL d   1       4.569   3.287  -2.963  0.00  0.00     0.172 C 
ATOM      2  N   UNL d   1       3.699   3.289  -1.811  0.00  0.00    -0.070 N 
ATOM      3  C1  UNL d   1       3.020   4.375  -1.326  0.00  0.00    -0.004 A 
ATOM      4  C2  UNL d   1       2.304   3.966  -0.221  0.00  0.00    -0.047 A 
ATOM      5  C3  UNL d   1       2.562   2.587  -0.036  0.00  0.00    -0.047 A 
ATOM      6  C4  UNL d   1       3.429   2.194  -1.034  0.00  0.00    -0.004 A 
ENDROOT
TORSDOF 0
ENDMDL
