MODEL 1
REMARK minimizedAffinity -2.28876066
REMARK minimizedRMSD -1
REMARK  0 active torsions:
REMARK  status: ('A' for Active; 'I' for Inactive)
ROOT
ATOM      1  C   UNL d   1       0.657   0.469  -0.479  0.00  0.00     0.172 C 
ATOM      2  N   UNL d   1      -0.703  -0.015  -0.442  0.00  0.00    -0.070 N 
ATOM      3  C1  UNL d   1      -1.752   0.496  -1.159  0.00  0.00    -0.004 A 
ATOM      4  C2  UNL d   1      -2.875  -0.239  -0.845  0.00  0.00    -0.047 A 
ATOM      5  C3  UNL d   1      -2.488  -1.225   0.093  0.00  0.00    -0.047 A 
ATOM      6  C4  UNL d   1      -1.138  -1.063   0.326  0.00  0.00    -0.004 A 
ENDROOT
TORSDOF 0
ENDMDL
