MODEL 1
REMARK minimizedAffinity -3.17050648
REMARK minimizedRMSD -1
REMARK  0 active torsions:
REMARK  status: ('A' for Active; 'I' for Inactive)
ROOT
ATOM      1  C   UNL d   1      -1.023  -0.151   0.055  0.00  0.00     0.172 C 
ATOM      2  N   UNL d   1      -1.781  -1.287   0.524  0.00  0.00    -0.070 N 
ATOM      3  C1  UNL d   1      -1.330  -2.244   1.393  0.00  0.00    -0.004 A 
ATOM      4  C2  UNL d   1      -2.350  -3.150   1.589  0.00  0.00    -0.047 A 
ATOM      5  C3  UNL d   1      -3.451  -2.724   0.809  0.00  0.00    -0.047 A 
ATOM      6  C4  UNL d   1      -3.071  -1.568   0.160  0.00  0.00    -0.004 A 
ENDROOT
TORSDOF 0
ENDMDL
