MODEL 1
REMARK minimizedAffinity -3.63869405
REMARK minimizedRMSD -1
REMARK  0 active torsions:
REMARK  status: ('A' for Active; 'I' for Inactive)
ROOT
ATOM      1  C   UNL d   1      -2.620  -0.827   0.354  0.00  0.00     0.172 C 
ATOM      2  N   UNL d   1      -1.180  -0.720   0.321  0.00  0.00    -0.070 N 
ATOM      3  C1  UNL d   1      -0.313  -1.356   1.169  0.00  0.00    -0.004 A 
ATOM      4  C2  UNL d   1       0.968  -0.996   0.810  0.00  0.00    -0.047 A 
ATOM      5  C3  UNL d   1       0.867  -0.113  -0.291  0.00  0.00    -0.047 A 
ATOM      6  C4  UNL d   1      -0.474   0.040  -0.573  0.00  0.00    -0.004 A 
ENDROOT
TORSDOF 0
ENDMDL
