MODEL 1
REMARK minimizedAffinity -2.07797933
REMARK minimizedRMSD -1
REMARK  0 active torsions:
REMARK  status: ('A' for Active; 'I' for Inactive)
ROOT
ATOM      1  C   UNL d   1      -2.574  -0.976  -0.475  0.00  0.00     0.172 C 
ATOM      2  N   UNL d   1      -1.188  -0.741  -0.145  0.00  0.00    -0.070 N 
ATOM      3  C1  UNL d   1      -0.378   0.198  -0.725  0.00  0.00    -0.004 A 
ATOM      4  C2  UNL d   1       0.864   0.105  -0.136  0.00  0.00    -0.047 A 
ATOM      5  C3  UNL d   1       0.799  -0.925   0.831  0.00  0.00    -0.047 A 
ATOM      6  C4  UNL d   1      -0.483  -1.432   0.805  0.00  0.00    -0.004 A 
ENDROOT
TORSDOF 0
ENDMDL
