MODEL 1
REMARK minimizedAffinity -3.34647799
REMARK minimizedRMSD -1
REMARK  0 active torsions:
REMARK  status: ('A' for Active; 'I' for Inactive)
ROOT
ATOM      1  C   UNL d   1      -2.916   0.018   0.024  0.00  0.00     0.172 C 
ATOM      2  N   UNL d   1      -1.480  -0.109  -0.053  0.00  0.00    -0.070 N 
ATOM      3  C1  UNL d   1      -0.649  -0.426   0.988  0.00  0.00    -0.004 A 
ATOM      4  C2  UNL d   1       0.642  -0.448   0.507  0.00  0.00    -0.047 A 
ATOM      5  C3  UNL d   1       0.585  -0.132  -0.872  0.00  0.00    -0.047 A 
ATOM      6  C4  UNL d   1      -0.740   0.073  -1.192  0.00  0.00    -0.004 A 
ENDROOT
TORSDOF 0
ENDMDL
