MODEL 1
REMARK minimizedAffinity 5.04854584
REMARK minimizedRMSD -1
REMARK  1 active torsions:
REMARK  status: ('A' for Active; 'I' for Inactive)
REMARK    1  A    between atoms: C1_2  and  C2_3 
ROOT
ATOM      1  C2  UNL d   1       0.104  -3.182   2.646  0.00  0.00    -0.076 A 
ATOM      2  C3  UNL d   1       0.347  -4.420   2.026  0.00  0.00     0.004 A 
ATOM      3  C4  UNL d   1       1.515  -4.641   1.300  0.00  0.00    -0.003 A 
ATOM      4  C5  UNL d   1       2.461  -3.628   1.182  0.00  0.00     0.000 A 
ATOM      5  C6  UNL d   1       2.244  -2.400   1.805  0.00  0.00     0.000 A 
ATOM      6  C7  UNL d   1       1.078  -2.166   2.555  0.00  0.00    -0.073 A 
ATOM      7  C8  UNL d   1       0.894  -0.820   3.201  0.00  0.00     0.078 C 
ENDROOT
BRANCH   1   8
ATOM      8  C1  UNL d   1      -1.194  -2.991   3.398  0.00  0.00     0.053 C 
ATOM      9  C   UNL d   1      -1.928  -4.302   3.637  0.00  0.00     0.018 C 
ENDBRANCH   1   8
TORSDOF 1
ENDMDL
