MODEL 1
REMARK minimizedAffinity 6.188972
REMARK minimizedRMSD -1
REMARK  1 active torsions:
REMARK  status: ('A' for Active; 'I' for Inactive)
REMARK    1  A    between atoms: C1_2  and  C2_3 
ROOT
ATOM      1  C2  UNL d   1       1.366  -2.690   1.803  0.00  0.00    -0.076 A 
ATOM      2  C3  UNL d   1       1.809  -1.505   1.190  0.00  0.00     0.004 A 
ATOM      3  C4  UNL d   1       2.691  -1.542   0.111  0.00  0.00    -0.003 A 
ATOM      4  C5  UNL d   1       3.143  -2.765  -0.373  0.00  0.00     0.000 A 
ATOM      5  C6  UNL d   1       2.699  -3.951   0.212  0.00  0.00     0.000 A 
ATOM      6  C7  UNL d   1       1.798  -3.931   1.290  0.00  0.00    -0.073 A 
ATOM      7  C8  UNL d   1       1.358  -5.240   1.887  0.00  0.00     0.078 C 
ENDROOT
BRANCH   1   8
ATOM      8  C1  UNL d   1       0.431  -2.586   2.987  0.00  0.00     0.053 C 
ATOM      9  C   UNL d   1       0.067  -1.147   3.318  0.00  0.00     0.018 C 
ENDBRANCH   1   8
TORSDOF 1
ENDMDL
