MODEL 1
REMARK minimizedAffinity 7.31078243
REMARK minimizedRMSD -1
REMARK  1 active torsions:
REMARK  status: ('A' for Active; 'I' for Inactive)
REMARK    1  A    between atoms: C1_2  and  C2_3 
ROOT
ATOM      1  C2  UNL d   1       1.678  -2.416   1.788  0.00  0.00    -0.076 A 
ATOM      2  C3  UNL d   1       2.580  -3.022   2.680  0.00  0.00     0.004 A 
ATOM      3  C4  UNL d   1       3.946  -3.053   2.408  0.00  0.00    -0.003 A 
ATOM      4  C5  UNL d   1       4.434  -2.478   1.240  0.00  0.00     0.000 A 
ATOM      5  C6  UNL d   1       3.556  -1.857   0.352  0.00  0.00     0.000 A 
ATOM      6  C7  UNL d   1       2.177  -1.802   0.619  0.00  0.00    -0.073 A 
ATOM      7  C8  UNL d   1       1.276  -1.125  -0.376  0.00  0.00     0.078 C 
ENDROOT
BRANCH   1   8
ATOM      8  C1  UNL d   1       0.204  -2.436   2.123  0.00  0.00     0.053 C 
ATOM      9  C   UNL d   1      -0.154  -1.465   3.237  0.00  0.00     0.018 C 
ENDBRANCH   1   8
TORSDOF 1
ENDMDL
