MODEL 1
REMARK minimizedAffinity 4.6352191
REMARK minimizedRMSD -1
REMARK  1 active torsions:
REMARK  status: ('A' for Active; 'I' for Inactive)
REMARK    1  A    between atoms: C1_2  and  C2_3 
ROOT
ATOM      1  C2  UNL d   1      -0.716  -1.485   1.569  0.00  0.00    -0.076 A 
ATOM      2  C3  UNL d   1      -0.143  -1.680   0.300  0.00  0.00     0.004 A 
ATOM      3  C4  UNL d   1       1.122  -2.251   0.164  0.00  0.00    -0.003 A 
ATOM      4  C5  UNL d   1       1.833  -2.637   1.294  0.00  0.00     0.000 A 
ATOM      5  C6  UNL d   1       1.273  -2.467   2.560  0.00  0.00     0.000 A 
ATOM      6  C7  UNL d   1      -0.007  -1.908   2.714  0.00  0.00    -0.073 A 
ATOM      7  C8  UNL d   1      -0.561  -1.742   4.103  0.00  0.00     0.078 C 
ENDROOT
BRANCH   1   8
ATOM      8  C1  UNL d   1      -2.079  -0.836   1.656  0.00  0.00     0.053 C 
ATOM      9  C   UNL d   1      -2.106   0.334   2.626  0.00  0.00     0.018 C 
ENDBRANCH   1   8
TORSDOF 1
ENDMDL
