MODEL 1
REMARK minimizedAffinity 6.78952885
REMARK minimizedRMSD -1
REMARK  1 active torsions:
REMARK  status: ('A' for Active; 'I' for Inactive)
REMARK    1  A    between atoms: C1_2  and  C2_3 
ROOT
ATOM      1  C2  UNL d   1       1.265  -2.102   2.055  0.00  0.00    -0.076 A 
ATOM      2  C3  UNL d   1       1.707  -3.179   2.843  0.00  0.00     0.004 A 
ATOM      3  C4  UNL d   1       2.552  -4.154   2.317  0.00  0.00    -0.003 A 
ATOM      4  C5  UNL d   1       2.970  -4.067   0.993  0.00  0.00     0.000 A 
ATOM      5  C6  UNL d   1       2.556  -2.996   0.202  0.00  0.00     0.000 A 
ATOM      6  C7  UNL d   1       1.717  -1.996   0.722  0.00  0.00    -0.073 A 
ATOM      7  C8  UNL d   1       1.297  -0.867  -0.177  0.00  0.00     0.078 C 
ENDROOT
BRANCH   1   8
ATOM      8  C1  UNL d   1       0.327  -1.090   2.673  0.00  0.00     0.053 C 
ATOM      9  C   UNL d   1      -1.072  -1.646   2.886  0.00  0.00     0.018 C 
ENDBRANCH   1   8
TORSDOF 1
ENDMDL
