MODEL 1
REMARK minimizedAffinity 9.46237373
REMARK minimizedRMSD -1
REMARK  1 active torsions:
REMARK  status: ('A' for Active; 'I' for Inactive)
REMARK    1  A    between atoms: C1_2  and  C2_3 
ROOT
ATOM      1  C2  UNL d   1       0.768  -2.053   1.716  0.00  0.00    -0.076 A 
ATOM      2  C3  UNL d   1       1.599  -2.695   2.650  0.00  0.00     0.004 A 
ATOM      3  C4  UNL d   1       2.844  -3.199   2.275  0.00  0.00    -0.003 A 
ATOM      4  C5  UNL d   1       3.277  -3.068   0.961  0.00  0.00     0.000 A 
ATOM      5  C6  UNL d   1       2.473  -2.418   0.025  0.00  0.00     0.000 A 
ATOM      6  C7  UNL d   1       1.223  -1.890   0.390  0.00  0.00    -0.073 A 
ATOM      7  C8  UNL d   1       0.394  -1.204  -0.661  0.00  0.00     0.078 C 
ENDROOT
BRANCH   1   8
ATOM      8  C1  UNL d   1      -0.583  -1.551   2.174  0.00  0.00     0.053 C 
ATOM      9  C   UNL d   1      -0.494  -0.706   3.436  0.00  0.00     0.018 C 
ENDBRANCH   1   8
TORSDOF 1
ENDMDL
