MODEL 1
REMARK minimizedAffinity 9.13347626
REMARK minimizedRMSD -1
REMARK  1 active torsions:
REMARK  status: ('A' for Active; 'I' for Inactive)
REMARK    1  A    between atoms: C1_2  and  C2_3 
ROOT
ATOM      1  C2  UNL d   1       0.853  -1.687   0.492  0.00  0.00    -0.076 A 
ATOM      2  C3  UNL d   1       2.192  -1.751   0.069  0.00  0.00     0.004 A 
ATOM      3  C4  UNL d   1       3.182  -2.275   0.899  0.00  0.00    -0.003 A 
ATOM      4  C5  UNL d   1       2.850  -2.743   2.165  0.00  0.00     0.000 A 
ATOM      5  C6  UNL d   1       1.523  -2.703   2.595  0.00  0.00     0.000 A 
ATOM      6  C7  UNL d   1       0.510  -2.193   1.764  0.00  0.00    -0.073 A 
ATOM      7  C8  UNL d   1      -0.902  -2.168   2.281  0.00  0.00     0.078 C 
ENDROOT
BRANCH   1   8
ATOM      8  C1  UNL d   1      -0.173  -1.084  -0.441  0.00  0.00     0.053 C 
ATOM      9  C   UNL d   1       0.281  -1.096  -1.892  0.00  0.00     0.018 C 
ENDBRANCH   1   8
TORSDOF 1
ENDMDL
