MODEL 1
REMARK minimizedAffinity 0.830638945
REMARK minimizedRMSD -1
REMARK  1 active torsions:
REMARK  status: ('A' for Active; 'I' for Inactive)
REMARK    1  A    between atoms: C1_2  and  C2_3 
ROOT
ATOM      1  C2  UNL d   1      -2.217  -0.590   2.415  0.00  0.00    -0.076 A 
ATOM      2  C3  UNL d   1      -2.542   0.016   3.640  0.00  0.00     0.004 A 
ATOM      3  C4  UNL d   1      -3.545   0.981   3.720  0.00  0.00    -0.003 A 
ATOM      4  C5  UNL d   1      -4.240   1.354   2.575  0.00  0.00     0.000 A 
ATOM      5  C6  UNL d   1      -3.943   0.749   1.354  0.00  0.00     0.000 A 
ATOM      6  C7  UNL d   1      -2.946  -0.237   1.259  0.00  0.00    -0.073 A 
ATOM      7  C8  UNL d   1      -2.663  -0.851  -0.084  0.00  0.00     0.078 C 
ENDROOT
BRANCH   1   8
ATOM      8  C1  UNL d   1      -1.101  -1.610   2.385  0.00  0.00     0.053 C 
ATOM      9  C   UNL d   1       0.230  -1.030   2.836  0.00  0.00     0.018 C 
ENDBRANCH   1   8
TORSDOF 1
ENDMDL
