MODEL 1
REMARK minimizedAffinity 8.27502346
REMARK minimizedRMSD -1
REMARK  1 active torsions:
REMARK  status: ('A' for Active; 'I' for Inactive)
REMARK    1  A    between atoms: C1_2  and  C2_3 
ROOT
ATOM      1  C2  UNL d   1       1.705  -1.745   2.069  0.00  0.00    -0.076 A 
ATOM      2  C3  UNL d   1       2.491  -2.541   2.920  0.00  0.00     0.004 A 
ATOM      3  C4  UNL d   1       3.146  -3.674   2.440  0.00  0.00    -0.003 A 
ATOM      4  C5  UNL d   1       3.026  -4.029   1.101  0.00  0.00     0.000 A 
ATOM      5  C6  UNL d   1       2.265  -3.240   0.239  0.00  0.00     0.000 A 
ATOM      6  C7  UNL d   1       1.611  -2.086   0.703  0.00  0.00    -0.073 A 
ATOM      7  C8  UNL d   1       0.799  -1.276  -0.269  0.00  0.00     0.078 C 
ENDROOT
BRANCH   1   8
ATOM      8  C1  UNL d   1       0.996  -0.543   2.652  0.00  0.00     0.053 C 
ATOM      9  C   UNL d   1      -0.484  -0.798   2.889  0.00  0.00     0.018 C 
ENDBRANCH   1   8
TORSDOF 1
ENDMDL
