MODEL 1
REMARK minimizedAffinity -2.64600277
REMARK minimizedRMSD -1
REMARK  0 active torsions:
REMARK  status: ('A' for Active; 'I' for Inactive)
ROOT
ATOM      1  C   UNL d   1       2.819  -1.057  -1.154  0.00  0.00     0.078 C 
ATOM      2  C1  UNL d   1       1.535  -0.440  -0.688  0.00  0.00    -0.077 A 
ATOM      3  C2  UNL d   1       0.479  -1.235  -0.225  0.00  0.00    -0.001 A 
ATOM      4  C3  UNL d   1      -0.715  -0.647   0.197  0.00  0.00     0.003 A 
ATOM      5  C4  UNL d   1      -0.865   0.737   0.159  0.00  0.00    -0.005 A 
ATOM      6  C5  UNL d   1       0.179   1.536  -0.302  0.00  0.00     0.003 A 
ATOM      7  C6  UNL d   1       1.374   0.951  -0.724  0.00  0.00    -0.001 A 
ENDROOT
TORSDOF 0
ENDMDL
