MODEL 1
REMARK minimizedAffinity -3.51767945
REMARK minimizedRMSD -1
REMARK  0 active torsions:
REMARK  status: ('A' for Active; 'I' for Inactive)
ROOT
ATOM      1  C   UNL d   1       3.115  -0.476  -1.228  0.00  0.00     0.078 C 
ATOM      2  C1  UNL d   1       1.735  -0.365  -0.654  0.00  0.00    -0.077 A 
ATOM      3  C2  UNL d   1       1.056   0.859  -0.640  0.00  0.00    -0.001 A 
ATOM      4  C3  UNL d   1      -0.225   0.950  -0.093  0.00  0.00     0.003 A 
ATOM      5  C4  UNL d   1      -0.838  -0.180   0.445  0.00  0.00    -0.005 A 
ATOM      6  C5  UNL d   1      -0.169  -1.402   0.438  0.00  0.00     0.003 A 
ATOM      7  C6  UNL d   1       1.112  -1.495  -0.109  0.00  0.00    -0.001 A 
ENDROOT
TORSDOF 0
ENDMDL
