MODEL 1
REMARK minimizedAffinity -4.31164074
REMARK minimizedRMSD -1
REMARK  0 active torsions:
REMARK  status: ('A' for Active; 'I' for Inactive)
ROOT
ATOM      1  C   UNL d   1      -1.207   0.635   0.431  0.00  0.00     0.078 C 
ATOM      2  C1  UNL d   1       0.065  -0.019  -0.021  0.00  0.00    -0.077 A 
ATOM      3  C2  UNL d   1       0.237  -1.405   0.076  0.00  0.00    -0.001 A 
ATOM      4  C3  UNL d   1       1.430  -1.999  -0.340  0.00  0.00     0.003 A 
ATOM      5  C4  UNL d   1       2.460  -1.215  -0.854  0.00  0.00    -0.005 A 
ATOM      6  C5  UNL d   1       2.298   0.166  -0.953  0.00  0.00     0.003 A 
ATOM      7  C6  UNL d   1       1.107   0.762  -0.538  0.00  0.00    -0.001 A 
ENDROOT
TORSDOF 0
ENDMDL
