MODEL 1
REMARK minimizedAffinity -3.87882829
REMARK minimizedRMSD -1
REMARK  0 active torsions:
REMARK  status: ('A' for Active; 'I' for Inactive)
ROOT
ATOM      1  C   UNL d   1      -0.652   1.157  -0.161  0.00  0.00     0.078 C 
ATOM      2  C1  UNL d   1       0.719   0.611  -0.428  0.00  0.00    -0.077 A 
ATOM      3  C2  UNL d   1       0.919  -0.757  -0.655  0.00  0.00    -0.001 A 
ATOM      4  C3  UNL d   1       2.202  -1.253  -0.891  0.00  0.00     0.003 A 
ATOM      5  C4  UNL d   1       3.295  -0.389  -0.903  0.00  0.00    -0.005 A 
ATOM      6  C5  UNL d   1       3.106   0.973  -0.676  0.00  0.00     0.003 A 
ATOM      7  C6  UNL d   1       1.824   1.471  -0.438  0.00  0.00    -0.001 A 
ENDROOT
TORSDOF 0
ENDMDL
