MODEL 1
REMARK minimizedAffinity -3.90001011
REMARK minimizedRMSD -1
REMARK  0 active torsions:
REMARK  status: ('A' for Active; 'I' for Inactive)
ROOT
ATOM      1  C   UNL d   1      -1.471   0.684   0.084  0.00  0.00     0.078 C 
ATOM      2  C1  UNL d   1      -0.165  -0.016  -0.152  0.00  0.00    -0.077 A 
ATOM      3  C2  UNL d   1      -0.096  -1.414  -0.207  0.00  0.00    -0.001 A 
ATOM      4  C3  UNL d   1       1.127  -2.052  -0.417  0.00  0.00     0.003 A 
ATOM      5  C4  UNL d   1       2.291  -1.301  -0.572  0.00  0.00    -0.005 A 
ATOM      6  C5  UNL d   1       2.232   0.090  -0.516  0.00  0.00     0.003 A 
ATOM      7  C6  UNL d   1       1.010   0.730  -0.306  0.00  0.00    -0.001 A 
ENDROOT
TORSDOF 0
ENDMDL
