MODEL 1
REMARK minimizedAffinity -5.42638063
REMARK minimizedRMSD -1
REMARK  0 active torsions:
REMARK  status: ('A' for Active; 'I' for Inactive)
ROOT
ATOM      1  C   UNL d   1       3.088  -0.577  -1.023  0.00  0.00     0.078 C 
ATOM      2  C1  UNL d   1       1.684  -0.289  -0.580  0.00  0.00    -0.077 A 
ATOM      3  C2  UNL d   1       0.818  -1.324  -0.208  0.00  0.00    -0.001 A 
ATOM      4  C3  UNL d   1      -0.488  -1.042   0.193  0.00  0.00     0.003 A 
ATOM      5  C4  UNL d   1      -0.942   0.275   0.225  0.00  0.00    -0.005 A 
ATOM      6  C5  UNL d   1      -0.088   1.312  -0.145  0.00  0.00     0.003 A 
ATOM      7  C6  UNL d   1       1.219   1.032  -0.546  0.00  0.00    -0.001 A 
ENDROOT
TORSDOF 0
ENDMDL
