MODEL 1
REMARK minimizedAffinity -4.30954075
REMARK minimizedRMSD -1
REMARK  0 active torsions:
REMARK  status: ('A' for Active; 'I' for Inactive)
ROOT
ATOM      1  C   UNL d   1      -1.290   0.347   1.045  0.00  0.00     0.078 C 
ATOM      2  C1  UNL d   1      -0.134  -0.011   0.159  0.00  0.00    -0.077 A 
ATOM      3  C2  UNL d   1       0.513  -1.246   0.282  0.00  0.00    -0.001 A 
ATOM      4  C3  UNL d   1       1.594  -1.562  -0.544  0.00  0.00     0.003 A 
ATOM      5  C4  UNL d   1       2.037  -0.647  -1.497  0.00  0.00    -0.005 A 
ATOM      6  C5  UNL d   1       1.400   0.586  -1.625  0.00  0.00     0.003 A 
ATOM      7  C6  UNL d   1       0.320   0.903  -0.800  0.00  0.00    -0.001 A 
ENDROOT
TORSDOF 0
ENDMDL
