MODEL 1
REMARK minimizedAffinity -2.99685788
REMARK minimizedRMSD -1
REMARK  0 active torsions:
REMARK  status: ('A' for Active; 'I' for Inactive)
ROOT
ATOM      1  C   UNL d   1       5.965   2.118   4.819  0.00  0.00     0.078 C 
ATOM      2  C1  UNL d   1       5.848   0.623   4.801  0.00  0.00    -0.077 A 
ATOM      3  C2  UNL d   1       5.913  -0.091   3.599  0.00  0.00    -0.001 A 
ATOM      4  C3  UNL d   1       5.793  -1.482   3.597  0.00  0.00     0.003 A 
ATOM      5  C4  UNL d   1       5.605  -2.170   4.794  0.00  0.00    -0.005 A 
ATOM      6  C5  UNL d   1       5.536  -1.467   5.995  0.00  0.00     0.003 A 
ATOM      7  C6  UNL d   1       5.656  -0.076   6.000  0.00  0.00    -0.001 A 
ENDROOT
TORSDOF 0
ENDMDL
