MODEL 1
REMARK minimizedAffinity -4.35089684
REMARK minimizedRMSD -1
REMARK  0 active torsions:
REMARK  status: ('A' for Active; 'I' for Inactive)
ROOT
ATOM      1  C   UNL d   1      -1.160   0.666   0.539  0.00  0.00     0.078 C 
ATOM      2  C1  UNL d   1       0.175   0.080   0.191  0.00  0.00    -0.077 A 
ATOM      3  C2  UNL d   1       1.225   0.892  -0.256  0.00  0.00    -0.001 A 
ATOM      4  C3  UNL d   1       2.460   0.331  -0.586  0.00  0.00     0.003 A 
ATOM      5  C4  UNL d   1       2.656  -1.044  -0.474  0.00  0.00    -0.005 A 
ATOM      6  C5  UNL d   1       1.617  -1.860  -0.032  0.00  0.00     0.003 A 
ATOM      7  C6  UNL d   1       0.381  -1.301   0.298  0.00  0.00    -0.001 A 
ENDROOT
TORSDOF 0
ENDMDL
