MODEL 1
REMARK minimizedAffinity -4.05368853
REMARK minimizedRMSD -1
REMARK  0 active torsions:
REMARK  status: ('A' for Active; 'I' for Inactive)
ROOT
ATOM      1  C   UNL d   1       3.297  -0.405  -0.936  0.00  0.00     0.078 C 
ATOM      2  C1  UNL d   1       1.847  -0.324  -0.559  0.00  0.00    -0.077 A 
ATOM      3  C2  UNL d   1       1.091  -1.483  -0.349  0.00  0.00    -0.001 A 
ATOM      4  C3  UNL d   1      -0.259  -1.393  -0.008  0.00  0.00     0.003 A 
ATOM      5  C4  UNL d   1      -0.866  -0.146   0.125  0.00  0.00    -0.005 A 
ATOM      6  C5  UNL d   1      -0.122   1.014  -0.084  0.00  0.00     0.003 A 
ATOM      7  C6  UNL d   1       1.229   0.925  -0.425  0.00  0.00    -0.001 A 
ENDROOT
TORSDOF 0
ENDMDL
