MODEL 1
REMARK minimizedAffinity -5.29379368
REMARK minimizedRMSD -1
REMARK  0 active torsions:
REMARK  status: ('A' for Active; 'I' for Inactive)
ROOT
ATOM      1  C   UNL d   1       0.118  -2.937   0.559  0.00  0.00     0.078 C 
ATOM      2  C1  UNL d   1       0.499  -1.605  -0.015  0.00  0.00    -0.077 A 
ATOM      3  C2  UNL d   1       1.730  -1.423  -0.658  0.00  0.00    -0.001 A 
ATOM      4  C3  UNL d   1       2.076  -0.175  -1.179  0.00  0.00     0.003 A 
ATOM      5  C4  UNL d   1       1.198   0.900  -1.062  0.00  0.00    -0.005 A 
ATOM      6  C5  UNL d   1      -0.028   0.729  -0.422  0.00  0.00     0.003 A 
ATOM      7  C6  UNL d   1      -0.376  -0.518   0.100  0.00  0.00    -0.001 A 
ENDROOT
TORSDOF 0
ENDMDL
