MODEL 1
REMARK minimizedAffinity -1.16130888
REMARK minimizedRMSD -1
REMARK  0 active torsions:
REMARK  status: ('A' for Active; 'I' for Inactive)
ROOT
ATOM      1  C   UNL d   1       2.373  -1.566  -1.501  0.00  0.00     0.078 C 
ATOM      2  C1  UNL d   1       1.219  -0.974  -0.748  0.00  0.00    -0.077 A 
ATOM      3  C2  UNL d   1       0.433  -1.761   0.103  0.00  0.00    -0.001 A 
ATOM      4  C3  UNL d   1      -0.644  -1.199   0.790  0.00  0.00     0.003 A 
ATOM      5  C4  UNL d   1      -0.945   0.152   0.634  0.00  0.00    -0.005 A 
ATOM      6  C5  UNL d   1      -0.170   0.943  -0.212  0.00  0.00     0.003 A 
ATOM      7  C6  UNL d   1       0.907   0.383  -0.900  0.00  0.00    -0.001 A 
ENDROOT
TORSDOF 0
ENDMDL
