MODEL 1
REMARK minimizedAffinity -5.6081028
REMARK minimizedRMSD -1
REMARK  0 active torsions:
REMARK  status: ('A' for Active; 'I' for Inactive)
ROOT
ATOM      1  C   UNL d   1       3.011  -0.359  -1.148  0.00  0.00     0.078 C 
ATOM      2  C1  UNL d   1       1.593  -0.362  -0.662  0.00  0.00    -0.077 A 
ATOM      3  C2  UNL d   1       0.867   0.830  -0.547  0.00  0.00    -0.001 A 
ATOM      4  C3  UNL d   1      -0.450   0.813  -0.084  0.00  0.00     0.003 A 
ATOM      5  C4  UNL d   1      -1.052  -0.393   0.270  0.00  0.00    -0.005 A 
ATOM      6  C5  UNL d   1      -0.336  -1.584   0.162  0.00  0.00     0.003 A 
ATOM      7  C6  UNL d   1       0.980  -1.569  -0.301  0.00  0.00    -0.001 A 
ENDROOT
TORSDOF 0
ENDMDL
