MODEL 1
REMARK minimizedAffinity -4.92561197
REMARK minimizedRMSD -1
REMARK  0 active torsions:
REMARK  status: ('A' for Active; 'I' for Inactive)
ROOT
ATOM      1  C   UNL d   1      -1.256   0.355   0.204  0.00  0.00     0.078 C 
ATOM      2  C1  UNL d   1       0.081  -0.222  -0.153  0.00  0.00    -0.077 A 
ATOM      3  C2  UNL d   1       0.355  -1.582   0.040  0.00  0.00    -0.001 A 
ATOM      4  C3  UNL d   1       1.607  -2.103  -0.287  0.00  0.00     0.003 A 
ATOM      5  C4  UNL d   1       2.597  -1.272  -0.808  0.00  0.00    -0.005 A 
ATOM      6  C5  UNL d   1       2.335   0.083  -1.002  0.00  0.00     0.003 A 
ATOM      7  C6  UNL d   1       1.083   0.606  -0.675  0.00  0.00    -0.001 A 
ENDROOT
TORSDOF 0
ENDMDL
