MODEL 1
REMARK minimizedAffinity -4.74567652
REMARK minimizedRMSD -1
REMARK  0 active torsions:
REMARK  status: ('A' for Active; 'I' for Inactive)
ROOT
ATOM      1  C   UNL d   1      -0.829   0.041   0.781  0.00  0.00     0.078 C 
ATOM      2  C1  UNL d   1       0.381  -0.199  -0.071  0.00  0.00    -0.077 A 
ATOM      3  C2  UNL d   1       1.492   0.650  -0.002  0.00  0.00    -0.001 A 
ATOM      4  C3  UNL d   1       2.608   0.420  -0.809  0.00  0.00     0.003 A 
ATOM      5  C4  UNL d   1       2.623  -0.658  -1.691  0.00  0.00    -0.005 A 
ATOM      6  C5  UNL d   1       1.521  -1.508  -1.768  0.00  0.00     0.003 A 
ATOM      7  C6  UNL d   1       0.405  -1.280  -0.962  0.00  0.00    -0.001 A 
ENDROOT
TORSDOF 0
ENDMDL
