MODEL 1
REMARK minimizedAffinity -4.68715525
REMARK minimizedRMSD -1
REMARK  0 active torsions:
REMARK  status: ('A' for Active; 'I' for Inactive)
ROOT
ATOM      1  C   UNL d   1       2.917  -0.416  -0.357  0.00  0.00     0.078 C 
ATOM      2  C1  UNL d   1       1.422  -0.301  -0.362  0.00  0.00    -0.077 A 
ATOM      3  C2  UNL d   1       0.795   0.939  -0.532  0.00  0.00    -0.001 A 
ATOM      4  C3  UNL d   1      -0.598   1.033  -0.525  0.00  0.00     0.003 A 
ATOM      5  C4  UNL d   1      -1.375  -0.109  -0.346  0.00  0.00    -0.005 A 
ATOM      6  C5  UNL d   1      -0.760  -1.347  -0.173  0.00  0.00     0.003 A 
ATOM      7  C6  UNL d   1       0.632  -1.443  -0.181  0.00  0.00    -0.001 A 
ENDROOT
TORSDOF 0
ENDMDL
