MODEL 1
REMARK minimizedAffinity -4.40799236
REMARK minimizedRMSD -1
REMARK  0 active torsions:
REMARK  status: ('A' for Active; 'I' for Inactive)
ROOT
ATOM      1  C   UNL d   1       0.001   1.061  -0.218  0.00  0.00     0.078 C 
ATOM      2  C1  UNL d   1      -1.156   0.936   0.727  0.00  0.00    -0.077 A 
ATOM      3  C2  UNL d   1      -1.239   1.733   1.875  0.00  0.00    -0.001 A 
ATOM      4  C3  UNL d   1      -2.317   1.599   2.751  0.00  0.00     0.003 A 
ATOM      5  C4  UNL d   1      -3.320   0.668   2.489  0.00  0.00    -0.005 A 
ATOM      6  C5  UNL d   1      -3.245  -0.131   1.350  0.00  0.00     0.003 A 
ATOM      7  C6  UNL d   1      -2.168   0.001   0.473  0.00  0.00    -0.001 A 
ENDROOT
TORSDOF 0
ENDMDL
