MODEL 1
REMARK minimizedAffinity 9.02365971
REMARK minimizedRMSD -1
REMARK  0 active torsions:
REMARK  status: ('A' for Active; 'I' for Inactive)
ROOT
ATOM      1  C   UNL d   1       4.869   1.060  -0.679  0.00  0.00     0.124 A 
ATOM      2  C1  UNL d   1       4.695   1.989   0.338  0.00  0.00     0.062 A 
ATOM      3  C2  UNL d   1       3.525   1.992   1.091  0.00  0.00     0.162 A 
ATOM      4  C3  UNL d   1       2.519   1.062   0.832  0.00  0.00    -0.034 A 
ATOM      5  C4  UNL d   1       2.700   0.131  -0.193  0.00  0.00     0.162 A 
ATOM      6  C5  UNL d   1       3.871   0.132  -0.943  0.00  0.00     0.062 A 
ATOM      7  F   UNL d   1       4.037  -0.766  -1.925  0.00  0.00    -0.097 F 
ATOM      8  F1  UNL d   1       1.753  -0.777  -0.469  0.00  0.00    -0.096 F 
ATOM      9  I   UNL d   1       0.767   1.063   1.956  0.00  0.00    -0.060 I 
ATOM     10  F2  UNL d   1       3.385   2.901   2.068  0.00  0.00    -0.096 F 
ATOM     11  F3  UNL d   1       5.657   2.888   0.595  0.00  0.00    -0.097 F 
ATOM     12  F4  UNL d   1       5.995   1.061  -1.403  0.00  0.00    -0.092 F 
ENDROOT
TORSDOF 0
ENDMDL
