MODEL 1
REMARK minimizedAffinity 16.6218204
REMARK minimizedRMSD -1
REMARK  0 active torsions:
REMARK  status: ('A' for Active; 'I' for Inactive)
ROOT
ATOM      1  C   UNL d   1       2.428  -2.451  -1.181  0.00  0.00     0.124 A 
ATOM      2  C1  UNL d   1       3.269  -1.946  -2.163  0.00  0.00     0.062 A 
ATOM      3  C2  UNL d   1       3.897  -0.717  -1.983  0.00  0.00     0.162 A 
ATOM      4  C3  UNL d   1       3.685   0.017  -0.815  0.00  0.00    -0.034 A 
ATOM      5  C4  UNL d   1       2.837  -0.497   0.167  0.00  0.00     0.162 A 
ATOM      6  C5  UNL d   1       2.212  -1.726  -0.017  0.00  0.00     0.062 A 
ATOM      7  F   UNL d   1       1.400  -2.212   0.932  0.00  0.00    -0.097 F 
ATOM      8  F1  UNL d   1       2.612   0.183   1.302  0.00  0.00    -0.096 F 
ATOM      9  I   UNL d   1       4.622   1.855  -0.543  0.00  0.00    -0.060 I 
ATOM     10  F2  UNL d   1       4.705  -0.254  -2.948  0.00  0.00    -0.096 F 
ATOM     11  F3  UNL d   1       3.478  -2.645  -3.288  0.00  0.00    -0.097 F 
ATOM     12  F4  UNL d   1       1.825  -3.634  -1.357  0.00  0.00    -0.092 F 
ENDROOT
TORSDOF 0
ENDMDL
