MODEL 1
REMARK minimizedAffinity 16.4750805
REMARK minimizedRMSD -1
REMARK  0 active torsions:
REMARK  status: ('A' for Active; 'I' for Inactive)
ROOT
ATOM      1  C   UNL d   1       3.341  -0.802  -1.752  0.00  0.00     0.124 A 
ATOM      2  C1  UNL d   1       3.253   0.133  -0.730  0.00  0.00     0.062 A 
ATOM      3  C2  UNL d   1       2.614  -0.190   0.463  0.00  0.00     0.162 A 
ATOM      4  C3  UNL d   1       2.057  -1.457   0.642  0.00  0.00    -0.034 A 
ATOM      5  C4  UNL d   1       2.148  -2.392  -0.390  0.00  0.00     0.162 A 
ATOM      6  C5  UNL d   1       2.789  -2.064  -1.581  0.00  0.00     0.062 A 
ATOM      7  F   UNL d   1       2.873  -2.969  -2.567  0.00  0.00    -0.097 F 
ATOM      8  F1  UNL d   1       1.624  -3.619  -0.252  0.00  0.00    -0.096 F 
ATOM      9  I   UNL d   1       1.100  -1.945   2.424  0.00  0.00    -0.060 I 
ATOM     10  F2  UNL d   1       2.544   0.734   1.432  0.00  0.00    -0.096 F 
ATOM     11  F3  UNL d   1       3.785   1.353  -0.893  0.00  0.00    -0.097 F 
ATOM     12  F4  UNL d   1       3.956  -0.488  -2.899  0.00  0.00    -0.092 F 
ENDROOT
TORSDOF 0
ENDMDL
