MODEL 1
REMARK minimizedAffinity 12.0026026
REMARK minimizedRMSD -1
REMARK  0 active torsions:
REMARK  status: ('A' for Active; 'I' for Inactive)
ROOT
ATOM      1  C   UNL d   1      -0.720   2.502   2.414  0.00  0.00     0.124 A 
ATOM      2  C1  UNL d   1      -0.455   2.718   1.069  0.00  0.00     0.062 A 
ATOM      3  C2  UNL d   1       0.368   1.841   0.369  0.00  0.00     0.162 A 
ATOM      4  C3  UNL d   1       0.932   0.740   1.012  0.00  0.00    -0.034 A 
ATOM      5  C4  UNL d   1       0.662   0.530   2.365  0.00  0.00     0.162 A 
ATOM      6  C5  UNL d   1      -0.162   1.409   3.061  0.00  0.00     0.062 A 
ATOM      7  F   UNL d   1      -0.417   1.199   4.361  0.00  0.00    -0.097 F 
ATOM      8  F1  UNL d   1       1.188  -0.519   3.015  0.00  0.00    -0.096 F 
ATOM      9  I   UNL d   1       2.165  -0.573  -0.032  0.00  0.00    -0.060 I 
ATOM     10  F2  UNL d   1       0.607   2.074  -0.930  0.00  0.00    -0.096 F 
ATOM     11  F3  UNL d   1      -0.993   3.774   0.442  0.00  0.00    -0.097 F 
ATOM     12  F4  UNL d   1      -1.512   3.348   3.086  0.00  0.00    -0.092 F 
ENDROOT
TORSDOF 0
ENDMDL
