MODEL 1
REMARK minimizedAffinity 14.5687227
REMARK minimizedRMSD -1
REMARK  0 active torsions:
REMARK  status: ('A' for Active; 'I' for Inactive)
ROOT
ATOM      1  C   UNL d   1      -0.964  -3.043  -1.855  0.00  0.00     0.124 A 
ATOM      2  C1  UNL d   1      -0.971  -1.693  -2.180  0.00  0.00     0.062 A 
ATOM      3  C2  UNL d   1       0.092  -0.877  -1.806  0.00  0.00     0.162 A 
ATOM      4  C3  UNL d   1       1.174  -1.409  -1.103  0.00  0.00    -0.034 A 
ATOM      5  C4  UNL d   1       1.173  -2.767  -0.778  0.00  0.00     0.162 A 
ATOM      6  C5  UNL d   1       0.108  -3.578  -1.155  0.00  0.00     0.062 A 
ATOM      7  F   UNL d   1       0.116  -4.881  -0.839  0.00  0.00    -0.097 F 
ATOM      8  F1  UNL d   1       2.197  -3.310  -0.103  0.00  0.00    -0.096 F 
ATOM      9  I   UNL d   1       2.766  -0.192  -0.541  0.00  0.00    -0.060 I 
ATOM     10  F2  UNL d   1       0.059   0.423  -2.134  0.00  0.00    -0.096 F 
ATOM     11  F3  UNL d   1      -2.006  -1.174  -2.856  0.00  0.00    -0.097 F 
ATOM     12  F4  UNL d   1      -1.989  -3.825  -2.216  0.00  0.00    -0.092 F 
ENDROOT
TORSDOF 0
ENDMDL
