MODEL 1
REMARK minimizedAffinity 18.0208263
REMARK minimizedRMSD -1
REMARK  0 active torsions:
REMARK  status: ('A' for Active; 'I' for Inactive)
ROOT
ATOM      1  C   UNL d   1      -0.993   2.590   0.930  0.00  0.00     0.124 A 
ATOM      2  C1  UNL d   1      -0.907   2.401   2.302  0.00  0.00     0.062 A 
ATOM      3  C2  UNL d   1      -0.283   1.267   2.815  0.00  0.00     0.162 A 
ATOM      4  C3  UNL d   1       0.261   0.314   1.954  0.00  0.00    -0.034 A 
ATOM      5  C4  UNL d   1       0.170   0.511   0.575  0.00  0.00     0.162 A 
ATOM      6  C5  UNL d   1      -0.455   1.646   0.068  0.00  0.00     0.062 A 
ATOM      7  F   UNL d   1      -0.537   1.827  -1.258  0.00  0.00    -0.097 F 
ATOM      8  F1  UNL d   1       0.683  -0.386  -0.281  0.00  0.00    -0.096 F 
ATOM      9  I   UNL d   1       1.195  -1.383   2.716  0.00  0.00    -0.060 I 
ATOM     10  F2  UNL d   1      -0.214   1.110   4.145  0.00  0.00    -0.096 F 
ATOM     11  F3  UNL d   1      -1.427   3.312   3.138  0.00  0.00    -0.097 F 
ATOM     12  F4  UNL d   1      -1.595   3.682   0.440  0.00  0.00    -0.092 F 
ENDROOT
TORSDOF 0
ENDMDL
