MODEL 1
REMARK minimizedAffinity 13.5053082
REMARK minimizedRMSD -1
REMARK  0 active torsions:
REMARK  status: ('A' for Active; 'I' for Inactive)
ROOT
ATOM      1  C   UNL d   1       2.359  -2.221  -1.208  0.00  0.00     0.124 A 
ATOM      2  C1  UNL d   1       2.282  -1.302  -0.170  0.00  0.00     0.062 A 
ATOM      3  C2  UNL d   1       3.005  -0.115  -0.232  0.00  0.00     0.162 A 
ATOM      4  C3  UNL d   1       3.811   0.162  -1.336  0.00  0.00    -0.034 A 
ATOM      5  C4  UNL d   1       3.884  -0.768  -2.375  0.00  0.00     0.162 A 
ATOM      6  C5  UNL d   1       3.160  -1.953  -2.309  0.00  0.00     0.062 A 
ATOM      7  F   UNL d   1       3.236  -2.840  -3.312  0.00  0.00    -0.097 F 
ATOM      8  F1  UNL d   1       4.650  -0.533  -3.451  0.00  0.00    -0.096 F 
ATOM      9  I   UNL d   1       4.894   1.937  -1.432  0.00  0.00    -0.060 I 
ATOM     10  F2  UNL d   1       2.911   0.755   0.785  0.00  0.00    -0.096 F 
ATOM     11  F3  UNL d   1       1.509  -1.560   0.895  0.00  0.00    -0.097 F 
ATOM     12  F4  UNL d   1       1.663  -3.364  -1.145  0.00  0.00    -0.092 F 
ENDROOT
TORSDOF 0
ENDMDL
