MODEL 1
REMARK minimizedAffinity 14.9943295
REMARK minimizedRMSD -1
REMARK  0 active torsions:
REMARK  status: ('A' for Active; 'I' for Inactive)
ROOT
ATOM      1  C   UNL d   1      -0.915   0.921  -2.107  0.00  0.00     0.124 A 
ATOM      2  C1  UNL d   1       0.097   1.316  -1.242  0.00  0.00     0.062 A 
ATOM      3  C2  UNL d   1       1.122   0.434  -0.915  0.00  0.00     0.162 A 
ATOM      4  C3  UNL d   1       1.143  -0.853  -1.454  0.00  0.00    -0.034 A 
ATOM      5  C4  UNL d   1       0.122  -1.243  -2.323  0.00  0.00     0.162 A 
ATOM      6  C5  UNL d   1      -0.901  -0.357  -2.646  0.00  0.00     0.062 A 
ATOM      7  F   UNL d   1      -1.877  -0.740  -3.482  0.00  0.00    -0.097 F 
ATOM      8  F1  UNL d   1       0.111  -2.472  -2.859  0.00  0.00    -0.096 F 
ATOM      9  I   UNL d   1       2.675  -2.175  -0.968  0.00  0.00    -0.060 I 
ATOM     10  F2  UNL d   1       2.087   0.842  -0.077  0.00  0.00    -0.096 F 
ATOM     11  F3  UNL d   1       0.085   2.550  -0.718  0.00  0.00    -0.097 F 
ATOM     12  F4  UNL d   1      -1.901   1.772  -2.418  0.00  0.00    -0.092 F 
ENDROOT
TORSDOF 0
ENDMDL
