MODEL 1
REMARK minimizedAffinity 1.57279575
REMARK minimizedRMSD -1
REMARK  0 active torsions:
REMARK  status: ('A' for Active; 'I' for Inactive)
ROOT
ATOM      1  N1  IND d   1       0.576   0.170   1.356  0.00  0.00    -0.196 N 
ATOM      2  C2  IND d   1       0.178   0.449   0.078  0.00  0.00     0.054 A 
ATOM      3  C3  IND d   1      -0.939  -0.247  -0.229  0.00  0.00    -0.031 A 
ATOM      4  C4  IND d   1      -2.342  -1.823   1.247  0.00  0.00     0.051 A 
ATOM      5  C5  IND d   1      -2.356  -2.418   2.477  0.00  0.00    -0.031 A 
ATOM      6  C6  IND d   1      -1.376  -2.173   3.417  0.00  0.00     0.015 A 
ATOM      7  C7  IND d   1      -0.346  -1.312   3.164  0.00  0.00    -0.016 A 
ATOM      8  C8  IND d   1      -0.324  -0.712   1.913  0.00  0.00    -0.047 A 
ATOM      9  C9  IND d   1      -1.293  -0.989   0.940  0.00  0.00    -0.096 A 
ATOM     10  HN1 IND d   1       1.272   0.492   1.747  0.00  0.00     0.298 HD
ENDROOT
TORSDOF 0
ENDMDL
