MODEL 1
REMARK minimizedAffinity -3.41129422
REMARK minimizedRMSD -1
REMARK  0 active torsions:
REMARK  status: ('A' for Active; 'I' for Inactive)
ROOT
ATOM      1  N1  IND d   1      -5.233  -4.580  -3.740  0.00  0.00    -0.196 N 
ATOM      2  C2  IND d   1      -5.623  -3.311  -4.064  0.00  0.00     0.054 A 
ATOM      3  C3  IND d   1      -4.730  -2.745  -4.907  0.00  0.00    -0.031 A 
ATOM      4  C4  IND d   1      -2.612  -3.755  -5.965  0.00  0.00     0.051 A 
ATOM      5  C5  IND d   1      -1.824  -4.872  -5.942  0.00  0.00    -0.031 A 
ATOM      6  C6  IND d   1      -2.140  -5.971  -5.171  0.00  0.00     0.015 A 
ATOM      7  C7  IND d   1      -3.267  -6.000  -4.398  0.00  0.00    -0.016 A 
ATOM      8  C8  IND d   1      -4.065  -4.865  -4.414  0.00  0.00    -0.047 A 
ATOM      9  C9  IND d   1      -3.727  -3.730  -5.161  0.00  0.00    -0.096 A 
ATOM     10  HN1 IND d   1      -5.646  -5.111  -3.205  0.00  0.00     0.298 HD
ENDROOT
TORSDOF 0
ENDMDL
