MODEL 1
REMARK minimizedAffinity -4.52543163
REMARK minimizedRMSD -1
REMARK  0 active torsions:
REMARK  status: ('A' for Active; 'I' for Inactive)
ROOT
ATOM      1  N1  IND d   1      -2.277  -4.193  -5.790  0.00  0.00    -0.196 N 
ATOM      2  C2  IND d   1      -2.097  -5.417  -5.208  0.00  0.00     0.054 A 
ATOM      3  C3  IND d   1      -3.173  -5.743  -4.457  0.00  0.00    -0.031 A 
ATOM      4  C4  IND d   1      -5.382  -4.466  -4.122  0.00  0.00     0.051 A 
ATOM      5  C5  IND d   1      -5.999  -3.284  -4.421  0.00  0.00    -0.031 A 
ATOM      6  C6  IND d   1      -5.396  -2.326  -5.211  0.00  0.00     0.015 A 
ATOM      7  C7  IND d   1      -4.152  -2.521  -5.742  0.00  0.00    -0.016 A 
ATOM      8  C8  IND d   1      -3.520  -3.717  -5.434  0.00  0.00    -0.047 A 
ATOM      9  C9  IND d   1      -4.110  -4.674  -4.598  0.00  0.00    -0.096 A 
ATOM     10  HN1 IND d   1      -1.710  -3.789  -6.294  0.00  0.00     0.298 HD
ENDROOT
TORSDOF 0
ENDMDL
