MODEL 1
REMARK minimizedAffinity -4.01809025
REMARK minimizedRMSD -1
REMARK  0 active torsions:
REMARK  status: ('A' for Active; 'I' for Inactive)
ROOT
ATOM      1  N1  IND d   1      -3.075  -5.997  -5.861  0.00  0.00    -0.196 N 
ATOM      2  C2  IND d   1      -1.771  -5.596  -5.937  0.00  0.00     0.054 A 
ATOM      3  C3  IND d   1      -1.585  -4.462  -5.223  0.00  0.00    -0.031 A 
ATOM      4  C4  IND d   1      -3.259  -3.151  -3.772  0.00  0.00     0.051 A 
ATOM      5  C5  IND d   1      -4.579  -3.109  -3.422  0.00  0.00    -0.031 A 
ATOM      6  C6  IND d   1      -5.483  -4.048  -3.874  0.00  0.00     0.015 A 
ATOM      7  C7  IND d   1      -5.097  -5.075  -4.688  0.00  0.00    -0.016 A 
ATOM      8  C8  IND d   1      -3.758  -5.117  -5.051  0.00  0.00    -0.047 A 
ATOM      9  C9  IND d   1      -2.844  -4.142  -4.630  0.00  0.00    -0.096 A 
ATOM     10  HN1 IND d   1      -3.413  -6.683  -6.254  0.00  0.00     0.298 HD
ENDROOT
TORSDOF 0
ENDMDL
