MODEL 1
REMARK minimizedAffinity -3.04848361
REMARK minimizedRMSD -1
REMARK  0 active torsions:
REMARK  status: ('A' for Active; 'I' for Inactive)
ROOT
ATOM      1  N1  IND d   1      -3.093  -5.239  -3.795  0.00  0.00    -0.196 N 
ATOM      2  C2  IND d   1      -2.432  -5.531  -4.955  0.00  0.00     0.054 A 
ATOM      3  C3  IND d   1      -2.985  -4.864  -5.993  0.00  0.00    -0.031 A 
ATOM      4  C4  IND d   1      -4.918  -3.163  -5.999  0.00  0.00     0.051 A 
ATOM      5  C5  IND d   1      -5.860  -2.600  -5.185  0.00  0.00    -0.031 A 
ATOM      6  C6  IND d   1      -5.928  -2.891  -3.838  0.00  0.00     0.015 A 
ATOM      7  C7  IND d   1      -5.045  -3.752  -3.250  0.00  0.00    -0.016 A 
ATOM      8  C8  IND d   1      -4.091  -4.331  -4.075  0.00  0.00    -0.047 A 
ATOM      9  C9  IND d   1      -4.044  -4.072  -5.451  0.00  0.00    -0.096 A 
ATOM     10  HN1 IND d   1      -2.916  -5.567  -3.020  0.00  0.00     0.298 HD
ENDROOT
TORSDOF 0
ENDMDL
