MODEL 1
REMARK minimizedAffinity -2.94073772
REMARK minimizedRMSD -1
REMARK  0 active torsions:
REMARK  status: ('A' for Active; 'I' for Inactive)
ROOT
ATOM      1  N1  IND d   1      -4.836  -5.282  -3.591  0.00  0.00    -0.196 N 
ATOM      2  C2  IND d   1      -6.000  -4.606  -3.348  0.00  0.00     0.054 A 
ATOM      3  C3  IND d   1      -5.983  -3.403  -3.966  0.00  0.00    -0.031 A 
ATOM      4  C4  IND d   1      -4.193  -2.383  -5.509  0.00  0.00     0.051 A 
ATOM      5  C5  IND d   1      -2.937  -2.609  -5.999  0.00  0.00    -0.031 A 
ATOM      6  C6  IND d   1      -2.237  -3.762  -5.707  0.00  0.00     0.015 A 
ATOM      7  C7  IND d   1      -2.774  -4.741  -4.921  0.00  0.00    -0.016 A 
ATOM      8  C8  IND d   1      -4.046  -4.512  -4.416  0.00  0.00    -0.047 A 
ATOM      9  C9  IND d   1      -4.744  -3.325  -4.674  0.00  0.00    -0.096 A 
ATOM     10  HN1 IND d   1      -4.633  -6.057  -3.280  0.00  0.00     0.298 HD
ENDROOT
TORSDOF 0
ENDMDL
