MODEL 1
REMARK minimizedAffinity -3.99901271
REMARK minimizedRMSD -1
REMARK  0 active torsions:
REMARK  status: ('A' for Active; 'I' for Inactive)
ROOT
ATOM      1  N1  IND d   1      -5.665  -4.684  -3.383  0.00  0.00    -0.196 N 
ATOM      2  C2  IND d   1      -5.998  -3.358  -3.378  0.00  0.00     0.054 A 
ATOM      3  C3  IND d   1      -5.131  -2.654  -4.140  0.00  0.00    -0.031 A 
ATOM      4  C4  IND d   1      -3.156  -3.486  -5.567  0.00  0.00     0.051 A 
ATOM      5  C5  IND d   1      -2.440  -4.611  -5.861  0.00  0.00    -0.031 A 
ATOM      6  C6  IND d   1      -2.769  -5.844  -5.337  0.00  0.00     0.015 A 
ATOM      7  C7  IND d   1      -3.840  -6.000  -4.503  0.00  0.00    -0.016 A 
ATOM      8  C8  IND d   1      -4.566  -4.858  -4.195  0.00  0.00    -0.047 A 
ATOM      9  C9  IND d   1      -4.211  -3.597  -4.691  0.00  0.00    -0.096 A 
ATOM     10  HN1 IND d   1      -6.073  -5.306  -2.950  0.00  0.00     0.298 HD
ENDROOT
TORSDOF 0
ENDMDL
