MODEL 1
REMARK minimizedAffinity -4.26279449
REMARK minimizedRMSD -1
REMARK  0 active torsions:
REMARK  status: ('A' for Active; 'I' for Inactive)
ROOT
ATOM      1  N1  IND d   1      -2.250  -3.953  -5.999  0.00  0.00    -0.196 N 
ATOM      2  C2  IND d   1      -1.875  -5.259  -5.850  0.00  0.00     0.054 A 
ATOM      3  C3  IND d   1      -2.860  -5.966  -5.253  0.00  0.00    -0.031 A 
ATOM      4  C4  IND d   1      -5.211  -5.206  -4.528  0.00  0.00     0.051 A 
ATOM      5  C5  IND d   1      -6.000  -4.094  -4.427  0.00  0.00    -0.031 A 
ATOM      6  C6  IND d   1      -5.572  -2.854  -4.855  0.00  0.00     0.015 A 
ATOM      7  C7  IND d   1      -4.337  -2.681  -5.414  0.00  0.00    -0.016 A 
ATOM      8  C8  IND d   1      -3.531  -3.806  -5.513  0.00  0.00    -0.047 A 
ATOM      9  C9  IND d   1      -3.943  -5.059  -5.041  0.00  0.00    -0.096 A 
ATOM     10  HN1 IND d   1      -1.768  -3.328  -6.340  0.00  0.00     0.298 HD
ENDROOT
TORSDOF 0
ENDMDL
