MODEL 1
REMARK minimizedAffinity -3.41803145
REMARK minimizedRMSD -1
REMARK  0 active torsions:
REMARK  status: ('A' for Active; 'I' for Inactive)
ROOT
ATOM      1  N1  IND d   1      -2.972  -5.991  -5.999  0.00  0.00    -0.196 N 
ATOM      2  C2  IND d   1      -1.742  -5.477  -5.696  0.00  0.00     0.054 A 
ATOM      3  C3  IND d   1      -1.865  -4.444  -4.832  0.00  0.00    -0.031 A 
ATOM      4  C4  IND d   1      -3.976  -3.493  -3.708  0.00  0.00     0.051 A 
ATOM      5  C5  IND d   1      -5.338  -3.611  -3.699  0.00  0.00    -0.031 A 
ATOM      6  C6  IND d   1      -5.994  -4.548  -4.471  0.00  0.00     0.015 A 
ATOM      7  C7  IND d   1      -5.308  -5.415  -5.274  0.00  0.00    -0.016 A 
ATOM      8  C8  IND d   1      -3.926  -5.294  -5.291  0.00  0.00    -0.047 A 
ATOM      9  C9  IND d   1      -3.258  -4.316  -4.542  0.00  0.00    -0.096 A 
ATOM     10  HN1 IND d   1      -3.124  -6.641  -6.541  0.00  0.00     0.298 HD
ENDROOT
TORSDOF 0
ENDMDL
