MODEL 1
REMARK minimizedAffinity -3.91525435
REMARK minimizedRMSD -1
REMARK  0 active torsions:
REMARK  status: ('A' for Active; 'I' for Inactive)
ROOT
ATOM      1  N1  IND d   1      -4.040  -6.000  -4.392  0.00  0.00    -0.196 N 
ATOM      2  C2  IND d   1      -2.762  -5.979  -4.875  0.00  0.00     0.054 A 
ATOM      3  C3  IND d   1      -2.423  -4.726  -5.254  0.00  0.00    -0.031 A 
ATOM      4  C4  IND d   1      -3.773  -2.541  -5.074  0.00  0.00     0.051 A 
ATOM      5  C5  IND d   1      -5.006  -2.062  -4.732  0.00  0.00    -0.031 A 
ATOM      6  C6  IND d   1      -6.000  -2.887  -4.247  0.00  0.00     0.015 A 
ATOM      7  C7  IND d   1      -5.792  -4.227  -4.074  0.00  0.00    -0.016 A 
ATOM      8  C8  IND d   1      -4.544  -4.718  -4.427  0.00  0.00    -0.047 A 
ATOM      9  C9  IND d   1      -3.545  -3.892  -4.960  0.00  0.00    -0.096 A 
ATOM     10  HN1 IND d   1      -4.460  -6.696  -4.113  0.00  0.00     0.298 HD
ENDROOT
TORSDOF 0
ENDMDL
