MODEL 1
REMARK minimizedAffinity -1.2776103
REMARK minimizedRMSD -1
REMARK  0 active torsions:
REMARK  status: ('A' for Active; 'I' for Inactive)
ROOT
ATOM      1  N1  IND d   1      -2.422  -5.003  -5.088  0.00  0.00    -0.196 N 
ATOM      2  C2  IND d   1      -2.850  -5.963  -5.962  0.00  0.00     0.054 A 
ATOM      3  C3  IND d   1      -4.201  -5.999  -5.998  0.00  0.00    -0.031 A 
ATOM      4  C4  IND d   1      -5.909  -4.506  -4.781  0.00  0.00     0.051 A 
ATOM      5  C5  IND d   1      -5.999  -3.513  -3.847  0.00  0.00    -0.031 A 
ATOM      6  C6  IND d   1      -4.878  -2.952  -3.269  0.00  0.00     0.015 A 
ATOM      7  C7  IND d   1      -3.620  -3.358  -3.614  0.00  0.00    -0.016 A 
ATOM      8  C8  IND d   1      -3.525  -4.371  -4.557  0.00  0.00    -0.047 A 
ATOM      9  C9  IND d   1      -4.660  -4.974  -5.115  0.00  0.00    -0.096 A 
ATOM     10  HN1 IND d   1      -1.602  -4.824  -4.901  0.00  0.00     0.298 HD
ENDROOT
TORSDOF 0
ENDMDL
