MODEL 1
REMARK minimizedAffinity -4.12380552
REMARK minimizedRMSD -1
REMARK  0 active torsions:
REMARK  status: ('A' for Active; 'I' for Inactive)
ROOT
ATOM      1  N1  IND d   1      -3.757  -5.722  -4.504  0.00  0.00    -0.196 N 
ATOM      2  C2  IND d   1      -2.641  -5.726  -5.294  0.00  0.00     0.054 A 
ATOM      3  C3  IND d   1      -2.560  -4.576  -6.000  0.00  0.00    -0.031 A 
ATOM      4  C4  IND d   1      -4.092  -2.508  -5.939  0.00  0.00     0.051 A 
ATOM      5  C5  IND d   1      -5.259  -2.048  -5.398  0.00  0.00    -0.031 A 
ATOM      6  C6  IND d   1      -6.000  -2.803  -4.512  0.00  0.00     0.015 A 
ATOM      7  C7  IND d   1      -5.592  -4.048  -4.123  0.00  0.00    -0.016 A 
ATOM      8  C8  IND d   1      -4.410  -4.521  -4.675  0.00  0.00    -0.047 A 
ATOM      9  C9  IND d   1      -3.677  -3.776  -5.608  0.00  0.00    -0.096 A 
ATOM     10  HN1 IND d   1      -4.009  -6.361  -3.987  0.00  0.00     0.298 HD
ENDROOT
TORSDOF 0
ENDMDL
