MODEL 1
REMARK minimizedAffinity -2.80624843
REMARK minimizedRMSD -1
REMARK  0 active torsions:
REMARK  status: ('A' for Active; 'I' for Inactive)
ROOT
ATOM      1  N1  IND d   1      -2.154  -3.788  -5.754  0.00  0.00    -0.196 N 
ATOM      2  C2  IND d   1      -1.468  -4.959  -5.914  0.00  0.00     0.054 A 
ATOM      3  C3  IND d   1      -2.327  -6.000  -5.999  0.00  0.00    -0.031 A 
ATOM      4  C4  IND d   1      -4.901  -6.000  -6.000  0.00  0.00     0.051 A 
ATOM      5  C5  IND d   1      -5.979  -5.174  -5.841  0.00  0.00    -0.031 A 
ATOM      6  C6  IND d   1      -5.833  -3.816  -5.644  0.00  0.00     0.015 A 
ATOM      7  C7  IND d   1      -4.600  -3.229  -5.610  0.00  0.00    -0.016 A 
ATOM      8  C8  IND d   1      -3.504  -4.066  -5.763  0.00  0.00    -0.047 A 
ATOM      9  C9  IND d   1      -3.643  -5.450  -5.921  0.00  0.00    -0.096 A 
ATOM     10  HN1 IND d   1      -1.802  -3.009  -5.663  0.00  0.00     0.298 HD
ENDROOT
TORSDOF 0
ENDMDL
