MODEL 1
REMARK minimizedAffinity -3.41227365
REMARK minimizedRMSD -1
REMARK  0 active torsions:
REMARK  status: ('A' for Active; 'I' for Inactive)
ROOT
ATOM      1  N1  IND d   1      -2.561  -3.750  -5.999  0.00  0.00    -0.196 N 
ATOM      2  C2  IND d   1      -1.879  -4.602  -5.177  0.00  0.00     0.054 A 
ATOM      3  C3  IND d   1      -2.608  -4.872  -4.070  0.00  0.00    -0.031 A 
ATOM      4  C4  IND d   1      -4.986  -4.104  -3.452  0.00  0.00     0.051 A 
ATOM      5  C5  IND d   1      -5.998  -3.287  -3.872  0.00  0.00    -0.031 A 
ATOM      6  C6  IND d   1      -5.915  -2.570  -5.048  0.00  0.00     0.015 A 
ATOM      7  C7  IND d   1      -4.817  -2.653  -5.857  0.00  0.00    -0.016 A 
ATOM      8  C8  IND d   1      -3.785  -3.476  -5.430  0.00  0.00    -0.047 A 
ATOM      9  C9  IND d   1      -3.845  -4.173  -4.216  0.00  0.00    -0.096 A 
ATOM     10  HN1 IND d   1      -2.273  -3.437  -6.747  0.00  0.00     0.298 HD
ENDROOT
TORSDOF 0
ENDMDL
