MODEL 1
REMARK minimizedAffinity -3.67933989
REMARK minimizedRMSD -1
REMARK  0 active torsions:
REMARK  status: ('A' for Active; 'I' for Inactive)
ROOT
ATOM      1  N1  IND d   1      -5.905  -4.280  -4.519  0.00  0.00    -0.196 N 
ATOM      2  C2  IND d   1      -6.000  -2.925  -4.673  0.00  0.00     0.054 A 
ATOM      3  C3  IND d   1      -4.815  -2.414  -5.076  0.00  0.00    -0.031 A 
ATOM      4  C4  IND d   1      -2.617  -3.629  -5.643  0.00  0.00     0.051 A 
ATOM      5  C5  IND d   1      -2.032  -4.864  -5.620  0.00  0.00    -0.031 A 
ATOM      6  C6  IND d   1      -2.724  -5.991  -5.224  0.00  0.00     0.015 A 
ATOM      7  C7  IND d   1      -4.034  -5.926  -4.845  0.00  0.00    -0.016 A 
ATOM      8  C8  IND d   1      -4.629  -4.672  -4.860  0.00  0.00    -0.047 A 
ATOM      9  C9  IND d   1      -3.921  -3.519  -5.220  0.00  0.00    -0.096 A 
ATOM     10  HN1 IND d   1      -6.537  -4.800  -4.254  0.00  0.00     0.298 HD
ENDROOT
TORSDOF 0
ENDMDL
