MODEL 1
REMARK minimizedAffinity -5.01356602
REMARK minimizedRMSD -1
REMARK  0 active torsions:
REMARK  status: ('A' for Active; 'I' for Inactive)
ROOT
ATOM      1  N1  IND d   1      -1.884  -4.111  -5.777  0.00  0.00    -0.196 N 
ATOM      2  C2  IND d   1      -1.610  -5.412  -5.456  0.00  0.00     0.054 A 
ATOM      3  C3  IND d   1      -2.624  -5.942  -4.737  0.00  0.00    -0.031 A 
ATOM      4  C4  IND d   1      -4.873  -4.891  -4.057  0.00  0.00     0.051 A 
ATOM      5  C5  IND d   1      -5.565  -3.713  -4.090  0.00  0.00    -0.031 A 
ATOM      6  C6  IND d   1      -5.056  -2.585  -4.701  0.00  0.00     0.015 A 
ATOM      7  C7  IND d   1      -3.836  -2.597  -5.315  0.00  0.00    -0.016 A 
ATOM      8  C8  IND d   1      -3.127  -3.790  -5.278  0.00  0.00    -0.047 A 
ATOM      9  C9  IND d   1      -3.620  -4.925  -4.622  0.00  0.00    -0.096 A 
ATOM     10  HN1 IND d   1      -1.367  -3.583  -6.216  0.00  0.00     0.298 HD
ENDROOT
TORSDOF 0
ENDMDL
