MODEL 1
REMARK minimizedAffinity -4.22621393
REMARK minimizedRMSD -1
REMARK  0 active torsions:
REMARK  status: ('A' for Active; 'I' for Inactive)
ROOT
ATOM      1  N1  IND d   1      -2.828  -5.940  -5.422  0.00  0.00    -0.196 N 
ATOM      2  C2  IND d   1      -1.880  -5.128  -5.978  0.00  0.00     0.054 A 
ATOM      3  C3  IND d   1      -2.311  -3.847  -6.000  0.00  0.00    -0.031 A 
ATOM      4  C4  IND d   1      -4.498  -2.842  -5.085  0.00  0.00     0.051 A 
ATOM      5  C5  IND d   1      -5.692  -3.194  -4.521  0.00  0.00    -0.031 A 
ATOM      6  C6  IND d   1      -5.998  -4.505  -4.220  0.00  0.00     0.015 A 
ATOM      7  C7  IND d   1      -5.112  -5.517  -4.462  0.00  0.00    -0.016 A 
ATOM      8  C8  IND d   1      -3.901  -5.164  -5.041  0.00  0.00    -0.047 A 
ATOM      9  C9  IND d   1      -3.602  -3.840  -5.388  0.00  0.00    -0.096 A 
ATOM     10  HN1 IND d   1      -2.765  -6.792  -5.326  0.00  0.00     0.298 HD
ENDROOT
TORSDOF 0
ENDMDL
