MODEL 1
REMARK minimizedAffinity -4.81501532
REMARK minimizedRMSD -1
REMARK  0 active torsions:
REMARK  status: ('A' for Active; 'I' for Inactive)
ROOT
ATOM      1  C   UNL d   1       0.759   3.300   0.080  0.00  0.00    -0.002 A 
ATOM      2  C1  UNL d   1      -0.551   2.849  -0.004  0.00  0.00     0.010 A 
ATOM      3  C2  UNL d   1      -0.836   1.483   0.049  0.00  0.00     0.041 A 
ATOM      4  C3  UNL d   1       0.227   0.570   0.191  0.00  0.00    -0.075 A 
ATOM      5  S   UNL d   1       0.117  -1.148   0.280  0.00  0.00     0.015 SA
ATOM      6  C4  UNL d   1       1.805  -1.324   0.432  0.00  0.00     0.022 A 
ATOM      7  C5  UNL d   1       2.453  -0.111   0.417  0.00  0.00     0.026 A 
ATOM      8  C6  UNL d   1       1.554   1.000   0.278  0.00  0.00    -0.082 A 
ATOM      9  C7  UNL d   1       1.811   2.391   0.221  0.00  0.00     0.045 A 
ENDROOT
TORSDOF 0
ENDMDL
