MODEL 1
REMARK minimizedAffinity -2.49352074
REMARK minimizedRMSD -1
REMARK  0 active torsions:
REMARK  status: ('A' for Active; 'I' for Inactive)
ROOT
ATOM      1  C   UNL d   1      -0.037   2.900   0.006  0.00  0.00    -0.002 A 
ATOM      2  C1  UNL d   1      -1.234   2.199  -0.025  0.00  0.00     0.010 A 
ATOM      3  C2  UNL d   1      -1.241   0.804   0.027  0.00  0.00     0.041 A 
ATOM      4  C3  UNL d   1      -0.013   0.118   0.112  0.00  0.00    -0.075 A 
ATOM      5  S   UNL d   1       0.221  -1.588   0.188  0.00  0.00     0.015 SA
ATOM      6  C4  UNL d   1       1.916  -1.426   0.264  0.00  0.00     0.022 A 
ATOM      7  C5  UNL d   1       2.311  -0.110   0.232  0.00  0.00     0.026 A 
ATOM      8  C6  UNL d   1       1.205   0.802   0.145  0.00  0.00    -0.082 A 
ATOM      9  C7  UNL d   1       1.179   2.217   0.090  0.00  0.00     0.045 A 
ENDROOT
TORSDOF 0
ENDMDL
