MODEL 1
REMARK minimizedAffinity -1.46168661
REMARK minimizedRMSD -1
REMARK  0 active torsions:
REMARK  status: ('A' for Active; 'I' for Inactive)
ROOT
ATOM      1  C   UNL d   1      -0.352   2.992   0.889  0.00  0.00    -0.002 A 
ATOM      2  C1  UNL d   1       0.946   2.990   0.398  0.00  0.00     0.010 A 
ATOM      3  C2  UNL d   1       1.529   1.807  -0.062  0.00  0.00     0.041 A 
ATOM      4  C3  UNL d   1       0.777   0.616  -0.021  0.00  0.00    -0.075 A 
ATOM      5  S   UNL d   1       1.284  -0.951  -0.531  0.00  0.00     0.015 SA
ATOM      6  C4  UNL d   1      -0.210  -1.653  -0.109  0.00  0.00     0.022 A 
ATOM      7  C5  UNL d   1      -1.086  -0.730   0.410  0.00  0.00     0.026 A 
ATOM      8  C6  UNL d   1      -0.532   0.594   0.469  0.00  0.00    -0.082 A 
ATOM      9  C7  UNL d   1      -1.094   1.809   0.929  0.00  0.00     0.045 A 
ENDROOT
TORSDOF 0
ENDMDL
