MODEL 1
REMARK minimizedAffinity -2.96399021
REMARK minimizedRMSD -1
REMARK  0 active torsions:
REMARK  status: ('A' for Active; 'I' for Inactive)
ROOT
ATOM      1  C   UNL d   1       0.385  -1.281  -0.785  0.00  0.00    -0.002 A 
ATOM      2  C1  UNL d   1      -0.425  -1.311   0.341  0.00  0.00     0.010 A 
ATOM      3  C2  UNL d   1      -0.674  -0.146   1.069  0.00  0.00     0.041 A 
ATOM      4  C3  UNL d   1      -0.091   1.063   0.640  0.00  0.00    -0.075 A 
ATOM      5  S   UNL d   1      -0.256   2.614   1.374  0.00  0.00     0.015 SA
ATOM      6  C4  UNL d   1       0.745   3.354   0.209  0.00  0.00     0.022 A 
ATOM      7  C5  UNL d   1       1.203   2.454  -0.724  0.00  0.00     0.026 A 
ATOM      8  C6  UNL d   1       0.728   1.118  -0.491  0.00  0.00    -0.082 A 
ATOM      9  C7  UNL d   1       0.962  -0.080  -1.207  0.00  0.00     0.045 A 
ENDROOT
TORSDOF 0
ENDMDL
