MODEL 1
REMARK minimizedAffinity -3.77104902
REMARK minimizedRMSD -1
REMARK  0 active torsions:
REMARK  status: ('A' for Active; 'I' for Inactive)
ROOT
ATOM      1  C   UNL d   1       0.276   3.146  -0.364  0.00  0.00    -0.002 A 
ATOM      2  C1  UNL d   1      -0.981   2.637  -0.071  0.00  0.00     0.010 A 
ATOM      3  C2  UNL d   1      -1.137   1.301   0.303  0.00  0.00     0.041 A 
ATOM      4  C3  UNL d   1       0.004   0.477   0.380  0.00  0.00    -0.075 A 
ATOM      5  S   UNL d   1       0.055  -1.190   0.817  0.00  0.00     0.015 SA
ATOM      6  C4  UNL d   1       1.746  -1.265   0.625  0.00  0.00     0.022 A 
ATOM      7  C5  UNL d   1       2.276  -0.057   0.238  0.00  0.00     0.026 A 
ATOM      8  C6  UNL d   1       1.280   0.967   0.090  0.00  0.00    -0.082 A 
ATOM      9  C7  UNL d   1       1.405   2.326  -0.287  0.00  0.00     0.045 A 
ENDROOT
TORSDOF 0
ENDMDL
