MODEL 1
REMARK minimizedAffinity -1.53771567
REMARK minimizedRMSD -1
REMARK  0 active torsions:
REMARK  status: ('A' for Active; 'I' for Inactive)
ROOT
ATOM      1  C   UNL d   1      -0.892   2.538   0.474  0.00  0.00    -0.002 A 
ATOM      2  C1  UNL d   1       0.191   2.580  -0.392  0.00  0.00     0.010 A 
ATOM      3  C2  UNL d   1       0.816   1.402  -0.807  0.00  0.00     0.041 A 
ATOM      4  C3  UNL d   1       0.327   0.169  -0.332  0.00  0.00    -0.075 A 
ATOM      5  S   UNL d   1       0.933  -1.402  -0.705  0.00  0.00     0.015 SA
ATOM      6  C4  UNL d   1      -0.233  -2.166   0.276  0.00  0.00     0.022 A 
ATOM      7  C5  UNL d   1      -1.071  -1.260   0.881  0.00  0.00     0.026 A 
ATOM      8  C6  UNL d   1      -0.763   0.101   0.540  0.00  0.00    -0.082 A 
ATOM      9  C7  UNL d   1      -1.373   1.313   0.943  0.00  0.00     0.045 A 
ENDROOT
TORSDOF 0
ENDMDL
