MODEL 1
REMARK minimizedAffinity -3.83966589
REMARK minimizedRMSD -1
REMARK  0 active torsions:
REMARK  status: ('A' for Active; 'I' for Inactive)
ROOT
ATOM      1  C   UNL d   1       0.022   3.069  -0.053  0.00  0.00    -0.002 A 
ATOM      2  C1  UNL d   1       1.189   2.609  -0.646  0.00  0.00     0.010 A 
ATOM      3  C2  UNL d   1       1.418   1.240  -0.795  0.00  0.00     0.041 A 
ATOM      4  C3  UNL d   1       0.444   0.332  -0.335  0.00  0.00    -0.075 A 
ATOM      5  S   UNL d   1       0.509  -1.389  -0.412  0.00  0.00     0.015 SA
ATOM      6  C4  UNL d   1      -1.012  -1.555   0.341  0.00  0.00     0.022 A 
ATOM      7  C5  UNL d   1      -1.569  -0.337   0.650  0.00  0.00     0.026 A 
ATOM      8  C6  UNL d   1      -0.739   0.771   0.266  0.00  0.00    -0.082 A 
ATOM      9  C7  UNL d   1      -0.942   2.165   0.403  0.00  0.00     0.045 A 
ENDROOT
TORSDOF 0
ENDMDL
