MODEL 1
REMARK minimizedAffinity -2.54749703
REMARK minimizedRMSD -1
REMARK  0 active torsions:
REMARK  status: ('A' for Active; 'I' for Inactive)
ROOT
ATOM      1  C   UNL d   1      -0.922   2.603   0.154  0.00  0.00    -0.002 A 
ATOM      2  C1  UNL d   1       0.448   2.775   0.015  0.00  0.00     0.010 A 
ATOM      3  C2  UNL d   1       1.289   1.673  -0.156  0.00  0.00     0.041 A 
ATOM      4  C3  UNL d   1       0.724   0.383  -0.186  0.00  0.00    -0.075 A 
ATOM      5  S   UNL d   1       1.557  -1.113  -0.385  0.00  0.00     0.015 SA
ATOM      6  C4  UNL d   1       0.115  -2.016  -0.291  0.00  0.00     0.022 A 
ATOM      7  C5  UNL d   1      -0.986  -1.211  -0.113  0.00  0.00     0.026 A 
ATOM      8  C6  UNL d   1      -0.653   0.184  -0.050  0.00  0.00    -0.082 A 
ATOM      9  C7  UNL d   1      -1.479   1.321   0.123  0.00  0.00     0.045 A 
ENDROOT
TORSDOF 0
ENDMDL
