MODEL 1
REMARK minimizedAffinity -0.995211065
REMARK minimizedRMSD -1
REMARK  0 active torsions:
REMARK  status: ('A' for Active; 'I' for Inactive)
ROOT
ATOM      1  C   UNL d   1      -0.349   3.412   0.376  0.00  0.00    -0.002 A 
ATOM      2  C1  UNL d   1       0.715   3.178  -0.484  0.00  0.00     0.010 A 
ATOM      3  C2  UNL d   1       1.063   1.876  -0.846  0.00  0.00     0.041 A 
ATOM      4  C3  UNL d   1       0.315   0.801  -0.326  0.00  0.00    -0.075 A 
ATOM      5  S   UNL d   1       0.558  -0.879  -0.631  0.00  0.00     0.015 SA
ATOM      6  C4  UNL d   1      -0.745  -1.326   0.372  0.00  0.00     0.022 A 
ATOM      7  C5  UNL d   1      -1.361  -0.233   0.935  0.00  0.00     0.026 A 
ATOM      8  C6  UNL d   1      -0.761   1.011   0.541  0.00  0.00    -0.082 A 
ATOM      9  C7  UNL d   1      -1.088   2.343   0.890  0.00  0.00     0.045 A 
ENDROOT
TORSDOF 0
ENDMDL
