MODEL 1
REMARK minimizedAffinity -3.11314344
REMARK minimizedRMSD -1
REMARK  1 active torsions:
REMARK  status: ('A' for Active; 'I' for Inactive)
REMARK    1  A    between atoms: C1_2  and  C2_3 
ROOT
ATOM      1  C2  UNL d   1       0.528   1.503  -0.189  0.00  0.00    -0.077 A 
ATOM      2  C3  UNL d   1       1.623   1.347   0.673  0.00  0.00     0.002 A 
ATOM      3  C4  UNL d   1       2.220   0.096   0.838  0.00  0.00     0.002 A 
ATOM      4  C5  UNL d   1       1.733  -1.008   0.141  0.00  0.00    -0.004 A 
ATOM      5  C6  UNL d   1       0.643  -0.864  -0.717  0.00  0.00     0.002 A 
ATOM      6  C7  UNL d   1       0.044   0.386  -0.882  0.00  0.00     0.002 A 
ENDROOT
BRANCH   1   7
ATOM      7  C1  UNL d   1      -0.086   2.861  -0.406  0.00  0.00     0.055 C 
ATOM      8  C   UNL d   1       0.007   3.284  -1.864  0.00  0.00     0.019 C 
ENDBRANCH   1   7
TORSDOF 1
ENDMDL
