MODEL 1
REMARK minimizedAffinity -3.05623484
REMARK minimizedRMSD -1
REMARK  1 active torsions:
REMARK  status: ('A' for Active; 'I' for Inactive)
REMARK    1  A    between atoms: C1_2  and  C2_3 
ROOT
ATOM      1  C2  UNL d   1       1.480  -0.062   1.060  0.00  0.00    -0.077 A 
ATOM      2  C3  UNL d   1       0.253   0.269   0.469  0.00  0.00     0.002 A 
ATOM      3  C4  UNL d   1       0.004  -0.049  -0.868  0.00  0.00     0.002 A 
ATOM      4  C5  UNL d   1       0.975  -0.704  -1.622  0.00  0.00    -0.004 A 
ATOM      5  C6  UNL d   1       2.199  -1.037  -1.044  0.00  0.00     0.002 A 
ATOM      6  C7  UNL d   1       2.450  -0.718   0.292  0.00  0.00     0.002 A 
ENDROOT
BRANCH   1   7
ATOM      7  C1  UNL d   1       1.732   0.236   2.515  0.00  0.00     0.055 C 
ATOM      8  C   UNL d   1       1.094  -0.813   3.414  0.00  0.00     0.019 C 
ENDBRANCH   1   7
TORSDOF 1
ENDMDL
