MODEL 1
REMARK minimizedAffinity -2.23008657
REMARK minimizedRMSD -1
REMARK  1 active torsions:
REMARK  status: ('A' for Active; 'I' for Inactive)
REMARK    1  A    between atoms: C1_2  and  C2_3 
ROOT
ATOM      1  C2  UNL d   1      -0.313   1.195  -0.961  0.00  0.00    -0.077 A 
ATOM      2  C3  UNL d   1       0.044   2.244  -0.102  0.00  0.00     0.002 A 
ATOM      3  C4  UNL d   1       0.137   3.551  -0.584  0.00  0.00     0.002 A 
ATOM      4  C5  UNL d   1      -0.130   3.822  -1.925  0.00  0.00    -0.004 A 
ATOM      5  C6  UNL d   1      -0.483   2.785  -2.788  0.00  0.00     0.002 A 
ATOM      6  C7  UNL d   1      -0.576   1.478  -2.308  0.00  0.00     0.002 A 
ENDROOT
BRANCH   1   7
ATOM      7  C1  UNL d   1      -0.462  -0.208  -0.433  0.00  0.00     0.055 C 
ATOM      8  C   UNL d   1       0.893  -0.835  -0.138  0.00  0.00     0.019 C 
ENDBRANCH   1   7
TORSDOF 1
ENDMDL
