MODEL 1
REMARK minimizedAffinity -0.441415012
REMARK minimizedRMSD -1
REMARK  1 active torsions:
REMARK  status: ('A' for Active; 'I' for Inactive)
REMARK    1  A    between atoms: C1_2  and  C2_3 
ROOT
ATOM      1  C2  UNL d   1       0.309   1.369  -0.363  0.00  0.00    -0.077 A 
ATOM      2  C3  UNL d   1       0.961   1.481   0.873  0.00  0.00     0.002 A 
ATOM      3  C4  UNL d   1       1.669   0.399   1.399  0.00  0.00     0.002 A 
ATOM      4  C5  UNL d   1       1.735  -0.801   0.695  0.00  0.00    -0.004 A 
ATOM      5  C6  UNL d   1       1.088  -0.924  -0.534  0.00  0.00     0.002 A 
ATOM      6  C7  UNL d   1       0.379   0.156  -1.061  0.00  0.00     0.002 A 
ENDROOT
BRANCH   1   7
ATOM      7  C1  UNL d   1      -0.414   2.550  -0.955  0.00  0.00     0.055 C 
ATOM      8  C   UNL d   1       0.338   3.117  -2.150  0.00  0.00     0.019 C 
ENDBRANCH   1   7
TORSDOF 1
ENDMDL
