MODEL 1
REMARK minimizedAffinity -5.09789562
REMARK minimizedRMSD -1
REMARK  1 active torsions:
REMARK  status: ('A' for Active; 'I' for Inactive)
REMARK    1  A    between atoms: C1_2  and  C2_3 
ROOT
ATOM      1  C2  UNL d   1      -0.090  -0.249   0.257  0.00  0.00    -0.077 A 
ATOM      2  C3  UNL d   1      -0.988  -0.633   1.263  0.00  0.00     0.002 A 
ATOM      3  C4  UNL d   1      -0.521  -0.990   2.529  0.00  0.00     0.002 A 
ATOM      4  C5  UNL d   1       0.845  -0.961   2.803  0.00  0.00    -0.004 A 
ATOM      5  C6  UNL d   1       1.747  -0.582   1.809  0.00  0.00     0.002 A 
ATOM      6  C7  UNL d   1       1.281  -0.227   0.542  0.00  0.00     0.002 A 
ENDROOT
BRANCH   1   7
ATOM      7  C1  UNL d   1      -0.596   0.183  -1.094  0.00  0.00     0.055 C 
ATOM      8  C   UNL d   1      -0.312   1.657  -1.346  0.00  0.00     0.019 C 
ENDBRANCH   1   7
TORSDOF 1
ENDMDL
