MODEL 1
REMARK minimizedAffinity -4.25065041
REMARK minimizedRMSD -1
REMARK  1 active torsions:
REMARK  status: ('A' for Active; 'I' for Inactive)
REMARK    1  A    between atoms: C1_2  and  C2_3 
ROOT
ATOM      1  C2  UNL d   1       0.288  -0.691  -0.474  0.00  0.00    -0.081 A 
ATOM      2  C3  UNL d   1      -0.126  -1.000   0.828  0.00  0.00     0.006 A 
ATOM      3  C4  UNL d   1      -0.970  -0.134   1.527  0.00  0.00     0.002 A 
ATOM      4  C5  UNL d   1      -1.419   1.051   0.934  0.00  0.00    -0.080 A 
ATOM      5  C6  UNL d   1      -2.349   1.975   1.663  0.00  0.00     0.076 C 
ATOM      6  C7  UNL d   1      -0.991   1.369  -0.359  0.00  0.00     0.002 A 
ATOM      7  C8  UNL d   1      -0.147   0.503  -1.059  0.00  0.00     0.006 A 
ENDROOT
BRANCH   1   8
ATOM      8  C1  UNL d   1       1.146  -1.654  -1.254  0.00  0.00     0.054 C 
ATOM      9  C   UNL d   1       0.295  -2.672  -2.001  0.00  0.00     0.018 C 
ENDBRANCH   1   8
TORSDOF 1
ENDMDL
