MODEL 1
REMARK minimizedAffinity -2.38879037
REMARK minimizedRMSD -1
REMARK  1 active torsions:
REMARK  status: ('A' for Active; 'I' for Inactive)
REMARK    1  A    between atoms: C1_2  and  C2_3 
ROOT
ATOM      1  C2  UNL d   1       0.676  -0.438  -0.383  0.00  0.00    -0.081 A 
ATOM      2  C3  UNL d   1       0.201  -0.823   0.877  0.00  0.00     0.006 A 
ATOM      3  C4  UNL d   1      -0.681  -0.001   1.582  0.00  0.00     0.002 A 
ATOM      4  C5  UNL d   1      -1.109   1.215   1.037  0.00  0.00    -0.080 A 
ATOM      5  C6  UNL d   1      -2.079   2.092   1.770  0.00  0.00     0.076 C 
ATOM      6  C7  UNL d   1      -0.620   1.607  -0.214  0.00  0.00     0.002 A 
ATOM      7  C8  UNL d   1       0.263   0.786  -0.919  0.00  0.00     0.006 A 
ENDROOT
BRANCH   1   8
ATOM      8  C1  UNL d   1       1.577  -1.352  -1.174  0.00  0.00     0.054 C 
ATOM      9  C   UNL d   1       0.798  -2.516  -1.770  0.00  0.00     0.018 C 
ENDBRANCH   1   8
TORSDOF 1
ENDMDL
