MODEL 1
REMARK minimizedAffinity -1.80718768
REMARK minimizedRMSD -1
REMARK  1 active torsions:
REMARK  status: ('A' for Active; 'I' for Inactive)
REMARK    1  A    between atoms: C1_2  and  C2_3 
ROOT
ATOM      1  C2  UNL d   1       0.447  -0.847  -0.579  0.00  0.00    -0.081 A 
ATOM      2  C3  UNL d   1       0.220  -0.812   0.802  0.00  0.00     0.006 A 
ATOM      3  C4  UNL d   1      -0.622   0.155   1.357  0.00  0.00     0.002 A 
ATOM      4  C5  UNL d   1      -1.258   1.095   0.540  0.00  0.00    -0.080 A 
ATOM      5  C6  UNL d   1      -2.189   2.119   1.120  0.00  0.00     0.076 C 
ATOM      6  C7  UNL d   1      -1.018   1.071  -0.838  0.00  0.00     0.002 A 
ATOM      7  C8  UNL d   1      -0.176   0.105  -1.393  0.00  0.00     0.006 A 
ENDROOT
BRANCH   1   8
ATOM      8  C1  UNL d   1       1.303  -1.928  -1.188  0.00  0.00     0.054 C 
ATOM      9  C   UNL d   1       0.467  -2.905  -2.001  0.00  0.00     0.018 C 
ENDBRANCH   1   8
TORSDOF 1
ENDMDL
