MODEL 1
REMARK minimizedAffinity -3.90289187
REMARK minimizedRMSD -1
REMARK  1 active torsions:
REMARK  status: ('A' for Active; 'I' for Inactive)
REMARK    1  A    between atoms: C1_2  and  C2_3 
ROOT
ATOM      1  C2  UNL d   1       0.658  -0.602   0.066  0.00  0.00    -0.081 A 
ATOM      2  C3  UNL d   1       0.158  -0.796   1.359  0.00  0.00     0.006 A 
ATOM      3  C4  UNL d   1      -0.690   0.150   1.940  0.00  0.00     0.002 A 
ATOM      4  C5  UNL d   1      -1.058   1.301   1.235  0.00  0.00    -0.080 A 
ATOM      5  C6  UNL d   1      -1.992   2.309   1.835  0.00  0.00     0.076 C 
ATOM      6  C7  UNL d   1      -0.544   1.504  -0.050  0.00  0.00     0.002 A 
ATOM      7  C8  UNL d   1       0.304   0.558  -0.631  0.00  0.00     0.006 A 
ENDROOT
BRANCH   1   8
ATOM      8  C1  UNL d   1       1.521  -1.651  -0.587  0.00  0.00     0.054 C 
ATOM      9  C   UNL d   1       0.747  -2.422  -1.647  0.00  0.00     0.018 C 
ENDBRANCH   1   8
TORSDOF 1
ENDMDL
