MODEL 1
REMARK minimizedAffinity -3.57500339
REMARK minimizedRMSD -1
REMARK  1 active torsions:
REMARK  status: ('A' for Active; 'I' for Inactive)
REMARK    1  A    between atoms: C1_2  and  C2_3 
ROOT
ATOM      1  C2  UNL d   1       0.526  -0.436  -0.031  0.00  0.00    -0.081 A 
ATOM      2  C3  UNL d   1       0.017  -0.550   1.269  0.00  0.00     0.006 A 
ATOM      3  C4  UNL d   1      -0.963   0.334   1.725  0.00  0.00     0.002 A 
ATOM      4  C5  UNL d   1      -1.457   1.340   0.889  0.00  0.00    -0.080 A 
ATOM      5  C6  UNL d   1      -2.531   2.277   1.356  0.00  0.00     0.076 C 
ATOM      6  C7  UNL d   1      -0.936   1.465  -0.404  0.00  0.00     0.002 A 
ATOM      7  C8  UNL d   1       0.045   0.582  -0.861  0.00  0.00     0.006 A 
ENDROOT
BRANCH   1   8
ATOM      8  C1  UNL d   1       1.537  -1.428  -0.548  0.00  0.00     0.054 C 
ATOM      9  C   UNL d   1       0.890  -2.441  -1.482  0.00  0.00     0.018 C 
ENDBRANCH   1   8
TORSDOF 1
ENDMDL
