MODEL 1
REMARK minimizedAffinity 0.777220905
REMARK minimizedRMSD -1
REMARK  1 active torsions:
REMARK  status: ('A' for Active; 'I' for Inactive)
REMARK    1  A    between atoms: C1_2  and  C2_3 
ROOT
ATOM      1  C2  UNL d   1      -0.294   1.321   1.720  0.00  0.00    -0.081 A 
ATOM      2  C3  UNL d   1      -0.721   1.542   0.405  0.00  0.00     0.006 A 
ATOM      3  C4  UNL d   1      -0.439   0.611  -0.597  0.00  0.00     0.002 A 
ATOM      4  C5  UNL d   1       0.267  -0.559  -0.300  0.00  0.00    -0.080 A 
ATOM      5  C6  UNL d   1       0.551  -1.581  -1.361  0.00  0.00     0.076 C 
ATOM      6  C7  UNL d   1       0.709  -0.772   1.010  0.00  0.00     0.002 A 
ATOM      7  C8  UNL d   1       0.428   0.159   2.012  0.00  0.00     0.006 A 
ENDROOT
BRANCH   1   8
ATOM      8  C1  UNL d   1      -0.653   2.292   2.816  0.00  0.00     0.054 C 
ATOM      9  C   UNL d   1       0.500   2.474   3.793  0.00  0.00     0.018 C 
ENDBRANCH   1   8
TORSDOF 1
ENDMDL
