MODEL 1
REMARK minimizedAffinity -4.02237988
REMARK minimizedRMSD -1
REMARK  1 active torsions:
REMARK  status: ('A' for Active; 'I' for Inactive)
REMARK    1  A    between atoms: C1_2  and  C2_3 
ROOT
ATOM      1  C2  UNL d   1       0.613  -0.658  -0.282  0.00  0.00    -0.081 A 
ATOM      2  C3  UNL d   1       0.613  -0.523   1.112  0.00  0.00     0.006 A 
ATOM      3  C4  UNL d   1      -0.326   0.297   1.744  0.00  0.00     0.002 A 
ATOM      4  C5  UNL d   1      -1.283   0.988   0.994  0.00  0.00    -0.080 A 
ATOM      5  C6  UNL d   1      -2.315   1.848   1.662  0.00  0.00     0.076 C 
ATOM      6  C7  UNL d   1      -1.272   0.867  -0.400  0.00  0.00     0.002 A 
ATOM      7  C8  UNL d   1      -0.334   0.048  -1.032  0.00  0.00     0.006 A 
ENDROOT
BRANCH   1   8
ATOM      8  C1  UNL d   1       1.582  -1.591  -0.961  0.00  0.00     0.054 C 
ATOM      9  C   UNL d   1       0.864  -2.543  -1.907  0.00  0.00     0.018 C 
ENDBRANCH   1   8
TORSDOF 1
ENDMDL
