MODEL 1
REMARK minimizedAffinity -4.71212149
REMARK minimizedRMSD -1
REMARK  1 active torsions:
REMARK  status: ('A' for Active; 'I' for Inactive)
REMARK    1  A    between atoms: C1_2  and  C2_3 
ROOT
ATOM      1  C2  UNL d   1       0.284  -0.680  -0.552  0.00  0.00    -0.081 A 
ATOM      2  C3  UNL d   1       0.012  -0.769   0.819  0.00  0.00     0.006 A 
ATOM      3  C4  UNL d   1      -0.747   0.216   1.455  0.00  0.00     0.002 A 
ATOM      4  C5  UNL d   1      -1.253   1.301   0.731  0.00  0.00    -0.080 A 
ATOM      5  C6  UNL d   1      -2.095   2.349   1.396  0.00  0.00     0.076 C 
ATOM      6  C7  UNL d   1      -0.966   1.399  -0.635  0.00  0.00     0.002 A 
ATOM      7  C8  UNL d   1      -0.206   0.415  -1.271  0.00  0.00     0.006 A 
ENDROOT
BRANCH   1   8
ATOM      8  C1  UNL d   1       1.048  -1.774  -1.254  0.00  0.00     0.054 C 
ATOM      9  C   UNL d   1       0.171  -2.501  -2.263  0.00  0.00     0.018 C 
ENDBRANCH   1   8
TORSDOF 1
ENDMDL
