MODEL 1
REMARK minimizedAffinity -5.29942846
REMARK minimizedRMSD -1
REMARK  1 active torsions:
REMARK  status: ('A' for Active; 'I' for Inactive)
REMARK    1  A    between atoms: C1_2  and  C2_3 
ROOT
ATOM      1  C2  UNL d   1       1.059  -0.332  -0.715  0.00  0.00    -0.081 A 
ATOM      2  C3  UNL d   1       0.460  -0.824   0.451  0.00  0.00     0.006 A 
ATOM      3  C4  UNL d   1      -0.373  -0.006   1.218  0.00  0.00     0.002 A 
ATOM      4  C5  UNL d   1      -0.627   1.314   0.828  0.00  0.00    -0.080 A 
ATOM      5  C6  UNL d   1      -1.543   2.193   1.627  0.00  0.00     0.076 C 
ATOM      6  C7  UNL d   1      -0.014   1.810  -0.327  0.00  0.00     0.002 A 
ATOM      7  C8  UNL d   1       0.820   0.993  -1.094  0.00  0.00     0.006 A 
ENDROOT
BRANCH   1   8
ATOM      8  C1  UNL d   1       1.906  -1.231  -1.579  0.00  0.00     0.054 C 
ATOM      9  C   UNL d   1       1.221  -2.568  -1.826  0.00  0.00     0.018 C 
ENDBRANCH   1   8
TORSDOF 1
ENDMDL
