MODEL 1
REMARK minimizedAffinity -1.55227697
REMARK minimizedRMSD -1
REMARK  1 active torsions:
REMARK  status: ('A' for Active; 'I' for Inactive)
REMARK    1  A    between atoms: C1_2  and  C2_3 
ROOT
ATOM      1  C2  UNL d   1       0.733  -0.925  -0.488  0.00  0.00    -0.081 A 
ATOM      2  C3  UNL d   1       0.464  -0.783   0.879  0.00  0.00     0.006 A 
ATOM      3  C4  UNL d   1      -0.357   0.251   1.334  0.00  0.00     0.002 A 
ATOM      4  C5  UNL d   1      -0.928   1.154   0.432  0.00  0.00    -0.080 A 
ATOM      5  C6  UNL d   1      -1.836   2.251   0.905  0.00  0.00     0.076 C 
ATOM      6  C7  UNL d   1      -0.645   1.023  -0.932  0.00  0.00     0.002 A 
ATOM      7  C8  UNL d   1       0.176  -0.011  -1.388  0.00  0.00     0.006 A 
ENDROOT
BRANCH   1   8
ATOM      8  C1  UNL d   1       1.566  -2.078  -0.989  0.00  0.00     0.054 C 
ATOM      9  C   UNL d   1       0.861  -2.822  -2.114  0.00  0.00     0.018 C 
ENDBRANCH   1   8
TORSDOF 1
ENDMDL
