MODEL 1
REMARK minimizedAffinity -4.34552813
REMARK minimizedRMSD -1
REMARK  1 active torsions:
REMARK  status: ('A' for Active; 'I' for Inactive)
REMARK    1  A    between atoms: C1_2  and  C2_3 
ROOT
ATOM      1  C2  UNL d   1      -0.104  -0.529  -1.074  0.00  0.00    -0.081 A 
ATOM      2  C3  UNL d   1       0.073  -0.970   0.243  0.00  0.00     0.006 A 
ATOM      3  C4  UNL d   1      -0.494  -0.266   1.308  0.00  0.00     0.002 A 
ATOM      4  C5  UNL d   1      -1.254   0.885   1.074  0.00  0.00    -0.080 A 
ATOM      5  C6  UNL d   1      -1.894   1.633   2.206  0.00  0.00     0.076 C 
ATOM      6  C7  UNL d   1      -1.417   1.335  -0.241  0.00  0.00     0.002 A 
ATOM      7  C8  UNL d   1      -0.850   0.633  -1.306  0.00  0.00     0.006 A 
ENDROOT
BRANCH   1   8
ATOM      8  C1  UNL d   1       0.452  -1.322  -2.229  0.00  0.00     0.054 C 
ATOM      9  C   UNL d   1      -0.173  -2.708  -2.301  0.00  0.00     0.018 C 
ENDBRANCH   1   8
TORSDOF 1
ENDMDL
