MODEL 1
REMARK minimizedAffinity -1.72258639
REMARK minimizedRMSD -1
REMARK  1 active torsions:
REMARK  status: ('A' for Active; 'I' for Inactive)
REMARK    1  A    between atoms: C1_2  and  C2_3 
ROOT
ATOM      1  C2  UNL d   1      -0.861   0.945   1.068  0.00  0.00    -0.081 A 
ATOM      2  C3  UNL d   1      -0.334  -0.196   1.685  0.00  0.00     0.006 A 
ATOM      3  C4  UNL d   1       0.411  -1.119   0.949  0.00  0.00     0.002 A 
ATOM      4  C5  UNL d   1       0.649  -0.913  -0.414  0.00  0.00    -0.080 A 
ATOM      5  C6  UNL d   1       1.473  -1.881  -1.210  0.00  0.00     0.076 C 
ATOM      6  C7  UNL d   1       0.108   0.218  -1.035  0.00  0.00     0.002 A 
ATOM      7  C8  UNL d   1      -0.638   1.141  -0.299  0.00  0.00     0.006 A 
ENDROOT
BRANCH   1   8
ATOM      8  C1  UNL d   1      -1.610   1.976   1.874  0.00  0.00     0.054 C 
ATOM      9  C   UNL d   1      -0.721   2.598   2.941  0.00  0.00     0.018 C 
ENDBRANCH   1   8
TORSDOF 1
ENDMDL
