MODEL 1
REMARK minimizedAffinity -2.32313251
REMARK minimizedRMSD -1
REMARK  1 active torsions:
REMARK  status: ('A' for Active; 'I' for Inactive)
REMARK    1  A    between atoms: C1_2  and  C2_3 
ROOT
ATOM      1  C2  UNL d   1      -0.289   1.847  -0.160  0.00  0.00    -0.081 A 
ATOM      2  C3  UNL d   1      -0.866   2.020   1.104  0.00  0.00     0.006 A 
ATOM      3  C4  UNL d   1      -0.806   0.998   2.055  0.00  0.00     0.002 A 
ATOM      4  C5  UNL d   1      -0.162  -0.208   1.761  0.00  0.00    -0.080 A 
ATOM      5  C6  UNL d   1      -0.064  -1.302   2.783  0.00  0.00     0.076 C 
ATOM      6  C7  UNL d   1       0.399  -0.387   0.492  0.00  0.00     0.002 A 
ATOM      7  C8  UNL d   1       0.339   0.633  -0.460  0.00  0.00     0.006 A 
ENDROOT
BRANCH   1   8
ATOM      8  C1  UNL d   1      -0.296   2.971  -1.165  0.00  0.00     0.054 C 
ATOM      9  C   UNL d   1       0.525   2.616  -2.397  0.00  0.00     0.018 C 
ENDBRANCH   1   8
TORSDOF 1
ENDMDL
