MODEL 1
REMARK minimizedAffinity -5.40667772
REMARK minimizedRMSD -1
REMARK  1 active torsions:
REMARK  status: ('A' for Active; 'I' for Inactive)
REMARK    1  A    between atoms: C1_2  and  C2_3 
ROOT
ATOM      1  C2  UNL d   1       0.063  -1.947  -0.529  0.00  0.00    -0.081 A 
ATOM      2  C3  UNL d   1      -0.716  -2.200   0.607  0.00  0.00     0.006 A 
ATOM      3  C4  UNL d   1      -0.983  -1.180   1.524  0.00  0.00     0.002 A 
ATOM      4  C5  UNL d   1      -0.482   0.109   1.317  0.00  0.00    -0.080 A 
ATOM      5  C6  UNL d   1      -0.787   1.220   2.278  0.00  0.00     0.076 C 
ATOM      6  C7  UNL d   1       0.310   0.358   0.191  0.00  0.00     0.002 A 
ATOM      7  C8  UNL d   1       0.578  -0.661  -0.726  0.00  0.00     0.006 A 
ENDROOT
BRANCH   1   8
ATOM      8  C1  UNL d   1       0.298  -3.028  -1.553  0.00  0.00     0.054 C 
ATOM      9  C   UNL d   1      -1.013  -3.521  -2.148  0.00  0.00     0.018 C 
ENDBRANCH   1   8
TORSDOF 1
ENDMDL
