MODEL 1
REMARK minimizedAffinity -0.981803894
REMARK minimizedRMSD -1
REMARK  0 active torsions:
REMARK  status: ('A' for Active; 'I' for Inactive)
ROOT
ATOM      1  C   UNL d   1      -0.094  -0.827   1.457  0.00  0.00     0.124 A 
ATOM      2  C1  UNL d   1      -0.151   0.300   0.648  0.00  0.00     0.062 A 
ATOM      3  C2  UNL d   1       0.853   0.544  -0.284  0.00  0.00     0.162 A 
ATOM      4  C3  UNL d   1       1.923  -0.342  -0.414  0.00  0.00    -0.034 A 
ATOM      5  C4  UNL d   1       1.974  -1.472   0.403  0.00  0.00     0.162 A 
ATOM      6  C5  UNL d   1       0.968  -1.712   1.333  0.00  0.00     0.062 A 
ATOM      7  F   UNL d   1       1.025  -2.801   2.114  0.00  0.00    -0.097 F 
ATOM      8  F1  UNL d   1       2.989  -2.344   0.305  0.00  0.00    -0.096 F 
ATOM      9  I   UNL d   1       3.427   0.020  -1.807  0.00  0.00    -0.060 I 
ATOM     10  F2  UNL d   1       0.773   1.641  -1.052  0.00  0.00    -0.096 F 
ATOM     11  F3  UNL d   1      -1.175   1.156   0.766  0.00  0.00    -0.097 F 
ATOM     12  F4  UNL d   1      -1.061  -1.059   2.353  0.00  0.00    -0.092 F 
ENDROOT
TORSDOF 0
ENDMDL
