MODEL 1
REMARK minimizedAffinity -0.334733605
REMARK minimizedRMSD -1
REMARK  0 active torsions:
REMARK  status: ('A' for Active; 'I' for Inactive)
ROOT
ATOM      1  C   UNL d   1       0.892  -1.372   1.495  0.00  0.00     0.124 A 
ATOM      2  C1  UNL d   1      -0.329  -0.755   1.729  0.00  0.00     0.062 A 
ATOM      3  C2  UNL d   1      -0.824   0.182   0.827  0.00  0.00     0.162 A 
ATOM      4  C3  UNL d   1      -0.098   0.508  -0.319  0.00  0.00    -0.034 A 
ATOM      5  C4  UNL d   1       1.130  -0.116  -0.547  0.00  0.00     0.162 A 
ATOM      6  C5  UNL d   1       1.620  -1.052   0.358  0.00  0.00     0.062 A 
ATOM      7  F   UNL d   1       2.800  -1.648   0.130  0.00  0.00    -0.097 F 
ATOM      8  F1  UNL d   1       1.854   0.174  -1.638  0.00  0.00    -0.096 F 
ATOM      9  I   UNL d   1      -0.834   1.910  -1.670  0.00  0.00    -0.060 I 
ATOM     10  F2  UNL d   1      -2.007   0.763   1.078  0.00  0.00    -0.096 F 
ATOM     11  F3  UNL d   1      -1.035  -1.062   2.827  0.00  0.00    -0.097 F 
ATOM     12  F4  UNL d   1       1.366  -2.273   2.365  0.00  0.00    -0.092 F 
ENDROOT
TORSDOF 0
ENDMDL
