MODEL 1
REMARK minimizedAffinity 1.29295623
REMARK minimizedRMSD -1
REMARK  0 active torsions:
REMARK  status: ('A' for Active; 'I' for Inactive)
ROOT
ATOM      1  C   UNL d   1       0.446  -0.698   1.585  0.00  0.00     0.124 A 
ATOM      2  C1  UNL d   1       0.307   0.297   0.628  0.00  0.00     0.062 A 
ATOM      3  C2  UNL d   1       1.267   0.449  -0.369  0.00  0.00     0.162 A 
ATOM      4  C3  UNL d   1       2.374  -0.399  -0.414  0.00  0.00    -0.034 A 
ATOM      5  C4  UNL d   1       2.507  -1.397   0.553  0.00  0.00     0.162 A 
ATOM      6  C5  UNL d   1       1.545  -1.545   1.546  0.00  0.00     0.062 A 
ATOM      7  F   UNL d   1       1.680  -2.507   2.470  0.00  0.00    -0.097 F 
ATOM      8  F1  UNL d   1       3.559  -2.229   0.539  0.00  0.00    -0.096 F 
ATOM      9  I   UNL d   1       3.812  -0.176  -1.902  0.00  0.00    -0.060 I 
ATOM     10  F2  UNL d   1       1.108   1.419  -1.280  0.00  0.00    -0.096 F 
ATOM     11  F3  UNL d   1      -0.753   1.117   0.663  0.00  0.00    -0.097 F 
ATOM     12  F4  UNL d   1      -0.479  -0.841   2.543  0.00  0.00    -0.092 F 
ENDROOT
TORSDOF 0
ENDMDL
