MODEL 1
REMARK minimizedAffinity 0.926908374
REMARK minimizedRMSD -1
REMARK  0 active torsions:
REMARK  status: ('A' for Active; 'I' for Inactive)
ROOT
ATOM      1  C   UNL d   1       1.883  -0.870   0.653  0.00  0.00     0.124 A 
ATOM      2  C1  UNL d   1       0.543  -1.207   0.780  0.00  0.00     0.062 A 
ATOM      3  C2  UNL d   1      -0.418  -0.560   0.008  0.00  0.00     0.162 A 
ATOM      4  C3  UNL d   1      -0.041   0.431  -0.899  0.00  0.00    -0.034 A 
ATOM      5  C4  UNL d   1       1.309   0.766  -1.020  0.00  0.00     0.162 A 
ATOM      6  C5  UNL d   1       2.265   0.116  -0.246  0.00  0.00     0.062 A 
ATOM      7  F   UNL d   1       3.560   0.443  -0.369  0.00  0.00    -0.097 F 
ATOM      8  F1  UNL d   1       1.706   1.714  -1.881  0.00  0.00    -0.096 F 
ATOM      9  I   UNL d   1      -1.474   1.401  -2.055  0.00  0.00    -0.060 I 
ATOM     10  F2  UNL d   1      -1.706  -0.906   0.151  0.00  0.00    -0.096 F 
ATOM     11  F3  UNL d   1       0.171  -2.159   1.648  0.00  0.00    -0.097 F 
ATOM     12  F4  UNL d   1       2.805  -1.494   1.398  0.00  0.00    -0.092 F 
ENDROOT
TORSDOF 0
ENDMDL
