MODEL 1
REMARK minimizedAffinity -4.11935759
REMARK minimizedRMSD -1
REMARK  0 active torsions:
REMARK  status: ('A' for Active; 'I' for Inactive)
ROOT
ATOM      1  C   UNL d   1       2.012  -1.746   1.413  0.00  0.00     0.124 A 
ATOM      2  C1  UNL d   1       2.778  -0.782   0.771  0.00  0.00     0.062 A 
ATOM      3  C2  UNL d   1       2.161   0.293   0.138  0.00  0.00     0.162 A 
ATOM      4  C3  UNL d   1       0.771   0.411   0.143  0.00  0.00    -0.034 A 
ATOM      5  C4  UNL d   1       0.008  -0.563   0.790  0.00  0.00     0.162 A 
ATOM      6  C5  UNL d   1       0.629  -1.636   1.422  0.00  0.00     0.062 A 
ATOM      7  F   UNL d   1      -0.112  -2.566   2.041  0.00  0.00    -0.097 F 
ATOM      8  F1  UNL d   1      -1.330  -0.480   0.815  0.00  0.00    -0.096 F 
ATOM      9  I   UNL d   1      -0.154   2.017  -0.803  0.00  0.00    -0.060 I 
ATOM     10  F2  UNL d   1       2.926   1.210  -0.475  0.00  0.00    -0.096 F 
ATOM     11  F3  UNL d   1       4.114  -0.887   0.760  0.00  0.00    -0.097 F 
ATOM     12  F4  UNL d   1       2.608  -2.780   2.021  0.00  0.00    -0.092 F 
ENDROOT
TORSDOF 0
ENDMDL
