MODEL 1
REMARK minimizedAffinity -3.83997822
REMARK minimizedRMSD -1
REMARK  0 active torsions:
REMARK  status: ('A' for Active; 'I' for Inactive)
ROOT
ATOM      1  C   UNL d   1      -1.537   2.841  -3.279  0.00  0.00     0.124 A 
ATOM      2  C1  UNL d   1      -0.597   3.304  -2.369  0.00  0.00     0.062 A 
ATOM      3  C2  UNL d   1      -0.159   2.482  -1.335  0.00  0.00     0.162 A 
ATOM      4  C3  UNL d   1      -0.659   1.186  -1.205  0.00  0.00    -0.034 A 
ATOM      5  C4  UNL d   1      -1.606   0.728  -2.124  0.00  0.00     0.162 A 
ATOM      6  C5  UNL d   1      -2.040   1.553  -3.155  0.00  0.00     0.062 A 
ATOM      7  F   UNL d   1      -2.949   1.104  -4.033  0.00  0.00    -0.097 F 
ATOM      8  F1  UNL d   1      -2.108  -0.513  -2.029  0.00  0.00    -0.096 F 
ATOM      9  I   UNL d   1      -0.007  -0.046   0.339  0.00  0.00    -0.060 I 
ATOM     10  F2  UNL d   1       0.751   2.956  -0.470  0.00  0.00    -0.096 F 
ATOM     11  F3  UNL d   1      -0.110   4.548  -2.485  0.00  0.00    -0.097 F 
ATOM     12  F4  UNL d   1      -1.958   3.634  -4.272  0.00  0.00    -0.092 F 
ENDROOT
TORSDOF 0
ENDMDL
