MODEL 1
REMARK minimizedAffinity -3.31852603
REMARK minimizedRMSD -1
REMARK  0 active torsions:
REMARK  status: ('A' for Active; 'I' for Inactive)
ROOT
ATOM      1  C   UNL d   1      -0.009   0.318   0.039  0.00  0.00     0.124 A 
ATOM      2  C1  UNL d   1      -0.933  -0.538   0.621  0.00  0.00     0.062 A 
ATOM      3  C2  UNL d   1      -0.508  -1.712   1.237  0.00  0.00     0.162 A 
ATOM      4  C3  UNL d   1       0.848  -2.035   1.276  0.00  0.00    -0.034 A 
ATOM      5  C4  UNL d   1       1.771  -1.169   0.687  0.00  0.00     0.162 A 
ATOM      6  C5  UNL d   1       1.342   0.002   0.072  0.00  0.00     0.062 A 
ATOM      7  F   UNL d   1       2.236   0.829  -0.490  0.00  0.00    -0.097 F 
ATOM      8  F1  UNL d   1       3.083  -1.450   0.706  0.00  0.00    -0.096 F 
ATOM      9  I   UNL d   1       1.487  -3.789   2.196  0.00  0.00    -0.060 I 
ATOM     10  F2  UNL d   1      -1.423  -2.521   1.791  0.00  0.00    -0.096 F 
ATOM     11  F3  UNL d   1      -2.239  -0.236   0.589  0.00  0.00    -0.097 F 
ATOM     12  F4  UNL d   1      -0.421   1.446  -0.555  0.00  0.00    -0.092 F 
ENDROOT
TORSDOF 0
ENDMDL
