MODEL 1
REMARK minimizedAffinity -2.25712514
REMARK minimizedRMSD -1
REMARK  0 active torsions:
REMARK  status: ('A' for Active; 'I' for Inactive)
ROOT
ATOM      1  C   UNL d   1       0.950  -2.256   1.041  0.00  0.00     0.124 A 
ATOM      2  C1  UNL d   1      -0.314  -1.742   1.294  0.00  0.00     0.062 A 
ATOM      3  C2  UNL d   1      -0.712  -0.542   0.711  0.00  0.00     0.162 A 
ATOM      4  C3  UNL d   1       0.156   0.152  -0.132  0.00  0.00    -0.034 A 
ATOM      5  C4  UNL d   1       1.426  -0.370  -0.381  0.00  0.00     0.162 A 
ATOM      6  C5  UNL d   1       1.819  -1.570   0.204  0.00  0.00     0.062 A 
ATOM      7  F   UNL d   1       3.041  -2.065  -0.042  0.00  0.00    -0.097 F 
ATOM      8  F1  UNL d   1       2.286   0.271  -1.186  0.00  0.00    -0.096 F 
ATOM      9  I   UNL d   1      -0.435   1.947  -1.005  0.00  0.00    -0.060 I 
ATOM     10  F2  UNL d   1      -1.939  -0.069   0.974  0.00  0.00    -0.096 F 
ATOM     11  F3  UNL d   1      -1.155  -2.402   2.103  0.00  0.00    -0.097 F 
ATOM     12  F4  UNL d   1       1.330  -3.410   1.604  0.00  0.00    -0.092 F 
ENDROOT
TORSDOF 0
ENDMDL
