MODEL 1
REMARK minimizedAffinity -3.64785218
REMARK minimizedRMSD -1
REMARK  0 active torsions:
REMARK  status: ('A' for Active; 'I' for Inactive)
ROOT
ATOM      1  C   UNL d   1      -0.146  -1.393   0.558  0.00  0.00     0.124 A 
ATOM      2  C1  UNL d   1       0.019  -1.330  -0.819  0.00  0.00     0.062 A 
ATOM      3  C2  UNL d   1      -0.440  -0.224  -1.529  0.00  0.00     0.162 A 
ATOM      4  C3  UNL d   1      -1.067   0.829  -0.862  0.00  0.00    -0.034 A 
ATOM      5  C4  UNL d   1      -1.229   0.758   0.522  0.00  0.00     0.162 A 
ATOM      6  C5  UNL d   1      -0.769  -0.350   1.227  0.00  0.00     0.062 A 
ATOM      7  F   UNL d   1      -0.929  -0.409   2.557  0.00  0.00    -0.097 F 
ATOM      8  F1  UNL d   1      -1.828   1.753   1.194  0.00  0.00    -0.096 F 
ATOM      9  I   UNL d   1      -1.754   2.485  -1.920  0.00  0.00    -0.060 I 
ATOM     10  F2  UNL d   1      -0.268  -0.190  -2.858  0.00  0.00    -0.096 F 
ATOM     11  F3  UNL d   1       0.620  -2.337  -1.468  0.00  0.00    -0.097 F 
ATOM     12  F4  UNL d   1       0.296  -2.459   1.238  0.00  0.00    -0.092 F 
ENDROOT
TORSDOF 0
ENDMDL
