MODEL 1
REMARK minimizedAffinity -3.12466145
REMARK minimizedRMSD -1
REMARK  0 active torsions:
REMARK  status: ('A' for Active; 'I' for Inactive)
ROOT
ATOM      1  C   UNL d   1       0.324  -1.874   1.381  0.00  0.00     0.124 A 
ATOM      2  C1  UNL d   1      -0.384  -0.787   1.874  0.00  0.00     0.062 A 
ATOM      3  C2  UNL d   1      -0.782   0.236   1.018  0.00  0.00     0.162 A 
ATOM      4  C3  UNL d   1      -0.474   0.176  -0.341  0.00  0.00    -0.034 A 
ATOM      5  C4  UNL d   1       0.239  -0.920  -0.829  0.00  0.00     0.162 A 
ATOM      6  C5  UNL d   1       0.635  -1.940   0.030  0.00  0.00     0.062 A 
ATOM      7  F   UNL d   1       1.319  -2.990  -0.448  0.00  0.00    -0.097 F 
ATOM      8  F1  UNL d   1       0.552  -1.010  -2.130  0.00  0.00    -0.096 F 
ATOM      9  I   UNL d   1      -1.067   1.703  -1.624  0.00  0.00    -0.060 I 
ATOM     10  F2  UNL d   1      -1.465   1.275   1.522  0.00  0.00    -0.096 F 
ATOM     11  F3  UNL d   1      -0.685  -0.720   3.179  0.00  0.00    -0.097 F 
ATOM     12  F4  UNL d   1       0.707  -2.856   2.207  0.00  0.00    -0.092 F 
ENDROOT
TORSDOF 0
ENDMDL
