MODEL 1
REMARK minimizedAffinity -1.6917522
REMARK minimizedRMSD -1
REMARK  0 active torsions:
REMARK  status: ('A' for Active; 'I' for Inactive)
ROOT
ATOM      1  C   UNL d   1       1.449  -1.732   1.312  0.00  0.00     0.124 A 
ATOM      2  C1  UNL d   1       0.114  -1.480   1.595  0.00  0.00     0.062 A 
ATOM      3  C2  UNL d   1      -0.521  -0.371   1.042  0.00  0.00     0.162 A 
ATOM      4  C3  UNL d   1       0.178   0.493   0.199  0.00  0.00    -0.034 A 
ATOM      5  C4  UNL d   1       1.521   0.233  -0.080  0.00  0.00     0.162 A 
ATOM      6  C5  UNL d   1       2.151  -0.876   0.475  0.00  0.00     0.062 A 
ATOM      7  F   UNL d   1       3.441  -1.119   0.201  0.00  0.00    -0.097 F 
ATOM      8  F1  UNL d   1       2.223   1.043  -0.886  0.00  0.00    -0.096 F 
ATOM      9  I   UNL d   1      -0.768   2.151  -0.629  0.00  0.00    -0.060 I 
ATOM     10  F2  UNL d   1      -1.812  -0.152   1.333  0.00  0.00    -0.096 F 
ATOM     11  F3  UNL d   1      -0.566  -2.305   2.403  0.00  0.00    -0.097 F 
ATOM     12  F4  UNL d   1       2.058  -2.799   1.846  0.00  0.00    -0.092 F 
ENDROOT
TORSDOF 0
ENDMDL
