MODEL 1
REMARK minimizedAffinity 4.68111563
REMARK minimizedRMSD -1
REMARK  0 active torsions:
REMARK  status: ('A' for Active; 'I' for Inactive)
ROOT
ATOM      1  C   UNL d   1      -0.236   1.515  -0.256  0.00  0.00     0.124 A 
ATOM      2  C1  UNL d   1       1.127   1.266  -0.322  0.00  0.00     0.062 A 
ATOM      3  C2  UNL d   1       1.661   0.128   0.276  0.00  0.00     0.162 A 
ATOM      4  C3  UNL d   1       0.830  -0.770   0.946  0.00  0.00    -0.034 A 
ATOM      5  C4  UNL d   1      -0.540  -0.513   1.009  0.00  0.00     0.162 A 
ATOM      6  C5  UNL d   1      -1.069   0.626   0.409  0.00  0.00     0.062 A 
ATOM      7  F   UNL d   1      -2.387   0.864   0.474  0.00  0.00    -0.097 F 
ATOM      8  F1  UNL d   1      -1.367  -1.356   1.644  0.00  0.00    -0.096 F 
ATOM      9  I   UNL d   1       1.625  -2.473   1.842  0.00  0.00    -0.060 I 
ATOM     10  F2  UNL d   1       2.983  -0.087   0.197  0.00  0.00    -0.096 F 
ATOM     11  F3  UNL d   1       1.934   2.124  -0.963  0.00  0.00    -0.097 F 
ATOM     12  F4  UNL d   1      -0.747   2.611  -0.832  0.00  0.00    -0.092 F 
ENDROOT
TORSDOF 0
ENDMDL
