MODEL 1
REMARK minimizedAffinity -1.59440172
REMARK minimizedRMSD -1
REMARK  0 active torsions:
REMARK  status: ('A' for Active; 'I' for Inactive)
ROOT
ATOM      1  C   UNL d   1       1.543  -2.196   1.566  0.00  0.00     0.124 A 
ATOM      2  C1  UNL d   1       2.178  -1.193   0.847  0.00  0.00     0.062 A 
ATOM      3  C2  UNL d   1       1.438  -0.147   0.302  0.00  0.00     0.162 A 
ATOM      4  C3  UNL d   1       0.055  -0.099   0.475  0.00  0.00    -0.034 A 
ATOM      5  C4  UNL d   1      -0.577  -1.113   1.198  0.00  0.00     0.162 A 
ATOM      6  C5  UNL d   1       0.167  -2.155   1.741  0.00  0.00     0.062 A 
ATOM      7  F   UNL d   1      -0.447  -3.124   2.436  0.00  0.00    -0.097 F 
ATOM      8  F1  UNL d   1      -1.905  -1.097   1.383  0.00  0.00    -0.096 F 
ATOM      9  I   UNL d   1      -1.055   1.462  -0.339  0.00  0.00    -0.060 I 
ATOM     10  F2  UNL d   1       2.077   0.809  -0.388  0.00  0.00    -0.096 F 
ATOM     11  F3  UNL d   1       3.507  -1.230   0.676  0.00  0.00    -0.097 F 
ATOM     12  F4  UNL d   1       2.257  -3.201   2.089  0.00  0.00    -0.092 F 
ENDROOT
TORSDOF 0
ENDMDL
