MODEL 1
REMARK minimizedAffinity 0.239409983
REMARK minimizedRMSD -1
REMARK  0 active torsions:
REMARK  status: ('A' for Active; 'I' for Inactive)
ROOT
ATOM      1  C   UNL d   1       1.381  -1.702   1.074  0.00  0.00     0.124 A 
ATOM      2  C1  UNL d   1       0.010  -1.597   1.261  0.00  0.00     0.062 A 
ATOM      3  C2  UNL d   1      -0.692  -0.528   0.711  0.00  0.00     0.162 A 
ATOM      4  C3  UNL d   1      -0.023   0.444  -0.033  0.00  0.00    -0.034 A 
ATOM      5  C4  UNL d   1       1.356   0.333  -0.215  0.00  0.00     0.162 A 
ATOM      6  C5  UNL d   1       2.053  -0.738   0.336  0.00  0.00     0.062 A 
ATOM      7  F   UNL d   1       3.378  -0.837   0.155  0.00  0.00    -0.097 F 
ATOM      8  F1  UNL d   1       2.031   1.250  -0.924  0.00  0.00    -0.096 F 
ATOM      9  I   UNL d   1      -1.068   2.044  -0.857  0.00  0.00    -0.060 I 
ATOM     10  F2  UNL d   1      -2.016  -0.452   0.907  0.00  0.00    -0.096 F 
ATOM     11  F3  UNL d   1      -0.642  -2.528   1.973  0.00  0.00    -0.097 F 
ATOM     12  F4  UNL d   1       2.054  -2.731   1.605  0.00  0.00    -0.092 F 
ENDROOT
TORSDOF 0
ENDMDL
