MODEL 1
REMARK minimizedAffinity -2.04094481
REMARK minimizedRMSD -1
REMARK  1 active torsions:
REMARK  status: ('A' for Active; 'I' for Inactive)
REMARK    1  A    between atoms: C1_2  and  C2_3 
ROOT
ATOM      1  C2  UNL d   1      -0.666   1.106  -1.019  0.00  0.00    -0.077 A 
ATOM      2  C3  UNL d   1      -1.632   1.098  -0.004  0.00  0.00     0.002 A 
ATOM      3  C4  UNL d   1      -1.403   0.403   1.185  0.00  0.00     0.002 A 
ATOM      4  C5  UNL d   1      -0.206  -0.285   1.371  0.00  0.00    -0.004 A 
ATOM      5  C6  UNL d   1       0.761  -0.285   0.367  0.00  0.00     0.002 A 
ATOM      6  C7  UNL d   1       0.533   0.408  -0.823  0.00  0.00     0.002 A 
ENDROOT
BRANCH   1   7
ATOM      7  C1  UNL d   1      -0.891   1.895  -2.282  0.00  0.00     0.055 C 
ATOM      8  C   UNL d   1      -1.264   3.338  -1.974  0.00  0.00     0.019 C 
ENDBRANCH   1   7
TORSDOF 1
ENDMDL
