MODEL 1
REMARK minimizedAffinity -2.47620487
REMARK minimizedRMSD -1
REMARK  1 active torsions:
REMARK  status: ('A' for Active; 'I' for Inactive)
REMARK    1  A    between atoms: C1_2  and  C2_3 
ROOT
ATOM      1  C2  UNL d   1      -0.712   0.427  -1.110  0.00  0.00    -0.077 A 
ATOM      2  C3  UNL d   1      -1.407   0.591   0.097  0.00  0.00     0.002 A 
ATOM      3  C4  UNL d   1      -0.936  -0.003   1.269  0.00  0.00     0.002 A 
ATOM      4  C5  UNL d   1       0.234  -0.760   1.248  0.00  0.00    -0.004 A 
ATOM      5  C6  UNL d   1       0.931  -0.930   0.052  0.00  0.00     0.002 A 
ATOM      6  C7  UNL d   1       0.461  -0.339  -1.121  0.00  0.00     0.002 A 
ENDROOT
BRANCH   1   7
ATOM      7  C1  UNL d   1      -1.192   1.107  -2.366  0.00  0.00     0.055 C 
ATOM      8  C   UNL d   1      -0.590   2.497  -2.507  0.00  0.00     0.019 C 
ENDBRANCH   1   7
TORSDOF 1
ENDMDL
