MODEL 1
REMARK minimizedAffinity -5.15483379
REMARK minimizedRMSD -1
REMARK  1 active torsions:
REMARK  status: ('A' for Active; 'I' for Inactive)
REMARK    1  A    between atoms: C1_2  and  C2_3 
ROOT
ATOM      1  C2  UNL d   1       0.211   0.133   0.486  0.00  0.00    -0.077 A 
ATOM      2  C3  UNL d   1       1.561   0.235   0.850  0.00  0.00     0.002 A 
ATOM      3  C4  UNL d   1       1.985  -0.179   2.114  0.00  0.00     0.002 A 
ATOM      4  C5  UNL d   1       1.067  -0.702   3.022  0.00  0.00    -0.004 A 
ATOM      5  C6  UNL d   1      -0.278  -0.806   2.671  0.00  0.00     0.002 A 
ATOM      6  C7  UNL d   1      -0.704  -0.391   1.408  0.00  0.00     0.002 A 
ENDROOT
BRANCH   1   7
ATOM      7  C1  UNL d   1      -0.241   0.533  -0.894  0.00  0.00     0.055 C 
ATOM      8  C   UNL d   1       0.020   2.009  -1.155  0.00  0.00     0.019 C 
ENDBRANCH   1   7
TORSDOF 1
ENDMDL
