MODEL 1
REMARK minimizedAffinity -5.46929026
REMARK minimizedRMSD -1
REMARK  1 active torsions:
REMARK  status: ('A' for Active; 'I' for Inactive)
REMARK    1  A    between atoms: C1_2  and  C2_3 
ROOT
ATOM      1  C2  UNL d   1       0.248  -0.124  -0.120  0.00  0.00    -0.077 A 
ATOM      2  C3  UNL d   1      -0.927  -0.033   0.639  0.00  0.00     0.002 A 
ATOM      3  C4  UNL d   1      -0.875  -0.110   2.032  0.00  0.00     0.002 A 
ATOM      4  C5  UNL d   1       0.349  -0.272   2.678  0.00  0.00    -0.004 A 
ATOM      5  C6  UNL d   1       1.523  -0.366   1.932  0.00  0.00     0.002 A 
ATOM      6  C7  UNL d   1       1.473  -0.291   0.539  0.00  0.00     0.002 A 
ENDROOT
BRANCH   1   7
ATOM      7  C1  UNL d   1       0.200   0.007  -1.620  0.00  0.00     0.055 C 
ATOM      8  C   UNL d   1      -0.477   1.303  -2.041  0.00  0.00     0.019 C 
ENDBRANCH   1   7
TORSDOF 1
ENDMDL
