MODEL 1
REMARK minimizedAffinity -3.23979616
REMARK minimizedRMSD -1
REMARK  1 active torsions:
REMARK  status: ('A' for Active; 'I' for Inactive)
REMARK    1  A    between atoms: C1_2  and  C2_3 
ROOT
ATOM      1  C2  UNL d   1       0.204  -0.145   0.068  0.00  0.00    -0.077 A 
ATOM      2  C3  UNL d   1      -0.796  -0.019   1.043  0.00  0.00     0.002 A 
ATOM      3  C4  UNL d   1      -0.480  -0.146   2.397  0.00  0.00     0.002 A 
ATOM      4  C5  UNL d   1       0.833  -0.396   2.788  0.00  0.00    -0.004 A 
ATOM      5  C6  UNL d   1       1.834  -0.525   1.826  0.00  0.00     0.002 A 
ATOM      6  C7  UNL d   1       1.521  -0.399   0.472  0.00  0.00     0.002 A 
ENDROOT
BRANCH   1   7
ATOM      7  C1  UNL d   1      -0.125   0.041  -1.391  0.00  0.00     0.055 C 
ATOM      8  C   UNL d   1      -0.260   1.515  -1.744  0.00  0.00     0.019 C 
ENDBRANCH   1   7
TORSDOF 1
ENDMDL
