MODEL 1
REMARK minimizedAffinity -4.76424885
REMARK minimizedRMSD -1
REMARK  1 active torsions:
REMARK  status: ('A' for Active; 'I' for Inactive)
REMARK    1  A    between atoms: C1_2  and  C2_3 
ROOT
ATOM      1  C2  UNL d   1       0.263  -0.974   1.892  0.00  0.00    -0.077 A 
ATOM      2  C3  UNL d   1      -0.876  -0.251   1.509  0.00  0.00     0.002 A 
ATOM      3  C4  UNL d   1      -0.983   0.263   0.215  0.00  0.00     0.002 A 
ATOM      4  C5  UNL d   1       0.042   0.056  -0.706  0.00  0.00    -0.004 A 
ATOM      5  C6  UNL d   1       1.179  -0.660  -0.334  0.00  0.00     0.002 A 
ATOM      6  C7  UNL d   1       1.288  -1.174   0.959  0.00  0.00     0.002 A 
ENDROOT
BRANCH   1   7
ATOM      7  C1  UNL d   1       0.359  -1.571   3.272  0.00  0.00     0.055 C 
ATOM      8  C   UNL d   1       1.785  -1.520   3.799  0.00  0.00     0.019 C 
ENDBRANCH   1   7
TORSDOF 1
ENDMDL
