MODEL 1
REMARK minimizedAffinity -5.09542131
REMARK minimizedRMSD -1
REMARK  1 active torsions:
REMARK  status: ('A' for Active; 'I' for Inactive)
REMARK    1  A    between atoms: C1_2  and  C2_3 
ROOT
ATOM      1  C2  UNL d   1       0.169  -0.284   0.080  0.00  0.00    -0.077 A 
ATOM      2  C3  UNL d   1       1.498  -0.476   0.483  0.00  0.00     0.002 A 
ATOM      3  C4  UNL d   1       1.825  -0.520   1.840  0.00  0.00     0.002 A 
ATOM      4  C5  UNL d   1       0.829  -0.376   2.803  0.00  0.00    -0.004 A 
ATOM      5  C6  UNL d   1      -0.495  -0.183   2.412  0.00  0.00     0.002 A 
ATOM      6  C7  UNL d   1      -0.824  -0.138   1.057  0.00  0.00     0.002 A 
ENDROOT
BRANCH   1   7
ATOM      7  C1  UNL d   1      -0.194  -0.286  -1.382  0.00  0.00     0.055 C 
ATOM      8  C   UNL d   1      -0.680   1.083  -1.834  0.00  0.00     0.019 C 
ENDBRANCH   1   7
TORSDOF 1
ENDMDL
