MODEL 1
REMARK minimizedAffinity -3.45118976
REMARK minimizedRMSD -1
REMARK  0 active torsions:
REMARK  status: ('A' for Active; 'I' for Inactive)
ROOT
ATOM      1  C1  BNZ d   1       0.372  -0.850   0.022  0.00  0.00     0.000 A 
ATOM      2  C2  BNZ d   1      -0.437  -0.047   0.780  0.00  0.00     0.000 A 
ATOM      3  C3  BNZ d   1      -1.030   1.060   0.239  0.00  0.00     0.000 A 
ATOM      4  C4  BNZ d   1      -0.782   1.383  -1.046  0.00  0.00     0.000 A 
ATOM      5  C5  BNZ d   1       0.039   0.589  -1.821  0.00  0.00     0.000 A 
ATOM      6  C6  BNZ d   1       0.603  -0.546  -1.284  0.00  0.00     0.000 A 
ENDROOT
TORSDOF 0
ENDMDL
