MODEL 1
REMARK minimizedAffinity -5.38205671
REMARK minimizedRMSD -1
REMARK  0 active torsions:
REMARK  status: ('A' for Active; 'I' for Inactive)
ROOT
ATOM      1  C1  BNZ d   1       1.229  -0.220   1.285  0.00  0.00     0.000 A 
ATOM      2  C2  BNZ d   1       1.051   0.269   2.552  0.00  0.00     0.000 A 
ATOM      3  C3  BNZ d   1      -0.170   0.730   2.959  0.00  0.00     0.000 A 
ATOM      4  C4  BNZ d   1      -1.199   0.740   2.088  0.00  0.00     0.000 A 
ATOM      5  C5  BNZ d   1      -1.033   0.259   0.804  0.00  0.00     0.000 A 
ATOM      6  C6  BNZ d   1       0.187  -0.241   0.410  0.00  0.00     0.000 A 
ENDROOT
TORSDOF 0
ENDMDL
