MODEL 1
REMARK minimizedAffinity -4.72573423
REMARK minimizedRMSD -1
REMARK  0 active torsions:
REMARK  status: ('A' for Active; 'I' for Inactive)
ROOT
ATOM      1  C1  BNZ d   1       0.014   0.640   0.619  0.00  0.00     0.000 A 
ATOM      2  C2  BNZ d   1       0.696   0.496   1.798  0.00  0.00     0.000 A 
ATOM      3  C3  BNZ d   1       0.136   0.888   2.982  0.00  0.00     0.000 A 
ATOM      4  C4  BNZ d   1      -1.085   1.459   2.981  0.00  0.00     0.000 A 
ATOM      5  C5  BNZ d   1      -1.781   1.619   1.799  0.00  0.00     0.000 A 
ATOM      6  C6  BNZ d   1      -1.231   1.188   0.614  0.00  0.00     0.000 A 
ENDROOT
TORSDOF 0
ENDMDL
