MODEL 1
REMARK minimizedAffinity -4.90917301
REMARK minimizedRMSD -1
REMARK  0 active torsions:
REMARK  status: ('A' for Active; 'I' for Inactive)
ROOT
ATOM      1  C1  BNZ d   1       0.684   0.610   3.352  0.00  0.00     0.000 A 
ATOM      2  C2  BNZ d   1      -0.555   1.188   3.438  0.00  0.00     0.000 A 
ATOM      3  C3  BNZ d   1      -1.282   1.454   2.312  0.00  0.00     0.000 A 
ATOM      4  C4  BNZ d   1      -0.755   1.180   1.101  0.00  0.00     0.000 A 
ATOM      5  C5  BNZ d   1       0.497   0.606   0.998  0.00  0.00     0.000 A 
ATOM      6  C6  BNZ d   1       1.210   0.304   2.135  0.00  0.00     0.000 A 
ENDROOT
TORSDOF 0
ENDMDL
