MODEL 1
REMARK minimizedAffinity -3.54925752
REMARK minimizedRMSD -1
REMARK  0 active torsions:
REMARK  status: ('A' for Active; 'I' for Inactive)
ROOT
ATOM      1  C1  BNZ d   1      -0.918   0.234   2.062  0.00  0.00     0.000 A 
ATOM      2  C2  BNZ d   1       0.372  -0.044   1.698  0.00  0.00     0.000 A 
ATOM      3  C3  BNZ d   1       0.652  -0.592   0.477  0.00  0.00     0.000 A 
ATOM      4  C4  BNZ d   1      -0.360  -0.898  -0.360  0.00  0.00     0.000 A 
ATOM      5  C5  BNZ d   1      -1.667  -0.633  -0.003  0.00  0.00     0.000 A 
ATOM      6  C6  BNZ d   1      -1.942  -0.046   1.210  0.00  0.00     0.000 A 
ENDROOT
TORSDOF 0
ENDMDL
