MODEL 1
REMARK minimizedAffinity -4.78951883
REMARK minimizedRMSD -1
REMARK  0 active torsions:
REMARK  status: ('A' for Active; 'I' for Inactive)
ROOT
ATOM      1  C1  BNZ d   1      -1.634   0.160   0.876  0.00  0.00     0.000 A 
ATOM      2  C2  BNZ d   1      -1.890   0.521   2.171  0.00  0.00     0.000 A 
ATOM      3  C3  BNZ d   1      -1.028   1.332   2.855  0.00  0.00     0.000 A 
ATOM      4  C4  BNZ d   1       0.107   1.748   2.257  0.00  0.00     0.000 A 
ATOM      5  C5  BNZ d   1       0.384   1.385   0.954  0.00  0.00     0.000 A 
ATOM      6  C6  BNZ d   1      -0.505   0.600   0.256  0.00  0.00     0.000 A 
ENDROOT
TORSDOF 0
ENDMDL
