MODEL 1
REMARK minimizedAffinity -3.19636106
REMARK minimizedRMSD -1
REMARK  0 active torsions:
REMARK  status: ('A' for Active; 'I' for Inactive)
ROOT
ATOM      1  C1  BNZ d   1      -0.950   0.281   2.513  0.00  0.00     0.000 A 
ATOM      2  C2  BNZ d   1       0.274   0.018   1.958  0.00  0.00     0.000 A 
ATOM      3  C3  BNZ d   1       0.426  -0.052   0.601  0.00  0.00     0.000 A 
ATOM      4  C4  BNZ d   1      -0.651   0.101  -0.196  0.00  0.00     0.000 A 
ATOM      5  C5  BNZ d   1      -1.893   0.358   0.350  0.00  0.00     0.000 A 
ATOM      6  C6  BNZ d   1      -2.035   0.467   1.714  0.00  0.00     0.000 A 
ENDROOT
TORSDOF 0
ENDMDL
