MODEL 1
REMARK minimizedAffinity 12.0549784
REMARK minimizedRMSD -1
REMARK  0 active torsions:
REMARK  status: ('A' for Active; 'I' for Inactive)
ROOT
ATOM      1  C   UNL d   1      -2.426   4.537  -5.164  0.00  0.00     0.124 A 
ATOM      2  C1  UNL d   1      -3.745   4.795  -5.509  0.00  0.00     0.062 A 
ATOM      3  C2  UNL d   1      -4.713   3.806  -5.362  0.00  0.00     0.162 A 
ATOM      4  C3  UNL d   1      -4.366   2.549  -4.866  0.00  0.00    -0.034 A 
ATOM      5  C4  UNL d   1      -3.036   2.297  -4.522  0.00  0.00     0.162 A 
ATOM      6  C5  UNL d   1      -2.073   3.289  -4.671  0.00  0.00     0.062 A 
ATOM      7  F   UNL d   1      -0.798   3.039  -4.337  0.00  0.00    -0.097 F 
ATOM      8  F1  UNL d   1      -2.667   1.100  -4.042  0.00  0.00    -0.096 F 
ATOM      9  I   UNL d   1      -5.810   1.067  -4.644  0.00  0.00    -0.060 I 
ATOM     10  F2  UNL d   1      -5.981   4.083  -5.703  0.00  0.00    -0.096 F 
ATOM     11  F3  UNL d   1      -4.089   6.000  -5.986  0.00  0.00    -0.097 F 
ATOM     12  F4  UNL d   1      -1.496   5.491  -5.308  0.00  0.00    -0.092 F 
ENDROOT
TORSDOF 0
ENDMDL
