MODEL 1
REMARK minimizedAffinity 3.32722592
REMARK minimizedRMSD -1
REMARK  0 active torsions:
REMARK  status: ('A' for Active; 'I' for Inactive)
ROOT
ATOM      1  C   UNL d   1      -3.899   2.475  -3.011  0.00  0.00     0.124 A 
ATOM      2  C1  UNL d   1      -4.670   2.856  -4.100  0.00  0.00     0.062 A 
ATOM      3  C2  UNL d   1      -4.226   3.860  -4.955  0.00  0.00     0.162 A 
ATOM      4  C3  UNL d   1      -3.003   4.491  -4.724  0.00  0.00    -0.034 A 
ATOM      5  C4  UNL d   1      -2.234   4.103  -3.625  0.00  0.00     0.162 A 
ATOM      6  C5  UNL d   1      -2.682   3.098  -2.774  0.00  0.00     0.062 A 
ATOM      7  F   UNL d   1      -1.936   2.732  -1.722  0.00  0.00    -0.097 F 
ATOM      8  F1  UNL d   1      -1.053   4.689  -3.374  0.00  0.00    -0.096 F 
ATOM      9  I   UNL d   1      -2.335   5.994  -5.999  0.00  0.00    -0.060 I 
ATOM     10  F2  UNL d   1      -4.991   4.208  -6.000  0.00  0.00    -0.096 F 
ATOM     11  F3  UNL d   1      -5.847   2.255  -4.330  0.00  0.00    -0.097 F 
ATOM     12  F4  UNL d   1      -4.330   1.508  -2.189  0.00  0.00    -0.092 F 
ENDROOT
TORSDOF 0
ENDMDL
