MODEL 1
REMARK minimizedAffinity 8.53484058
REMARK minimizedRMSD -1
REMARK  0 active torsions:
REMARK  status: ('A' for Active; 'I' for Inactive)
ROOT
ATOM      1  C   UNL d   1      -1.133   3.796  -4.679  0.00  0.00     0.124 A 
ATOM      2  C1  UNL d   1      -1.755   4.861  -5.316  0.00  0.00     0.062 A 
ATOM      3  C2  UNL d   1      -3.144   4.929  -5.371  0.00  0.00     0.162 A 
ATOM      4  C3  UNL d   1      -3.922   3.930  -4.785  0.00  0.00    -0.034 A 
ATOM      5  C4  UNL d   1      -3.289   2.862  -4.147  0.00  0.00     0.162 A 
ATOM      6  C5  UNL d   1      -1.900   2.798  -4.095  0.00  0.00     0.062 A 
ATOM      7  F   UNL d   1      -1.301   1.769  -3.479  0.00  0.00    -0.097 F 
ATOM      8  F1  UNL d   1      -4.006   1.885  -3.573  0.00  0.00    -0.096 F 
ATOM      9  I   UNL d   1      -5.999   4.029  -4.865  0.00  0.00    -0.060 I 
ATOM     10  F2  UNL d   1      -3.718   5.970  -5.993  0.00  0.00    -0.096 F 
ATOM     11  F3  UNL d   1      -1.016   5.826  -5.882  0.00  0.00    -0.097 F 
ATOM     12  F4  UNL d   1       0.204   3.732  -4.629  0.00  0.00    -0.092 F 
ENDROOT
TORSDOF 0
ENDMDL
