MODEL 1
REMARK minimizedAffinity 7.25837517
REMARK minimizedRMSD -1
REMARK  0 active torsions:
REMARK  status: ('A' for Active; 'I' for Inactive)
ROOT
ATOM      1  C   UNL d   1       0.666   2.980   0.939  0.00  0.00     0.124 A 
ATOM      2  C1  UNL d   1       0.809   3.143   2.310  0.00  0.00     0.062 A 
ATOM      3  C2  UNL d   1       0.721   2.043   3.158  0.00  0.00     0.162 A 
ATOM      4  C3  UNL d   1       0.491   0.769   2.639  0.00  0.00    -0.034 A 
ATOM      5  C4  UNL d   1       0.348   0.613   1.259  0.00  0.00     0.162 A 
ATOM      6  C5  UNL d   1       0.436   1.715   0.415  0.00  0.00     0.062 A 
ATOM      7  F   UNL d   1       0.297   1.556  -0.910  0.00  0.00    -0.097 F 
ATOM      8  F1  UNL d   1       0.125  -0.597   0.725  0.00  0.00    -0.096 F 
ATOM      9  I   UNL d   1       0.360  -0.877   3.904  0.00  0.00    -0.060 I 
ATOM     10  F2  UNL d   1       0.863   2.230   4.479  0.00  0.00    -0.096 F 
ATOM     11  F3  UNL d   1       1.030   4.363   2.819  0.00  0.00    -0.097 F 
ATOM     12  F4  UNL d   1       0.749   4.040   0.125  0.00  0.00    -0.092 F 
ENDROOT
TORSDOF 0
ENDMDL
