MODEL 1
REMARK minimizedAffinity 9.11521053
REMARK minimizedRMSD -1
REMARK  0 active torsions:
REMARK  status: ('A' for Active; 'I' for Inactive)
ROOT
ATOM      1  C   UNL d   1      -2.373   4.512  -4.967  0.00  0.00     0.124 A 
ATOM      2  C1  UNL d   1      -3.662   4.814  -5.385  0.00  0.00     0.062 A 
ATOM      3  C2  UNL d   1      -4.696   3.907  -5.176  0.00  0.00     0.162 A 
ATOM      4  C3  UNL d   1      -4.447   2.688  -4.545  0.00  0.00    -0.034 A 
ATOM      5  C4  UNL d   1      -3.148   2.391  -4.128  0.00  0.00     0.162 A 
ATOM      6  C5  UNL d   1      -2.118   3.302  -4.339  0.00  0.00     0.062 A 
ATOM      7  F   UNL d   1      -0.873   3.008  -3.935  0.00  0.00    -0.097 F 
ATOM      8  F1  UNL d   1      -2.873   1.229  -3.519  0.00  0.00    -0.096 F 
ATOM      9  I   UNL d   1      -5.991   1.328  -4.232  0.00  0.00    -0.060 I 
ATOM     10  F2  UNL d   1      -5.932   4.225  -5.591  0.00  0.00    -0.096 F 
ATOM     11  F3  UNL d   1      -3.911   5.983  -5.992  0.00  0.00    -0.097 F 
ATOM     12  F4  UNL d   1      -1.380   5.387  -5.170  0.00  0.00    -0.092 F 
ENDROOT
TORSDOF 0
ENDMDL
