MODEL 1
REMARK minimizedAffinity 9.48919773
REMARK minimizedRMSD -1
REMARK  0 active torsions:
REMARK  status: ('A' for Active; 'I' for Inactive)
ROOT
ATOM      1  C   UNL d   1       0.380   2.328   0.577  0.00  0.00     0.124 A 
ATOM      2  C1  UNL d   1       0.449   2.611   1.934  0.00  0.00     0.062 A 
ATOM      3  C2  UNL d   1       0.448   1.577   2.865  0.00  0.00     0.162 A 
ATOM      4  C3  UNL d   1       0.377   0.249   2.444  0.00  0.00    -0.034 A 
ATOM      5  C4  UNL d   1       0.306  -0.028   1.077  0.00  0.00     0.162 A 
ATOM      6  C5  UNL d   1       0.308   1.009   0.150  0.00  0.00     0.062 A 
ATOM      7  F   UNL d   1       0.240   0.733  -1.161  0.00  0.00    -0.097 F 
ATOM      8  F1  UNL d   1       0.237  -1.293   0.637  0.00  0.00    -0.096 F 
ATOM      9  I   UNL d   1       0.375  -1.299   3.834  0.00  0.00    -0.060 I 
ATOM     10  F2  UNL d   1       0.516   1.880   4.170  0.00  0.00    -0.096 F 
ATOM     11  F3  UNL d   1       0.518   3.884   2.348  0.00  0.00    -0.097 F 
ATOM     12  F4  UNL d   1       0.380   3.324  -0.318  0.00  0.00    -0.092 F 
ENDROOT
TORSDOF 0
ENDMDL
