MODEL 1
REMARK minimizedAffinity 11.0127659
REMARK minimizedRMSD -1
REMARK  0 active torsions:
REMARK  status: ('A' for Active; 'I' for Inactive)
ROOT
ATOM      1  C   UNL d   1      -2.461   3.053  -2.723  0.00  0.00     0.124 A 
ATOM      2  C1  UNL d   1      -2.181   3.703  -3.917  0.00  0.00     0.062 A 
ATOM      3  C2  UNL d   1      -3.189   3.911  -4.854  0.00  0.00     0.162 A 
ATOM      4  C3  UNL d   1      -4.488   3.470  -4.600  0.00  0.00    -0.034 A 
ATOM      5  C4  UNL d   1      -4.762   2.817  -3.397  0.00  0.00     0.162 A 
ATOM      6  C5  UNL d   1      -3.751   2.611  -2.464  0.00  0.00     0.062 A 
ATOM      7  F   UNL d   1      -4.024   1.984  -1.311  0.00  0.00    -0.097 F 
ATOM      8  F1  UNL d   1      -6.000   2.381  -3.121  0.00  0.00    -0.096 F 
ATOM      9  I   UNL d   1      -5.998   3.780  -5.999  0.00  0.00    -0.060 I 
ATOM     10  F2  UNL d   1      -2.889   4.541  -6.000  0.00  0.00    -0.096 F 
ATOM     11  F3  UNL d   1      -0.935   4.130  -4.170  0.00  0.00    -0.097 F 
ATOM     12  F4  UNL d   1      -1.489   2.854  -1.823  0.00  0.00    -0.092 F 
ENDROOT
TORSDOF 0
ENDMDL
