MODEL 1
REMARK minimizedAffinity 7.35395193
REMARK minimizedRMSD -1
REMARK  0 active torsions:
REMARK  status: ('A' for Active; 'I' for Inactive)
ROOT
ATOM      1  C   UNL d   1       0.448   2.545   0.976  0.00  0.00     0.124 A 
ATOM      2  C1  UNL d   1       0.097   1.290   0.498  0.00  0.00     0.062 A 
ATOM      3  C2  UNL d   1       0.229   0.168   1.312  0.00  0.00     0.162 A 
ATOM      4  C3  UNL d   1       0.715   0.297   2.614  0.00  0.00    -0.034 A 
ATOM      5  C4  UNL d   1       1.067   1.562   3.087  0.00  0.00     0.162 A 
ATOM      6  C5  UNL d   1       0.933   2.680   2.269  0.00  0.00     0.062 A 
ATOM      7  F   UNL d   1       1.273   3.891   2.733  0.00  0.00    -0.097 F 
ATOM      8  F1  UNL d   1       1.538   1.721   4.333  0.00  0.00    -0.096 F 
ATOM      9  I   UNL d   1       0.915  -1.377   3.834  0.00  0.00    -0.060 I 
ATOM     10  F2  UNL d   1      -0.118  -1.032   0.824  0.00  0.00    -0.096 F 
ATOM     11  F3  UNL d   1      -0.371   1.157  -0.751  0.00  0.00    -0.097 F 
ATOM     12  F4  UNL d   1       0.321   3.622   0.191  0.00  0.00    -0.092 F 
ENDROOT
TORSDOF 0
ENDMDL
