MODEL 1
REMARK minimizedAffinity 12.9382191
REMARK minimizedRMSD -1
REMARK  0 active torsions:
REMARK  status: ('A' for Active; 'I' for Inactive)
ROOT
ATOM      1  C   UNL d   1       1.052   4.127   2.115  0.00  0.00     0.124 A 
ATOM      2  C1  UNL d   1       1.318   3.431   3.285  0.00  0.00     0.062 A 
ATOM      3  C2  UNL d   1       1.212   2.043   3.314  0.00  0.00     0.162 A 
ATOM      4  C3  UNL d   1       0.838   1.342   2.167  0.00  0.00    -0.034 A 
ATOM      5  C4  UNL d   1       0.571   2.050   0.994  0.00  0.00     0.162 A 
ATOM      6  C5  UNL d   1       0.679   3.436   0.970  0.00  0.00     0.062 A 
ATOM      7  F   UNL d   1       0.421   4.108  -0.162  0.00  0.00    -0.097 F 
ATOM      8  F1  UNL d   1       0.210   1.407  -0.127  0.00  0.00    -0.096 F 
ATOM      9  I   UNL d   1       0.678  -0.733   2.205  0.00  0.00    -0.060 I 
ATOM     10  F2  UNL d   1       1.475   1.396   4.459  0.00  0.00    -0.096 F 
ATOM     11  F3  UNL d   1       1.677   4.096   4.392  0.00  0.00    -0.097 F 
ATOM     12  F4  UNL d   1       1.154   5.462   2.090  0.00  0.00    -0.092 F 
ENDROOT
TORSDOF 0
ENDMDL
