MODEL 1
REMARK minimizedAffinity 10.4292259
REMARK minimizedRMSD -1
REMARK  0 active torsions:
REMARK  status: ('A' for Active; 'I' for Inactive)
ROOT
ATOM      1  C   UNL d   1      -2.204   2.832  -2.963  0.00  0.00     0.124 A 
ATOM      2  C1  UNL d   1      -2.129   3.666  -4.070  0.00  0.00     0.062 A 
ATOM      3  C2  UNL d   1      -3.211   3.775  -4.938  0.00  0.00     0.162 A 
ATOM      4  C3  UNL d   1      -4.379   3.049  -4.703  0.00  0.00    -0.034 A 
ATOM      5  C4  UNL d   1      -4.446   2.211  -3.589  0.00  0.00     0.162 A 
ATOM      6  C5  UNL d   1      -3.362   2.105  -2.723  0.00  0.00     0.062 A 
ATOM      7  F   UNL d   1      -3.436   1.298  -1.655  0.00  0.00    -0.097 F 
ATOM      8  F1  UNL d   1      -5.553   1.498  -3.333  0.00  0.00    -0.096 F 
ATOM      9  I   UNL d   1      -5.999   3.210  -6.000  0.00  0.00    -0.060 I 
ATOM     10  F2  UNL d   1      -3.111   4.589  -6.000  0.00  0.00    -0.096 F 
ATOM     11  F3  UNL d   1      -1.011   4.368  -4.304  0.00  0.00    -0.097 F 
ATOM     12  F4  UNL d   1      -1.161   2.728  -2.129  0.00  0.00    -0.092 F 
ENDROOT
TORSDOF 0
ENDMDL
