MODEL 1
REMARK minimizedAffinity 14.6694889
REMARK minimizedRMSD -1
REMARK  0 active torsions:
REMARK  status: ('A' for Active; 'I' for Inactive)
ROOT
ATOM      1  C   UNL d   1      -4.881   2.428  -4.901  0.00  0.00     0.124 A 
ATOM      2  C1  UNL d   1      -4.962   3.765  -5.269  0.00  0.00     0.062 A 
ATOM      3  C2  UNL d   1      -3.969   4.659  -4.879  0.00  0.00     0.162 A 
ATOM      4  C3  UNL d   1      -2.886   4.220  -4.118  0.00  0.00    -0.034 A 
ATOM      5  C4  UNL d   1      -2.812   2.875  -3.752  0.00  0.00     0.162 A 
ATOM      6  C5  UNL d   1      -3.806   1.985  -4.143  0.00  0.00     0.062 A 
ATOM      7  F   UNL d   1      -3.726   0.695  -3.788  0.00  0.00    -0.097 F 
ATOM      8  F1  UNL d   1      -1.784   2.420  -3.020  0.00  0.00    -0.096 F 
ATOM      9  I   UNL d   1      -1.400   5.555  -3.534  0.00  0.00    -0.060 I 
ATOM     10  F2  UNL d   1      -4.074   5.944  -5.248  0.00  0.00    -0.096 F 
ATOM     11  F3  UNL d   1      -6.000   4.195  -6.000  0.00  0.00    -0.097 F 
ATOM     12  F4  UNL d   1      -5.838   1.570  -5.277  0.00  0.00    -0.092 F 
ENDROOT
TORSDOF 0
ENDMDL
