MODEL 1
REMARK minimizedAffinity 13.5561371
REMARK minimizedRMSD -1
REMARK  0 active torsions:
REMARK  status: ('A' for Active; 'I' for Inactive)
ROOT
ATOM      1  C   UNL d   1      -2.090   3.931  -3.085  0.00  0.00     0.124 A 
ATOM      2  C1  UNL d   1      -3.131   3.043  -2.854  0.00  0.00     0.062 A 
ATOM      3  C2  UNL d   1      -4.248   3.042  -3.684  0.00  0.00     0.162 A 
ATOM      4  C3  UNL d   1      -4.329   3.933  -4.755  0.00  0.00    -0.034 A 
ATOM      5  C4  UNL d   1      -3.278   4.824  -4.980  0.00  0.00     0.162 A 
ATOM      6  C5  UNL d   1      -2.164   4.820  -4.147  0.00  0.00     0.062 A 
ATOM      7  F   UNL d   1      -1.159   5.679  -4.371  0.00  0.00    -0.097 F 
ATOM      8  F1  UNL d   1      -3.324   5.694  -6.000  0.00  0.00    -0.096 F 
ATOM      9  I   UNL d   1      -5.997   3.936  -5.999  0.00  0.00    -0.060 I 
ATOM     10  F2  UNL d   1      -5.239   2.173  -3.438  0.00  0.00    -0.096 F 
ATOM     11  F3  UNL d   1      -3.062   2.183  -1.827  0.00  0.00    -0.097 F 
ATOM     12  F4  UNL d   1      -1.017   3.930  -2.283  0.00  0.00    -0.092 F 
ENDROOT
TORSDOF 0
ENDMDL
