MODEL 1
REMARK minimizedAffinity 7.09974051
REMARK minimizedRMSD -1
REMARK  0 active torsions:
REMARK  status: ('A' for Active; 'I' for Inactive)
ROOT
ATOM      1  C   UNL d   1      -2.531   4.371  -4.836  0.00  0.00     0.124 A 
ATOM      2  C1  UNL d   1      -2.257   3.180  -4.179  0.00  0.00     0.062 A 
ATOM      3  C2  UNL d   1      -3.245   2.209  -4.049  0.00  0.00     0.162 A 
ATOM      4  C3  UNL d   1      -4.518   2.425  -4.577  0.00  0.00    -0.034 A 
ATOM      5  C4  UNL d   1      -4.787   3.626  -5.235  0.00  0.00     0.162 A 
ATOM      6  C5  UNL d   1      -3.796   4.594  -5.362  0.00  0.00     0.062 A 
ATOM      7  F   UNL d   1      -4.063   5.745  -5.997  0.00  0.00    -0.097 F 
ATOM      8  F1  UNL d   1      -6.000   3.867  -5.754  0.00  0.00    -0.096 F 
ATOM      9  I   UNL d   1      -5.999   0.975  -4.384  0.00  0.00    -0.060 I 
ATOM     10  F2  UNL d   1      -2.952   1.066  -3.410  0.00  0.00    -0.096 F 
ATOM     11  F3  UNL d   1      -1.036   2.963  -3.669  0.00  0.00    -0.097 F 
ATOM     12  F4  UNL d   1      -1.578   5.304  -4.959  0.00  0.00    -0.092 F 
ENDROOT
TORSDOF 0
ENDMDL
