MODEL 1
REMARK minimizedAffinity -2.57744741
REMARK minimizedRMSD -1
REMARK  0 active torsions:
REMARK  status: ('A' for Active; 'I' for Inactive)
ROOT
ATOM      1  C   UNL d   1       0.614  -0.480  -1.440  0.00  0.00     0.020 A 
ATOM      2  C1  UNL d   1      -0.590   0.209  -1.297  0.00  0.00     0.020 A 
ATOM      3  C2  UNL d   1      -0.969   0.700  -0.046  0.00  0.00     0.034 A 
ATOM      4  C3  UNL d   1      -0.144   0.501   1.068  0.00  0.00     0.017 A 
ATOM      5  C4  UNL d   1       1.064  -0.191   0.923  0.00  0.00     0.017 A 
ATOM      6  C5  UNL d   1       1.438  -0.680  -0.332  0.00  0.00     0.034 A 
ATOM      7 Cl   UNL d   1       2.134  -0.475   2.250  0.00  0.00    -0.070 Cl
ATOM      8 Cl1  UNL d   1      -0.676   1.135   2.584  0.00  0.00    -0.070 Cl
ENDROOT
TORSDOF 0
ENDMDL
