MODEL 1
REMARK minimizedAffinity -2.54563212
REMARK minimizedRMSD -1
REMARK  0 active torsions:
REMARK  status: ('A' for Active; 'I' for Inactive)
ROOT
ATOM      1  C   UNL d   1       1.454   0.151  -1.141  0.00  0.00     0.020 A 
ATOM      2  C1  UNL d   1       0.272  -0.583  -1.048  0.00  0.00     0.020 A 
ATOM      3  C2  UNL d   1      -0.458  -0.878  -2.201  0.00  0.00     0.034 A 
ATOM      4  C3  UNL d   1      -0.008  -0.439  -3.452  0.00  0.00     0.017 A 
ATOM      5  C4  UNL d   1       1.178   0.298  -3.543  0.00  0.00     0.017 A 
ATOM      6  C5  UNL d   1       1.906   0.591  -2.386  0.00  0.00     0.034 A 
ATOM      7 Cl   UNL d   1       1.797   0.874  -5.051  0.00  0.00    -0.070 Cl
ATOM      8 Cl1  UNL d   1      -0.961  -0.841  -4.835  0.00  0.00    -0.070 Cl
ENDROOT
TORSDOF 0
ENDMDL
