MODEL 1
REMARK minimizedAffinity -0.020160906
REMARK minimizedRMSD -1
REMARK  0 active torsions:
REMARK  status: ('A' for Active; 'I' for Inactive)
ROOT
ATOM      1  C   UNL d   1       0.442  -0.730   0.243  0.00  0.00     0.020 A 
ATOM      2  C1  UNL d   1       0.972   0.549   0.084  0.00  0.00     0.020 A 
ATOM      3  C2  UNL d   1       1.171   1.068  -1.198  0.00  0.00     0.034 A 
ATOM      4  C3  UNL d   1       0.839   0.307  -2.324  0.00  0.00     0.017 A 
ATOM      5  C4  UNL d   1       0.306  -0.978  -2.163  0.00  0.00     0.017 A 
ATOM      6  C5  UNL d   1       0.110  -1.492  -0.878  0.00  0.00     0.034 A 
ATOM      7 Cl   UNL d   1      -0.127  -1.977  -3.505  0.00  0.00    -0.070 Cl
ATOM      8 Cl1  UNL d   1       1.110   1.011  -3.878  0.00  0.00    -0.070 Cl
ENDROOT
TORSDOF 0
ENDMDL
