MODEL 1
REMARK minimizedAffinity -3.9601717
REMARK minimizedRMSD -1
REMARK  0 active torsions:
REMARK  status: ('A' for Active; 'I' for Inactive)
ROOT
ATOM      1  C   UNL d   1      -1.352   1.401   2.559  0.00  0.00     0.020 A 
ATOM      2  C1  UNL d   1      -2.216   1.159   1.492  0.00  0.00     0.020 A 
ATOM      3  C2  UNL d   1      -1.754   0.491   0.357  0.00  0.00     0.034 A 
ATOM      4  C3  UNL d   1      -0.423   0.062   0.285  0.00  0.00     0.017 A 
ATOM      5  C4  UNL d   1       0.443   0.304   1.357  0.00  0.00     0.017 A 
ATOM      6  C5  UNL d   1      -0.025   0.974   2.492  0.00  0.00     0.034 A 
ATOM      7 Cl   UNL d   1       2.098  -0.195   1.343  0.00  0.00    -0.070 Cl
ATOM      8 Cl1  UNL d   1       0.080  -0.759  -1.149  0.00  0.00    -0.070 Cl
ENDROOT
TORSDOF 0
ENDMDL
