MODEL 1
REMARK minimizedAffinity -5.071805
REMARK minimizedRMSD -1
REMARK  0 active torsions:
REMARK  status: ('A' for Active; 'I' for Inactive)
ROOT
ATOM      1  C   UNL d   1       1.374  -0.051   0.599  0.00  0.00     0.020 A 
ATOM      2  C1  UNL d   1       0.850  -0.651  -0.546  0.00  0.00     0.020 A 
ATOM      3  C2  UNL d   1      -0.531  -0.672  -0.753  0.00  0.00     0.034 A 
ATOM      4  C3  UNL d   1      -1.392  -0.092   0.185  0.00  0.00     0.017 A 
ATOM      5  C4  UNL d   1      -0.866   0.509   1.334  0.00  0.00     0.017 A 
ATOM      6  C5  UNL d   1       0.518   0.527   1.537  0.00  0.00     0.034 A 
ATOM      7 Cl   UNL d   1      -1.865   1.244   2.537  0.00  0.00    -0.070 Cl
ATOM      8 Cl1  UNL d   1      -3.089  -0.155  -0.136  0.00  0.00    -0.070 Cl
ENDROOT
TORSDOF 0
ENDMDL
