MODEL 1
REMARK minimizedAffinity -3.48761439
REMARK minimizedRMSD -1
REMARK  0 active torsions:
REMARK  status: ('A' for Active; 'I' for Inactive)
ROOT
ATOM      1  C   UNL d   1      -0.856   0.709   3.003  0.00  0.00     0.020 A 
ATOM      2  C1  UNL d   1       0.416   1.116   2.602  0.00  0.00     0.020 A 
ATOM      3  C2  UNL d   1       0.772   1.063   1.253  0.00  0.00     0.034 A 
ATOM      4  C3  UNL d   1      -0.144   0.603   0.300  0.00  0.00     0.017 A 
ATOM      5  C4  UNL d   1      -1.420   0.195   0.704  0.00  0.00     0.017 A 
ATOM      6  C5  UNL d   1      -1.772   0.250   2.056  0.00  0.00     0.034 A 
ATOM      7 Cl   UNL d   1      -2.605  -0.385  -0.413  0.00  0.00    -0.070 Cl
ATOM      8 Cl1  UNL d   1       0.364   0.565  -1.351  0.00  0.00    -0.070 Cl
ENDROOT
TORSDOF 0
ENDMDL
