MODEL 1
REMARK minimizedAffinity -1.90701556
REMARK minimizedRMSD -1
REMARK  0 active torsions:
REMARK  status: ('A' for Active; 'I' for Inactive)
ROOT
ATOM      1  C   UNL d   1      -1.031   2.013   2.548  0.00  0.00     0.020 A 
ATOM      2  C1  UNL d   1      -1.032   2.208   1.167  0.00  0.00     0.020 A 
ATOM      3  C2  UNL d   1      -1.652   1.278   0.330  0.00  0.00     0.034 A 
ATOM      4  C3  UNL d   1      -2.274   0.148   0.873  0.00  0.00     0.017 A 
ATOM      5  C4  UNL d   1      -2.273  -0.048   2.259  0.00  0.00     0.017 A 
ATOM      6  C5  UNL d   1      -1.651   0.887   3.092  0.00  0.00     0.034 A 
ATOM      7 Cl   UNL d   1      -3.020  -1.417   3.003  0.00  0.00    -0.070 Cl
ATOM      8 Cl1  UNL d   1      -3.022  -0.962  -0.220  0.00  0.00    -0.070 Cl
ENDROOT
TORSDOF 0
ENDMDL
