MODEL 1
REMARK minimizedAffinity -3.08500743
REMARK minimizedRMSD -1
REMARK  0 active torsions:
REMARK  status: ('A' for Active; 'I' for Inactive)
ROOT
ATOM      1  C   UNL d   1      -1.158   1.561   2.291  0.00  0.00     0.020 A 
ATOM      2  C1  UNL d   1      -2.168   0.736   1.800  0.00  0.00     0.020 A 
ATOM      3  C2  UNL d   1      -1.951  -0.026   0.650  0.00  0.00     0.034 A 
ATOM      4  C3  UNL d   1      -0.720   0.035  -0.013  0.00  0.00     0.017 A 
ATOM      5  C4  UNL d   1       0.294   0.864   0.481  0.00  0.00     0.017 A 
ATOM      6  C5  UNL d   1       0.071   1.625   1.632  0.00  0.00     0.034 A 
ATOM      7 Cl   UNL d   1       1.839   0.993  -0.283  0.00  0.00    -0.070 Cl
ATOM      8 Cl1  UNL d   1      -0.520  -0.935  -1.428  0.00  0.00    -0.070 Cl
ENDROOT
TORSDOF 0
ENDMDL
