MODEL 1
REMARK minimizedAffinity 0.662884891
REMARK minimizedRMSD -1
REMARK  0 active torsions:
REMARK  status: ('A' for Active; 'I' for Inactive)
ROOT
ATOM      1  C1  BNZ d   1       5.390  -2.278  -4.141  0.00  0.00     0.000 A 
ATOM      2  C2  BNZ d   1       4.038  -2.496  -4.151  0.00  0.00     0.000 A 
ATOM      3  C3  BNZ d   1       3.242  -1.909  -5.094  0.00  0.00     0.000 A 
ATOM      4  C4  BNZ d   1       3.791  -1.075  -6.000  0.00  0.00     0.000 A 
ATOM      5  C5  BNZ d   1       5.152  -0.838  -5.997  0.00  0.00     0.000 A 
ATOM      6  C6  BNZ d   1       5.956  -1.461  -5.070  0.00  0.00     0.000 A 
ENDROOT
TORSDOF 0
ENDMDL
