MODEL 1
REMARK minimizedAffinity -1.55060923
REMARK minimizedRMSD -1
REMARK  0 active torsions:
REMARK  status: ('A' for Active; 'I' for Inactive)
ROOT
ATOM      1  C1  BNZ d   1       5.993   0.818   1.879  0.00  0.00     0.000 A 
ATOM      2  C2  BNZ d   1       4.884   0.019   1.800  0.00  0.00     0.000 A 
ATOM      3  C3  BNZ d   1       3.771   0.433   1.122  0.00  0.00     0.000 A 
ATOM      4  C4  BNZ d   1       3.754   1.658   0.560  0.00  0.00     0.000 A 
ATOM      5  C5  BNZ d   1       4.861   2.479   0.639  0.00  0.00     0.000 A 
ATOM      6  C6  BNZ d   1       5.994   2.044   1.289  0.00  0.00     0.000 A 
ENDROOT
TORSDOF 0
ENDMDL
