MODEL 1
REMARK minimizedAffinity 0.546120048
REMARK minimizedRMSD -1
REMARK  0 active torsions:
REMARK  status: ('A' for Active; 'I' for Inactive)
ROOT
ATOM      1  C1  BNZ d   1       5.999   1.288   1.340  0.00  0.00     0.000 A 
ATOM      2  C2  BNZ d   1       5.997   0.036   1.894  0.00  0.00     0.000 A 
ATOM      3  C3  BNZ d   1       4.877  -0.746   1.851  0.00  0.00     0.000 A 
ATOM      4  C4  BNZ d   1       3.750  -0.260   1.292  0.00  0.00     0.000 A 
ATOM      5  C5  BNZ d   1       3.733   1.004   0.739  0.00  0.00     0.000 A 
ATOM      6  C6  BNZ d   1       4.874   1.774   0.749  0.00  0.00     0.000 A 
ENDROOT
TORSDOF 0
ENDMDL
