MODEL 1
REMARK minimizedAffinity 0.266178668
REMARK minimizedRMSD -1
REMARK  0 active torsions:
REMARK  status: ('A' for Active; 'I' for Inactive)
ROOT
ATOM      1  C1  BNZ d   1       4.505   5.038  -5.263  0.00  0.00     0.000 A 
ATOM      2  C2  BNZ d   1       3.717   5.997  -5.843  0.00  0.00     0.000 A 
ATOM      3  C3  BNZ d   1       2.362   5.994  -5.661  0.00  0.00     0.000 A 
ATOM      4  C4  BNZ d   1       1.793   5.011  -4.933  0.00  0.00     0.000 A 
ATOM      5  C5  BNZ d   1       2.573   4.032  -4.350  0.00  0.00     0.000 A 
ATOM      6  C6  BNZ d   1       3.940   4.060  -4.503  0.00  0.00     0.000 A 
ENDROOT
TORSDOF 0
ENDMDL
