MODEL 1
REMARK minimizedAffinity 6.34174347
REMARK minimizedRMSD -1
REMARK  0 active torsions:
REMARK  status: ('A' for Active; 'I' for Inactive)
ROOT
ATOM      1  C1  BNZ d   1      -3.424   2.620   3.010  0.00  0.00     0.000 A 
ATOM      2  C2  BNZ d   1      -3.227   1.295   2.725  0.00  0.00     0.000 A 
ATOM      3  C3  BNZ d   1      -4.262   0.404   2.791  0.00  0.00     0.000 A 
ATOM      4  C4  BNZ d   1      -5.480   0.831   3.181  0.00  0.00     0.000 A 
ATOM      5  C5  BNZ d   1      -5.692   2.162   3.481  0.00  0.00     0.000 A 
ATOM      6  C6  BNZ d   1      -4.657   3.063   3.375  0.00  0.00     0.000 A 
ENDROOT
TORSDOF 0
ENDMDL
