MODEL 1
REMARK minimizedAffinity 3.4757719
REMARK minimizedRMSD -1
REMARK  0 active torsions:
REMARK  status: ('A' for Active; 'I' for Inactive)
ROOT
ATOM      1  C1  BNZ d   1       1.148   2.910   1.898  0.00  0.00     0.000 A 
ATOM      2  C2  BNZ d   1       2.343   2.717   1.256  0.00  0.00     0.000 A 
ATOM      3  C3  BNZ d   1       2.820   1.456   1.031  0.00  0.00     0.000 A 
ATOM      4  C4  BNZ d   1       2.124   0.393   1.483  0.00  0.00     0.000 A 
ATOM      5  C5  BNZ d   1       0.923   0.572   2.140  0.00  0.00     0.000 A 
ATOM      6  C6  BNZ d   1       0.426   1.841   2.330  0.00  0.00     0.000 A 
ENDROOT
TORSDOF 0
ENDMDL
