MODEL 1
REMARK minimizedAffinity 0.829685807
REMARK minimizedRMSD -1
REMARK  0 active torsions:
REMARK  status: ('A' for Active; 'I' for Inactive)
ROOT
ATOM      1  C1  BNZ d   1       3.783   5.958   4.847  0.00  0.00     0.000 A 
ATOM      2  C2  BNZ d   1       4.498   5.757   5.998  0.00  0.00     0.000 A 
ATOM      3  C3  BNZ d   1       5.618   4.974   5.999  0.00  0.00     0.000 A 
ATOM      4  C4  BNZ d   1       6.000   4.362   4.860  0.00  0.00     0.000 A 
ATOM      5  C5  BNZ d   1       5.285   4.546   3.693  0.00  0.00     0.000 A 
ATOM      6  C6  BNZ d   1       4.180   5.366   3.688  0.00  0.00     0.000 A 
ENDROOT
TORSDOF 0
ENDMDL
