MODEL 1
REMARK minimizedAffinity 12.0236216
REMARK minimizedRMSD -1
REMARK  0 active torsions:
REMARK  status: ('A' for Active; 'I' for Inactive)
ROOT
ATOM      1  C1  BNZ d   1       5.286  -0.718   0.749  0.00  0.00     0.000 A 
ATOM      2  C2  BNZ d   1       4.146  -0.328   0.099  0.00  0.00     0.000 A 
ATOM      3  C3  BNZ d   1       3.028   0.028   0.800  0.00  0.00     0.000 A 
ATOM      4  C4  BNZ d   1       3.038  -0.043   2.147  0.00  0.00     0.000 A 
ATOM      5  C5  BNZ d   1       4.178  -0.443   2.817  0.00  0.00     0.000 A 
ATOM      6  C6  BNZ d   1       5.314  -0.764   2.109  0.00  0.00     0.000 A 
ENDROOT
TORSDOF 0
ENDMDL
