MODEL 1
REMARK minimizedAffinity 8.96170425
REMARK minimizedRMSD -1
REMARK  0 active torsions:
REMARK  status: ('A' for Active; 'I' for Inactive)
ROOT
ATOM      1  C1  BNZ d   1      -5.221  -2.252   4.945  0.00  0.00     0.000 A 
ATOM      2  C2  BNZ d   1      -4.501  -1.723   3.907  0.00  0.00     0.000 A 
ATOM      3  C3  BNZ d   1      -4.117  -0.411   3.919  0.00  0.00     0.000 A 
ATOM      4  C4  BNZ d   1      -4.488   0.379   4.947  0.00  0.00     0.000 A 
ATOM      5  C5  BNZ d   1      -5.222  -0.137   5.996  0.00  0.00     0.000 A 
ATOM      6  C6  BNZ d   1      -5.573  -1.468   6.000  0.00  0.00     0.000 A 
ENDROOT
TORSDOF 0
ENDMDL
