MODEL 1
REMARK minimizedAffinity 3.99738622
REMARK minimizedRMSD -1
REMARK  0 active torsions:
REMARK  status: ('A' for Active; 'I' for Inactive)
ROOT
ATOM      1  C1  BNZ d   1       4.447   3.927  -3.003  0.00  0.00     0.000 A 
ATOM      2  C2  BNZ d   1       5.707   3.392  -3.032  0.00  0.00     0.000 A 
ATOM      3  C3  BNZ d   1       6.000   2.331  -3.844  0.00  0.00     0.000 A 
ATOM      4  C4  BNZ d   1       5.023   1.782  -4.594  0.00  0.00     0.000 A 
ATOM      5  C5  BNZ d   1       3.745   2.304  -4.569  0.00  0.00     0.000 A 
ATOM      6  C6  BNZ d   1       3.464   3.396  -3.781  0.00  0.00     0.000 A 
ENDROOT
TORSDOF 0
ENDMDL
