MODEL 1
REMARK minimizedAffinity 7.85007048
REMARK minimizedRMSD -1
REMARK  0 active torsions:
REMARK  status: ('A' for Active; 'I' for Inactive)
ROOT
ATOM      1  C1  BNZ d   1      -1.488  -5.950   2.249  0.00  0.00     0.000 A 
ATOM      2  C2  BNZ d   1      -0.811  -4.760   2.207  0.00  0.00     0.000 A 
ATOM      3  C3  BNZ d   1      -1.443  -3.609   1.828  0.00  0.00     0.000 A 
ATOM      4  C4  BNZ d   1      -2.737  -3.655   1.452  0.00  0.00     0.000 A 
ATOM      5  C5  BNZ d   1      -3.431  -4.849   1.480  0.00  0.00     0.000 A 
ATOM      6  C6  BNZ d   1      -2.803  -5.999   1.900  0.00  0.00     0.000 A 
ENDROOT
TORSDOF 0
ENDMDL
