MODEL 1
REMARK minimizedAffinity 2.86428142
REMARK minimizedRMSD -1
REMARK  0 active torsions:
REMARK  status: ('A' for Active; 'I' for Inactive)
ROOT
ATOM      1  C1  BNZ d   1       1.656   2.044  -1.060  0.00  0.00     0.000 A 
ATOM      2  C2  BNZ d   1       1.419   1.669   0.235  0.00  0.00     0.000 A 
ATOM      3  C3  BNZ d   1       2.276   0.828   0.888  0.00  0.00     0.000 A 
ATOM      4  C4  BNZ d   1       3.346   0.332   0.234  0.00  0.00     0.000 A 
ATOM      5  C5  BNZ d   1       3.593   0.694  -1.076  0.00  0.00     0.000 A 
ATOM      6  C6  BNZ d   1       2.750   1.571  -1.717  0.00  0.00     0.000 A 
ENDROOT
TORSDOF 0
ENDMDL
