MODEL 1
REMARK minimizedAffinity 0.92223841
REMARK minimizedRMSD -1
REMARK  0 active torsions:
REMARK  status: ('A' for Active; 'I' for Inactive)
ROOT
ATOM      1  C1  BNZ d   1       5.995   4.573  -2.876  0.00  0.00     0.000 A 
ATOM      2  C2  BNZ d   1       5.998   5.148  -4.119  0.00  0.00     0.000 A 
ATOM      3  C3  BNZ d   1       5.975   4.377  -5.247  0.00  0.00     0.000 A 
ATOM      4  C4  BNZ d   1       5.991   3.033  -5.132  0.00  0.00     0.000 A 
ATOM      5  C5  BNZ d   1       5.998   2.438  -3.886  0.00  0.00     0.000 A 
ATOM      6  C6  BNZ d   1       5.982   3.218  -2.752  0.00  0.00     0.000 A 
ENDROOT
TORSDOF 0
ENDMDL
