MODEL 1
REMARK minimizedAffinity 1.29858732
REMARK minimizedRMSD -1
REMARK  0 active torsions:
REMARK  status: ('A' for Active; 'I' for Inactive)
ROOT
ATOM      1  C1  BNZ d   1       4.885   2.248  -2.633  0.00  0.00     0.000 A 
ATOM      2  C2  BNZ d   1       6.000   2.808  -3.199  0.00  0.00     0.000 A 
ATOM      3  C3  BNZ d   1       6.000   3.194  -4.510  0.00  0.00     0.000 A 
ATOM      4  C4  BNZ d   1       4.901   2.984  -5.263  0.00  0.00     0.000 A 
ATOM      5  C5  BNZ d   1       3.773   2.413  -4.710  0.00  0.00     0.000 A 
ATOM      6  C6  BNZ d   1       3.763   2.060  -3.380  0.00  0.00     0.000 A 
ENDROOT
TORSDOF 0
ENDMDL
