MODEL 1
REMARK minimizedAffinity -3.031672
REMARK minimizedRMSD -1
REMARK  0 active torsions:
REMARK  status: ('A' for Active; 'I' for Inactive)
ROOT
ATOM      1  C1  BNZ d   1       2.391   3.693  -4.793  0.00  0.00     0.000 A 
ATOM      2  C2  BNZ d   1       2.380   5.036  -5.062  0.00  0.00     0.000 A 
ATOM      3  C3  BNZ d   1       3.480   5.808  -4.816  0.00  0.00     0.000 A 
ATOM      4  C4  BNZ d   1       4.575   5.246  -4.264  0.00  0.00     0.000 A 
ATOM      5  C5  BNZ d   1       4.598   3.895  -3.978  0.00  0.00     0.000 A 
ATOM      6  C6  BNZ d   1       3.502   3.114  -4.263  0.00  0.00     0.000 A 
ENDROOT
TORSDOF 0
ENDMDL
