MODEL 1
REMARK minimizedAffinity 1.74206424
REMARK minimizedRMSD -1
REMARK  1 active torsions:
REMARK  status: ('A' for Active; 'I' for Inactive)
REMARK    1  A    between atoms: C1_2  and  C2_3 
ROOT
ATOM      1  C2  UNL d   1      -0.467  -0.639   0.267  0.00  0.00    -0.076 A 
ATOM      2  C3  UNL d   1      -1.487  -1.509  -0.152  0.00  0.00     0.004 A 
ATOM      3  C4  UNL d   1      -2.274  -1.211  -1.263  0.00  0.00    -0.003 A 
ATOM      4  C5  UNL d   1      -2.052  -0.037  -1.974  0.00  0.00     0.000 A 
ATOM      5  C6  UNL d   1      -1.032   0.830  -1.583  0.00  0.00     0.000 A 
ATOM      6  C7  UNL d   1      -0.219   0.536  -0.475  0.00  0.00    -0.073 A 
ATOM      7  C8  UNL d   1       0.862   1.510  -0.094  0.00  0.00     0.078 C 
ENDROOT
BRANCH   1   8
ATOM      8  C1  UNL d   1       0.336  -1.002   1.496  0.00  0.00     0.053 C 
ATOM      9  C   UNL d   1      -0.147  -0.277   2.743  0.00  0.00     0.018 C 
ENDBRANCH   1   8
TORSDOF 1
ENDMDL
