MODEL 1
REMARK minimizedAffinity 1.56614494
REMARK minimizedRMSD -1
REMARK  1 active torsions:
REMARK  status: ('A' for Active; 'I' for Inactive)
REMARK    1  A    between atoms: C1_2  and  C2_3 
ROOT
ATOM      1  C2  UNL d   1       0.953   0.492   0.266  0.00  0.00    -0.076 A 
ATOM      2  C3  UNL d   1       1.579   1.751   0.249  0.00  0.00     0.004 A 
ATOM      3  C4  UNL d   1       1.969   2.374   1.433  0.00  0.00    -0.003 A 
ATOM      4  C5  UNL d   1       1.740   1.748   2.653  0.00  0.00     0.000 A 
ATOM      5  C6  UNL d   1       1.137   0.492   2.688  0.00  0.00     0.000 A 
ATOM      6  C7  UNL d   1       0.752  -0.158   1.502  0.00  0.00    -0.073 A 
ATOM      7  C8  UNL d   1       0.100  -1.510   1.599  0.00  0.00     0.078 C 
ENDROOT
BRANCH   1   8
ATOM      8  C1  UNL d   1       0.528  -0.123  -1.049  0.00  0.00     0.053 C 
ATOM      9  C   UNL d   1      -0.725   0.524  -1.616  0.00  0.00     0.018 C 
ENDBRANCH   1   8
TORSDOF 1
ENDMDL
