MODEL 1
REMARK minimizedAffinity 1.1270082
REMARK minimizedRMSD -1
REMARK  1 active torsions:
REMARK  status: ('A' for Active; 'I' for Inactive)
REMARK    1  A    between atoms: C1_2  and  C2_3 
ROOT
ATOM      1  C2  UNL d   1       0.755   0.450  -0.294  0.00  0.00    -0.076 A 
ATOM      2  C3  UNL d   1       0.270   1.175  -1.396  0.00  0.00     0.004 A 
ATOM      3  C4  UNL d   1      -0.868   0.759  -2.085  0.00  0.00    -0.003 A 
ATOM      4  C5  UNL d   1      -1.540  -0.390  -1.682  0.00  0.00     0.000 A 
ATOM      5  C6  UNL d   1      -1.083  -1.112  -0.580  0.00  0.00     0.000 A 
ATOM      6  C7  UNL d   1       0.053  -0.697   0.135  0.00  0.00    -0.073 A 
ATOM      7  C8  UNL d   1       0.505  -1.517   1.312  0.00  0.00     0.078 C 
ENDROOT
BRANCH   1   8
ATOM      8  C1  UNL d   1       2.010   0.934   0.397  0.00  0.00     0.053 C 
ATOM      9  C   UNL d   1       2.698   2.057  -0.365  0.00  0.00     0.018 C 
ENDBRANCH   1   8
TORSDOF 1
ENDMDL
