MODEL 1
REMARK minimizedAffinity -2.42542028
REMARK minimizedRMSD -1
REMARK  1 active torsions:
REMARK  status: ('A' for Active; 'I' for Inactive)
REMARK    1  A    between atoms: C1_2  and  C2_3 
ROOT
ATOM      1  C2  UNL d   1       0.451   0.640   0.699  0.00  0.00    -0.076 A 
ATOM      2  C3  UNL d   1      -0.154   1.567  -0.167  0.00  0.00     0.004 A 
ATOM      3  C4  UNL d   1      -0.822   1.145  -1.316  0.00  0.00    -0.003 A 
ATOM      4  C5  UNL d   1      -0.896  -0.211  -1.616  0.00  0.00     0.000 A 
ATOM      5  C6  UNL d   1      -0.317  -1.145  -0.758  0.00  0.00     0.000 A 
ATOM      6  C7  UNL d   1       0.346  -0.738   0.413  0.00  0.00    -0.073 A 
ATOM      7  C8  UNL d   1       0.957  -1.788   1.299  0.00  0.00     0.078 C 
ENDROOT
BRANCH   1   8
ATOM      8  C1  UNL d   1       1.185   1.158   1.916  0.00  0.00     0.053 C 
ATOM      9  C   UNL d   1       2.152   2.282   1.577  0.00  0.00     0.018 C 
ENDBRANCH   1   8
TORSDOF 1
ENDMDL
