MODEL 1
REMARK minimizedAffinity 6.16720104
REMARK minimizedRMSD -1
REMARK  1 active torsions:
REMARK  status: ('A' for Active; 'I' for Inactive)
REMARK    1  A    between atoms: C1_2  and  C2_3 
ROOT
ATOM      1  C2  UNL d   1      -0.963  -1.519   0.867  0.00  0.00    -0.076 A 
ATOM      2  C3  UNL d   1       0.129  -1.251   0.023  0.00  0.00     0.004 A 
ATOM      3  C4  UNL d   1       1.437  -1.312   0.500  0.00  0.00    -0.003 A 
ATOM      4  C5  UNL d   1       1.675  -1.645   1.829  0.00  0.00     0.000 A 
ATOM      5  C6  UNL d   1       0.605  -1.931   2.676  0.00  0.00     0.000 A 
ATOM      6  C7  UNL d   1      -0.719  -1.889   2.207  0.00  0.00    -0.073 A 
ATOM      7  C8  UNL d   1      -1.835  -2.202   3.166  0.00  0.00     0.078 C 
ENDROOT
BRANCH   1   8
ATOM      8  C1  UNL d   1      -2.360  -1.410   0.301  0.00  0.00     0.053 C 
ATOM      9  C   UNL d   1      -2.363  -1.130  -1.194  0.00  0.00     0.018 C 
ENDBRANCH   1   8
TORSDOF 1
ENDMDL
