MODEL 1
REMARK minimizedAffinity 2.79262304
REMARK minimizedRMSD -1
REMARK  1 active torsions:
REMARK  status: ('A' for Active; 'I' for Inactive)
REMARK    1  A    between atoms: C1_2  and  C2_3 
ROOT
ATOM      1  C2  UNL d   1      -3.761  -1.390   0.085  0.00  0.00    -0.076 A 
ATOM      2  C3  UNL d   1      -4.202  -0.059  -0.011  0.00  0.00     0.004 A 
ATOM      3  C4  UNL d   1      -3.525   0.866  -0.804  0.00  0.00    -0.003 A 
ATOM      4  C5  UNL d   1      -2.395   0.475  -1.514  0.00  0.00     0.000 A 
ATOM      5  C6  UNL d   1      -1.954  -0.846  -1.445  0.00  0.00     0.000 A 
ATOM      6  C7  UNL d   1      -2.634  -1.795  -0.663  0.00  0.00    -0.073 A 
ATOM      7  C8  UNL d   1      -2.111  -3.204  -0.620  0.00  0.00     0.078 C 
ENDROOT
BRANCH   1   8
ATOM      8  C1  UNL d   1      -4.520  -2.342   0.982  0.00  0.00     0.053 C 
ATOM      9  C   UNL d   1      -6.000  -2.004   1.070  0.00  0.00     0.018 C 
ENDBRANCH   1   8
TORSDOF 1
ENDMDL
