MODEL 1
REMARK minimizedAffinity 2.19396663
REMARK minimizedRMSD -1
REMARK  1 active torsions:
REMARK  status: ('A' for Active; 'I' for Inactive)
REMARK    1  A    between atoms: C1_2  and  C2_3 
ROOT
ATOM      1  C2  UNL d   1       1.312   0.769   2.603  0.00  0.00    -0.076 A 
ATOM      2  C3  UNL d   1       2.053  -0.388   2.309  0.00  0.00     0.004 A 
ATOM      3  C4  UNL d   1       1.418  -1.574   1.947  0.00  0.00    -0.003 A 
ATOM      4  C5  UNL d   1       0.030  -1.622   1.872  0.00  0.00     0.000 A 
ATOM      5  C6  UNL d   1      -0.720  -0.479   2.143  0.00  0.00     0.000 A 
ATOM      6  C7  UNL d   1      -0.095   0.730   2.494  0.00  0.00    -0.073 A 
ATOM      7  C8  UNL d   1      -0.953   1.930   2.782  0.00  0.00     0.078 C 
ENDROOT
BRANCH   1   8
ATOM      8  C1  UNL d   1       2.055   2.020   3.017  0.00  0.00     0.053 C 
ATOM      9  C   UNL d   1       2.611   2.787   1.828  0.00  0.00     0.018 C 
ENDBRANCH   1   8
TORSDOF 1
ENDMDL
