MODEL 1
REMARK minimizedAffinity 3.84439158
REMARK minimizedRMSD -1
REMARK  1 active torsions:
REMARK  status: ('A' for Active; 'I' for Inactive)
REMARK    1  A    between atoms: C1_2  and  C2_3 
ROOT
ATOM      1  C2  UNL d   1       0.298  -1.128   0.535  0.00  0.00    -0.076 A 
ATOM      2  C3  UNL d   1       0.497  -0.595  -0.751  0.00  0.00     0.004 A 
ATOM      3  C4  UNL d   1      -0.579  -0.368  -1.607  0.00  0.00    -0.003 A 
ATOM      4  C5  UNL d   1      -1.871  -0.669  -1.191  0.00  0.00     0.000 A 
ATOM      5  C6  UNL d   1      -2.089  -1.181   0.087  0.00  0.00     0.000 A 
ATOM      6  C7  UNL d   1      -1.016  -1.401   0.969  0.00  0.00    -0.073 A 
ATOM      7  C8  UNL d   1      -1.308  -1.961   2.334  0.00  0.00     0.078 C 
ENDROOT
BRANCH   1   8
ATOM      8  C1  UNL d   1       1.506  -1.378   1.409  0.00  0.00     0.053 C 
ATOM      9  C   UNL d   1       1.960  -0.129   2.149  0.00  0.00     0.018 C 
ENDBRANCH   1   8
TORSDOF 1
ENDMDL
