MODEL 1
REMARK minimizedAffinity 3.57183576
REMARK minimizedRMSD -1
REMARK  1 active torsions:
REMARK  status: ('A' for Active; 'I' for Inactive)
REMARK    1  A    between atoms: C1_2  and  C2_3 
ROOT
ATOM      1  C2  UNL d   1       4.694   2.259   0.177  0.00  0.00    -0.076 A 
ATOM      2  C3  UNL d   1       5.031   2.345   1.539  0.00  0.00     0.004 A 
ATOM      3  C4  UNL d   1       4.084   2.725   2.489  0.00  0.00    -0.003 A 
ATOM      4  C5  UNL d   1       2.785   3.023   2.092  0.00  0.00     0.000 A 
ATOM      5  C6  UNL d   1       2.429   2.925   0.747  0.00  0.00     0.000 A 
ATOM      6  C7  UNL d   1       3.367   2.528  -0.221  0.00  0.00    -0.073 A 
ATOM      7  C8  UNL d   1       2.931   2.446  -1.658  0.00  0.00     0.078 C 
ENDROOT
BRANCH   1   8
ATOM      8  C1  UNL d   1       5.770   1.868  -0.812  0.00  0.00     0.053 C 
ATOM      9  C   UNL d   1       5.998   0.365  -0.862  0.00  0.00     0.018 C 
ENDBRANCH   1   8
TORSDOF 1
ENDMDL
