MODEL 1
REMARK minimizedAffinity 3.35298753
REMARK minimizedRMSD -1
REMARK  1 active torsions:
REMARK  status: ('A' for Active; 'I' for Inactive)
REMARK    1  A    between atoms: C1_2  and  C2_3 
ROOT
ATOM      1  C2  UNL d   1      -0.601   1.338  -3.317  0.00  0.00    -0.076 A 
ATOM      2  C3  UNL d   1      -0.259   0.182  -2.594  0.00  0.00     0.004 A 
ATOM      3  C4  UNL d   1      -1.213  -0.503  -1.843  0.00  0.00    -0.003 A 
ATOM      4  C5  UNL d   1      -2.525  -0.044  -1.803  0.00  0.00     0.000 A 
ATOM      5  C6  UNL d   1      -2.886   1.091  -2.528  0.00  0.00     0.000 A 
ATOM      6  C7  UNL d   1      -1.940   1.784  -3.303  0.00  0.00    -0.073 A 
ATOM      7  C8  UNL d   1      -2.383   3.006  -4.061  0.00  0.00     0.078 C 
ENDROOT
BRANCH   1   8
ATOM      8  C1  UNL d   1       0.482   2.055  -4.091  0.00  0.00     0.053 C 
ATOM      9  C   UNL d   1       0.861   1.327  -5.371  0.00  0.00     0.018 C 
ENDBRANCH   1   8
TORSDOF 1
ENDMDL
