MODEL 1
REMARK minimizedAffinity 5.89194775
REMARK minimizedRMSD -1
REMARK  1 active torsions:
REMARK  status: ('A' for Active; 'I' for Inactive)
REMARK    1  A    between atoms: C1_2  and  C2_3 
ROOT
ATOM      1  C2  UNL d   1      -1.104  -1.036  -0.102  0.00  0.00    -0.076 A 
ATOM      2  C3  UNL d   1       0.034  -0.674  -0.844  0.00  0.00     0.004 A 
ATOM      3  C4  UNL d   1      -0.087  -0.037  -2.078  0.00  0.00    -0.003 A 
ATOM      4  C5  UNL d   1      -1.348   0.250  -2.589  0.00  0.00     0.000 A 
ATOM      5  C6  UNL d   1      -2.487  -0.086  -1.858  0.00  0.00     0.000 A 
ATOM      6  C7  UNL d   1      -2.383  -0.714  -0.605  0.00  0.00    -0.073 A 
ATOM      7  C8  UNL d   1      -3.644  -1.059   0.137  0.00  0.00     0.078 C 
ENDROOT
BRANCH   1   8
ATOM      8  C1  UNL d   1      -0.911  -1.749   1.217  0.00  0.00     0.053 C 
ATOM      9  C   UNL d   1       0.427  -1.427   1.864  0.00  0.00     0.018 C 
ENDBRANCH   1   8
TORSDOF 1
ENDMDL
