MODEL 1
REMARK minimizedAffinity 7.02988386
REMARK minimizedRMSD -1
REMARK  1 active torsions:
REMARK  status: ('A' for Active; 'I' for Inactive)
REMARK    1  A    between atoms: C1_2  and  C2_3 
ROOT
ATOM      1  C2  UNL d   1      -1.466  -0.276  -1.678  0.00  0.00    -0.076 A 
ATOM      2  C3  UNL d   1      -1.721   0.546  -0.567  0.00  0.00     0.004 A 
ATOM      3  C4  UNL d   1      -2.840   0.339   0.238  0.00  0.00    -0.003 A 
ATOM      4  C5  UNL d   1      -3.723  -0.695  -0.056  0.00  0.00     0.000 A 
ATOM      5  C6  UNL d   1      -3.476  -1.532  -1.144  0.00  0.00     0.000 A 
ATOM      6  C7  UNL d   1      -2.343  -1.346  -1.955  0.00  0.00    -0.073 A 
ATOM      7  C8  UNL d   1      -2.130  -2.274  -3.119  0.00  0.00     0.078 C 
ENDROOT
BRANCH   1   8
ATOM      8  C1  UNL d   1      -0.251   0.014  -2.530  0.00  0.00     0.053 C 
ATOM      9  C   UNL d   1       0.010   1.504  -2.683  0.00  0.00     0.018 C 
ENDBRANCH   1   8
TORSDOF 1
ENDMDL
