MODEL 1
REMARK minimizedAffinity 7.14956951
REMARK minimizedRMSD -1
REMARK  1 active torsions:
REMARK  status: ('A' for Active; 'I' for Inactive)
REMARK    1  A    between atoms: C1_2  and  C2_3 
ROOT
ATOM      1  C2  UNL d   1      -2.854   0.626  -1.249  0.00  0.00    -0.076 A 
ATOM      2  C3  UNL d   1      -2.384   1.509  -2.236  0.00  0.00     0.004 A 
ATOM      3  C4  UNL d   1      -1.292   1.175  -3.036  0.00  0.00    -0.003 A 
ATOM      4  C5  UNL d   1      -0.654  -0.048  -2.863  0.00  0.00     0.000 A 
ATOM      5  C6  UNL d   1      -1.119  -0.944  -1.900  0.00  0.00     0.000 A 
ATOM      6  C7  UNL d   1      -2.228  -0.630  -1.096  0.00  0.00    -0.073 A 
ATOM      7  C8  UNL d   1      -2.683  -1.631  -0.070  0.00  0.00     0.078 C 
ENDROOT
BRANCH   1   8
ATOM      8  C1  UNL d   1      -4.025   1.054  -0.393  0.00  0.00     0.053 C 
ATOM      9  C   UNL d   1      -3.733   2.315   0.406  0.00  0.00     0.018 C 
ENDBRANCH   1   8
TORSDOF 1
ENDMDL
