MODEL 1
REMARK minimizedAffinity 8.34824657
REMARK minimizedRMSD -1
REMARK  1 active torsions:
REMARK  status: ('A' for Active; 'I' for Inactive)
REMARK    1  A    between atoms: C1_2  and  C2_3 
ROOT
ATOM      1  C2  UNL d   1      -1.002  -1.058  -0.140  0.00  0.00    -0.076 A 
ATOM      2  C3  UNL d   1      -1.100  -1.121   1.261  0.00  0.00     0.004 A 
ATOM      3  C4  UNL d   1       0.039  -1.072   2.063  0.00  0.00    -0.003 A 
ATOM      4  C5  UNL d   1       1.295  -0.958   1.476  0.00  0.00     0.000 A 
ATOM      5  C6  UNL d   1       1.409  -0.877   0.089  0.00  0.00     0.000 A 
ATOM      6  C7  UNL d   1       0.270  -0.909  -0.733  0.00  0.00    -0.073 A 
ATOM      7  C8  UNL d   1       0.452  -0.823  -2.224  0.00  0.00     0.078 C 
ENDROOT
BRANCH   1   8
ATOM      8  C1  UNL d   1      -2.270  -1.144  -0.959  0.00  0.00     0.053 C 
ATOM      9  C   UNL d   1      -2.792   0.224  -1.369  0.00  0.00     0.018 C 
ENDBRANCH   1   8
TORSDOF 1
ENDMDL
