MODEL 1
REMARK minimizedAffinity -5.19964314
REMARK minimizedRMSD -1
REMARK  2 active torsions:
REMARK  status: ('A' for Active; 'I' for Inactive)
REMARK    1  A    between atoms: C1_2  and  C2_3 
REMARK    2  A    between atoms: C2_3  and  C3_4 
ROOT
ATOM      1  C3  UNL d   1       0.073  -0.277  -0.701  0.00  0.00    -0.075 A 
ATOM      2  C4  UNL d   1      -1.291   0.038  -0.609  0.00  0.00     0.002 A 
ATOM      3  C5  UNL d   1      -1.800   0.653   0.535  0.00  0.00     0.002 A 
ATOM      4  C6  UNL d   1      -0.957   0.952   1.604  0.00  0.00    -0.004 A 
ATOM      5  C7  UNL d   1       0.396   0.628   1.530  0.00  0.00     0.002 A 
ATOM      6  C8  UNL d   1       0.909   0.017   0.385  0.00  0.00     0.002 A 
ENDROOT
BRANCH   1   7
ATOM      7  C2  UNL d   1       0.636  -0.916  -1.948  0.00  0.00     0.056 C 
BRANCH   7   8
ATOM      8  C1  UNL d   1       0.646   0.007  -3.171  0.00  0.00     0.007 C 
ATOM      9  C   UNL d   1       1.882   0.893  -3.244  0.00  0.00     0.009 C 
ENDBRANCH   7   8
ENDBRANCH   1   7
TORSDOF 2
ENDMDL
