MODEL 1
REMARK minimizedAffinity -2.84488726
REMARK minimizedRMSD -1
REMARK  2 active torsions:
REMARK  status: ('A' for Active; 'I' for Inactive)
REMARK    1  A    between atoms: C1_2  and  C2_3 
REMARK    2  A    between atoms: C2_3  and  C3_4 
ROOT
ATOM      1  C3  UNL d   1       0.825   0.253  -1.112  0.00  0.00    -0.075 A 
ATOM      2  C4  UNL d   1       1.343   1.356  -1.806  0.00  0.00     0.002 A 
ATOM      3  C5  UNL d   1       1.368   1.367  -3.201  0.00  0.00     0.002 A 
ATOM      4  C6  UNL d   1       0.887   0.273  -3.918  0.00  0.00    -0.004 A 
ATOM      5  C7  UNL d   1       0.386  -0.835  -3.238  0.00  0.00     0.002 A 
ATOM      6  C8  UNL d   1       0.355  -0.847  -1.843  0.00  0.00     0.002 A 
ENDROOT
BRANCH   1   7
ATOM      7  C2  UNL d   1       0.768   0.247   0.397  0.00  0.00     0.056 C 
BRANCH   7   8
ATOM      8  C1  UNL d   1      -0.555   0.762   0.973  0.00  0.00     0.007 C 
ATOM      9  C   UNL d   1      -0.372   1.659   2.190  0.00  0.00     0.009 C 
ENDBRANCH   7   8
ENDBRANCH   1   7
TORSDOF 2
ENDMDL
