MODEL 1
REMARK minimizedAffinity -4.51752472
REMARK minimizedRMSD -1
REMARK  2 active torsions:
REMARK  status: ('A' for Active; 'I' for Inactive)
REMARK    1  A    between atoms: C1_2  and  C2_3 
REMARK    2  A    between atoms: C2_3  and  C3_4 
ROOT
ATOM      1  C3  UNL d   1      -0.349   0.332  -0.284  0.00  0.00    -0.075 A 
ATOM      2  C4  UNL d   1      -1.715   0.628  -0.402  0.00  0.00     0.002 A 
ATOM      3  C5  UNL d   1      -2.444   1.062   0.706  0.00  0.00     0.002 A 
ATOM      4  C6  UNL d   1      -1.821   1.194   1.945  0.00  0.00    -0.004 A 
ATOM      5  C7  UNL d   1      -0.469   0.887   2.077  0.00  0.00     0.002 A 
ATOM      6  C8  UNL d   1       0.264   0.457   0.969  0.00  0.00     0.002 A 
ENDROOT
BRANCH   1   7
ATOM      7  C2  UNL d   1       0.452  -0.109  -1.486  0.00  0.00     0.056 C 
BRANCH   7   8
ATOM      8  C1  UNL d   1       1.027   1.048  -2.311  0.00  0.00     0.007 C 
ATOM      9  C   UNL d   1       1.401   0.645  -3.731  0.00  0.00     0.009 C 
ENDBRANCH   7   8
ENDBRANCH   1   7
TORSDOF 2
ENDMDL
