MODEL 1
REMARK minimizedAffinity -4.73453188
REMARK minimizedRMSD -1
REMARK  2 active torsions:
REMARK  status: ('A' for Active; 'I' for Inactive)
REMARK    1  A    between atoms: C1_2  and  C2_3 
REMARK    2  A    between atoms: C2_3  and  C3_4 
ROOT
ATOM      1  C3  UNL d   1       0.188  -0.116  -0.112  0.00  0.00    -0.075 A 
ATOM      2  C4  UNL d   1      -1.206   0.043  -0.084  0.00  0.00     0.002 A 
ATOM      3  C5  UNL d   1      -1.819   0.723   0.969  0.00  0.00     0.002 A 
ATOM      4  C6  UNL d   1      -1.051   1.241   2.010  0.00  0.00    -0.004 A 
ATOM      5  C7  UNL d   1       0.332   1.074   2.000  0.00  0.00     0.002 A 
ATOM      6  C8  UNL d   1       0.949   0.398   0.945  0.00  0.00     0.002 A 
ENDROOT
BRANCH   1   7
ATOM      7  C2  UNL d   1       0.860  -0.825  -1.264  0.00  0.00     0.056 C 
BRANCH   7   8
ATOM      8  C1  UNL d   1       0.570  -0.203  -2.634  0.00  0.00     0.007 C 
ATOM      9  C   UNL d   1       1.721   0.639  -3.168  0.00  0.00     0.009 C 
ENDBRANCH   7   8
ENDBRANCH   1   7
TORSDOF 2
ENDMDL
