MODEL 1
REMARK minimizedAffinity 5.52338982
REMARK minimizedRMSD -1
REMARK  3 active torsions:
REMARK  status: ('A' for Active; 'I' for Inactive)
REMARK    1  A    between atoms: C3'_2  and  C2'_3 
REMARK    2  A    between atoms: C2'_3  and  C1'_4 
REMARK    3  A    between atoms: C1'_4  and  C1_5 
ROOT
ATOM      1  C1  N4B d   1      -2.782   1.567  -4.398  0.00  0.00    -0.075 A 
ATOM      2  C2  N4B d   1      -2.879   2.067  -3.081  0.00  0.00     0.002 A 
ATOM      3  C3  N4B d   1      -3.760   1.498  -2.194  0.00  0.00     0.002 A 
ATOM      4  C4  N4B d   1      -4.565   0.447  -2.605  0.00  0.00    -0.004 A 
ATOM      5  C5  N4B d   1      -4.447  -0.047  -3.872  0.00  0.00     0.002 A 
ATOM      6  C6  N4B d   1      -3.562   0.512  -4.772  0.00  0.00     0.002 A 
ENDROOT
BRANCH   1   7
ATOM      7  C1' N4B d   1      -1.895   2.210  -5.428  0.00  0.00     0.057 C 
BRANCH   7   8
ATOM      8  C2' N4B d   1      -2.579   3.465  -5.964  0.00  0.00     0.009 C 
BRANCH   8   9
ATOM      9  C3' N4B d   1      -3.382   4.177  -4.890  0.00  0.00     0.004 C 
ATOM     10  C4' N4B d   1      -3.400   5.666  -5.070  0.00  0.00     0.003 C 
ENDBRANCH   8   9
ENDBRANCH   7   8
ENDBRANCH   1   7
TORSDOF 3
ENDMDL
