MODEL 1
REMARK minimizedAffinity 3.29595256
REMARK minimizedRMSD -1
REMARK  3 active torsions:
REMARK  status: ('A' for Active; 'I' for Inactive)
REMARK    1  A    between atoms: C3'_2  and  C2'_3 
REMARK    2  A    between atoms: C2'_3  and  C1'_4 
REMARK    3  A    between atoms: C1'_4  and  C1_5 
ROOT
ATOM      1  C1  N4B d   1      -0.437   2.517  -3.372  0.00  0.00    -0.075 A 
ATOM      2  C2  N4B d   1      -0.009   1.429  -4.163  0.00  0.00     0.002 A 
ATOM      3  C3  N4B d   1      -0.669   1.126  -5.329  0.00  0.00     0.002 A 
ATOM      4  C4  N4B d   1      -1.766   1.883  -5.713  0.00  0.00    -0.004 A 
ATOM      5  C5  N4B d   1      -2.157   2.948  -4.956  0.00  0.00     0.002 A 
ATOM      6  C6  N4B d   1      -1.501   3.266  -3.784  0.00  0.00     0.002 A 
ENDROOT
BRANCH   1   7
ATOM      7  C1' N4B d   1       0.199   2.834  -2.046  0.00  0.00     0.057 C 
BRANCH   7   8
ATOM      8  C2' N4B d   1       0.271   4.348  -1.874  0.00  0.00     0.009 C 
BRANCH   8   9
ATOM      9  C3' N4B d   1       1.411   4.762  -0.960  0.00  0.00     0.004 C 
ATOM     10  C4' N4B d   1       2.118   5.997  -1.435  0.00  0.00     0.003 C 
ENDBRANCH   8   9
ENDBRANCH   7   8
ENDBRANCH   1   7
TORSDOF 3
ENDMDL
