MODEL 1
REMARK minimizedAffinity 10.1386433
REMARK minimizedRMSD -1
REMARK  3 active torsions:
REMARK  status: ('A' for Active; 'I' for Inactive)
REMARK    1  A    between atoms: C3'_2  and  C2'_3 
REMARK    2  A    between atoms: C2'_3  and  C1'_4 
REMARK    3  A    between atoms: C1'_4  and  C1_5 
ROOT
ATOM      1  C1  N4B d   1      -1.575   3.186   0.287  0.00  0.00    -0.075 A 
ATOM      2  C2  N4B d   1      -1.207   4.244  -0.572  0.00  0.00     0.002 A 
ATOM      3  C3  N4B d   1       0.108   4.409  -0.933  0.00  0.00     0.002 A 
ATOM      4  C4  N4B d   1       1.070   3.544  -0.433  0.00  0.00    -0.004 A 
ATOM      5  C5  N4B d   1       0.703   2.509   0.376  0.00  0.00     0.002 A 
ATOM      6  C6  N4B d   1      -0.616   2.329   0.743  0.00  0.00     0.002 A 
ENDROOT
BRANCH   1   7
ATOM      7  C1' N4B d   1      -2.987   3.016   0.778  0.00  0.00     0.057 C 
BRANCH   7   8
ATOM      8  C2' N4B d   1      -3.282   4.078   1.833  0.00  0.00     0.009 C 
BRANCH   8   9
ATOM      9  C3' N4B d   1      -4.738   4.509   1.814  0.00  0.00     0.004 C 
ATOM     10  C4' N4B d   1      -4.903   5.999   1.809  0.00  0.00     0.003 C 
ENDBRANCH   8   9
ENDBRANCH   7   8
ENDBRANCH   1   7
TORSDOF 3
ENDMDL
