MODEL 1
REMARK minimizedAffinity 8.43702888
REMARK minimizedRMSD -1
REMARK  3 active torsions:
REMARK  status: ('A' for Active; 'I' for Inactive)
REMARK    1  A    between atoms: C3'_2  and  C2'_3 
REMARK    2  A    between atoms: C2'_3  and  C1'_4 
REMARK    3  A    between atoms: C1'_4  and  C1_5 
ROOT
ATOM      1  C1  N4B d   1      -1.697   2.667   0.063  0.00  0.00    -0.075 A 
ATOM      2  C2  N4B d   1      -1.563   2.431  -1.323  0.00  0.00     0.002 A 
ATOM      3  C3  N4B d   1      -0.348   2.617  -1.936  0.00  0.00     0.002 A 
ATOM      4  C4  N4B d   1       0.736   3.055  -1.191  0.00  0.00    -0.004 A 
ATOM      5  C5  N4B d   1       0.604   3.256   0.152  0.00  0.00     0.002 A 
ATOM      6  C6  N4B d   1      -0.609   3.069   0.782  0.00  0.00     0.002 A 
ENDROOT
BRANCH   1   7
ATOM      7  C1' N4B d   1      -3.026   2.560   0.762  0.00  0.00     0.057 C 
BRANCH   7   8
ATOM      8  C2' N4B d   1      -3.274   3.834   1.564  0.00  0.00     0.009 C 
BRANCH   8   9
ATOM      9  C3' N4B d   1      -4.731   4.261   1.515  0.00  0.00     0.004 C 
ATOM     10  C4' N4B d   1      -4.924   5.706   1.869  0.00  0.00     0.003 C 
ENDBRANCH   8   9
ENDBRANCH   7   8
ENDBRANCH   1   7
TORSDOF 3
ENDMDL
