MODEL 1
REMARK minimizedAffinity 9.96265793
REMARK minimizedRMSD -1
REMARK  3 active torsions:
REMARK  status: ('A' for Active; 'I' for Inactive)
REMARK    1  A    between atoms: C3'_2  and  C2'_3 
REMARK    2  A    between atoms: C2'_3  and  C1'_4 
REMARK    3  A    between atoms: C1'_4  and  C1_5 
ROOT
ATOM      1  C1  N4B d   1      -0.107  -4.436  -1.879  0.00  0.00    -0.075 A 
ATOM      2  C2  N4B d   1      -0.036  -5.746  -1.355  0.00  0.00     0.002 A 
ATOM      3  C3  N4B d   1       0.729  -6.000  -0.243  0.00  0.00     0.002 A 
ATOM      4  C4  N4B d   1       1.443  -4.969   0.348  0.00  0.00    -0.004 A 
ATOM      5  C5  N4B d   1       1.350  -3.702  -0.149  0.00  0.00     0.002 A 
ATOM      6  C6  N4B d   1       0.582  -3.431  -1.263  0.00  0.00     0.002 A 
ENDROOT
BRANCH   1   7
ATOM      7  C1' N4B d   1      -0.861  -4.126  -3.143  0.00  0.00     0.057 C 
BRANCH   7   8
ATOM      8  C2' N4B d   1      -1.334  -5.431  -3.777  0.00  0.00     0.009 C 
BRANCH   8   9
ATOM      9  C3' N4B d   1      -1.478  -5.311  -5.284  0.00  0.00     0.004 C 
ATOM     10  C4' N4B d   1      -2.836  -5.720  -5.772  0.00  0.00     0.003 C 
ENDBRANCH   8   9
ENDBRANCH   7   8
ENDBRANCH   1   7
TORSDOF 3
ENDMDL
