MODEL 1
REMARK minimizedAffinity 10.54669
REMARK minimizedRMSD -1
REMARK  3 active torsions:
REMARK  status: ('A' for Active; 'I' for Inactive)
REMARK    1  A    between atoms: C3'_2  and  C2'_3 
REMARK    2  A    between atoms: C2'_3  and  C1'_4 
REMARK    3  A    between atoms: C1'_4  and  C1_5 
ROOT
ATOM      1  C1  N4B d   1       0.102   3.872  -0.760  0.00  0.00    -0.075 A 
ATOM      2  C2  N4B d   1      -0.599   4.922  -1.394  0.00  0.00     0.002 A 
ATOM      3  C3  N4B d   1       0.091   5.969  -1.952  0.00  0.00     0.002 A 
ATOM      4  C4  N4B d   1       1.476   5.999  -1.872  0.00  0.00    -0.004 A 
ATOM      5  C5  N4B d   1       2.146   4.968  -1.281  0.00  0.00     0.002 A 
ATOM      6  C6  N4B d   1       1.466   3.907  -0.719  0.00  0.00     0.002 A 
ENDROOT
BRANCH   1   7
ATOM      7  C1' N4B d   1      -0.613   2.749  -0.060  0.00  0.00     0.057 C 
BRANCH   7   8
ATOM      8  C2' N4B d   1      -2.114   2.883  -0.301  0.00  0.00     0.009 C 
BRANCH   8   9
ATOM      9  C3' N4B d   1      -2.922   2.508   0.929  0.00  0.00     0.004 C 
ATOM     10  C4' N4B d   1      -3.792   3.629   1.416  0.00  0.00     0.003 C 
ENDBRANCH   8   9
ENDBRANCH   7   8
ENDBRANCH   1   7
TORSDOF 3
ENDMDL
