MODEL 1
REMARK minimizedAffinity 6.77869511
REMARK minimizedRMSD -1
REMARK  3 active torsions:
REMARK  status: ('A' for Active; 'I' for Inactive)
REMARK    1  A    between atoms: C3'_2  and  C2'_3 
REMARK    2  A    between atoms: C2'_3  and  C1'_4 
REMARK    3  A    between atoms: C1'_4  and  C1_5 
ROOT
ATOM      1  C1  N4B d   1      -0.734   4.118  -0.099  0.00  0.00    -0.075 A 
ATOM      2  C2  N4B d   1      -0.814   5.244  -0.949  0.00  0.00     0.002 A 
ATOM      3  C3  N4B d   1       0.329   5.919  -1.302  0.00  0.00     0.002 A 
ATOM      4  C4  N4B d   1       1.554   5.500  -0.806  0.00  0.00    -0.004 A 
ATOM      5  C5  N4B d   1       1.625   4.397  -0.007  0.00  0.00     0.002 A 
ATOM      6  C6  N4B d   1       0.486   3.707   0.354  0.00  0.00     0.002 A 
ENDROOT
BRANCH   1   7
ATOM      7  C1' N4B d   1      -1.964   3.400   0.384  0.00  0.00     0.057 C 
BRANCH   7   8
ATOM      8  C2' N4B d   1      -2.571   4.174   1.550  0.00  0.00     0.009 C 
BRANCH   8   9
ATOM      9  C3' N4B d   1      -4.089   4.180   1.500  0.00  0.00     0.004 C 
ATOM     10  C4' N4B d   1      -4.677   5.513   1.854  0.00  0.00     0.003 C 
ENDBRANCH   8   9
ENDBRANCH   7   8
ENDBRANCH   1   7
TORSDOF 3
ENDMDL
