MODEL 1
REMARK minimizedAffinity -3.6663816
REMARK minimizedRMSD -1
REMARK  1 active torsions:
REMARK  status: ('A' for Active; 'I' for Inactive)
REMARK    1  A    between atoms: C1_2  and  C2_3 
ROOT
ATOM      1  C2  UNL d   1       0.144   0.900  -0.299  0.00  0.00    -0.081 A 
ATOM      2  C3  UNL d   1      -0.519   0.344   0.801  0.00  0.00     0.006 A 
ATOM      3  C4  UNL d   1      -0.463  -1.030   1.042  0.00  0.00     0.002 A 
ATOM      4  C5  UNL d   1       0.264  -1.871   0.192  0.00  0.00    -0.080 A 
ATOM      5  C6  UNL d   1       0.357  -3.344   0.456  0.00  0.00     0.076 C 
ATOM      6  C7  UNL d   1       0.913  -1.318  -0.918  0.00  0.00     0.002 A 
ATOM      7  C8  UNL d   1       0.856   0.057  -1.159  0.00  0.00     0.006 A 
ENDROOT
BRANCH   1   8
ATOM      8  C1  UNL d   1       0.139   2.391  -0.525  0.00  0.00     0.054 C 
ATOM      9  C   UNL d   1       1.409   3.036   0.012  0.00  0.00     0.018 C 
ENDBRANCH   1   8
TORSDOF 1
ENDMDL
