MODEL 1
REMARK minimizedAffinity -3.4402976
REMARK minimizedRMSD -1
REMARK  1 active torsions:
REMARK  status: ('A' for Active; 'I' for Inactive)
REMARK    1  A    between atoms: C1_2  and  C2_3 
ROOT
ATOM      1  C2  UNL d   1      -0.281   1.538   0.061  0.00  0.00    -0.081 A 
ATOM      2  C3  UNL d   1      -0.854   0.997   1.219  0.00  0.00     0.006 A 
ATOM      3  C4  UNL d   1      -0.940  -0.387   1.386  0.00  0.00     0.002 A 
ATOM      4  C5  UNL d   1      -0.448  -1.253   0.404  0.00  0.00    -0.080 A 
ATOM      5  C6  UNL d   1      -0.507  -2.741   0.585  0.00  0.00     0.076 C 
ATOM      6  C7  UNL d   1       0.108  -0.713  -0.761  0.00  0.00     0.002 A 
ATOM      7  C8  UNL d   1       0.194   0.671  -0.929  0.00  0.00     0.006 A 
ENDROOT
BRANCH   1   8
ATOM      8  C1  UNL d   1      -0.128   3.029  -0.094  0.00  0.00     0.054 C 
ATOM      9  C   UNL d   1       1.187   3.515   0.499  0.00  0.00     0.018 C 
ENDBRANCH   1   8
TORSDOF 1
ENDMDL
