MODEL 1
REMARK minimizedAffinity -4.06776381
REMARK minimizedRMSD -1
REMARK  1 active torsions:
REMARK  status: ('A' for Active; 'I' for Inactive)
REMARK    1  A    between atoms: C1_2  and  C2_3 
ROOT
ATOM      1  C2  UNL d   1       0.568   0.336  -0.696  0.00  0.00    -0.081 A 
ATOM      2  C3  UNL d   1       1.092  -0.735  -1.431  0.00  0.00     0.006 A 
ATOM      3  C4  UNL d   1       0.887  -2.051  -1.010  0.00  0.00     0.002 A 
ATOM      4  C5  UNL d   1       0.150  -2.319   0.149  0.00  0.00    -0.080 A 
ATOM      5  C6  UNL d   1      -0.102  -3.728   0.596  0.00  0.00     0.076 C 
ATOM      6  C7  UNL d   1      -0.358  -1.249   0.893  0.00  0.00     0.002 A 
ATOM      7  C8  UNL d   1      -0.154   0.067   0.472  0.00  0.00     0.006 A 
ENDROOT
BRANCH   1   8
ATOM      8  C1  UNL d   1       0.731   1.753  -1.183  0.00  0.00     0.054 C 
ATOM      9  C   UNL d   1       0.888   2.723  -0.020  0.00  0.00     0.018 C 
ENDBRANCH   1   8
TORSDOF 1
ENDMDL
