MODEL 1
REMARK minimizedAffinity -3.04751849
REMARK minimizedRMSD -1
REMARK  1 active torsions:
REMARK  status: ('A' for Active; 'I' for Inactive)
REMARK    1  A    between atoms: C1_2  and  C2_3 
ROOT
ATOM      1  C2  UNL d   1      -0.151   0.647  -0.403  0.00  0.00    -0.081 A 
ATOM      2  C3  UNL d   1      -0.878   0.105   0.665  0.00  0.00     0.006 A 
ATOM      3  C4  UNL d   1      -0.850  -1.269   0.915  0.00  0.00     0.002 A 
ATOM      4  C5  UNL d   1      -0.090  -2.122   0.108  0.00  0.00    -0.080 A 
ATOM      5  C6  UNL d   1      -0.027  -3.595   0.385  0.00  0.00     0.076 C 
ATOM      6  C7  UNL d   1       0.622  -1.583  -0.969  0.00  0.00     0.002 A 
ATOM      7  C8  UNL d   1       0.594  -0.210  -1.220  0.00  0.00     0.006 A 
ENDROOT
BRANCH   1   8
ATOM      8  C1  UNL d   1      -0.127   2.136  -0.636  0.00  0.00     0.054 C 
ATOM      9  C   UNL d   1       0.998   2.800   0.144  0.00  0.00     0.018 C 
ENDBRANCH   1   8
TORSDOF 1
ENDMDL
