MODEL 1
REMARK minimizedAffinity -4.95622349
REMARK minimizedRMSD -1
REMARK  1 active torsions:
REMARK  status: ('A' for Active; 'I' for Inactive)
REMARK    1  A    between atoms: C1_2  and  C2_3 
ROOT
ATOM      1  C2  UNL d   1      -0.000   0.550   0.122  0.00  0.00    -0.081 A 
ATOM      2  C3  UNL d   1      -0.582  -0.154   1.184  0.00  0.00     0.006 A 
ATOM      3  C4  UNL d   1      -0.500  -1.548   1.239  0.00  0.00     0.002 A 
ATOM      4  C5  UNL d   1       0.170  -2.259   0.238  0.00  0.00    -0.080 A 
ATOM      5  C6  UNL d   1       0.291  -3.753   0.300  0.00  0.00     0.076 C 
ATOM      6  C7  UNL d   1       0.735  -1.557  -0.832  0.00  0.00     0.002 A 
ATOM      7  C8  UNL d   1       0.654  -0.164  -0.888  0.00  0.00     0.006 A 
ENDROOT
BRANCH   1   8
ATOM      8  C1  UNL d   1      -0.031   2.057   0.094  0.00  0.00     0.054 C 
ATOM      9  C   UNL d   1       1.320   2.644   0.475  0.00  0.00     0.018 C 
ENDBRANCH   1   8
TORSDOF 1
ENDMDL
