MODEL 1
REMARK minimizedAffinity -4.57445526
REMARK minimizedRMSD -1
REMARK  1 active torsions:
REMARK  status: ('A' for Active; 'I' for Inactive)
REMARK    1  A    between atoms: C1_2  and  C2_3 
ROOT
ATOM      1  C2  UNL d   1       0.536   1.192   0.270  0.00  0.00    -0.081 A 
ATOM      2  C3  UNL d   1      -0.436   0.538  -0.497  0.00  0.00     0.006 A 
ATOM      3  C4  UNL d   1      -0.524  -0.857  -0.489  0.00  0.00     0.002 A 
ATOM      4  C5  UNL d   1       0.352  -1.619   0.291  0.00  0.00    -0.080 A 
ATOM      5  C6  UNL d   1       0.249  -3.115   0.331  0.00  0.00     0.076 C 
ATOM      6  C7  UNL d   1       1.334  -0.967   1.044  0.00  0.00     0.002 A 
ATOM      7  C8  UNL d   1       1.423   0.427   1.036  0.00  0.00     0.006 A 
ENDROOT
BRANCH   1   8
ATOM      8  C1  UNL d   1       0.592   2.697   0.315  0.00  0.00     0.054 C 
ATOM      9  C   UNL d   1       1.984   3.188   0.684  0.00  0.00     0.018 C 
ENDBRANCH   1   8
TORSDOF 1
ENDMDL
