MODEL 1
REMARK minimizedAffinity -5.12328291
REMARK minimizedRMSD -1
REMARK  1 active torsions:
REMARK  status: ('A' for Active; 'I' for Inactive)
REMARK    1  A    between atoms: C1_2  and  C2_3 
ROOT
ATOM      1  C2  UNL d   1       0.223   1.282   0.474  0.00  0.00    -0.081 A 
ATOM      2  C3  UNL d   1      -0.554   0.650   1.452  0.00  0.00     0.006 A 
ATOM      3  C4  UNL d   1      -0.685  -0.741   1.463  0.00  0.00     0.002 A 
ATOM      4  C5  UNL d   1      -0.035  -1.523   0.502  0.00  0.00    -0.080 A 
ATOM      5  C6  UNL d   1      -0.143  -3.019   0.521  0.00  0.00     0.076 C 
ATOM      6  C7  UNL d   1       0.728  -0.890  -0.485  0.00  0.00     0.002 A 
ATOM      7  C8  UNL d   1       0.858   0.500  -0.497  0.00  0.00     0.006 A 
ENDROOT
BRANCH   1   8
ATOM      8  C1  UNL d   1       0.419   2.776   0.498  0.00  0.00     0.054 C 
ATOM      9  C   UNL d   1       1.857   3.140   0.836  0.00  0.00     0.018 C 
ENDBRANCH   1   8
TORSDOF 1
ENDMDL
