MODEL 1
REMARK minimizedAffinity -4.62815523
REMARK minimizedRMSD -1
REMARK  1 active torsions:
REMARK  status: ('A' for Active; 'I' for Inactive)
REMARK    1  A    between atoms: C1_2  and  C2_3 
ROOT
ATOM      1  C2  UNL d   1      -0.060   1.202   0.072  0.00  0.00    -0.081 A 
ATOM      2  C3  UNL d   1      -0.651   0.591   1.185  0.00  0.00     0.006 A 
ATOM      3  C4  UNL d   1      -0.815  -0.796   1.227  0.00  0.00     0.002 A 
ATOM      4  C5  UNL d   1      -0.384  -1.594   0.162  0.00  0.00    -0.080 A 
ATOM      5  C6  UNL d   1      -0.526  -3.086   0.208  0.00  0.00     0.076 C 
ATOM      6  C7  UNL d   1       0.190  -0.982  -0.957  0.00  0.00     0.002 A 
ATOM      7  C8  UNL d   1       0.354   0.405  -1.000  0.00  0.00     0.006 A 
ENDROOT
BRANCH   1   8
ATOM      8  C1  UNL d   1       0.176   2.691   0.051  0.00  0.00     0.054 C 
ATOM      9  C   UNL d   1       1.611   3.028   0.431  0.00  0.00     0.018 C 
ENDBRANCH   1   8
TORSDOF 1
ENDMDL
