MODEL 1
REMARK minimizedAffinity -3.38430786
REMARK minimizedRMSD -1
REMARK  1 active torsions:
REMARK  status: ('A' for Active; 'I' for Inactive)
REMARK    1  A    between atoms: C1_2  and  C2_3 
ROOT
ATOM      1  C2  UNL d   1       0.774   1.835   0.029  0.00  0.00    -0.081 A 
ATOM      2  C3  UNL d   1      -0.408   1.600  -0.683  0.00  0.00     0.006 A 
ATOM      3  C4  UNL d   1      -1.046   0.359  -0.608  0.00  0.00     0.002 A 
ATOM      4  C5  UNL d   1      -0.517  -0.664   0.185  0.00  0.00    -0.080 A 
ATOM      5  C6  UNL d   1      -1.207  -1.990   0.298  0.00  0.00     0.076 C 
ATOM      6  C7  UNL d   1       0.674  -0.435   0.883  0.00  0.00     0.002 A 
ATOM      7  C8  UNL d   1       1.312   0.805   0.808  0.00  0.00     0.006 A 
ENDROOT
BRANCH   1   8
ATOM      8  C1  UNL d   1       1.429   3.192   0.002  0.00  0.00     0.054 C 
ATOM      9  C   UNL d   1       2.219   3.451   1.277  0.00  0.00     0.018 C 
ENDBRANCH   1   8
TORSDOF 1
ENDMDL
