MODEL 1
REMARK minimizedAffinity 11.3389616
REMARK minimizedRMSD -1
REMARK  0 active torsions:
REMARK  status: ('A' for Active; 'I' for Inactive)
ROOT
ATOM      1  C   UNL d   1      -2.666  -1.130   0.298  0.00  0.00     0.078 C 
ATOM      2  C1  UNL d   1      -1.584  -0.466   1.096  0.00  0.00    -0.077 A 
ATOM      3  C2  UNL d   1      -1.670   0.889   1.439  0.00  0.00    -0.001 A 
ATOM      4  C3  UNL d   1      -0.651   1.497   2.174  0.00  0.00     0.003 A 
ATOM      5  C4  UNL d   1       0.462   0.758   2.571  0.00  0.00    -0.005 A 
ATOM      6  C5  UNL d   1       0.558  -0.590   2.232  0.00  0.00     0.003 A 
ATOM      7  C6  UNL d   1      -0.461  -1.200   1.497  0.00  0.00    -0.001 A 
ENDROOT
TORSDOF 0
ENDMDL
