MODEL 1
REMARK minimizedAffinity 6.60152817
REMARK minimizedRMSD -1
REMARK  0 active torsions:
REMARK  status: ('A' for Active; 'I' for Inactive)
ROOT
ATOM      1  C   UNL d   1       0.393   2.960   5.798  0.00  0.00     0.078 C 
ATOM      2  C1  UNL d   1       0.220   1.992   4.665  0.00  0.00    -0.077 A 
ATOM      3  C2  UNL d   1      -0.696   2.244   3.636  0.00  0.00    -0.001 A 
ATOM      4  C3  UNL d   1      -0.854   1.330   2.593  0.00  0.00     0.003 A 
ATOM      5  C4  UNL d   1      -0.100   0.158   2.569  0.00  0.00    -0.005 A 
ATOM      6  C5  UNL d   1       0.812  -0.102   3.590  0.00  0.00     0.003 A 
ATOM      7  C6  UNL d   1       0.971   0.811   4.634  0.00  0.00    -0.001 A 
ENDROOT
TORSDOF 0
ENDMDL
