MODEL 1
REMARK minimizedAffinity 8.9567194
REMARK minimizedRMSD -1
REMARK  0 active torsions:
REMARK  status: ('A' for Active; 'I' for Inactive)
ROOT
ATOM      1  C   UNL d   1       5.992   4.218  -5.961  0.00  0.00     0.078 C 
ATOM      2  C1  UNL d   1       5.274   2.905  -5.867  0.00  0.00    -0.077 A 
ATOM      3  C2  UNL d   1       3.893   2.853  -5.644  0.00  0.00    -0.001 A 
ATOM      4  C3  UNL d   1       3.239   1.623  -5.550  0.00  0.00     0.003 A 
ATOM      5  C4  UNL d   1       3.958   0.436  -5.676  0.00  0.00    -0.005 A 
ATOM      6  C5  UNL d   1       5.334   0.478  -5.896  0.00  0.00     0.003 A 
ATOM      7  C6  UNL d   1       5.989   1.707  -5.991  0.00  0.00    -0.001 A 
ENDROOT
TORSDOF 0
ENDMDL
