MODEL 1
REMARK minimizedAffinity 4.41841078
REMARK minimizedRMSD -1
REMARK  0 active torsions:
REMARK  status: ('A' for Active; 'I' for Inactive)
ROOT
ATOM      1  C   UNL d   1       0.950  -2.214   4.848  0.00  0.00     0.078 C 
ATOM      2  C1  UNL d   1       0.425  -1.261   3.815  0.00  0.00    -0.077 A 
ATOM      3  C2  UNL d   1      -0.525  -1.671   2.872  0.00  0.00    -0.001 A 
ATOM      4  C3  UNL d   1      -0.997  -0.776   1.911  0.00  0.00     0.003 A 
ATOM      5  C4  UNL d   1      -0.523   0.534   1.882  0.00  0.00    -0.005 A 
ATOM      6  C5  UNL d   1       0.425   0.950   2.815  0.00  0.00     0.003 A 
ATOM      7  C6  UNL d   1       0.897   0.057   3.777  0.00  0.00    -0.001 A 
ENDROOT
TORSDOF 0
ENDMDL
