MODEL 1
REMARK minimizedAffinity 2.25860691
REMARK minimizedRMSD -1
REMARK  0 active torsions:
REMARK  status: ('A' for Active; 'I' for Inactive)
ROOT
ATOM      1  C   UNL d   1       5.633   2.359   3.730  0.00  0.00     0.078 C 
ATOM      2  C1  UNL d   1       5.272   3.631   3.023  0.00  0.00    -0.077 A 
ATOM      3  C2  UNL d   1       5.976   4.816   3.266  0.00  0.00    -0.001 A 
ATOM      4  C3  UNL d   1       5.622   5.995   2.607  0.00  0.00     0.003 A 
ATOM      5  C4  UNL d   1       4.563   6.000   1.702  0.00  0.00    -0.005 A 
ATOM      6  C5  UNL d   1       3.855   4.825   1.455  0.00  0.00     0.003 A 
ATOM      7  C6  UNL d   1       4.207   3.646   2.113  0.00  0.00    -0.001 A 
ENDROOT
TORSDOF 0
ENDMDL
