MODEL 1
REMARK minimizedAffinity 8.76052856
REMARK minimizedRMSD -1
REMARK  0 active torsions:
REMARK  status: ('A' for Active; 'I' for Inactive)
ROOT
ATOM      1  C   UNL d   1      -0.061   2.356   5.110  0.00  0.00     0.078 C 
ATOM      2  C1  UNL d   1       0.207   1.277   4.105  0.00  0.00    -0.077 A 
ATOM      3  C2  UNL d   1       0.822   0.076   4.482  0.00  0.00    -0.001 A 
ATOM      4  C3  UNL d   1       1.074  -0.916   3.533  0.00  0.00     0.003 A 
ATOM      5  C4  UNL d   1       0.717  -0.717   2.201  0.00  0.00    -0.005 A 
ATOM      6  C5  UNL d   1       0.108   0.475   1.816  0.00  0.00     0.003 A 
ATOM      7  C6  UNL d   1      -0.146   1.468   2.763  0.00  0.00    -0.001 A 
ENDROOT
TORSDOF 0
ENDMDL
