MODEL 1
REMARK minimizedAffinity 2.82159472
REMARK minimizedRMSD -1
REMARK  0 active torsions:
REMARK  status: ('A' for Active; 'I' for Inactive)
ROOT
ATOM      1  C   UNL d   1       5.437   1.977   4.042  0.00  0.00     0.078 C 
ATOM      2  C1  UNL d   1       5.197   3.342   3.468  0.00  0.00    -0.077 A 
ATOM      3  C2  UNL d   1       4.502   3.506   2.264  0.00  0.00    -0.001 A 
ATOM      4  C3  UNL d   1       4.294   4.781   1.737  0.00  0.00     0.003 A 
ATOM      5  C4  UNL d   1       4.778   5.903   2.407  0.00  0.00    -0.005 A 
ATOM      6  C5  UNL d   1       5.473   5.749   3.605  0.00  0.00     0.003 A 
ATOM      7  C6  UNL d   1       5.682   4.474   4.133  0.00  0.00    -0.001 A 
ENDROOT
TORSDOF 0
ENDMDL
