MODEL 1
REMARK minimizedAffinity 9.74260807
REMARK minimizedRMSD -1
REMARK  0 active torsions:
REMARK  status: ('A' for Active; 'I' for Inactive)
ROOT
ATOM      1  C   UNL d   1      -5.995   0.313  -2.524  0.00  0.00     0.078 C 
ATOM      2  C1  UNL d   1      -5.987   1.617  -1.783  0.00  0.00    -0.077 A 
ATOM      3  C2  UNL d   1      -5.997   1.651  -0.383  0.00  0.00    -0.001 A 
ATOM      4  C3  UNL d   1      -5.999   2.872   0.293  0.00  0.00     0.003 A 
ATOM      5  C4  UNL d   1      -5.991   4.068  -0.422  0.00  0.00    -0.005 A 
ATOM      6  C5  UNL d   1      -5.983   4.044  -1.815  0.00  0.00     0.003 A 
ATOM      7  C6  UNL d   1      -5.982   2.824  -2.493  0.00  0.00    -0.001 A 
ENDROOT
TORSDOF 0
ENDMDL
