MODEL 1
REMARK minimizedAffinity 12.3098421
REMARK minimizedRMSD -1
REMARK  0 active torsions:
REMARK  status: ('A' for Active; 'I' for Inactive)
ROOT
ATOM      1  C   UNL d   1       1.758  -2.258  -5.084  0.00  0.00     0.078 C 
ATOM      2  C1  UNL d   1       3.238  -2.356  -4.863  0.00  0.00    -0.077 A 
ATOM      3  C2  UNL d   1       4.137  -2.221  -5.928  0.00  0.00    -0.001 A 
ATOM      4  C3  UNL d   1       5.512  -2.324  -5.709  0.00  0.00     0.003 A 
ATOM      5  C4  UNL d   1       6.000  -2.564  -4.426  0.00  0.00    -0.005 A 
ATOM      6  C5  UNL d   1       5.113  -2.702  -3.361  0.00  0.00     0.003 A 
ATOM      7  C6  UNL d   1       3.738  -2.600  -3.577  0.00  0.00    -0.001 A 
ENDROOT
TORSDOF 0
ENDMDL
