MODEL 1
REMARK minimizedAffinity 17.9958134
REMARK minimizedRMSD -1
REMARK  0 active torsions:
REMARK  status: ('A' for Active; 'I' for Inactive)
ROOT
ATOM      1  C   UNL d   1       0.761  -4.521  -5.258  0.00  0.00     0.078 C 
ATOM      2  C1  UNL d   1       0.639  -3.027  -5.253  0.00  0.00    -0.077 A 
ATOM      3  C2  UNL d   1       1.514  -2.234  -4.500  0.00  0.00    -0.001 A 
ATOM      4  C3  UNL d   1       1.382  -0.845  -4.497  0.00  0.00     0.003 A 
ATOM      5  C4  UNL d   1       0.377  -0.236  -5.245  0.00  0.00    -0.005 A 
ATOM      6  C5  UNL d   1      -0.500  -1.016  -5.996  0.00  0.00     0.003 A 
ATOM      7  C6  UNL d   1      -0.370  -2.406  -6.000  0.00  0.00    -0.001 A 
ENDROOT
TORSDOF 0
ENDMDL
