MODEL 1
REMARK minimizedAffinity 5.72147894
REMARK minimizedRMSD -1
REMARK  0 active torsions:
REMARK  status: ('A' for Active; 'I' for Inactive)
ROOT
ATOM      1  C   UNL d   1       0.681  -2.053   4.005  0.00  0.00     0.078 C 
ATOM      2  C1  UNL d   1      -0.062  -0.861   3.480  0.00  0.00    -0.077 A 
ATOM      3  C2  UNL d   1       0.480   0.427   3.580  0.00  0.00    -0.001 A 
ATOM      4  C3  UNL d   1      -0.227   1.529   3.096  0.00  0.00     0.003 A 
ATOM      5  C4  UNL d   1      -1.479   1.355   2.510  0.00  0.00    -0.005 A 
ATOM      6  C5  UNL d   1      -2.027   0.078   2.408  0.00  0.00     0.003 A 
ATOM      7  C6  UNL d   1      -1.322  -1.025   2.891  0.00  0.00    -0.001 A 
ENDROOT
TORSDOF 0
ENDMDL
