MODEL 1
REMARK minimizedAffinity 14.4601288
REMARK minimizedRMSD -1
REMARK  1 active torsions:
REMARK  status: ('A' for Active; 'I' for Inactive)
REMARK    1  A    between atoms: C1_2  and  C2_3 
ROOT
ATOM      1  C2  UNL d   1      -1.208  -3.724   0.630  0.00  0.00    -0.081 A 
ATOM      2  C3  UNL d   1      -2.301  -4.078  -0.170  0.00  0.00     0.006 A 
ATOM      3  C4  UNL d   1      -2.558  -3.395  -1.361  0.00  0.00     0.002 A 
ATOM      4  C5  UNL d   1      -1.724  -2.351  -1.775  0.00  0.00    -0.080 A 
ATOM      5  C6  UNL d   1      -1.971  -1.630  -3.067  0.00  0.00     0.076 C 
ATOM      6  C7  UNL d   1      -0.642  -1.985  -0.967  0.00  0.00     0.002 A 
ATOM      7  C8  UNL d   1      -0.384  -2.668   0.224  0.00  0.00     0.006 A 
ENDROOT
BRANCH   1   8
ATOM      8  C1  UNL d   1      -0.890  -4.501   1.882  0.00  0.00     0.054 C 
ATOM      9  C   UNL d   1      -0.883  -5.999   1.615  0.00  0.00     0.018 C 
ENDBRANCH   1   8
TORSDOF 1
ENDMDL
