MODEL 1
REMARK minimizedAffinity 18.7220554
REMARK minimizedRMSD -1
REMARK  1 active torsions:
REMARK  status: ('A' for Active; 'I' for Inactive)
REMARK    1  A    between atoms: C1_2  and  C2_3 
ROOT
ATOM      1  C2  UNL d   1      -1.883  -2.988  -1.683  0.00  0.00    -0.081 A 
ATOM      2  C3  UNL d   1      -1.191  -3.966  -2.407  0.00  0.00     0.006 A 
ATOM      3  C4  UNL d   1      -1.218  -3.965  -3.804  0.00  0.00     0.002 A 
ATOM      4  C5  UNL d   1      -1.930  -2.982  -4.499  0.00  0.00    -0.080 A 
ATOM      5  C6  UNL d   1      -1.942  -2.952  -5.999  0.00  0.00     0.076 C 
ATOM      6  C7  UNL d   1      -2.635  -2.015  -3.776  0.00  0.00     0.002 A 
ATOM      7  C8  UNL d   1      -2.609  -2.015  -2.379  0.00  0.00     0.006 A 
ENDROOT
BRANCH   1   8
ATOM      8  C1  UNL d   1      -1.803  -2.948  -0.178  0.00  0.00     0.054 C 
ATOM      9  C   UNL d   1      -0.363  -3.059   0.302  0.00  0.00     0.018 C 
ENDBRANCH   1   8
TORSDOF 1
ENDMDL
