MODEL 1
REMARK minimizedAffinity 7.13225698
REMARK minimizedRMSD -1
REMARK  1 active torsions:
REMARK  status: ('A' for Active; 'I' for Inactive)
REMARK    1  A    between atoms: C1_2  and  C2_3 
ROOT
ATOM      1  C2  UNL d   1       2.158   0.502   2.064  0.00  0.00    -0.081 A 
ATOM      2  C3  UNL d   1       2.132   0.513   0.664  0.00  0.00     0.006 A 
ATOM      3  C4  UNL d   1       3.160  -0.084  -0.069  0.00  0.00     0.002 A 
ATOM      4  C5  UNL d   1       4.227  -0.709   0.586  0.00  0.00    -0.080 A 
ATOM      5  C6  UNL d   1       5.322  -1.380  -0.188  0.00  0.00     0.076 C 
ATOM      6  C7  UNL d   1       4.262  -0.705   1.984  0.00  0.00     0.002 A 
ATOM      7  C8  UNL d   1       3.234  -0.107   2.717  0.00  0.00     0.006 A 
ENDROOT
BRANCH   1   8
ATOM      8  C1  UNL d   1       1.018   1.089   2.856  0.00  0.00     0.054 C 
ATOM      9  C   UNL d   1       0.797   0.327   4.155  0.00  0.00     0.018 C 
ENDBRANCH   1   8
TORSDOF 1
ENDMDL
