MODEL 1
REMARK minimizedAffinity 6.86665964
REMARK minimizedRMSD -1
REMARK  1 active torsions:
REMARK  status: ('A' for Active; 'I' for Inactive)
REMARK    1  A    between atoms: C1_2  and  C2_3 
ROOT
ATOM      1  C2  UNL d   1      -1.982  -3.052  -2.068  0.00  0.00    -0.081 A 
ATOM      2  C3  UNL d   1      -0.869  -3.582  -1.405  0.00  0.00     0.006 A 
ATOM      3  C4  UNL d   1      -0.363  -2.959  -0.261  0.00  0.00     0.002 A 
ATOM      4  C5  UNL d   1      -0.966  -1.802   0.242  0.00  0.00    -0.080 A 
ATOM      5  C6  UNL d   1      -0.452  -1.140   1.487  0.00  0.00     0.076 C 
ATOM      6  C7  UNL d   1      -2.068  -1.262  -0.430  0.00  0.00     0.002 A 
ATOM      7  C8  UNL d   1      -2.573  -1.884  -1.574  0.00  0.00     0.006 A 
ENDROOT
BRANCH   1   8
ATOM      8  C1  UNL d   1      -2.569  -3.757  -3.264  0.00  0.00     0.054 C 
ATOM      9  C   UNL d   1      -3.802  -4.563  -2.881  0.00  0.00     0.018 C 
ENDBRANCH   1   8
TORSDOF 1
ENDMDL
