MODEL 1
REMARK minimizedAffinity 9.21145153
REMARK minimizedRMSD -1
REMARK  1 active torsions:
REMARK  status: ('A' for Active; 'I' for Inactive)
REMARK    1  A    between atoms: C1_2  and  C2_3 
ROOT
ATOM      1  C2  UNL d   1       1.923   0.811   2.381  0.00  0.00    -0.081 A 
ATOM      2  C3  UNL d   1       1.556   1.343   1.138  0.00  0.00     0.006 A 
ATOM      3  C4  UNL d   1       2.240   0.971  -0.021  0.00  0.00     0.002 A 
ATOM      4  C5  UNL d   1       3.297   0.056   0.040  0.00  0.00    -0.080 A 
ATOM      5  C6  UNL d   1       4.020  -0.375  -1.201  0.00  0.00     0.076 C 
ATOM      6  C7  UNL d   1       3.675  -0.462   1.284  0.00  0.00     0.002 A 
ATOM      7  C8  UNL d   1       2.992  -0.090   2.444  0.00  0.00     0.006 A 
ENDROOT
BRANCH   1   8
ATOM      8  C1  UNL d   1       1.146   1.160   3.624  0.00  0.00     0.054 C 
ATOM      9  C   UNL d   1       0.276  -0.003   4.078  0.00  0.00     0.018 C 
ENDBRANCH   1   8
TORSDOF 1
ENDMDL
