MODEL 1
REMARK minimizedAffinity 2.01104093
REMARK minimizedRMSD -1
REMARK  1 active torsions:
REMARK  status: ('A' for Active; 'I' for Inactive)
REMARK    1  A    between atoms: C1_2  and  C2_3 
ROOT
ATOM      1  C2  UNL d   1       3.472  -0.621   1.092  0.00  0.00    -0.081 A 
ATOM      2  C3  UNL d   1       3.646  -0.977   2.435  0.00  0.00     0.006 A 
ATOM      3  C4  UNL d   1       2.789  -0.477   3.417  0.00  0.00     0.002 A 
ATOM      4  C5  UNL d   1       1.739   0.382   3.073  0.00  0.00    -0.080 A 
ATOM      5  C6  UNL d   1       0.793   0.902   4.114  0.00  0.00     0.076 C 
ATOM      6  C7  UNL d   1       1.575   0.752   1.734  0.00  0.00     0.002 A 
ATOM      7  C8  UNL d   1       2.433   0.252   0.751  0.00  0.00     0.006 A 
ENDROOT
BRANCH   1   8
ATOM      8  C1  UNL d   1       4.355  -1.210   0.021  0.00  0.00     0.054 C 
ATOM      9  C   UNL d   1       5.801  -1.305   0.487  0.00  0.00     0.018 C 
ENDBRANCH   1   8
TORSDOF 1
ENDMDL
