MODEL 1
REMARK minimizedAffinity 0.0121976649
REMARK minimizedRMSD -1
REMARK  1 active torsions:
REMARK  status: ('A' for Active; 'I' for Inactive)
REMARK    1  A    between atoms: C1_2  and  C2_3 
ROOT
ATOM      1  C2  UNL d   1       2.223   0.423   2.009  0.00  0.00    -0.081 A 
ATOM      2  C3  UNL d   1       1.875   1.746   1.711  0.00  0.00     0.006 A 
ATOM      3  C4  UNL d   1       2.200   2.301   0.470  0.00  0.00     0.002 A 
ATOM      4  C5  UNL d   1       2.870   1.541  -0.494  0.00  0.00    -0.080 A 
ATOM      5  C6  UNL d   1       3.197   2.115  -1.841  0.00  0.00     0.076 C 
ATOM      6  C7  UNL d   1       3.232   0.224  -0.190  0.00  0.00     0.002 A 
ATOM      7  C8  UNL d   1       2.909  -0.331   1.050  0.00  0.00     0.006 A 
ENDROOT
BRANCH   1   8
ATOM      8  C1  UNL d   1       1.818  -0.199   3.321  0.00  0.00     0.054 C 
ATOM      9  C   UNL d   1       0.730   0.615   4.007  0.00  0.00     0.018 C 
ENDBRANCH   1   8
TORSDOF 1
ENDMDL
