MODEL 1
REMARK minimizedAffinity 9.27187634
REMARK minimizedRMSD -1
REMARK  1 active torsions:
REMARK  status: ('A' for Active; 'I' for Inactive)
REMARK    1  A    between atoms: C1_2  and  C2_3 
ROOT
ATOM      1  C2  UNL d   1       3.874  -0.007   1.156  0.00  0.00    -0.081 A 
ATOM      2  C3  UNL d   1       4.412   1.216   0.737  0.00  0.00     0.006 A 
ATOM      3  C4  UNL d   1       3.586   2.329   0.561  0.00  0.00     0.002 A 
ATOM      4  C5  UNL d   1       2.212   2.240   0.809  0.00  0.00    -0.080 A 
ATOM      5  C6  UNL d   1       1.320   3.436   0.654  0.00  0.00     0.076 C 
ATOM      6  C7  UNL d   1       1.673   1.014   1.211  0.00  0.00     0.002 A 
ATOM      7  C8  UNL d   1       2.497  -0.100   1.386  0.00  0.00     0.006 A 
ENDROOT
BRANCH   1   8
ATOM      8  C1  UNL d   1       4.771  -1.192   1.408  0.00  0.00     0.054 C 
ATOM      9  C   UNL d   1       5.154  -1.293   2.878  0.00  0.00     0.018 C 
ENDBRANCH   1   8
TORSDOF 1
ENDMDL
