MODEL 1
REMARK minimizedAffinity 8.58948326
REMARK minimizedRMSD -1
REMARK  1 active torsions:
REMARK  status: ('A' for Active; 'I' for Inactive)
REMARK    1  A    between atoms: C1_2  and  C2_3 
ROOT
ATOM      1  C2  UNL d   1       2.073   0.003   1.961  0.00  0.00    -0.081 A 
ATOM      2  C3  UNL d   1       3.023  -0.623   2.776  0.00  0.00     0.006 A 
ATOM      3  C4  UNL d   1       4.291  -0.932   2.277  0.00  0.00     0.002 A 
ATOM      4  C5  UNL d   1       4.632  -0.613   0.959  0.00  0.00    -0.080 A 
ATOM      5  C6  UNL d   1       6.000  -0.912   0.420  0.00  0.00     0.076 C 
ATOM      6  C7  UNL d   1       3.677  -0.004   0.138  0.00  0.00     0.002 A 
ATOM      7  C8  UNL d   1       2.409   0.305   0.636  0.00  0.00     0.006 A 
ENDROOT
BRANCH   1   8
ATOM      8  C1  UNL d   1       0.727   0.396   2.515  0.00  0.00     0.054 C 
ATOM      9  C   UNL d   1       0.592  -0.005   3.977  0.00  0.00     0.018 C 
ENDBRANCH   1   8
TORSDOF 1
ENDMDL
