MODEL 1
REMARK minimizedAffinity 3.28774881
REMARK minimizedRMSD -1
REMARK  1 active torsions:
REMARK  status: ('A' for Active; 'I' for Inactive)
REMARK    1  A    between atoms: C1_2  and  C2_3 
ROOT
ATOM      1  C2  UNL d   1      -1.510  -3.772  -3.658  0.00  0.00    -0.081 A 
ATOM      2  C3  UNL d   1      -0.336  -3.997  -2.929  0.00  0.00     0.006 A 
ATOM      3  C4  UNL d   1      -0.286  -3.711  -1.563  0.00  0.00     0.002 A 
ATOM      4  C5  UNL d   1      -1.409  -3.204  -0.902  0.00  0.00    -0.080 A 
ATOM      5  C6  UNL d   1      -1.377  -2.921   0.571  0.00  0.00     0.076 C 
ATOM      6  C7  UNL d   1      -2.577  -2.963  -1.634  0.00  0.00     0.002 A 
ATOM      7  C8  UNL d   1      -2.628  -3.248  -3.000  0.00  0.00     0.006 A 
ENDROOT
BRANCH   1   8
ATOM      8  C1  UNL d   1      -1.588  -4.140  -5.118  0.00  0.00     0.054 C 
ATOM      9  C   UNL d   1      -1.033  -3.030  -5.999  0.00  0.00     0.018 C 
ENDBRANCH   1   8
TORSDOF 1
ENDMDL
