MODEL 1
REMARK minimizedAffinity 13.5854168
REMARK minimizedRMSD -1
REMARK  1 active torsions:
REMARK  status: ('A' for Active; 'I' for Inactive)
REMARK    1  A    between atoms: C1_2  and  C2_3 
ROOT
ATOM      1  C2  UNL d   1      -4.581   2.022   3.483  0.00  0.00    -0.081 A 
ATOM      2  C3  UNL d   1      -4.223   2.544   4.732  0.00  0.00     0.006 A 
ATOM      3  C4  UNL d   1      -4.615   3.833   5.100  0.00  0.00     0.002 A 
ATOM      4  C5  UNL d   1      -5.379   4.618   4.229  0.00  0.00    -0.080 A 
ATOM      5  C6  UNL d   1      -5.832   5.992   4.624  0.00  0.00     0.076 C 
ATOM      6  C7  UNL d   1      -5.721   4.103   2.974  0.00  0.00     0.002 A 
ATOM      7  C8  UNL d   1      -5.328   2.815   2.606  0.00  0.00     0.006 A 
ENDROOT
BRANCH   1   8
ATOM      8  C1  UNL d   1      -4.214   0.609   3.110  0.00  0.00     0.054 C 
ATOM      9  C   UNL d   1      -2.705   0.412   3.103  0.00  0.00     0.018 C 
ENDBRANCH   1   8
TORSDOF 1
ENDMDL
