MODEL 1
REMARK minimizedAffinity 14.0854177
REMARK minimizedRMSD -1
REMARK  1 active torsions:
REMARK  status: ('A' for Active; 'I' for Inactive)
REMARK    1  A    between atoms: C1_2  and  C2_3 
ROOT
ATOM      1  C2  UNL d   1      -2.664  -3.914  -0.472  0.00  0.00    -0.081 A 
ATOM      2  C3  UNL d   1      -3.045  -5.248  -0.281  0.00  0.00     0.006 A 
ATOM      3  C4  UNL d   1      -2.681  -5.929   0.883  0.00  0.00     0.002 A 
ATOM      4  C5  UNL d   1      -1.938  -5.286   1.878  0.00  0.00    -0.080 A 
ATOM      5  C6  UNL d   1      -1.567  -5.997   3.146  0.00  0.00     0.076 C 
ATOM      6  C7  UNL d   1      -1.542  -3.959   1.681  0.00  0.00     0.002 A 
ATOM      7  C8  UNL d   1      -1.905  -3.278   0.517  0.00  0.00     0.006 A 
ENDROOT
BRANCH   1   8
ATOM      8  C1  UNL d   1      -3.109  -3.157  -1.697  0.00  0.00     0.054 C 
ATOM      9  C   UNL d   1      -3.756  -4.084  -2.715  0.00  0.00     0.018 C 
ENDBRANCH   1   8
TORSDOF 1
ENDMDL
