MODEL 1
REMARK minimizedAffinity 3.97111726
REMARK minimizedRMSD -1
REMARK  1 active torsions:
REMARK  status: ('A' for Active; 'I' for Inactive)
REMARK    1  A    between atoms: C1_2  and  C2_3 
ROOT
ATOM      1  C2  UNL d   1       0.920  -0.296   1.046  0.00  0.00    -0.081 A 
ATOM      2  C3  UNL d   1       0.923   1.064   0.715  0.00  0.00     0.006 A 
ATOM      3  C4  UNL d   1       1.978   1.612  -0.019  0.00  0.00     0.002 A 
ATOM      4  C5  UNL d   1       3.042   0.808  -0.441  0.00  0.00    -0.080 A 
ATOM      5  C6  UNL d   1       4.165   1.378  -1.256  0.00  0.00     0.076 C 
ATOM      6  C7  UNL d   1       3.047  -0.547  -0.096  0.00  0.00     0.002 A 
ATOM      7  C8  UNL d   1       1.994  -1.096   0.638  0.00  0.00     0.006 A 
ENDROOT
BRANCH   1   8
ATOM      8  C1  UNL d   1      -0.247  -0.904   1.781  0.00  0.00     0.054 C 
ATOM      9  C   UNL d   1      -0.896  -2.014   0.968  0.00  0.00     0.018 C 
ENDBRANCH   1   8
TORSDOF 1
ENDMDL
