MODEL 1
REMARK minimizedAffinity 7.1901269
REMARK minimizedRMSD -1
REMARK  1 active torsions:
REMARK  status: ('A' for Active; 'I' for Inactive)
REMARK    1  A    between atoms: C1_2  and  C2_3 
ROOT
ATOM      1  C2  UNL d   1      -2.340  -3.187  -0.596  0.00  0.00    -0.081 A 
ATOM      2  C3  UNL d   1      -1.357  -2.929   0.367  0.00  0.00     0.006 A 
ATOM      3  C4  UNL d   1      -1.136  -3.829   1.412  0.00  0.00     0.002 A 
ATOM      4  C5  UNL d   1      -1.888  -5.005   1.507  0.00  0.00    -0.080 A 
ATOM      5  C6  UNL d   1      -1.641  -5.995   2.606  0.00  0.00     0.076 C 
ATOM      6  C7  UNL d   1      -2.882  -5.254   0.554  0.00  0.00     0.002 A 
ATOM      7  C8  UNL d   1      -3.104  -4.354  -0.491  0.00  0.00     0.006 A 
ENDROOT
BRANCH   1   8
ATOM      8  C1  UNL d   1      -2.536  -2.250  -1.761  0.00  0.00     0.054 C 
ATOM      9  C   UNL d   1      -3.003  -2.998  -3.001  0.00  0.00     0.018 C 
ENDBRANCH   1   8
TORSDOF 1
ENDMDL
