MODEL 1
REMARK minimizedAffinity 10.6942186
REMARK minimizedRMSD -1
REMARK  0 active torsions:
REMARK  status: ('A' for Active; 'I' for Inactive)
ROOT
ATOM      1  O1  BZF d   1       0.637  -0.120   1.274  0.00  0.00    -0.204 OA
ATOM      2  C2  BZF d   1       1.184  -0.194   0.008  0.00  0.00     0.174 A 
ATOM      3  C3  BZF d   1       0.216  -0.209  -0.931  0.00  0.00    -0.012 A 
ATOM      4  C3A BZF d   1      -1.009  -0.047  -0.211  0.00  0.00    -0.107 A 
ATOM      5  C4  BZF d   1      -2.319   0.032  -0.591  0.00  0.00     0.055 A 
ATOM      6  C5  BZF d   1      -3.280   0.117   0.365  0.00  0.00    -0.016 A 
ATOM      7  C6  BZF d   1      -2.970   0.119   1.709  0.00  0.00     0.022 A 
ATOM      8  C7  BZF d   1      -1.685   0.048   2.135  0.00  0.00     0.029 A 
ATOM      9  C7A BZF d   1      -0.709  -0.004   1.170  0.00  0.00     0.058 A 
ENDROOT
TORSDOF 0
ENDMDL
