MODEL 1
REMARK minimizedAffinity 5.4954114
REMARK minimizedRMSD -1
REMARK  0 active torsions:
REMARK  status: ('A' for Active; 'I' for Inactive)
ROOT
ATOM      1  O1  BZF d   1       1.079  -0.944   2.949  0.00  0.00    -0.204 OA
ATOM      2  C2  BZF d   1       0.699  -1.192   4.253  0.00  0.00     0.174 A 
ATOM      3  C3  BZF d   1      -0.603  -0.893   4.437  0.00  0.00    -0.012 A 
ATOM      4  C3A BZF d   1      -1.089  -0.516   3.145  0.00  0.00    -0.107 A 
ATOM      5  C4  BZF d   1      -2.312  -0.126   2.679  0.00  0.00     0.055 A 
ATOM      6  C5  BZF d   1      -2.435   0.244   1.377  0.00  0.00    -0.016 A 
ATOM      7  C6  BZF d   1      -1.357   0.240   0.516  0.00  0.00     0.022 A 
ATOM      8  C7  BZF d   1      -0.126  -0.145   0.931  0.00  0.00     0.029 A 
ATOM      9  C7A BZF d   1      -0.005  -0.550   2.238  0.00  0.00     0.058 A 
ENDROOT
TORSDOF 0
ENDMDL
