MODEL 1
REMARK minimizedAffinity 8.81967831
REMARK minimizedRMSD -1
REMARK  0 active torsions:
REMARK  status: ('A' for Active; 'I' for Inactive)
ROOT
ATOM      1  O1  BZF d   1      -3.053  -0.057   2.314  0.00  0.00    -0.204 OA
ATOM      2  C2  BZF d   1      -3.268   0.420   1.035  0.00  0.00     0.174 A 
ATOM      3  C3  BZF d   1      -2.104   0.517   0.360  0.00  0.00    -0.012 A 
ATOM      4  C3A BZF d   1      -1.111  -0.014   1.243  0.00  0.00    -0.107 A 
ATOM      5  C4  BZF d   1       0.237  -0.201   1.135  0.00  0.00     0.055 A 
ATOM      6  C5  BZF d   1       0.926  -0.675   2.206  0.00  0.00    -0.016 A 
ATOM      7  C6  BZF d   1       0.300  -0.967   3.400  0.00  0.00     0.022 A 
ATOM      8  C7  BZF d   1      -1.036  -0.802   3.554  0.00  0.00     0.029 A 
ATOM      9  C7A BZF d   1      -1.740  -0.354   2.463  0.00  0.00     0.058 A 
ENDROOT
TORSDOF 0
ENDMDL
