MODEL 1
REMARK minimizedAffinity 6.90767479
REMARK minimizedRMSD -1
REMARK  0 active torsions:
REMARK  status: ('A' for Active; 'I' for Inactive)
ROOT
ATOM      1  O1  BZF d   1       0.584  -0.451   1.802  0.00  0.00    -0.204 OA
ATOM      2  C2  BZF d   1       1.353  -0.609   0.665  0.00  0.00     0.174 A 
ATOM      3  C3  BZF d   1       0.581  -0.589  -0.441  0.00  0.00    -0.012 A 
ATOM      4  C3A BZF d   1      -0.742  -0.315   0.028  0.00  0.00    -0.107 A 
ATOM      5  C4  BZF d   1      -1.946  -0.157  -0.597  0.00  0.00     0.055 A 
ATOM      6  C5  BZF d   1      -3.062   0.030   0.156  0.00  0.00    -0.016 A 
ATOM      7  C6  BZF d   1      -3.011   0.059   1.534  0.00  0.00     0.022 A 
ATOM      8  C7  BZF d   1      -1.839  -0.088   2.199  0.00  0.00     0.029 A 
ATOM      9  C7A BZF d   1      -0.705  -0.244   1.440  0.00  0.00     0.058 A 
ENDROOT
TORSDOF 0
ENDMDL
