MODEL 1
REMARK minimizedAffinity 9.36598206
REMARK minimizedRMSD -1
REMARK  0 active torsions:
REMARK  status: ('A' for Active; 'I' for Inactive)
ROOT
ATOM      1  O1  BZF d   1       0.971  -0.967   2.531  0.00  0.00    -0.204 OA
ATOM      2  C2  BZF d   1       0.858  -1.623   3.741  0.00  0.00     0.174 A 
ATOM      3  C3  BZF d   1      -0.398  -1.524   4.223  0.00  0.00    -0.012 A 
ATOM      4  C3A BZF d   1      -1.137  -0.836   3.209  0.00  0.00    -0.107 A 
ATOM      5  C4  BZF d   1      -2.442  -0.452   3.097  0.00  0.00     0.055 A 
ATOM      6  C5  BZF d   1      -2.828   0.268   2.011  0.00  0.00    -0.016 A 
ATOM      7  C6  BZF d   1      -1.935   0.625   1.022  0.00  0.00     0.022 A 
ATOM      8  C7  BZF d   1      -0.630   0.263   1.087  0.00  0.00     0.029 A 
ATOM      9  C7A BZF d   1      -0.245  -0.493   2.167  0.00  0.00     0.058 A 
ENDROOT
TORSDOF 0
ENDMDL
