MODEL 1
REMARK minimizedAffinity 10.6378422
REMARK minimizedRMSD -1
REMARK  0 active torsions:
REMARK  status: ('A' for Active; 'I' for Inactive)
ROOT
ATOM      1  O1  BZF d   1      -2.505   0.037   2.798  0.00  0.00    -0.204 OA
ATOM      2  C2  BZF d   1      -2.997   0.461   1.579  0.00  0.00     0.174 A 
ATOM      3  C3  BZF d   1      -2.002   0.579   0.677  0.00  0.00    -0.012 A 
ATOM      4  C3A BZF d   1      -0.827   0.117   1.349  0.00  0.00    -0.107 A 
ATOM      5  C4  BZF d   1       0.478  -0.023   0.971  0.00  0.00     0.055 A 
ATOM      6  C5  BZF d   1       1.391  -0.434   1.889  0.00  0.00    -0.016 A 
ATOM      7  C6  BZF d   1       1.037  -0.708   3.194  0.00  0.00     0.022 A 
ATOM      8  C7  BZF d   1      -0.246  -0.589   3.615  0.00  0.00     0.029 A 
ATOM      9  C7A BZF d   1      -1.177  -0.206   2.681  0.00  0.00     0.058 A 
ENDROOT
TORSDOF 0
ENDMDL
