MODEL 1
REMARK minimizedAffinity 2.73097992
REMARK minimizedRMSD -1
REMARK  0 active torsions:
REMARK  status: ('A' for Active; 'I' for Inactive)
ROOT
ATOM      1  O1  BZF d   1      -0.526   0.670   2.127  0.00  0.00    -0.204 OA
ATOM      2  C2  BZF d   1      -1.472   1.120   1.226  0.00  0.00     0.174 A 
ATOM      3  C3  BZF d   1      -2.693   0.639   1.535  0.00  0.00    -0.012 A 
ATOM      4  C3A BZF d   1      -2.515  -0.086   2.755  0.00  0.00    -0.107 A 
ATOM      5  C4  BZF d   1      -3.366  -0.778   3.569  0.00  0.00     0.055 A 
ATOM      6  C5  BZF d   1      -2.861  -1.434   4.647  0.00  0.00    -0.016 A 
ATOM      7  C6  BZF d   1      -1.513  -1.422   4.939  0.00  0.00     0.022 A 
ATOM      8  C7  BZF d   1      -0.631  -0.744   4.164  0.00  0.00     0.029 A 
ATOM      9  C7A BZF d   1      -1.142  -0.054   3.092  0.00  0.00     0.058 A 
ENDROOT
TORSDOF 0
ENDMDL
