MODEL 1
REMARK minimizedAffinity 8.56281853
REMARK minimizedRMSD -1
REMARK  0 active torsions:
REMARK  status: ('A' for Active; 'I' for Inactive)
ROOT
ATOM      1  O1  BZF d   1      -0.123  -1.632   5.085  0.00  0.00    -0.204 OA
ATOM      2  C2  BZF d   1      -0.497  -2.599   5.998  0.00  0.00     0.174 A 
ATOM      3  C3  BZF d   1      -1.831  -2.790   5.974  0.00  0.00    -0.012 A 
ATOM      4  C3A BZF d   1      -2.312  -1.951   4.919  0.00  0.00    -0.107 A 
ATOM      5  C4  BZF d   1      -3.553  -1.716   4.398  0.00  0.00     0.055 A 
ATOM      6  C5  BZF d   1      -3.692  -0.784   3.419  0.00  0.00    -0.016 A 
ATOM      7  C6  BZF d   1      -2.615  -0.065   2.943  0.00  0.00     0.022 A 
ATOM      8  C7  BZF d   1      -1.365  -0.267   3.425  0.00  0.00     0.029 A 
ATOM      9  C7A BZF d   1      -1.216  -1.232   4.391  0.00  0.00     0.058 A 
ENDROOT
TORSDOF 0
ENDMDL
