MODEL 1
REMARK minimizedAffinity 1.25298691
REMARK minimizedRMSD -1
REMARK  0 active torsions:
REMARK  status: ('A' for Active; 'I' for Inactive)
ROOT
ATOM      1  C   UNL d   1      -4.536   1.917   1.147  0.00  0.00     0.172 C 
ATOM      2  N   UNL d   1      -4.916   0.898   2.097  0.00  0.00    -0.070 N 
ATOM      3  C1  UNL d   1      -4.331  -0.333   2.223  0.00  0.00    -0.004 A 
ATOM      4  C2  UNL d   1      -4.977  -1.006   3.237  0.00  0.00    -0.047 A 
ATOM      5  C3  UNL d   1      -5.986  -0.150   3.738  0.00  0.00    -0.047 A 
ATOM      6  C4  UNL d   1      -5.926   1.022   3.014  0.00  0.00    -0.004 A 
ENDROOT
TORSDOF 0
ENDMDL
