MODEL 1
REMARK minimizedAffinity -1.21315312
REMARK minimizedRMSD -1
REMARK  0 active torsions:
REMARK  status: ('A' for Active; 'I' for Inactive)
ROOT
ATOM      1  C   UNL d   1      -5.993   0.632  -5.241  0.00  0.00     0.172 C 
ATOM      2  N   UNL d   1      -5.994   1.902  -4.554  0.00  0.00    -0.070 N 
ATOM      3  C1  UNL d   1      -5.990   3.134  -5.152  0.00  0.00    -0.004 A 
ATOM      4  C2  UNL d   1      -5.994   4.087  -4.157  0.00  0.00    -0.047 A 
ATOM      5  C3  UNL d   1      -6.000   3.404  -2.917  0.00  0.00    -0.047 A 
ATOM      6  C4  UNL d   1      -6.000   2.053  -3.192  0.00  0.00    -0.004 A 
ENDROOT
TORSDOF 0
ENDMDL
