MODEL 1
REMARK minimizedAffinity -1.68549275
REMARK minimizedRMSD -1
REMARK  0 active torsions:
REMARK  status: ('A' for Active; 'I' for Inactive)
ROOT
ATOM      1  C   UNL d   1      -5.997   1.416  -4.430  0.00  0.00     0.172 C 
ATOM      2  N   UNL d   1      -5.508   2.260  -3.364  0.00  0.00    -0.070 N 
ATOM      3  C1  UNL d   1      -4.491   3.171  -3.470  0.00  0.00    -0.004 A 
ATOM      4  C2  UNL d   1      -4.331   3.769  -2.239  0.00  0.00    -0.047 A 
ATOM      5  C3  UNL d   1      -5.285   3.197  -1.363  0.00  0.00    -0.047 A 
ATOM      6  C4  UNL d   1      -6.000   2.266  -2.086  0.00  0.00    -0.004 A 
ENDROOT
TORSDOF 0
ENDMDL
