MODEL 1
REMARK minimizedAffinity 4.88114882
REMARK minimizedRMSD -1
REMARK  0 active torsions:
REMARK  status: ('A' for Active; 'I' for Inactive)
ROOT
ATOM      1  C   UNL d   1      -2.816   4.524  -2.745  0.00  0.00     0.172 C 
ATOM      2  N   UNL d   1      -4.066   3.858  -3.026  0.00  0.00    -0.070 N 
ATOM      3  C1  UNL d   1      -4.577   3.613  -4.272  0.00  0.00    -0.004 A 
ATOM      4  C2  UNL d   1      -5.780   2.959  -4.114  0.00  0.00    -0.047 A 
ATOM      5  C3  UNL d   1      -6.000   2.807  -2.724  0.00  0.00    -0.047 A 
ATOM      6  C4  UNL d   1      -4.923   3.372  -2.074  0.00  0.00    -0.004 A 
ENDROOT
TORSDOF 0
ENDMDL
