MODEL 1
REMARK minimizedAffinity 5.87757111
REMARK minimizedRMSD -1
REMARK  0 active torsions:
REMARK  status: ('A' for Active; 'I' for Inactive)
ROOT
ATOM      1  C   UNL d   1      -1.483  -3.246  -2.896  0.00  0.00     0.172 C 
ATOM      2  N   UNL d   1      -0.500  -3.232  -1.839  0.00  0.00    -0.070 N 
ATOM      3  C1  UNL d   1       0.339  -4.265  -1.515  0.00  0.00    -0.004 A 
ATOM      4  C2  UNL d   1       1.121  -3.857  -0.456  0.00  0.00    -0.047 A 
ATOM      5  C3  UNL d   1       0.737  -2.534  -0.131  0.00  0.00    -0.047 A 
ATOM      6  C4  UNL d   1      -0.268  -2.172  -1.003  0.00  0.00    -0.004 A 
ENDROOT
TORSDOF 0
ENDMDL
