MODEL 1
REMARK minimizedAffinity 3.35605431
REMARK minimizedRMSD -1
REMARK  0 active torsions:
REMARK  status: ('A' for Active; 'I' for Inactive)
ROOT
ATOM      1  C   UNL d   1      -5.997   0.531  -5.282  0.00  0.00     0.172 C 
ATOM      2  N   UNL d   1      -5.996   1.554  -4.263  0.00  0.00    -0.070 N 
ATOM      3  C1  UNL d   1      -5.999   1.334  -2.912  0.00  0.00    -0.004 A 
ATOM      4  C2  UNL d   1      -5.996   2.561  -2.284  0.00  0.00    -0.047 A 
ATOM      5  C3  UNL d   1      -5.992   3.553  -3.294  0.00  0.00    -0.047 A 
ATOM      6  C4  UNL d   1      -5.992   2.902  -4.509  0.00  0.00    -0.004 A 
ENDROOT
TORSDOF 0
ENDMDL
