MODEL 1
REMARK minimizedAffinity -0.753389418
REMARK minimizedRMSD -1
REMARK  0 active torsions:
REMARK  status: ('A' for Active; 'I' for Inactive)
ROOT
ATOM      1  C   UNL d   1      -5.993   1.160  -5.146  0.00  0.00     0.172 C 
ATOM      2  N   UNL d   1      -5.995   2.062  -4.018  0.00  0.00    -0.070 N 
ATOM      3  C1  UNL d   1      -5.994   3.429  -4.090  0.00  0.00    -0.004 A 
ATOM      4  C2  UNL d   1      -5.998   3.920  -2.802  0.00  0.00    -0.047 A 
ATOM      5  C3  UNL d   1      -6.000   2.808  -1.926  0.00  0.00    -0.047 A 
ATOM      6  C4  UNL d   1      -5.998   1.671  -2.705  0.00  0.00    -0.004 A 
ENDROOT
TORSDOF 0
ENDMDL
