MODEL 1
REMARK minimizedAffinity 2.03898954
REMARK minimizedRMSD -1
REMARK  0 active torsions:
REMARK  status: ('A' for Active; 'I' for Inactive)
ROOT
ATOM      1  C   UNL d   1      -0.067   2.528  -0.724  0.00  0.00     0.172 C 
ATOM      2  N   UNL d   1      -0.400   3.828  -1.255  0.00  0.00    -0.070 N 
ATOM      3  C1  UNL d   1       0.335   4.972  -1.087  0.00  0.00    -0.004 A 
ATOM      4  C2  UNL d   1      -0.316   5.992  -1.746  0.00  0.00    -0.047 A 
ATOM      5  C3  UNL d   1      -1.482   5.444  -2.329  0.00  0.00    -0.047 A 
ATOM      6  C4  UNL d   1      -1.510   4.103  -2.010  0.00  0.00    -0.004 A 
ENDROOT
TORSDOF 0
ENDMDL
