MODEL 1
REMARK minimizedAffinity -2.8856504
REMARK minimizedRMSD -1
REMARK  0 active torsions:
REMARK  status: ('A' for Active; 'I' for Inactive)
ROOT
ATOM      1  C   UNL d   1      -5.996   4.122  -5.470  0.00  0.00     0.172 C 
ATOM      2  N   UNL d   1      -5.997   3.955  -4.035  0.00  0.00    -0.070 N 
ATOM      3  C1  UNL d   1      -5.996   2.758  -3.371  0.00  0.00    -0.004 A 
ATOM      4  C2  UNL d   1      -5.997   3.026  -2.019  0.00  0.00    -0.047 A 
ATOM      5  C3  UNL d   1      -6.000   4.433  -1.866  0.00  0.00    -0.047 A 
ATOM      6  C4  UNL d   1      -6.000   4.983  -3.130  0.00  0.00    -0.004 A 
ENDROOT
TORSDOF 0
ENDMDL
