MODEL 1
REMARK minimizedAffinity -3.76621795
REMARK minimizedRMSD -1
REMARK  0 active torsions:
REMARK  status: ('A' for Active; 'I' for Inactive)
ROOT
ATOM      1  O1  BZF d   1       0.432   0.768  -0.294  0.00  0.00    -0.204 OA
ATOM      2  C2  BZF d   1       0.068  -0.539  -0.037  0.00  0.00     0.174 A 
ATOM      3  C3  BZF d   1      -0.923  -0.590   0.876  0.00  0.00    -0.012 A 
ATOM      4  C3A BZF d   1      -1.259   0.775   1.142  0.00  0.00    -0.107 A 
ATOM      5  C4  BZF d   1      -2.182   1.375   1.952  0.00  0.00     0.055 A 
ATOM      6  C5  BZF d   1      -2.204   2.731   2.037  0.00  0.00    -0.016 A 
ATOM      7  C6  BZF d   1      -1.316   3.517   1.332  0.00  0.00     0.022 A 
ATOM      8  C7  BZF d   1      -0.386   2.968   0.512  0.00  0.00     0.029 A 
ATOM      9  C7A BZF d   1      -0.383   1.600   0.399  0.00  0.00     0.058 A 
ENDROOT
TORSDOF 0
ENDMDL
