MODEL 1
REMARK minimizedAffinity -3.97219467
REMARK minimizedRMSD -1
REMARK  0 active torsions:
REMARK  status: ('A' for Active; 'I' for Inactive)
ROOT
ATOM      1  O1  BZF d   1       1.221  -1.305   0.375  0.00  0.00    -0.204 OA
ATOM      2  C2  BZF d   1       1.691  -0.785  -0.816  0.00  0.00     0.174 A 
ATOM      3  C3  BZF d   1       1.067   0.374  -1.110  0.00  0.00    -0.012 A 
ATOM      4  C3A BZF d   1       0.217   0.639   0.010  0.00  0.00    -0.107 A 
ATOM      5  C4  BZF d   1      -0.645   1.653   0.315  0.00  0.00     0.055 A 
ATOM      6  C5  BZF d   1      -1.380   1.575   1.456  0.00  0.00    -0.016 A 
ATOM      7  C6  BZF d   1      -1.282   0.496   2.310  0.00  0.00     0.022 A 
ATOM      8  C7  BZF d   1      -0.437  -0.532   2.052  0.00  0.00     0.029 A 
ATOM      9  C7A BZF d   1       0.331  -0.440   0.917  0.00  0.00     0.058 A 
ENDROOT
TORSDOF 0
ENDMDL
