MODEL 1
REMARK minimizedAffinity -3.21000838
REMARK minimizedRMSD -1
REMARK  0 active torsions:
REMARK  status: ('A' for Active; 'I' for Inactive)
ROOT
ATOM      1  O1  BZF d   1       0.828   0.088  -0.639  0.00  0.00    -0.204 OA
ATOM      2  C2  BZF d   1       0.647  -1.048   0.125  0.00  0.00     0.174 A 
ATOM      3  C3  BZF d   1      -0.093  -0.776   1.219  0.00  0.00    -0.012 A 
ATOM      4  C3A BZF d   1      -0.471   0.598   1.085  0.00  0.00    -0.107 A 
ATOM      5  C4  BZF d   1      -1.224   1.443   1.849  0.00  0.00     0.055 A 
ATOM      6  C5  BZF d   1      -1.339   2.745   1.476  0.00  0.00    -0.016 A 
ATOM      7  C6  BZF d   1      -0.712   3.236   0.350  0.00  0.00     0.022 A 
ATOM      8  C7  BZF d   1       0.041   2.434  -0.442  0.00  0.00     0.029 A 
ATOM      9  C7A BZF d   1       0.133   1.111  -0.086  0.00  0.00     0.058 A 
ENDROOT
TORSDOF 0
ENDMDL
