MODEL 1
REMARK minimizedAffinity 2.32450128
REMARK minimizedRMSD -1
REMARK  0 active torsions:
REMARK  status: ('A' for Active; 'I' for Inactive)
ROOT
ATOM      1  O1  BZF d   1       0.230   0.066  -0.954  0.00  0.00    -0.204 OA
ATOM      2  C2  BZF d   1       0.275  -0.087   0.419  0.00  0.00     0.174 A 
ATOM      3  C3  BZF d   1       0.601  -1.353   0.748  0.00  0.00    -0.012 A 
ATOM      4  C3A BZF d   1       0.860  -2.011  -0.496  0.00  0.00    -0.107 A 
ATOM      5  C4  BZF d   1       1.243  -3.280  -0.825  0.00  0.00     0.055 A 
ATOM      6  C5  BZF d   1       1.338  -3.622  -2.137  0.00  0.00    -0.016 A 
ATOM      7  C6  BZF d   1       1.051  -2.724  -3.144  0.00  0.00     0.022 A 
ATOM      8  C7  BZF d   1       0.672  -1.453  -2.866  0.00  0.00     0.029 A 
ATOM      9  C7A BZF d   1       0.608  -1.094  -1.542  0.00  0.00     0.058 A 
ENDROOT
TORSDOF 0
ENDMDL
