MODEL 1
REMARK minimizedAffinity 1.33746612
REMARK minimizedRMSD -1
REMARK  0 active torsions:
REMARK  status: ('A' for Active; 'I' for Inactive)
ROOT
ATOM      1  O1  BZF d   1      -0.100  -4.556  -2.540  0.00  0.00    -0.204 OA
ATOM      2  C2  BZF d   1       0.029  -3.262  -3.006  0.00  0.00     0.174 A 
ATOM      3  C3  BZF d   1       1.142  -2.684  -2.510  0.00  0.00    -0.012 A 
ATOM      4  C3A BZF d   1       1.795  -3.709  -1.755  0.00  0.00    -0.107 A 
ATOM      5  C4  BZF d   1       2.955  -3.752  -1.036  0.00  0.00     0.055 A 
ATOM      6  C5  BZF d   1       3.270  -4.886  -0.357  0.00  0.00    -0.016 A 
ATOM      7  C6  BZF d   1       2.446  -5.993  -0.371  0.00  0.00     0.022 A 
ATOM      8  C7  BZF d   1       1.288  -6.000  -1.074  0.00  0.00     0.029 A 
ATOM      9  C7A BZF d   1       0.983  -4.867  -1.788  0.00  0.00     0.058 A 
ENDROOT
TORSDOF 0
ENDMDL
