MODEL 1
REMARK minimizedAffinity -4.82974386
REMARK minimizedRMSD -1
REMARK  0 active torsions:
REMARK  status: ('A' for Active; 'I' for Inactive)
ROOT
ATOM      1  O1  BZF d   1       0.470   1.539  -1.317  0.00  0.00    -0.204 OA
ATOM      2  C2  BZF d   1       1.363   0.485  -1.334  0.00  0.00     0.174 A 
ATOM      3  C3  BZF d   1       1.205  -0.293  -0.244  0.00  0.00    -0.012 A 
ATOM      4  C3A BZF d   1       0.085   0.260   0.454  0.00  0.00    -0.107 A 
ATOM      5  C4  BZF d   1      -0.568  -0.084   1.603  0.00  0.00     0.055 A 
ATOM      6  C5  BZF d   1      -1.579   0.707   2.050  0.00  0.00    -0.016 A 
ATOM      7  C6  BZF d   1      -1.959   1.849   1.377  0.00  0.00     0.022 A 
ATOM      8  C7  BZF d   1      -1.345   2.228   0.230  0.00  0.00     0.029 A 
ATOM      9  C7A BZF d   1      -0.345   1.413  -0.242  0.00  0.00     0.058 A 
ENDROOT
TORSDOF 0
ENDMDL
