MODEL 1
REMARK minimizedAffinity -4.95111275
REMARK minimizedRMSD -1
REMARK  0 active torsions:
REMARK  status: ('A' for Active; 'I' for Inactive)
ROOT
ATOM      1  O1  BZF d   1       0.511   1.626  -1.416  0.00  0.00    -0.204 OA
ATOM      2  C2  BZF d   1       1.450   0.619  -1.531  0.00  0.00     0.174 A 
ATOM      3  C3  BZF d   1       1.284  -0.303  -0.561  0.00  0.00    -0.012 A 
ATOM      4  C3A BZF d   1       0.115   0.108   0.154  0.00  0.00    -0.107 A 
ATOM      5  C4  BZF d   1      -0.566  -0.411   1.218  0.00  0.00     0.055 A 
ATOM      6  C5  BZF d   1      -1.627   0.273   1.720  0.00  0.00    -0.016 A 
ATOM      7  C6  BZF d   1      -2.032   1.480   1.187  0.00  0.00     0.022 A 
ATOM      8  C7  BZF d   1      -1.391   2.032   0.127  0.00  0.00     0.029 A 
ATOM      9  C7A BZF d   1      -0.338   1.326  -0.403  0.00  0.00     0.058 A 
ENDROOT
TORSDOF 0
ENDMDL
