MODEL 1
REMARK minimizedAffinity -3.33583236
REMARK minimizedRMSD -1
REMARK  0 active torsions:
REMARK  status: ('A' for Active; 'I' for Inactive)
ROOT
ATOM      1  O1  BZF d   1      -1.693   2.415   0.022  0.00  0.00    -0.204 OA
ATOM      2  C2  BZF d   1      -2.304   2.219   1.246  0.00  0.00     0.174 A 
ATOM      3  C3  BZF d   1      -1.828   1.110   1.847  0.00  0.00    -0.012 A 
ATOM      4  C3A BZF d   1      -0.792   0.630   0.984  0.00  0.00    -0.107 A 
ATOM      5  C4  BZF d   1       0.065  -0.432   1.046  0.00  0.00     0.055 A 
ATOM      6  C5  BZF d   1       0.906  -0.663   0.005  0.00  0.00    -0.016 A 
ATOM      7  C6  BZF d   1       0.914   0.142  -1.115  0.00  0.00     0.022 A 
ATOM      8  C7  BZF d   1       0.087   1.210  -1.220  0.00  0.00     0.029 A 
ATOM      9  C7A BZF d   1      -0.742   1.466  -0.155  0.00  0.00     0.058 A 
ENDROOT
TORSDOF 0
ENDMDL
