MODEL 1
REMARK minimizedAffinity -3.83082557
REMARK minimizedRMSD -1
REMARK  0 active torsions:
REMARK  status: ('A' for Active; 'I' for Inactive)
ROOT
ATOM      1  O1  BZF d   1       0.403  -1.061   0.262  0.00  0.00    -0.204 OA
ATOM      2  C2  BZF d   1       0.831  -0.769  -1.019  0.00  0.00     0.174 A 
ATOM      3  C3  BZF d   1       0.263   0.370  -1.465  0.00  0.00    -0.012 A 
ATOM      4  C3A BZF d   1      -0.500   0.867  -0.361  0.00  0.00    -0.107 A 
ATOM      5  C4  BZF d   1      -1.278   1.975  -0.181  0.00  0.00     0.055 A 
ATOM      6  C5  BZF d   1      -1.945   2.129   0.993  0.00  0.00    -0.016 A 
ATOM      7  C6  BZF d   1      -1.862   1.194   2.004  0.00  0.00     0.022 A 
ATOM      8  C7  BZF d   1      -1.100   0.082   1.873  0.00  0.00     0.029 A 
ATOM      9  C7A BZF d   1      -0.398  -0.061   0.701  0.00  0.00     0.058 A 
ENDROOT
TORSDOF 0
ENDMDL
