MODEL 1
REMARK minimizedAffinity -5.60560846
REMARK minimizedRMSD -1
REMARK  0 active torsions:
REMARK  status: ('A' for Active; 'I' for Inactive)
ROOT
ATOM      1  O1  BZF d   1      -1.545   2.455   0.399  0.00  0.00    -0.204 OA
ATOM      2  C2  BZF d   1      -2.036   2.386   1.688  0.00  0.00     0.174 A 
ATOM      3  C3  BZF d   1      -1.662   1.235   2.282  0.00  0.00    -0.012 A 
ATOM      4  C3A BZF d   1      -0.813   0.581   1.335  0.00  0.00    -0.107 A 
ATOM      5  C4  BZF d   1      -0.119  -0.595   1.350  0.00  0.00     0.055 A 
ATOM      6  C5  BZF d   1       0.557  -0.978   0.235  0.00  0.00    -0.016 A 
ATOM      7  C6  BZF d   1       0.556  -0.213  -0.913  0.00  0.00     0.022 A 
ATOM      8  C7  BZF d   1      -0.113   0.964  -0.974  0.00  0.00     0.029 A 
ATOM      9  C7A BZF d   1      -0.770   1.370   0.162  0.00  0.00     0.058 A 
ENDROOT
TORSDOF 0
ENDMDL
