MODEL 1
REMARK minimizedAffinity -3.82407737
REMARK minimizedRMSD -1
REMARK  0 active torsions:
REMARK  status: ('A' for Active; 'I' for Inactive)
ROOT
ATOM      1  O1  BZF d   1      -0.701  -2.982  -2.392  0.00  0.00    -0.204 OA
ATOM      2  C2  BZF d   1       0.109  -3.620  -3.312  0.00  0.00     0.174 A 
ATOM      3  C3  BZF d   1       1.300  -2.995  -3.415  0.00  0.00    -0.012 A 
ATOM      4  C3A BZF d   1       1.264  -1.952  -2.436  0.00  0.00    -0.107 A 
ATOM      5  C4  BZF d   1       2.160  -0.998  -2.047  0.00  0.00     0.055 A 
ATOM      6  C5  BZF d   1       1.788  -0.085  -1.112  0.00  0.00    -0.016 A 
ATOM      7  C6  BZF d   1       0.528  -0.093  -0.550  0.00  0.00     0.022 A 
ATOM      8  C7  BZF d   1      -0.393  -1.023  -0.900  0.00  0.00     0.029 A 
ATOM      9  C7A BZF d   1      -0.009  -1.967  -1.820  0.00  0.00     0.058 A 
ENDROOT
TORSDOF 0
ENDMDL
