MODEL 1
REMARK minimizedAffinity -2.83785725
REMARK minimizedRMSD -1
REMARK  0 active torsions:
REMARK  status: ('A' for Active; 'I' for Inactive)
ROOT
ATOM      1  O1  BZF d   1      -1.150   1.672   2.527  0.00  0.00    -0.204 OA
ATOM      2  C2  BZF d   1      -1.722   2.659   1.748  0.00  0.00     0.174 A 
ATOM      3  C3  BZF d   1      -1.472   2.441   0.441  0.00  0.00    -0.012 A 
ATOM      4  C3A BZF d   1      -0.773   1.194   0.394  0.00  0.00    -0.107 A 
ATOM      5  C4  BZF d   1      -0.268   0.438  -0.626  0.00  0.00     0.055 A 
ATOM      6  C5  BZF d   1       0.423  -0.693  -0.329  0.00  0.00    -0.016 A 
ATOM      7  C6  BZF d   1       0.633  -1.096   0.973  0.00  0.00     0.022 A 
ATOM      8  C7  BZF d   1       0.148  -0.382   2.018  0.00  0.00     0.029 A 
ATOM      9  C7A BZF d   1      -0.580   0.745   1.721  0.00  0.00     0.058 A 
ENDROOT
TORSDOF 0
ENDMDL
