MODEL 1
REMARK minimizedAffinity -3.71996641
REMARK minimizedRMSD -1
REMARK  0 active torsions:
REMARK  status: ('A' for Active; 'I' for Inactive)
ROOT
ATOM      1  O1  BZF d   1       0.035  -0.091  -1.299  0.00  0.00    -0.204 OA
ATOM      2  C2  BZF d   1       0.951  -1.070  -0.964  0.00  0.00     0.174 A 
ATOM      3  C3  BZF d   1       1.058  -1.187   0.375  0.00  0.00    -0.012 A 
ATOM      4  C3A BZF d   1       0.085  -0.285   0.911  0.00  0.00    -0.107 A 
ATOM      5  C4  BZF d   1      -0.298   0.037   2.182  0.00  0.00     0.055 A 
ATOM      6  C5  BZF d   1      -1.227   1.011   2.365  0.00  0.00    -0.016 A 
ATOM      7  C6  BZF d   1      -1.789   1.688   1.302  0.00  0.00     0.022 A 
ATOM      8  C7  BZF d   1      -1.445   1.400   0.023  0.00  0.00     0.029 A 
ATOM      9  C7A BZF d   1      -0.530   0.393  -0.167  0.00  0.00     0.058 A 
ENDROOT
TORSDOF 0
ENDMDL
