MODEL 1
REMARK minimizedAffinity -6.2150588
REMARK minimizedRMSD -1
REMARK  0 active torsions:
REMARK  status: ('A' for Active; 'I' for Inactive)
ROOT
ATOM      1  O1  BZF d   1       0.597   0.401  -1.031  0.00  0.00    -0.204 OA
ATOM      2  C2  BZF d   1       0.294  -0.723  -0.287  0.00  0.00     0.174 A 
ATOM      3  C3  BZF d   1      -0.560  -0.420   0.712  0.00  0.00    -0.012 A 
ATOM      4  C3A BZF d   1      -0.878   0.963   0.529  0.00  0.00    -0.107 A 
ATOM      5  C4  BZF d   1      -1.689   1.836   1.196  0.00  0.00     0.055 A 
ATOM      6  C5  BZF d   1      -1.722   3.137   0.805  0.00  0.00    -0.016 A 
ATOM      7  C6  BZF d   1      -0.953   3.600  -0.243  0.00  0.00     0.022 A 
ATOM      8  C7  BZF d   1      -0.138   2.771  -0.938  0.00  0.00     0.029 A 
ATOM      9  C7A BZF d   1      -0.128   1.448  -0.567  0.00  0.00     0.058 A 
ENDROOT
TORSDOF 0
ENDMDL
