MODEL 1
REMARK minimizedAffinity -2.59244323
REMARK minimizedRMSD -1
REMARK  0 active torsions:
REMARK  status: ('A' for Active; 'I' for Inactive)
ROOT
ATOM      1  O1  BZF d   1       2.924  -4.458  -0.327  0.00  0.00    -0.204 OA
ATOM      2  C2  BZF d   1       2.564  -5.792  -0.318  0.00  0.00     0.174 A 
ATOM      3  C3  BZF d   1       1.478  -6.000  -1.090  0.00  0.00    -0.012 A 
ATOM      4  C3A BZF d   1       1.193  -4.731  -1.687  0.00  0.00    -0.107 A 
ATOM      5  C4  BZF d   1       0.240  -4.301  -2.566  0.00  0.00     0.055 A 
ATOM      6  C5  BZF d   1       0.192  -2.983  -2.894  0.00  0.00    -0.016 A 
ATOM      7  C6  BZF d   1       1.076  -2.068  -2.359  0.00  0.00     0.022 A 
ATOM      8  C7  BZF d   1       2.041  -2.449  -1.487  0.00  0.00     0.029 A 
ATOM      9  C7A BZF d   1       2.113  -3.786  -1.179  0.00  0.00     0.058 A 
ENDROOT
TORSDOF 0
ENDMDL
