MODEL 1
REMARK minimizedAffinity -6.07632256
REMARK minimizedRMSD -1
REMARK  0 active torsions:
REMARK  status: ('A' for Active; 'I' for Inactive)
ROOT
ATOM      1  O1  BZF d   1       1.141   0.866  -0.794  0.00  0.00    -0.204 OA
ATOM      2  C2  BZF d   1       1.079  -0.347  -0.136  0.00  0.00     0.174 A 
ATOM      3  C3  BZF d   1       0.189  -0.297   0.876  0.00  0.00    -0.012 A 
ATOM      4  C3A BZF d   1      -0.406   1.001   0.791  0.00  0.00    -0.107 A 
ATOM      5  C4  BZF d   1      -1.372   1.641   1.513  0.00  0.00     0.055 A 
ATOM      6  C5  BZF d   1      -1.671   2.933   1.218  0.00  0.00    -0.016 A 
ATOM      7  C6  BZF d   1      -1.021   3.617   0.211  0.00  0.00     0.022 A 
ATOM      8  C7  BZF d   1      -0.058   3.023  -0.536  0.00  0.00     0.029 A 
ATOM      9  C7A BZF d   1       0.223   1.707  -0.261  0.00  0.00     0.058 A 
ENDROOT
TORSDOF 0
ENDMDL
