MODEL 1
REMARK minimizedAffinity -3.42511916
REMARK minimizedRMSD -1
REMARK  0 active torsions:
REMARK  status: ('A' for Active; 'I' for Inactive)
ROOT
ATOM      1  O1  BZF d   1       0.873  -6.000  -0.753  0.00  0.00    -0.204 OA
ATOM      2  C2  BZF d   1       2.042  -5.984  -0.017  0.00  0.00     0.174 A 
ATOM      3  C3  BZF d   1       2.703  -4.822  -0.195  0.00  0.00    -0.012 A 
ATOM      4  C3A BZF d   1       1.852  -4.027  -1.026  0.00  0.00    -0.107 A 
ATOM      5  C4  BZF d   1       1.951  -2.765  -1.538  0.00  0.00     0.055 A 
ATOM      6  C5  BZF d   1       0.979  -2.313  -2.373  0.00  0.00    -0.016 A 
ATOM      7  C6  BZF d   1      -0.101  -3.096  -2.722  0.00  0.00     0.022 A 
ATOM      8  C7  BZF d   1      -0.246  -4.353  -2.235  0.00  0.00     0.029 A 
ATOM      9  C7A BZF d   1       0.717  -4.801  -1.365  0.00  0.00     0.058 A 
ENDROOT
TORSDOF 0
ENDMDL
