MODEL 1
REMARK minimizedAffinity 6.4207263
REMARK minimizedRMSD -1
REMARK  2 active torsions:
REMARK  status: ('A' for Active; 'I' for Inactive)
REMARK    1  A    between atoms: C2'_3  and  C1'_4 
REMARK    2  A    between atoms: C1'_4  and  C1_5 
ROOT
ATOM      1  C1  I4B d   1      -0.327   0.081   0.821  0.00  0.00    -0.075 A 
ATOM      2  C2  I4B d   1       0.309   0.967   1.654  0.00  0.00     0.003 A 
ATOM      3  C3  I4B d   1       1.475   0.575   2.356  0.00  0.00     0.002 A 
ATOM      4  C4  I4B d   1       1.937  -0.720   2.235  0.00  0.00    -0.004 A 
ATOM      5  C5  I4B d   1       1.304  -1.610   1.373  0.00  0.00     0.002 A 
ATOM      6  C6  I4B d   1       0.172  -1.204   0.652  0.00  0.00     0.003 A 
ENDROOT
BRANCH   1   7
ATOM      7  C1' I4B d   1      -1.575   0.519   0.121  0.00  0.00     0.060 C 
BRANCH   7   8
ATOM      8  C2' I4B d   1      -1.245   0.707  -1.345  0.00  0.00    -0.013 C 
ATOM      9  C4' I4B d   1      -2.263   0.029  -2.225  0.00  0.00     0.013 C 
ATOM     10  C3' I4B d   1      -1.186   2.180  -1.621  0.00  0.00     0.013 C 
ENDBRANCH   7   8
ENDBRANCH   1   7
TORSDOF 2
ENDMDL
