MODEL 1
REMARK minimizedAffinity -1.19289887
REMARK minimizedRMSD -1
REMARK  2 active torsions:
REMARK  status: ('A' for Active; 'I' for Inactive)
REMARK    1  A    between atoms: C2'_3  and  C1'_4 
REMARK    2  A    between atoms: C1'_4  and  C1_5 
ROOT
ATOM      1  C1  I4B d   1       0.541   1.358   0.878  0.00  0.00    -0.075 A 
ATOM      2  C2  I4B d   1      -0.059   1.126   2.090  0.00  0.00     0.003 A 
ATOM      3  C3  I4B d   1       0.211  -0.067   2.803  0.00  0.00     0.002 A 
ATOM      4  C4  I4B d   1       1.043  -1.018   2.246  0.00  0.00    -0.004 A 
ATOM      5  C5  I4B d   1       1.668  -0.771   1.027  0.00  0.00     0.002 A 
ATOM      6  C6  I4B d   1       1.425   0.430   0.344  0.00  0.00     0.003 A 
ENDROOT
BRANCH   1   7
ATOM      7  C1' I4B d   1       0.207   2.614   0.137  0.00  0.00     0.060 C 
BRANCH   7   8
ATOM      8  C2' I4B d   1      -0.259   2.227  -1.252  0.00  0.00    -0.013 C 
ATOM      9  C4' I4B d   1       0.814   1.479  -1.998  0.00  0.00     0.013 C 
ATOM     10  C3' I4B d   1      -1.499   1.396  -1.110  0.00  0.00     0.013 C 
ENDBRANCH   7   8
ENDBRANCH   1   7
TORSDOF 2
ENDMDL
