MODEL 1
REMARK minimizedAffinity 4.44339514
REMARK minimizedRMSD -1
REMARK  2 active torsions:
REMARK  status: ('A' for Active; 'I' for Inactive)
REMARK    1  A    between atoms: C2'_3  and  C1'_4 
REMARK    2  A    between atoms: C1'_4  and  C1_5 
ROOT
ATOM      1  C1  I4B d   1      -0.065   1.347   1.042  0.00  0.00    -0.075 A 
ATOM      2  C2  I4B d   1      -0.600   1.469  -0.216  0.00  0.00     0.003 A 
ATOM      3  C3  I4B d   1      -0.669   0.343  -1.073  0.00  0.00     0.002 A 
ATOM      4  C4  I4B d   1      -0.150  -0.864  -0.652  0.00  0.00    -0.004 A 
ATOM      5  C5  I4B d   1       0.371  -0.991   0.633  0.00  0.00     0.002 A 
ATOM      6  C6  I4B d   1       0.402   0.119   1.490  0.00  0.00     0.003 A 
ENDROOT
BRANCH   1   7
ATOM      7  C1' I4B d   1       0.023   2.564   1.908  0.00  0.00     0.060 C 
BRANCH   7   8
ATOM      8  C2' I4B d   1       1.393   3.180   1.710  0.00  0.00    -0.013 C 
ATOM      9  C4' I4B d   1       1.332   4.353   0.767  0.00  0.00     0.013 C 
ATOM     10  C3' I4B d   1       1.914   3.592   3.054  0.00  0.00     0.013 C 
ENDBRANCH   7   8
ENDBRANCH   1   7
TORSDOF 2
ENDMDL
