MODEL 1
REMARK minimizedAffinity -0.549969137
REMARK minimizedRMSD -1
REMARK  2 active torsions:
REMARK  status: ('A' for Active; 'I' for Inactive)
REMARK    1  A    between atoms: C2'_3  and  C1'_4 
REMARK    2  A    between atoms: C1'_4  and  C1_5 
ROOT
ATOM      1  C1  I4B d   1       0.563   1.060   1.200  0.00  0.00    -0.075 A 
ATOM      2  C2  I4B d   1       0.851   2.088   2.063  0.00  0.00     0.003 A 
ATOM      3  C3  I4B d   1       0.918   3.420   1.587  0.00  0.00     0.002 A 
ATOM      4  C4  I4B d   1       0.741   3.671   0.241  0.00  0.00    -0.004 A 
ATOM      5  C5  I4B d   1       0.426   2.630  -0.627  0.00  0.00     0.002 A 
ATOM      6  C6  I4B d   1       0.324   1.318  -0.143  0.00  0.00     0.003 A 
ENDROOT
BRANCH   1   7
ATOM      7  C1' I4B d   1       0.533  -0.338   1.730  0.00  0.00     0.060 C 
BRANCH   7   8
ATOM      8  C2' I4B d   1       1.667  -0.485   2.725  0.00  0.00    -0.013 C 
ATOM      9  C4' I4B d   1       1.248  -1.313   3.911  0.00  0.00     0.013 C 
ATOM     10  C3' I4B d   1       2.830  -1.109   2.013  0.00  0.00     0.013 C 
ENDBRANCH   7   8
ENDBRANCH   1   7
TORSDOF 2
ENDMDL
