MODEL 1
REMARK minimizedAffinity -1.05208087
REMARK minimizedRMSD -1
REMARK  0 active torsions:
REMARK  status: ('A' for Active; 'I' for Inactive)
ROOT
ATOM      1  C   UNL d   1       0.869   0.669  -1.067  0.00  0.00     0.020 A 
ATOM      2  C1  UNL d   1       1.607   0.211   0.024  0.00  0.00     0.020 A 
ATOM      3  C2  UNL d   1       1.009  -0.625   0.969  0.00  0.00     0.034 A 
ATOM      4  C3  UNL d   1      -0.330  -1.006   0.825  0.00  0.00     0.017 A 
ATOM      5  C4  UNL d   1      -1.069  -0.546  -0.271  0.00  0.00     0.017 A 
ATOM      6  C5  UNL d   1      -0.466   0.291  -1.214  0.00  0.00     0.034 A 
ATOM      7 Cl   UNL d   1      -2.726  -0.974  -0.516  0.00  0.00    -0.070 Cl
ATOM      8 Cl1  UNL d   1      -1.004  -2.043   2.032  0.00  0.00    -0.070 Cl
ENDROOT
TORSDOF 0
ENDMDL
