MODEL 1
REMARK minimizedAffinity -2.1431036
REMARK minimizedRMSD -1
REMARK  0 active torsions:
REMARK  status: ('A' for Active; 'I' for Inactive)
ROOT
ATOM      1  C   UNL d   1      -2.467  -0.913  -0.452  0.00  0.00     0.020 A 
ATOM      2  C1  UNL d   1      -2.150   0.269  -1.121  0.00  0.00     0.020 A 
ATOM      3  C2  UNL d   1      -0.844   0.760  -1.090  0.00  0.00     0.034 A 
ATOM      4  C3  UNL d   1       0.152   0.070  -0.389  0.00  0.00     0.017 A 
ATOM      5  C4  UNL d   1      -0.167  -1.116   0.283  0.00  0.00     0.017 A 
ATOM      6  C5  UNL d   1      -1.477  -1.604   0.248  0.00  0.00     0.034 A 
ATOM      7 Cl   UNL d   1       1.007  -2.023   1.169  0.00  0.00    -0.070 Cl
ATOM      8 Cl1  UNL d   1       1.746   0.735  -0.393  0.00  0.00    -0.070 Cl
ENDROOT
TORSDOF 0
ENDMDL
