MODEL 1
REMARK minimizedAffinity -3.1062777
REMARK minimizedRMSD -1
REMARK  0 active torsions:
REMARK  status: ('A' for Active; 'I' for Inactive)
ROOT
ATOM      1  C   UNL d   1      -3.462  -0.689  -0.733  0.00  0.00     0.020 A 
ATOM      2  C1  UNL d   1      -3.136  -0.452   0.602  0.00  0.00     0.020 A 
ATOM      3  C2  UNL d   1      -1.835  -0.080   0.948  0.00  0.00     0.034 A 
ATOM      4  C3  UNL d   1      -0.855   0.054  -0.042  0.00  0.00     0.017 A 
ATOM      5  C4  UNL d   1      -1.183  -0.184  -1.381  0.00  0.00     0.017 A 
ATOM      6  C5  UNL d   1      -2.487  -0.555  -1.722  0.00  0.00     0.034 A 
ATOM      7 Cl   UNL d   1      -0.027  -0.038  -2.658  0.00  0.00    -0.070 Cl
ATOM      8 Cl1  UNL d   1       0.733   0.517   0.458  0.00  0.00    -0.070 Cl
ENDROOT
TORSDOF 0
ENDMDL
