MODEL 1
REMARK minimizedAffinity -4.46224117
REMARK minimizedRMSD -1
REMARK  0 active torsions:
REMARK  status: ('A' for Active; 'I' for Inactive)
ROOT
ATOM      1  C   UNL d   1      -3.312  -0.963   0.339  0.00  0.00     0.020 A 
ATOM      2  C1  UNL d   1      -3.166  -2.058   1.189  0.00  0.00     0.020 A 
ATOM      3  C2  UNL d   1      -1.891  -2.493   1.555  0.00  0.00     0.034 A 
ATOM      4  C3  UNL d   1      -0.756  -1.832   1.072  0.00  0.00     0.017 A 
ATOM      5  C4  UNL d   1      -0.903  -0.732   0.218  0.00  0.00     0.017 A 
ATOM      6  C5  UNL d   1      -2.183  -0.301  -0.145  0.00  0.00     0.034 A 
ATOM      7 Cl   UNL d   1       0.450   0.134  -0.419  0.00  0.00    -0.070 Cl
ATOM      8 Cl1  UNL d   1       0.790  -2.424   1.566  0.00  0.00    -0.070 Cl
ENDROOT
TORSDOF 0
ENDMDL
