MODEL 1
REMARK minimizedAffinity -4.7344799
REMARK minimizedRMSD -1
REMARK  0 active torsions:
REMARK  status: ('A' for Active; 'I' for Inactive)
ROOT
ATOM      1  C   UNL d   1      -2.111   0.320  -1.776  0.00  0.00     0.020 A 
ATOM      2  C1  UNL d   1      -2.902  -0.635  -1.140  0.00  0.00     0.020 A 
ATOM      3  C2  UNL d   1      -2.359  -1.428  -0.126  0.00  0.00     0.034 A 
ATOM      4  C3  UNL d   1      -1.021  -1.268   0.253  0.00  0.00     0.017 A 
ATOM      5  C4  UNL d   1      -0.228  -0.309  -0.387  0.00  0.00     0.017 A 
ATOM      6  C5  UNL d   1      -0.777   0.483  -1.401  0.00  0.00     0.034 A 
ATOM      7 Cl   UNL d   1       1.431  -0.053   0.026  0.00  0.00    -0.070 Cl
ATOM      8 Cl1  UNL d   1      -0.416  -2.283   1.514  0.00  0.00    -0.070 Cl
ENDROOT
TORSDOF 0
ENDMDL
