MODEL 1
REMARK minimizedAffinity -4.76092434
REMARK minimizedRMSD -1
REMARK  0 active torsions:
REMARK  status: ('A' for Active; 'I' for Inactive)
ROOT
ATOM      1  C   UNL d   1      -2.327  -2.364   1.135  0.00  0.00     0.020 A 
ATOM      2  C1  UNL d   1      -3.199  -2.141   0.070  0.00  0.00     0.020 A 
ATOM      3  C2  UNL d   1      -2.817  -1.307  -0.982  0.00  0.00     0.034 A 
ATOM      4  C3  UNL d   1      -1.559  -0.692  -0.972  0.00  0.00     0.017 A 
ATOM      5  C4  UNL d   1      -0.685  -0.916   0.097  0.00  0.00     0.017 A 
ATOM      6  C5  UNL d   1      -1.073  -1.753   1.148  0.00  0.00     0.034 A 
ATOM      7 Cl   UNL d   1       0.883  -0.193   0.180  0.00  0.00    -0.070 Cl
ATOM      8 Cl1  UNL d   1      -1.152   0.327  -2.307  0.00  0.00    -0.070 Cl
ENDROOT
TORSDOF 0
ENDMDL
