MODEL 1
REMARK minimizedAffinity -4.74657774
REMARK minimizedRMSD -1
REMARK  0 active torsions:
REMARK  status: ('A' for Active; 'I' for Inactive)
ROOT
ATOM      1  C   UNL d   1       0.700   0.300  -0.109  0.00  0.00     0.020 A 
ATOM      2  C1  UNL d   1      -0.257   0.614  -1.074  0.00  0.00     0.020 A 
ATOM      3  C2  UNL d   1      -1.528   0.041  -1.008  0.00  0.00     0.034 A 
ATOM      4  C3  UNL d   1      -1.847  -0.849   0.024  0.00  0.00     0.017 A 
ATOM      5  C4  UNL d   1      -0.886  -1.164   0.992  0.00  0.00     0.017 A 
ATOM      6  C5  UNL d   1       0.386  -0.587   0.921  0.00  0.00     0.034 A 
ATOM      7 Cl   UNL d   1      -1.205  -2.253   2.295  0.00  0.00    -0.070 Cl
ATOM      8 Cl1  UNL d   1      -3.439  -1.520   0.044  0.00  0.00    -0.070 Cl
ENDROOT
TORSDOF 0
ENDMDL
