MODEL 1
REMARK minimizedAffinity -4.80258751
REMARK minimizedRMSD -1
REMARK  0 active torsions:
REMARK  status: ('A' for Active; 'I' for Inactive)
ROOT
ATOM      1  C   UNL d   1      -2.229  -0.105   0.529  0.00  0.00     0.020 A 
ATOM      2  C1  UNL d   1      -2.531  -0.638  -0.723  0.00  0.00     0.020 A 
ATOM      3  C2  UNL d   1      -1.583  -0.596  -1.748  0.00  0.00     0.034 A 
ATOM      4  C3  UNL d   1      -0.328  -0.019  -1.522  0.00  0.00     0.017 A 
ATOM      5  C4  UNL d   1      -0.026   0.516  -0.264  0.00  0.00     0.017 A 
ATOM      6  C5  UNL d   1      -0.979   0.471   0.758  0.00  0.00     0.034 A 
ATOM      7 Cl   UNL d   1       1.502   1.244   0.090  0.00  0.00    -0.070 Cl
ATOM      8 Cl1  UNL d   1       0.796  -0.001  -2.834  0.00  0.00    -0.070 Cl
ENDROOT
TORSDOF 0
ENDMDL
