MODEL 1
REMARK minimizedAffinity 0.316609055
REMARK minimizedRMSD -1
REMARK  0 active torsions:
REMARK  status: ('A' for Active; 'I' for Inactive)
ROOT
ATOM      1  C   UNL d   1       0.516  -1.096   1.474  0.00  0.00     0.020 A 
ATOM      2  C1  UNL d   1       1.443  -0.233   0.892  0.00  0.00     0.020 A 
ATOM      3  C2  UNL d   1       1.139   0.412  -0.309  0.00  0.00     0.034 A 
ATOM      4  C3  UNL d   1      -0.097   0.196  -0.930  0.00  0.00     0.017 A 
ATOM      5  C4  UNL d   1      -1.027  -0.670  -0.344  0.00  0.00     0.017 A 
ATOM      6  C5  UNL d   1      -0.717  -1.313   0.858  0.00  0.00     0.034 A 
ATOM      7 Cl   UNL d   1      -2.572  -0.986  -1.051  0.00  0.00    -0.070 Cl
ATOM      8 Cl1  UNL d   1      -0.407   1.028  -2.412  0.00  0.00    -0.070 Cl
ENDROOT
TORSDOF 0
ENDMDL
