MODEL 1
REMARK minimizedAffinity -5.52828979
REMARK minimizedRMSD -1
REMARK  0 active torsions:
REMARK  status: ('A' for Active; 'I' for Inactive)
ROOT
ATOM      1  C   UNL d   1      -2.229  -0.641   0.700  0.00  0.00     0.020 A 
ATOM      2  C1  UNL d   1      -2.893  -0.315  -0.483  0.00  0.00     0.020 A 
ATOM      3  C2  UNL d   1      -2.164   0.086  -1.604  0.00  0.00     0.034 A 
ATOM      4  C3  UNL d   1      -0.768   0.163  -1.547  0.00  0.00     0.017 A 
ATOM      5  C4  UNL d   1      -0.103  -0.164  -0.359  0.00  0.00     0.017 A 
ATOM      6  C5  UNL d   1      -0.837  -0.565   0.761  0.00  0.00     0.034 A 
ATOM      7 Cl   UNL d   1       1.618  -0.093  -0.211  0.00  0.00    -0.070 Cl
ATOM      8 Cl1  UNL d   1       0.069   0.666  -2.972  0.00  0.00    -0.070 Cl
ENDROOT
TORSDOF 0
ENDMDL
