MODEL 1
REMARK minimizedAffinity 0.281934142
REMARK minimizedRMSD -1
REMARK  0 active torsions:
REMARK  status: ('A' for Active; 'I' for Inactive)
ROOT
ATOM      1  C   UNL d   1      -1.322   0.176   1.735  0.00  0.00     0.020 A 
ATOM      2  C1  UNL d   1      -1.151  -0.979   0.973  0.00  0.00     0.020 A 
ATOM      3  C2  UNL d   1      -0.004  -1.137   0.192  0.00  0.00     0.034 A 
ATOM      4  C3  UNL d   1       0.976  -0.138   0.171  0.00  0.00     0.017 A 
ATOM      5  C4  UNL d   1       0.804   1.021   0.936  0.00  0.00     0.017 A 
ATOM      6  C5  UNL d   1      -0.347   1.174   1.717  0.00  0.00     0.034 A 
ATOM      7 Cl   UNL d   1       1.969   2.297   0.962  0.00  0.00    -0.070 Cl
ATOM      8 Cl1  UNL d   1       2.369  -0.399  -0.817  0.00  0.00    -0.070 Cl
ENDROOT
TORSDOF 0
ENDMDL
