MODEL 1
REMARK minimizedAffinity -5.25151873
REMARK minimizedRMSD -1
REMARK  0 active torsions:
REMARK  status: ('A' for Active; 'I' for Inactive)
ROOT
ATOM      1  C   UNL d   1      -1.887  -2.799   1.133  0.00  0.00     0.020 A 
ATOM      2  C1  UNL d   1      -2.905  -2.420   0.258  0.00  0.00     0.020 A 
ATOM      3  C2  UNL d   1      -2.751  -1.288  -0.544  0.00  0.00     0.034 A 
ATOM      4  C3  UNL d   1      -1.576  -0.530  -0.473  0.00  0.00     0.017 A 
ATOM      5  C4  UNL d   1      -0.555  -0.911   0.405  0.00  0.00     0.017 A 
ATOM      6  C5  UNL d   1      -0.715  -2.046   1.206  0.00  0.00     0.034 A 
ATOM      7 Cl   UNL d   1       0.923  -0.026   0.548  0.00  0.00    -0.070 Cl
ATOM      8 Cl1  UNL d   1      -1.453   0.858  -1.495  0.00  0.00    -0.070 Cl
ENDROOT
TORSDOF 0
ENDMDL
