MODEL 1
REMARK minimizedAffinity -2.4338665
REMARK minimizedRMSD -1
REMARK  0 active torsions:
REMARK  status: ('A' for Active; 'I' for Inactive)
ROOT
ATOM      1  C   UNL d   1      -2.290   0.093  -1.625  0.00  0.00     0.020 A 
ATOM      2  C1  UNL d   1      -3.025  -0.635  -0.691  0.00  0.00     0.020 A 
ATOM      3  C2  UNL d   1      -2.414  -1.083   0.482  0.00  0.00     0.034 A 
ATOM      4  C3  UNL d   1      -1.064  -0.804   0.724  0.00  0.00     0.017 A 
ATOM      5  C4  UNL d   1      -0.327  -0.073  -0.215  0.00  0.00     0.017 A 
ATOM      6  C5  UNL d   1      -0.944   0.373  -1.388  0.00  0.00     0.034 A 
ATOM      7 Cl   UNL d   1       1.343   0.310   0.013  0.00  0.00    -0.070 Cl
ATOM      8 Cl1  UNL d   1      -0.374  -1.390   2.196  0.00  0.00    -0.070 Cl
ENDROOT
TORSDOF 0
ENDMDL
