MODEL 1
REMARK minimizedAffinity -2.56455374
REMARK minimizedRMSD -1
REMARK  0 active torsions:
REMARK  status: ('A' for Active; 'I' for Inactive)
ROOT
ATOM      1  C   UNL d   1       1.165  -0.188  -0.036  0.00  0.00     0.020 A 
ATOM      2  C1  UNL d   1       0.443  -0.709   1.038  0.00  0.00     0.020 A 
ATOM      3  C2  UNL d   1      -0.948  -0.803   0.964  0.00  0.00     0.034 A 
ATOM      4  C3  UNL d   1      -1.623  -0.375  -0.186  0.00  0.00     0.017 A 
ATOM      5  C4  UNL d   1      -0.898   0.148  -1.263  0.00  0.00     0.017 A 
ATOM      6  C5  UNL d   1       0.495   0.239  -1.184  0.00  0.00     0.034 A 
ATOM      7 Cl   UNL d   1      -1.660   0.696  -2.714  0.00  0.00    -0.070 Cl
ATOM      8 Cl1  UNL d   1      -3.344  -0.521  -0.208  0.00  0.00    -0.070 Cl
ENDROOT
TORSDOF 0
ENDMDL
