MODEL 1
REMARK minimizedAffinity -3.17374754
REMARK minimizedRMSD -1
REMARK  0 active torsions:
REMARK  status: ('A' for Active; 'I' for Inactive)
ROOT
ATOM      1  C   UNL d   1       1.484   0.644  -0.065  0.00  0.00     0.020 A 
ATOM      2  C1  UNL d   1       0.784   0.959  -1.229  0.00  0.00     0.020 A 
ATOM      3  C2  UNL d   1      -0.484   0.416  -1.449  0.00  0.00     0.034 A 
ATOM      4  C3  UNL d   1      -1.055  -0.444  -0.505  0.00  0.00     0.017 A 
ATOM      5  C4  UNL d   1      -0.351  -0.760   0.663  0.00  0.00     0.017 A 
ATOM      6  C5  UNL d   1       0.918  -0.214   0.878  0.00  0.00     0.034 A 
ATOM      7 Cl   UNL d   1      -0.990  -1.815   1.874  0.00  0.00    -0.070 Cl
ATOM      8 Cl1  UNL d   1      -2.626  -1.079  -0.842  0.00  0.00    -0.070 Cl
ENDROOT
TORSDOF 0
ENDMDL
