MODEL 1
REMARK minimizedAffinity -4.78505898
REMARK minimizedRMSD -1
REMARK  0 active torsions:
REMARK  status: ('A' for Active; 'I' for Inactive)
ROOT
ATOM      1  C   UNL d   1      -2.876  -0.465  -1.505  0.00  0.00     0.020 A 
ATOM      2  C1  UNL d   1      -3.427  -1.554  -0.832  0.00  0.00     0.020 A 
ATOM      3  C2  UNL d   1      -2.756  -2.115   0.257  0.00  0.00     0.034 A 
ATOM      4  C3  UNL d   1      -1.530  -1.586   0.676  0.00  0.00     0.017 A 
ATOM      5  C4  UNL d   1      -0.977  -0.493  -0.000  0.00  0.00     0.017 A 
ATOM      6  C5  UNL d   1      -1.653   0.065  -1.090  0.00  0.00     0.034 A 
ATOM      7 Cl   UNL d   1       0.532   0.214   0.458  0.00  0.00    -0.070 Cl
ATOM      8 Cl1  UNL d   1      -0.756  -2.329   2.031  0.00  0.00    -0.070 Cl
ENDROOT
TORSDOF 0
ENDMDL
