MODEL 1
REMARK minimizedAffinity 12.315155
REMARK minimizedRMSD -1
REMARK  1 active torsions:
REMARK  status: ('A' for Active; 'I' for Inactive)
REMARK    1  A    between atoms: C1_2  and  C2_3 
ROOT
ATOM      1  C2  UNL d   1      -5.361   1.338   5.236  0.00  0.00    -0.076 A 
ATOM      2  C3  UNL d   1      -5.466   2.522   5.986  0.00  0.00     0.004 A 
ATOM      3  C4  UNL d   1      -4.876   3.705   5.545  0.00  0.00    -0.003 A 
ATOM      4  C5  UNL d   1      -4.172   3.723   4.346  0.00  0.00     0.000 A 
ATOM      5  C6  UNL d   1      -4.073   2.562   3.580  0.00  0.00     0.000 A 
ATOM      6  C7  UNL d   1      -4.676   1.365   4.002  0.00  0.00    -0.073 A 
ATOM      7  C8  UNL d   1      -4.532   0.141   3.140  0.00  0.00     0.078 C 
ENDROOT
BRANCH   1   8
ATOM      8  C1  UNL d   1      -5.999   0.078   5.778  0.00  0.00     0.053 C 
ATOM      9  C   UNL d   1      -4.989  -1.037   6.000  0.00  0.00     0.018 C 
ENDBRANCH   1   8
TORSDOF 1
ENDMDL
