MODEL 1
REMARK minimizedAffinity 12.050252
REMARK minimizedRMSD -1
REMARK  1 active torsions:
REMARK  status: ('A' for Active; 'I' for Inactive)
REMARK    1  A    between atoms: C1_2  and  C2_3 
ROOT
ATOM      1  C2  UNL d   1       1.756   1.330   1.812  0.00  0.00    -0.076 A 
ATOM      2  C3  UNL d   1       2.501   0.170   1.539  0.00  0.00     0.004 A 
ATOM      3  C4  UNL d   1       3.115  -0.014   0.302  0.00  0.00    -0.003 A 
ATOM      4  C5  UNL d   1       2.994   0.960  -0.683  0.00  0.00     0.000 A 
ATOM      5  C6  UNL d   1       2.274   2.126  -0.424  0.00  0.00     0.000 A 
ATOM      6  C7  UNL d   1       1.662   2.334   0.824  0.00  0.00    -0.073 A 
ATOM      7  C8  UNL d   1       0.892   3.607   1.048  0.00  0.00     0.078 C 
ENDROOT
BRANCH   1   8
ATOM      8  C1  UNL d   1       1.089   1.462   3.163  0.00  0.00     0.053 C 
ATOM      9  C   UNL d   1       1.023   0.140   3.912  0.00  0.00     0.018 C 
ENDBRANCH   1   8
TORSDOF 1
ENDMDL
