MODEL 1
REMARK minimizedAffinity 18.0095558
REMARK minimizedRMSD -1
REMARK  1 active torsions:
REMARK  status: ('A' for Active; 'I' for Inactive)
REMARK    1  A    between atoms: C1_2  and  C2_3 
ROOT
ATOM      1  C2  UNL d   1      -4.889   1.220   3.928  0.00  0.00    -0.076 A 
ATOM      2  C3  UNL d   1      -4.313   2.392   3.409  0.00  0.00     0.004 A 
ATOM      3  C4  UNL d   1      -4.251   3.559   4.169  0.00  0.00    -0.003 A 
ATOM      4  C5  UNL d   1      -4.764   3.573   5.461  0.00  0.00     0.000 A 
ATOM      5  C6  UNL d   1      -5.323   2.414   5.999  0.00  0.00     0.000 A 
ATOM      6  C7  UNL d   1      -5.379   1.225   5.252  0.00  0.00    -0.073 A 
ATOM      7  C8  UNL d   1      -5.998   0.006   5.880  0.00  0.00     0.078 C 
ENDROOT
BRANCH   1   8
ATOM      8  C1  UNL d   1      -4.953  -0.007   3.048  0.00  0.00     0.053 C 
ATOM      9  C   UNL d   1      -3.575  -0.489   2.620  0.00  0.00     0.018 C 
ENDBRANCH   1   8
TORSDOF 1
ENDMDL
