MODEL 1
REMARK minimizedAffinity 2.77290487
REMARK minimizedRMSD -1
REMARK  1 active torsions:
REMARK  status: ('A' for Active; 'I' for Inactive)
REMARK    1  A    between atoms: C1_2  and  C2_3 
ROOT
ATOM      1  C2  UNL d   1       4.631   3.398  -4.472  0.00  0.00    -0.076 A 
ATOM      2  C3  UNL d   1       5.879   4.022  -4.645  0.00  0.00     0.004 A 
ATOM      3  C4  UNL d   1       6.000   5.185  -5.404  0.00  0.00    -0.003 A 
ATOM      4  C5  UNL d   1       4.875   5.744  -6.000  0.00  0.00     0.000 A 
ATOM      5  C6  UNL d   1       3.626   5.148  -5.824  0.00  0.00     0.000 A 
ATOM      6  C7  UNL d   1       3.485   3.984  -5.049  0.00  0.00    -0.073 A 
ATOM      7  C8  UNL d   1       2.115   3.380  -4.897  0.00  0.00     0.078 C 
ENDROOT
BRANCH   1   8
ATOM      8  C1  UNL d   1       4.566   2.123  -3.661  0.00  0.00     0.053 C 
ATOM      9  C   UNL d   1       5.943   1.549  -3.366  0.00  0.00     0.018 C 
ENDBRANCH   1   8
TORSDOF 1
ENDMDL
