MODEL 1
REMARK minimizedAffinity 15.831316
REMARK minimizedRMSD -1
REMARK  1 active torsions:
REMARK  status: ('A' for Active; 'I' for Inactive)
REMARK    1  A    between atoms: C1_2  and  C2_3 
ROOT
ATOM      1  C2  UNL d   1       2.436   1.079   2.049  0.00  0.00    -0.076 A 
ATOM      2  C3  UNL d   1       2.557   2.140   1.135  0.00  0.00     0.004 A 
ATOM      3  C4  UNL d   1       1.602   3.153   1.082  0.00  0.00    -0.003 A 
ATOM      4  C5  UNL d   1       0.510   3.122   1.942  0.00  0.00     0.000 A 
ATOM      5  C6  UNL d   1       0.383   2.087   2.867  0.00  0.00     0.000 A 
ATOM      6  C7  UNL d   1       1.346   1.066   2.945  0.00  0.00    -0.073 A 
ATOM      7  C8  UNL d   1       1.156  -0.030   3.958  0.00  0.00     0.078 C 
ENDROOT
BRANCH   1   8
ATOM      8  C1  UNL d   1       3.489  -0.006   2.043  0.00  0.00     0.053 C 
ATOM      9  C   UNL d   1       4.016  -0.299   0.647  0.00  0.00     0.018 C 
ENDBRANCH   1   8
TORSDOF 1
ENDMDL
