MODEL 1
REMARK minimizedAffinity 14.298089
REMARK minimizedRMSD -1
REMARK  1 active torsions:
REMARK  status: ('A' for Active; 'I' for Inactive)
REMARK    1  A    between atoms: C1_2  and  C2_3 
ROOT
ATOM      1  C2  UNL d   1       2.876   2.913  -4.929  0.00  0.00    -0.076 A 
ATOM      2  C3  UNL d   1       2.493   3.739  -6.000  0.00  0.00     0.004 A 
ATOM      3  C4  UNL d   1       2.159   5.076  -5.791  0.00  0.00    -0.003 A 
ATOM      4  C5  UNL d   1       2.204   5.609  -4.508  0.00  0.00     0.000 A 
ATOM      5  C6  UNL d   1       2.598   4.809  -3.436  0.00  0.00     0.000 A 
ATOM      6  C7  UNL d   1       2.954   3.463  -3.632  0.00  0.00    -0.073 A 
ATOM      7  C8  UNL d   1       3.366   2.645  -2.439  0.00  0.00     0.078 C 
ENDROOT
BRANCH   1   8
ATOM      8  C1  UNL d   1       3.201   1.463  -5.212  0.00  0.00     0.053 C 
ATOM      9  C   UNL d   1       4.648   1.118  -4.898  0.00  0.00     0.018 C 
ENDBRANCH   1   8
TORSDOF 1
ENDMDL
