MODEL 1
REMARK minimizedAffinity 8.20548916
REMARK minimizedRMSD -1
REMARK  1 active torsions:
REMARK  status: ('A' for Active; 'I' for Inactive)
REMARK    1  A    between atoms: C1_2  and  C2_3 
ROOT
ATOM      1  C2  UNL d   1      -3.593  -5.991  -0.090  0.00  0.00    -0.076 A 
ATOM      2  C3  UNL d   1      -2.237  -6.000  -0.462  0.00  0.00     0.004 A 
ATOM      3  C4  UNL d   1      -1.229  -5.981   0.500  0.00  0.00    -0.003 A 
ATOM      4  C5  UNL d   1      -1.560  -5.954   1.851  0.00  0.00     0.000 A 
ATOM      5  C6  UNL d   1      -2.900  -5.962   2.238  0.00  0.00     0.000 A 
ATOM      6  C7  UNL d   1      -3.928  -5.997   1.281  0.00  0.00    -0.073 A 
ATOM      7  C8  UNL d   1      -5.356  -5.999   1.755  0.00  0.00     0.078 C 
ENDROOT
BRANCH   1   8
ATOM      8  C1  UNL d   1      -4.642  -5.985  -1.178  0.00  0.00     0.053 C 
ATOM      9  C   UNL d   1      -4.304  -5.024  -2.308  0.00  0.00     0.018 C 
ENDBRANCH   1   8
TORSDOF 1
ENDMDL
