MODEL 1
REMARK minimizedAffinity 10.9608803
REMARK minimizedRMSD -1
REMARK  1 active torsions:
REMARK  status: ('A' for Active; 'I' for Inactive)
REMARK    1  A    between atoms: C1_2  and  C2_3 
ROOT
ATOM      1  C2  UNL d   1      -4.720  -3.780  -3.455  0.00  0.00    -0.076 A 
ATOM      2  C3  UNL d   1      -3.520  -3.063  -3.600  0.00  0.00     0.004 A 
ATOM      3  C4  UNL d   1      -2.316  -3.574  -3.118  0.00  0.00    -0.003 A 
ATOM      4  C5  UNL d   1      -2.292  -4.812  -2.485  0.00  0.00     0.000 A 
ATOM      5  C6  UNL d   1      -3.471  -5.545  -2.348  0.00  0.00     0.000 A 
ATOM      6  C7  UNL d   1      -4.690  -5.051  -2.842  0.00  0.00    -0.073 A 
ATOM      7  C8  UNL d   1      -5.931  -5.881  -2.662  0.00  0.00     0.078 C 
ENDROOT
BRANCH   1   8
ATOM      8  C1  UNL d   1      -5.999  -3.163  -3.972  0.00  0.00     0.053 C 
ATOM      9  C   UNL d   1      -5.928  -2.830  -5.455  0.00  0.00     0.018 C 
ENDBRANCH   1   8
TORSDOF 1
ENDMDL
