MODEL 1
REMARK minimizedAffinity 17.0143814
REMARK minimizedRMSD -1
REMARK  1 active torsions:
REMARK  status: ('A' for Active; 'I' for Inactive)
REMARK    1  A    between atoms: C1_2  and  C2_3 
ROOT
ATOM      1  C2  UNL d   1       3.688   1.597  -4.545  0.00  0.00    -0.076 A 
ATOM      2  C3  UNL d   1       2.957   2.331  -5.494  0.00  0.00     0.004 A 
ATOM      3  C4  UNL d   1       2.131   3.385  -5.106  0.00  0.00    -0.003 A 
ATOM      4  C5  UNL d   1       2.025   3.723  -3.761  0.00  0.00     0.000 A 
ATOM      5  C6  UNL d   1       2.757   3.017  -2.807  0.00  0.00     0.000 A 
ATOM      6  C7  UNL d   1       3.606   1.962  -3.184  0.00  0.00    -0.073 A 
ATOM      7  C8  UNL d   1       4.368   1.231  -2.112  0.00  0.00     0.078 C 
ENDROOT
BRANCH   1   8
ATOM      8  C1  UNL d   1       4.546   0.447  -5.022  0.00  0.00     0.053 C 
ATOM      9  C   UNL d   1       3.722  -0.692  -5.602  0.00  0.00     0.018 C 
ENDBRANCH   1   8
TORSDOF 1
ENDMDL
