MODEL 1
REMARK minimizedAffinity 14.7024469
REMARK minimizedRMSD -1
REMARK  1 active torsions:
REMARK  status: ('A' for Active; 'I' for Inactive)
REMARK    1  A    between atoms: C1_2  and  C2_3 
ROOT
ATOM      1  C2  UNL d   1       3.865   1.130  -3.782  0.00  0.00    -0.076 A 
ATOM      2  C3  UNL d   1       2.859   1.941  -4.334  0.00  0.00     0.004 A 
ATOM      3  C4  UNL d   1       2.127   2.819  -3.537  0.00  0.00    -0.003 A 
ATOM      4  C5  UNL d   1       2.391   2.901  -2.174  0.00  0.00     0.000 A 
ATOM      5  C6  UNL d   1       3.398   2.117  -1.612  0.00  0.00     0.000 A 
ATOM      6  C7  UNL d   1       4.156   1.238  -2.405  0.00  0.00    -0.073 A 
ATOM      7  C8  UNL d   1       5.226   0.412  -1.746  0.00  0.00     0.078 C 
ENDROOT
BRANCH   1   8
ATOM      8  C1  UNL d   1       4.607   0.177  -4.691  0.00  0.00     0.053 C 
ATOM      9  C   UNL d   1       3.732  -0.970  -5.173  0.00  0.00     0.018 C 
ENDBRANCH   1   8
TORSDOF 1
ENDMDL
