MODEL 1
REMARK minimizedAffinity 14.9489822
REMARK minimizedRMSD -1
REMARK  1 active torsions:
REMARK  status: ('A' for Active; 'I' for Inactive)
REMARK    1  A    between atoms: C1_2  and  C2_3 
ROOT
ATOM      1  C2  UNL d   1      -2.142  -2.661  -0.372  0.00  0.00    -0.076 A 
ATOM      2  C3  UNL d   1      -3.118  -3.261  -1.185  0.00  0.00     0.004 A 
ATOM      3  C4  UNL d   1      -3.081  -3.123  -2.572  0.00  0.00    -0.003 A 
ATOM      4  C5  UNL d   1      -2.066  -2.382  -3.167  0.00  0.00     0.000 A 
ATOM      5  C6  UNL d   1      -1.079  -1.794  -2.377  0.00  0.00     0.000 A 
ATOM      6  C7  UNL d   1      -1.093  -1.938  -0.979  0.00  0.00    -0.073 A 
ATOM      7  C8  UNL d   1      -0.007  -1.277  -0.175  0.00  0.00     0.078 C 
ENDROOT
BRANCH   1   8
ATOM      8  C1  UNL d   1      -2.249  -2.823   1.128  0.00  0.00     0.053 C 
ATOM      9  C   UNL d   1      -1.576  -4.092   1.626  0.00  0.00     0.018 C 
ENDBRANCH   1   8
TORSDOF 1
ENDMDL
