MODEL 1
REMARK minimizedAffinity 26.4358749
REMARK minimizedRMSD -1
REMARK  1 active torsions:
REMARK  status: ('A' for Active; 'I' for Inactive)
REMARK    1  A    between atoms: C1_2  and  C2_3 
ROOT
ATOM      1  C2  UNL d   1       3.286   1.374  -3.784  0.00  0.00    -0.076 A 
ATOM      2  C3  UNL d   1       3.094   1.048  -2.430  0.00  0.00     0.004 A 
ATOM      3  C4  UNL d   1       2.268   1.821  -1.616  0.00  0.00    -0.003 A 
ATOM      4  C5  UNL d   1       1.618   2.931  -2.143  0.00  0.00     0.000 A 
ATOM      5  C6  UNL d   1       1.783   3.259  -3.489  0.00  0.00     0.000 A 
ATOM      6  C7  UNL d   1       2.600   2.481  -4.327  0.00  0.00    -0.073 A 
ATOM      7  C8  UNL d   1       2.746   2.884  -5.769  0.00  0.00     0.078 C 
ENDROOT
BRANCH   1   8
ATOM      8  C1  UNL d   1       4.216   0.515  -4.611  0.00  0.00     0.053 C 
ATOM      9  C   UNL d   1       3.701  -0.907  -4.778  0.00  0.00     0.018 C 
ENDBRANCH   1   8
TORSDOF 1
ENDMDL
