MODEL 1
REMARK minimizedAffinity 7.06321049
REMARK minimizedRMSD -1
REMARK  1 active torsions:
REMARK  status: ('A' for Active; 'I' for Inactive)
REMARK    1  A    between atoms: C1_2  and  C2_3 
ROOT
ATOM      1  C2  UNL d   1       1.152   1.834   3.119  0.00  0.00    -0.076 A 
ATOM      2  C3  UNL d   1       0.964   2.008   4.501  0.00  0.00     0.004 A 
ATOM      3  C4  UNL d   1       1.435   1.065   5.413  0.00  0.00    -0.003 A 
ATOM      4  C5  UNL d   1       2.104  -0.066   4.958  0.00  0.00     0.000 A 
ATOM      5  C6  UNL d   1       2.315  -0.246   3.592  0.00  0.00     0.000 A 
ATOM      6  C7  UNL d   1       1.860   0.703   2.660  0.00  0.00    -0.073 A 
ATOM      7  C8  UNL d   1       2.110   0.455   1.197  0.00  0.00     0.078 C 
ENDROOT
BRANCH   1   8
ATOM      8  C1  UNL d   1       0.594   2.876   2.175  0.00  0.00     0.053 C 
ATOM      9  C   UNL d   1       1.593   3.982   1.874  0.00  0.00     0.018 C 
ENDBRANCH   1   8
TORSDOF 1
ENDMDL
