MODEL 1
REMARK minimizedAffinity 6.61769724
REMARK minimizedRMSD -1
REMARK  1 active torsions:
REMARK  status: ('A' for Active; 'I' for Inactive)
REMARK    1  A    between atoms: C1_2  and  C2_3 
ROOT
ATOM      1  C2  UNL d   1       3.633   1.430   1.436  0.00  0.00    -0.076 A 
ATOM      2  C3  UNL d   1       3.700   0.026   1.440  0.00  0.00     0.004 A 
ATOM      3  C4  UNL d   1       4.872  -0.637   1.083  0.00  0.00    -0.003 A 
ATOM      4  C5  UNL d   1       5.998   0.093   0.717  0.00  0.00     0.000 A 
ATOM      5  C6  UNL d   1       5.955   1.487   0.724  0.00  0.00     0.000 A 
ATOM      6  C7  UNL d   1       4.785   2.171   1.097  0.00  0.00    -0.073 A 
ATOM      7  C8  UNL d   1       4.793   3.675   1.082  0.00  0.00     0.078 C 
ENDROOT
BRANCH   1   8
ATOM      8  C1  UNL d   1       2.326   2.094   1.807  0.00  0.00     0.053 C 
ATOM      9  C   UNL d   1       1.247   1.089   2.180  0.00  0.00     0.018 C 
ENDBRANCH   1   8
TORSDOF 1
ENDMDL
