MODEL 1
REMARK minimizedAffinity 8.61200809
REMARK minimizedRMSD -1
REMARK  1 active torsions:
REMARK  status: ('A' for Active; 'I' for Inactive)
REMARK    1  A    between atoms: C1_2  and  C2_3 
ROOT
ATOM      1  C2  UNL d   1      -0.166  -2.887  -1.588  0.00  0.00    -0.076 A 
ATOM      2  C3  UNL d   1       0.898  -3.246  -2.435  0.00  0.00     0.004 A 
ATOM      3  C4  UNL d   1       0.738  -3.263  -3.819  0.00  0.00    -0.003 A 
ATOM      4  C5  UNL d   1      -0.488  -2.922  -4.380  0.00  0.00     0.000 A 
ATOM      5  C6  UNL d   1      -1.548  -2.546  -3.556  0.00  0.00     0.000 A 
ATOM      6  C7  UNL d   1      -1.399  -2.507  -2.159  0.00  0.00    -0.073 A 
ATOM      7  C8  UNL d   1      -2.578  -2.101  -1.318  0.00  0.00     0.078 C 
ENDROOT
BRANCH   1   8
ATOM      8  C1  UNL d   1       0.058  -2.912  -0.093  0.00  0.00     0.053 C 
ATOM      9  C   UNL d   1      -0.874  -3.879   0.620  0.00  0.00     0.018 C 
ENDBRANCH   1   8
TORSDOF 1
ENDMDL
