MODEL 1
REMARK minimizedAffinity 14.1901817
REMARK minimizedRMSD -1
REMARK  1 active torsions:
REMARK  status: ('A' for Active; 'I' for Inactive)
REMARK    1  A    between atoms: C1_2  and  C2_3 
ROOT
ATOM      1  C2  UNL d   1       1.945   1.562   2.197  0.00  0.00    -0.076 A 
ATOM      2  C3  UNL d   1       2.302   0.526   3.078  0.00  0.00     0.004 A 
ATOM      3  C4  UNL d   1       1.555   0.273   4.228  0.00  0.00    -0.003 A 
ATOM      4  C5  UNL d   1       0.439   1.052   4.514  0.00  0.00     0.000 A 
ATOM      5  C6  UNL d   1       0.061   2.072   3.642  0.00  0.00     0.000 A 
ATOM      6  C7  UNL d   1       0.793   2.330   2.471  0.00  0.00    -0.073 A 
ATOM      7  C8  UNL d   1       0.344   3.447   1.569  0.00  0.00     0.078 C 
ENDROOT
BRANCH   1   8
ATOM      8  C1  UNL d   1       2.809   1.807   0.981  0.00  0.00     0.053 C 
ATOM      9  C   UNL d   1       3.340   0.517   0.374  0.00  0.00     0.018 C 
ENDBRANCH   1   8
TORSDOF 1
ENDMDL
