MODEL 1
REMARK minimizedAffinity -2.3732996
REMARK minimizedRMSD -1
REMARK  2 active torsions:
REMARK  status: ('A' for Active; 'I' for Inactive)
REMARK    1  A    between atoms: C2'_3  and  C1'_4 
REMARK    2  A    between atoms: C1'_4  and  C1_5 
ROOT
ATOM      1  C1  I4B d   1      -3.458   0.931   2.533  0.00  0.00    -0.075 A 
ATOM      2  C2  I4B d   1      -4.553   1.016   1.709  0.00  0.00     0.003 A 
ATOM      3  C3  I4B d   1      -5.844   1.213   2.256  0.00  0.00     0.002 A 
ATOM      4  C4  I4B d   1      -6.000   1.268   3.626  0.00  0.00    -0.004 A 
ATOM      5  C5  I4B d   1      -4.887   1.204   4.459  0.00  0.00     0.002 A 
ATOM      6  C6  I4B d   1      -3.606   1.047   3.909  0.00  0.00     0.003 A 
ENDROOT
BRANCH   1   7
ATOM      7  C1' I4B d   1      -2.114   0.691   1.923  0.00  0.00     0.060 C 
BRANCH   7   8
ATOM      8  C2' I4B d   1      -1.795  -0.784   2.062  0.00  0.00    -0.013 C 
ATOM      9  C4' I4B d   1      -2.739  -1.625   1.243  0.00  0.00     0.013 C 
ATOM     10  C3' I4B d   1      -0.373  -0.993   1.634  0.00  0.00     0.013 C 
ENDBRANCH   7   8
ENDBRANCH   1   7
TORSDOF 2
ENDMDL
