MODEL 1
REMARK minimizedAffinity 6.19941902
REMARK minimizedRMSD -1
REMARK  2 active torsions:
REMARK  status: ('A' for Active; 'I' for Inactive)
REMARK    1  A    between atoms: C2'_3  and  C1'_4 
REMARK    2  A    between atoms: C1'_4  and  C1_5 
ROOT
ATOM      1  C1  I4B d   1      -3.323  -0.477   1.032  0.00  0.00    -0.075 A 
ATOM      2  C2  I4B d   1      -2.581  -1.084   0.050  0.00  0.00     0.003 A 
ATOM      3  C3  I4B d   1      -2.959  -0.958  -1.309  0.00  0.00     0.002 A 
ATOM      4  C4  I4B d   1      -4.106  -0.264  -1.634  0.00  0.00    -0.004 A 
ATOM      5  C5  I4B d   1      -4.844   0.370  -0.639  0.00  0.00     0.002 A 
ATOM      6  C6  I4B d   1      -4.444   0.273   0.702  0.00  0.00     0.003 A 
ENDROOT
BRANCH   1   7
ATOM      7  C1' I4B d   1      -2.914  -0.658   2.460  0.00  0.00     0.060 C 
BRANCH   7   8
ATOM      8  C2' I4B d   1      -2.070   0.536   2.858  0.00  0.00    -0.013 C 
ATOM      9  C4' I4B d   1      -2.920   1.766   3.046  0.00  0.00     0.013 C 
ATOM     10  C3' I4B d   1      -1.339   0.186   4.120  0.00  0.00     0.013 C 
ENDBRANCH   7   8
ENDBRANCH   1   7
TORSDOF 2
ENDMDL
