MODEL 1
REMARK minimizedAffinity 9.05131626
REMARK minimizedRMSD -1
REMARK  2 active torsions:
REMARK  status: ('A' for Active; 'I' for Inactive)
REMARK    1  A    between atoms: C2'_3  and  C1'_4 
REMARK    2  A    between atoms: C1'_4  and  C1_5 
ROOT
ATOM      1  C1  I4B d   1       4.890   4.149  -0.855  0.00  0.00    -0.075 A 
ATOM      2  C2  I4B d   1       5.987   4.160  -0.031  0.00  0.00     0.003 A 
ATOM      3  C3  I4B d   1       6.000   3.378   1.149  0.00  0.00     0.002 A 
ATOM      4  C4  I4B d   1       4.881   2.646   1.491  0.00  0.00    -0.004 A 
ATOM      5  C5  I4B d   1       3.778   2.618   0.643  0.00  0.00     0.002 A 
ATOM      6  C6  I4B d   1       3.787   3.365  -0.544  0.00  0.00     0.003 A 
ENDROOT
BRANCH   1   7
ATOM      7  C1' I4B d   1       4.898   5.012  -2.077  0.00  0.00     0.060 C 
BRANCH   7   8
ATOM      8  C2' I4B d   1       4.963   4.104  -3.289  0.00  0.00    -0.013 C 
ATOM      9  C4' I4B d   1       3.585   3.709  -3.749  0.00  0.00     0.013 C 
ATOM     10  C3' I4B d   1       5.708   4.829  -4.370  0.00  0.00     0.013 C 
ENDBRANCH   7   8
ENDBRANCH   1   7
TORSDOF 2
ENDMDL
