MODEL 1
REMARK minimizedAffinity 8.66278648
REMARK minimizedRMSD -1
REMARK  2 active torsions:
REMARK  status: ('A' for Active; 'I' for Inactive)
REMARK    1  A    between atoms: C2'_3  and  C1'_4 
REMARK    2  A    between atoms: C1'_4  and  C1_5 
ROOT
ATOM      1  C1  I4B d   1       3.539   3.901  -2.992  0.00  0.00    -0.075 A 
ATOM      2  C2  I4B d   1       4.505   4.549  -2.265  0.00  0.00     0.003 A 
ATOM      3  C3  I4B d   1       5.747   4.876  -2.861  0.00  0.00     0.002 A 
ATOM      4  C4  I4B d   1       5.998   4.493  -4.162  0.00  0.00    -0.004 A 
ATOM      5  C5  I4B d   1       5.009   3.856  -4.906  0.00  0.00     0.002 A 
ATOM      6  C6  I4B d   1       3.767   3.568  -4.322  0.00  0.00     0.003 A 
ENDROOT
BRANCH   1   7
ATOM      7  C1' I4B d   1       2.251   3.541  -2.322  0.00  0.00     0.060 C 
BRANCH   7   8
ATOM      8  C2' I4B d   1       1.321   4.733  -2.428  0.00  0.00    -0.013 C 
ATOM      9  C4' I4B d   1       2.086   5.996  -2.723  0.00  0.00     0.013 C 
ATOM     10  C3' I4B d   1       0.318   4.443  -3.504  0.00  0.00     0.013 C 
ENDBRANCH   7   8
ENDBRANCH   1   7
TORSDOF 2
ENDMDL
