MODEL 1
REMARK minimizedAffinity 7.42987347
REMARK minimizedRMSD -1
REMARK  2 active torsions:
REMARK  status: ('A' for Active; 'I' for Inactive)
REMARK    1  A    between atoms: C2'_3  and  C1'_4 
REMARK    2  A    between atoms: C1'_4  and  C1_5 
ROOT
ATOM      1  C1  I4B d   1      -3.390   1.308   4.169  0.00  0.00    -0.075 A 
ATOM      2  C2  I4B d   1      -4.423   1.267   3.266  0.00  0.00     0.003 A 
ATOM      3  C3  I4B d   1      -4.275   0.565   2.045  0.00  0.00     0.002 A 
ATOM      4  C4  I4B d   1      -3.068  -0.036   1.749  0.00  0.00    -0.004 A 
ATOM      5  C5  I4B d   1      -2.030  -0.013   2.676  0.00  0.00     0.002 A 
ATOM      6  C6  I4B d   1      -2.196   0.653   3.899  0.00  0.00     0.003 A 
ENDROOT
BRANCH   1   7
ATOM      7  C1' I4B d   1      -3.569   2.086   5.434  0.00  0.00     0.060 C 
BRANCH   7   8
ATOM      8  C2' I4B d   1      -4.888   2.828   5.343  0.00  0.00    -0.013 C 
ATOM      9  C4' I4B d   1      -5.999   2.044   5.991  0.00  0.00     0.013 C 
ATOM     10  C3' I4B d   1      -4.714   4.164   6.000  0.00  0.00     0.013 C 
ENDBRANCH   7   8
ENDBRANCH   1   7
TORSDOF 2
ENDMDL
