MODEL 1
REMARK minimizedAffinity 11.517148
REMARK minimizedRMSD -1
REMARK  2 active torsions:
REMARK  status: ('A' for Active; 'I' for Inactive)
REMARK    1  A    between atoms: C2'_3  and  C1'_4 
REMARK    2  A    between atoms: C1'_4  and  C1_5 
ROOT
ATOM      1  C1  I4B d   1      -0.182  -0.396   1.895  0.00  0.00    -0.075 A 
ATOM      2  C2  I4B d   1      -0.917  -1.417   1.347  0.00  0.00     0.003 A 
ATOM      3  C3  I4B d   1      -2.292  -1.553   1.659  0.00  0.00     0.002 A 
ATOM      4  C4  I4B d   1      -2.875  -0.681   2.555  0.00  0.00    -0.004 A 
ATOM      5  C5  I4B d   1      -2.134   0.368   3.092  0.00  0.00     0.002 A 
ATOM      6  C6  I4B d   1      -0.782   0.519   2.750  0.00  0.00     0.003 A 
ENDROOT
BRANCH   1   7
ATOM      7  C1' I4B d   1       1.275  -0.302   1.571  0.00  0.00     0.060 C 
BRANCH   7   8
ATOM      8  C2' I4B d   1       1.558   1.109   1.096  0.00  0.00    -0.013 C 
ATOM      9  C4' I4B d   1       3.014   1.457   1.256  0.00  0.00     0.013 C 
ATOM     10  C3' I4B d   1       1.132   1.209  -0.338  0.00  0.00     0.013 C 
ENDBRANCH   7   8
ENDBRANCH   1   7
TORSDOF 2
ENDMDL
