MODEL 1
REMARK minimizedAffinity 17.8615456
REMARK minimizedRMSD -1
REMARK  2 active torsions:
REMARK  status: ('A' for Active; 'I' for Inactive)
REMARK    1  A    between atoms: C2'_3  and  C1'_4 
REMARK    2  A    between atoms: C1'_4  and  C1_5 
ROOT
ATOM      1  C1  I4B d   1       3.476   3.656  -3.196  0.00  0.00    -0.075 A 
ATOM      2  C2  I4B d   1       3.379   2.983  -4.388  0.00  0.00     0.003 A 
ATOM      3  C3  I4B d   1       4.513   2.845  -5.224  0.00  0.00     0.002 A 
ATOM      4  C4  I4B d   1       5.704   3.437  -4.855  0.00  0.00    -0.004 A 
ATOM      5  C5  I4B d   1       5.807   4.099  -3.635  0.00  0.00     0.002 A 
ATOM      6  C6  I4B d   1       4.689   4.199  -2.794  0.00  0.00     0.003 A 
ENDROOT
BRANCH   1   7
ATOM      7  C1' I4B d   1       2.250   3.810  -2.353  0.00  0.00     0.060 C 
BRANCH   7   8
ATOM      8  C2' I4B d   1       1.420   4.935  -2.938  0.00  0.00    -0.013 C 
ATOM      9  C4' I4B d   1       0.147   4.411  -3.551  0.00  0.00     0.013 C 
ATOM     10  C3' I4B d   1       1.129   5.915  -1.841  0.00  0.00     0.013 C 
ENDBRANCH   7   8
ENDBRANCH   1   7
TORSDOF 2
ENDMDL
