MODEL 1
REMARK minimizedAffinity 8.15918255
REMARK minimizedRMSD -1
REMARK  2 active torsions:
REMARK  status: ('A' for Active; 'I' for Inactive)
REMARK    1  A    between atoms: C2'_3  and  C1'_4 
REMARK    2  A    between atoms: C1'_4  and  C1_5 
ROOT
ATOM      1  C1  I4B d   1       3.889   3.296  -1.729  0.00  0.00    -0.075 A 
ATOM      2  C2  I4B d   1       4.455   3.926  -0.649  0.00  0.00     0.003 A 
ATOM      3  C3  I4B d   1       4.619   3.232   0.575  0.00  0.00     0.002 A 
ATOM      4  C4  I4B d   1       4.159   1.936   0.688  0.00  0.00    -0.004 A 
ATOM      5  C5  I4B d   1       3.606   1.292  -0.415  0.00  0.00     0.002 A 
ATOM      6  C6  I4B d   1       3.482   1.972  -1.635  0.00  0.00     0.003 A 
ENDROOT
BRANCH   1   7
ATOM      7  C1' I4B d   1       3.701   4.069  -2.996  0.00  0.00     0.060 C 
BRANCH   7   8
ATOM      8  C2' I4B d   1       4.853   3.734  -3.922  0.00  0.00    -0.013 C 
ATOM      9  C4' I4B d   1       4.381   3.572  -5.343  0.00  0.00     0.013 C 
ATOM     10  C3' I4B d   1       5.870   4.831  -3.811  0.00  0.00     0.013 C 
ENDBRANCH   7   8
ENDBRANCH   1   7
TORSDOF 2
ENDMDL
