MODEL 1
REMARK minimizedAffinity -2.30930066
REMARK minimizedRMSD -1
REMARK  0 active torsions:
REMARK  status: ('A' for Active; 'I' for Inactive)
ROOT
ATOM      1  C4' PXY d   1      -1.124   1.334   1.960  0.00  0.00     0.077 C 
ATOM      2  C1' PXY d   1       0.665  -2.103  -2.330  0.00  0.00     0.077 C 
ATOM      3  C1  PXY d   1       0.200  -1.191  -1.211  0.00  0.00    -0.082 A 
ATOM      4  C2  PXY d   1       0.012  -1.687   0.001  0.00  0.00     0.003 A 
ATOM      5  C3  PXY d   1      -0.438  -0.883   1.017  0.00  0.00     0.003 A 
ATOM      6  C4  PXY d   1      -0.647   0.453   0.802  0.00  0.00    -0.082 A 
ATOM      7  C5  PXY d   1      -0.447   0.968  -0.429  0.00  0.00     0.003 A 
ATOM      8  C6  PXY d   1      -0.029   0.127  -1.457  0.00  0.00     0.003 A 
ENDROOT
TORSDOF 0
ENDMDL
