MODEL 1
REMARK minimizedAffinity -2.59558582
REMARK minimizedRMSD -1
REMARK  0 active torsions:
REMARK  status: ('A' for Active; 'I' for Inactive)
ROOT
ATOM      1  C4' PXY d   1      -1.550   1.966   2.398  0.00  0.00     0.077 C 
ATOM      2  C1' PXY d   1       1.106  -1.927  -0.949  0.00  0.00     0.077 C 
ATOM      3  C1  PXY d   1       0.404  -0.916  -0.065  0.00  0.00    -0.082 A 
ATOM      4  C2  PXY d   1       0.249   0.328  -0.489  0.00  0.00     0.003 A 
ATOM      5  C3  PXY d   1      -0.356   1.263   0.310  0.00  0.00     0.003 A 
ATOM      6  C4  PXY d   1      -0.855   0.909   1.535  0.00  0.00    -0.082 A 
ATOM      7  C5  PXY d   1      -0.710  -0.361   1.971  0.00  0.00     0.003 A 
ATOM      8  C6  PXY d   1      -0.057  -1.285   1.161  0.00  0.00     0.003 A 
ENDROOT
TORSDOF 0
ENDMDL
