MODEL 1
REMARK minimizedAffinity -2.56233048
REMARK minimizedRMSD -1
REMARK  0 active torsions:
REMARK  status: ('A' for Active; 'I' for Inactive)
ROOT
ATOM      1  C4' PXY d   1       0.508  -2.015  -1.019  0.00  0.00     0.077 C 
ATOM      2  C1' PXY d   1      -1.804   2.377   1.943  0.00  0.00     0.077 C 
ATOM      3  C1  PXY d   1      -1.197   1.233   1.156  0.00  0.00    -0.082 A 
ATOM      4  C2  PXY d   1      -1.442  -0.015   1.521  0.00  0.00     0.003 A 
ATOM      5  C3  PXY d   1      -0.875  -1.061   0.840  0.00  0.00     0.003 A 
ATOM      6  C4  PXY d   1      -0.092  -0.829  -0.259  0.00  0.00    -0.082 A 
ATOM      7  C5  PXY d   1       0.154   0.442  -0.645  0.00  0.00     0.003 A 
ATOM      8  C6  PXY d   1      -0.397   1.491   0.085  0.00  0.00     0.003 A 
ENDROOT
TORSDOF 0
ENDMDL
