MODEL 1
REMARK minimizedAffinity -5.50090933
REMARK minimizedRMSD -1
REMARK  0 active torsions:
REMARK  status: ('A' for Active; 'I' for Inactive)
ROOT
ATOM      1  C4' PXY d   1       0.042  -2.753  -1.893  0.00  0.00     0.077 C 
ATOM      2  C1' PXY d   1      -0.627   1.636   1.809  0.00  0.00     0.077 C 
ATOM      3  C1  PXY d   1      -0.444   0.493   0.831  0.00  0.00    -0.082 A 
ATOM      4  C2  PXY d   1      -1.336  -0.484   0.792  0.00  0.00     0.003 A 
ATOM      5  C3  PXY d   1      -1.169  -1.542  -0.064  0.00  0.00     0.003 A 
ATOM      6  C4  PXY d   1      -0.107  -1.574  -0.927  0.00  0.00    -0.082 A 
ATOM      7  C5  PXY d   1       0.801  -0.575  -0.902  0.00  0.00     0.003 A 
ATOM      8  C6  PXY d   1       0.636   0.469   0.004  0.00  0.00     0.003 A 
ENDROOT
TORSDOF 0
ENDMDL
