MODEL 1
REMARK minimizedAffinity -4.76687145
REMARK minimizedRMSD -1
REMARK  0 active torsions:
REMARK  status: ('A' for Active; 'I' for Inactive)
ROOT
ATOM      1  C4' PXY d   1      -1.162   1.800   2.184  0.00  0.00     0.077 C 
ATOM      2  C1' PXY d   1       0.010  -2.439  -1.568  0.00  0.00     0.077 C 
ATOM      3  C1  PXY d   1      -0.306  -1.335  -0.578  0.00  0.00    -0.082 A 
ATOM      4  C2  PXY d   1      -0.119  -0.072  -0.925  0.00  0.00     0.003 A 
ATOM      5  C3  PXY d   1      -0.369   0.937  -0.031  0.00  0.00     0.003 A 
ATOM      6  C4  PXY d   1      -0.866   0.653   1.213  0.00  0.00    -0.082 A 
ATOM      7  C5  PXY d   1      -1.070  -0.632   1.571  0.00  0.00     0.003 A 
ATOM      8  C6  PXY d   1      -0.771  -1.644   0.663  0.00  0.00     0.003 A 
ENDROOT
TORSDOF 0
ENDMDL
