MODEL 1
REMARK minimizedAffinity -5.01311302
REMARK minimizedRMSD -1
REMARK  0 active torsions:
REMARK  status: ('A' for Active; 'I' for Inactive)
ROOT
ATOM      1  C4' PXY d   1       0.898  -2.020  -1.377  0.00  0.00     0.077 C 
ATOM      2  C1' PXY d   1      -2.048   2.038   1.498  0.00  0.00     0.077 C 
ATOM      3  C1  PXY d   1      -1.275   0.982   0.734  0.00  0.00    -0.082 A 
ATOM      4  C2  PXY d   1      -1.384  -0.290   1.083  0.00  0.00     0.003 A 
ATOM      5  C3  PXY d   1      -0.668  -1.254   0.423  0.00  0.00     0.003 A 
ATOM      6  C4  PXY d   1       0.128  -0.920  -0.640  0.00  0.00    -0.082 A 
ATOM      7  C5  PXY d   1       0.237   0.373  -1.009  0.00  0.00     0.003 A 
ATOM      8  C6  PXY d   1      -0.467   1.342  -0.300  0.00  0.00     0.003 A 
ENDROOT
TORSDOF 0
ENDMDL
