MODEL 1
REMARK minimizedAffinity -5.4443388
REMARK minimizedRMSD -1
REMARK  0 active torsions:
REMARK  status: ('A' for Active; 'I' for Inactive)
ROOT
ATOM      1  C4' PXY d   1      -1.036  -0.979   2.759  0.00  0.00     0.077 C 
ATOM      2  C1' PXY d   1      -0.241   2.709  -1.621  0.00  0.00     0.077 C 
ATOM      3  C1  PXY d   1      -0.452   1.752  -0.464  0.00  0.00    -0.082 A 
ATOM      4  C2  PXY d   1       0.112   0.555  -0.494  0.00  0.00     0.003 A 
ATOM      5  C3  PXY d   1      -0.095  -0.334   0.529  0.00  0.00     0.003 A 
ATOM      6  C4  PXY d   1      -0.843   0.024   1.618  0.00  0.00    -0.082 A 
ATOM      7  C5  PXY d   1      -1.413   1.246   1.661  0.00  0.00     0.003 A 
ATOM      8  C6  PXY d   1      -1.225   2.120   0.594  0.00  0.00     0.003 A 
ENDROOT
TORSDOF 0
ENDMDL
