MODEL 1
REMARK minimizedAffinity -4.44543886
REMARK minimizedRMSD -1
REMARK  0 active torsions:
REMARK  status: ('A' for Active; 'I' for Inactive)
ROOT
ATOM      1  C4' PXY d   1      -1.104   2.402  -1.044  0.00  0.00     0.077 C 
ATOM      2  C1' PXY d   1      -0.823  -1.518   3.195  0.00  0.00     0.077 C 
ATOM      3  C1  PXY d   1      -0.907  -0.485   2.089  0.00  0.00    -0.082 A 
ATOM      4  C2  PXY d   1      -0.320  -0.722   0.927  0.00  0.00     0.003 A 
ATOM      5  C3  PXY d   1      -0.360   0.215  -0.074  0.00  0.00     0.003 A 
ATOM      6  C4  PXY d   1      -1.052   1.384   0.099  0.00  0.00    -0.082 A 
ATOM      7  C5  PXY d   1      -1.663   1.628   1.277  0.00  0.00     0.003 A 
ATOM      8  C6  PXY d   1      -1.576   0.682   2.295  0.00  0.00     0.003 A 
ENDROOT
TORSDOF 0
ENDMDL
