MODEL 1
REMARK minimizedAffinity -4.29917622
REMARK minimizedRMSD -1
REMARK  0 active torsions:
REMARK  status: ('A' for Active; 'I' for Inactive)
ROOT
ATOM      1  C4' PXY d   1       1.256  -1.743  -1.175  0.00  0.00     0.077 C 
ATOM      2  C1' PXY d   1      -1.985   2.035   1.764  0.00  0.00     0.077 C 
ATOM      3  C1  PXY d   1      -1.136   1.052   0.983  0.00  0.00    -0.082 A 
ATOM      4  C2  PXY d   1      -1.121  -0.224   1.334  0.00  0.00     0.003 A 
ATOM      5  C3  PXY d   1      -0.334  -1.120   0.658  0.00  0.00     0.003 A 
ATOM      6  C4  PXY d   1       0.406  -0.717  -0.421  0.00  0.00    -0.082 A 
ATOM      7  C5  PXY d   1       0.388   0.581  -0.792  0.00  0.00     0.003 A 
ATOM      8  C6  PXY d   1      -0.386   1.483  -0.067  0.00  0.00     0.003 A 
ENDROOT
TORSDOF 0
ENDMDL
