MODEL 1
REMARK minimizedAffinity -2.85126209
REMARK minimizedRMSD -1
REMARK  0 active torsions:
REMARK  status: ('A' for Active; 'I' for Inactive)
ROOT
ATOM      1  C4' PXY d   1      -1.494   2.926  -1.034  0.00  0.00     0.077 C 
ATOM      2  C1' PXY d   1       0.426  -1.326   2.378  0.00  0.00     0.077 C 
ATOM      3  C1  PXY d   1      -0.088  -0.209   1.491  0.00  0.00    -0.082 A 
ATOM      4  C2  PXY d   1       0.268  -0.169   0.217  0.00  0.00     0.003 A 
ATOM      5  C3  PXY d   1      -0.162   0.851  -0.591  0.00  0.00     0.003 A 
ATOM      6  C4  PXY d   1      -1.007   1.812  -0.104  0.00  0.00    -0.082 A 
ATOM      7  C5  PXY d   1      -1.383   1.772   1.192  0.00  0.00     0.003 A 
ATOM      8  C6  PXY d   1      -0.903   0.751   2.006  0.00  0.00     0.003 A 
ENDROOT
TORSDOF 0
ENDMDL
