MODEL 1
REMARK minimizedAffinity -5.15092373
REMARK minimizedRMSD -1
REMARK  0 active torsions:
REMARK  status: ('A' for Active; 'I' for Inactive)
ROOT
ATOM      1  C4' PXY d   1      -0.211  -2.411  -2.465  0.00  0.00     0.077 C 
ATOM      2  C1' PXY d   1       3.343  -5.554   0.837  0.00  0.00     0.077 C 
ATOM      3  C1  PXY d   1       2.409  -4.740  -0.036  0.00  0.00    -0.082 A 
ATOM      4  C2  PXY d   1       2.535  -3.423  -0.080  0.00  0.00     0.003 A 
ATOM      5  C3  PXY d   1       1.678  -2.669  -0.840  0.00  0.00     0.003 A 
ATOM      6  C4  PXY d   1       0.716  -3.273  -1.604  0.00  0.00    -0.082 A 
ATOM      7  C5  PXY d   1       0.588  -4.617  -1.573  0.00  0.00     0.003 A 
ATOM      8  C6  PXY d   1       1.442  -5.361  -0.764  0.00  0.00     0.003 A 
ENDROOT
TORSDOF 0
ENDMDL
