MODEL 1
REMARK minimizedAffinity -5.14878368
REMARK minimizedRMSD -1
REMARK  0 active torsions:
REMARK  status: ('A' for Active; 'I' for Inactive)
ROOT
ATOM      1  C4' PXY d   1       0.965  -1.781  -1.055  0.00  0.00     0.077 C 
ATOM      2  C1' PXY d   1      -1.827   2.559   1.549  0.00  0.00     0.077 C 
ATOM      3  C1  PXY d   1      -1.096   1.427   0.855  0.00  0.00    -0.082 A 
ATOM      4  C2  PXY d   1      -1.044   0.235   1.426  0.00  0.00     0.003 A 
ATOM      5  C3  PXY d   1      -0.360  -0.792   0.827  0.00  0.00     0.003 A 
ATOM      6  C4  PXY d   1       0.231  -0.611  -0.395  0.00  0.00    -0.082 A 
ATOM      7  C5  PXY d   1       0.172   0.599  -0.989  0.00  0.00     0.003 A 
ATOM      8  C6  PXY d   1      -0.491   1.640  -0.345  0.00  0.00     0.003 A 
ENDROOT
TORSDOF 0
ENDMDL
