MODEL 1
REMARK minimizedAffinity -3.14565921
REMARK minimizedRMSD -1
REMARK  0 active torsions:
REMARK  status: ('A' for Active; 'I' for Inactive)
ROOT
ATOM      1  C4' PXY d   1       1.459  -1.756  -0.411  0.00  0.00     0.077 C 
ATOM      2  C1' PXY d   1      -2.509   2.076   1.317  0.00  0.00     0.077 C 
ATOM      3  C1  PXY d   1      -1.473   1.072   0.851  0.00  0.00    -0.082 A 
ATOM      4  C2  PXY d   1      -0.969   0.204   1.714  0.00  0.00     0.003 A 
ATOM      5  C3  PXY d   1      -0.008  -0.689   1.317  0.00  0.00     0.003 A 
ATOM      6  C4  PXY d   1       0.404  -0.731   0.012  0.00  0.00    -0.082 A 
ATOM      7  C5  PXY d   1      -0.113   0.144  -0.876  0.00  0.00     0.003 A 
ATOM      8  C6  PXY d   1      -1.058   1.071  -0.445  0.00  0.00     0.003 A 
ENDROOT
TORSDOF 0
ENDMDL
