MODEL 1
REMARK minimizedAffinity -5.01371527
REMARK minimizedRMSD -1
REMARK  0 active torsions:
REMARK  status: ('A' for Active; 'I' for Inactive)
ROOT
ATOM      1  C4' PXY d   1       0.958  -1.985  -0.975  0.00  0.00     0.077 C 
ATOM      2  C1' PXY d   1      -1.718   2.309   1.821  0.00  0.00     0.077 C 
ATOM      3  C1  PXY d   1      -1.019   1.189   1.077  0.00  0.00    -0.082 A 
ATOM      4  C2  PXY d   1      -0.859   0.014   1.663  0.00  0.00     0.003 A 
ATOM      5  C3  PXY d   1      -0.201  -1.001   1.016  0.00  0.00     0.003 A 
ATOM      6  C4  PXY d   1       0.250  -0.828  -0.265  0.00  0.00    -0.082 A 
ATOM      7  C5  PXY d   1       0.081   0.365  -0.874  0.00  0.00     0.003 A 
ATOM      8  C6  PXY d   1      -0.553   1.395  -0.185  0.00  0.00     0.003 A 
ENDROOT
TORSDOF 0
ENDMDL
