MODEL 1
REMARK minimizedAffinity -3.47688651
REMARK minimizedRMSD -1
REMARK  0 active torsions:
REMARK  status: ('A' for Active; 'I' for Inactive)
ROOT
ATOM      1  C4' PXY d   1       1.137  -1.383  -0.298  0.00  0.00     0.077 C 
ATOM      2  C1' PXY d   1      -2.448   2.835   1.366  0.00  0.00     0.077 C 
ATOM      3  C1  PXY d   1      -1.511   1.732   0.917  0.00  0.00    -0.082 A 
ATOM      4  C2  PXY d   1      -1.226   0.739   1.744  0.00  0.00     0.003 A 
ATOM      5  C3  PXY d   1      -0.355  -0.251   1.366  0.00  0.00     0.003 A 
ATOM      6  C4  PXY d   1       0.189  -0.252   0.109  0.00  0.00    -0.082 A 
ATOM      7  C5  PXY d   1      -0.105   0.752  -0.744  0.00  0.00     0.003 A 
ATOM      8  C6  PXY d   1      -0.959   1.769  -0.326  0.00  0.00     0.003 A 
ENDROOT
TORSDOF 0
ENDMDL
