MODEL 1
REMARK minimizedAffinity -4.1598773
REMARK minimizedRMSD -1
REMARK  0 active torsions:
REMARK  status: ('A' for Active; 'I' for Inactive)
ROOT
ATOM      1  C4' PXY d   1       2.241   0.641  -1.212  0.00  0.00     0.077 C 
ATOM      2  C1' PXY d   1      -2.912   0.860   1.397  0.00  0.00     0.077 C 
ATOM      3  C1  PXY d   1      -1.556   0.798   0.724  0.00  0.00    -0.082 A 
ATOM      4  C2  PXY d   1      -1.290   1.606  -0.289  0.00  0.00     0.003 A 
ATOM      5  C3  PXY d   1      -0.080   1.541  -0.931  0.00  0.00     0.003 A 
ATOM      6  C4  PXY d   1       0.888   0.676  -0.496  0.00  0.00    -0.082 A 
ATOM      7  C5  PXY d   1       0.629  -0.145   0.544  0.00  0.00     0.003 A 
ATOM      8  C6  PXY d   1      -0.620  -0.092   1.155  0.00  0.00     0.003 A 
ENDROOT
TORSDOF 0
ENDMDL
