MODEL 1
REMARK minimizedAffinity -5.11238575
REMARK minimizedRMSD -1
REMARK  0 active torsions:
REMARK  status: ('A' for Active; 'I' for Inactive)
ROOT
ATOM      1  C4' PXY d   1       1.210  -1.425  -0.767  0.00  0.00     0.077 C 
ATOM      2  C1' PXY d   1      -2.809   2.191   1.280  0.00  0.00     0.077 C 
ATOM      3  C1  PXY d   1      -1.751   1.241   0.755  0.00  0.00    -0.082 A 
ATOM      4  C2  PXY d   1      -1.347   1.340  -0.501  0.00  0.00     0.003 A 
ATOM      5  C3  PXY d   1      -0.415   0.468  -1.001  0.00  0.00     0.003 A 
ATOM      6  C4  PXY d   1       0.151  -0.481  -0.192  0.00  0.00    -0.082 A 
ATOM      7  C5  PXY d   1      -0.247  -0.581   1.094  0.00  0.00     0.003 A 
ATOM      8  C6  PXY d   1      -1.226   0.287   1.571  0.00  0.00     0.003 A 
ENDROOT
TORSDOF 0
ENDMDL
