MODEL 1
REMARK minimizedAffinity -2.86000323
REMARK minimizedRMSD -1
REMARK  0 active torsions:
REMARK  status: ('A' for Active; 'I' for Inactive)
ROOT
ATOM      1  C4' PXY d   1       0.455  -2.280  -1.649  0.00  0.00     0.077 C 
ATOM      2  C1' PXY d   1      -1.596   2.202   1.371  0.00  0.00     0.077 C 
ATOM      3  C1  PXY d   1      -1.049   1.034   0.574  0.00  0.00    -0.082 A 
ATOM      4  C2  PXY d   1      -1.842   0.019   0.273  0.00  0.00     0.003 A 
ATOM      5  C3  PXY d   1      -1.355  -1.060  -0.419  0.00  0.00     0.003 A 
ATOM      6  C4  PXY d   1      -0.057  -1.076  -0.854  0.00  0.00    -0.082 A 
ATOM      7  C5  PXY d   1       0.756  -0.039  -0.561  0.00  0.00     0.003 A 
ATOM      8  C6  PXY d   1       0.253   1.028   0.178  0.00  0.00     0.003 A 
ENDROOT
TORSDOF 0
ENDMDL
