MODEL 1
REMARK minimizedAffinity -3.79714656
REMARK minimizedRMSD -1
REMARK  0 active torsions:
REMARK  status: ('A' for Active; 'I' for Inactive)
ROOT
ATOM      1  C4' PXY d   1       1.144  -1.662  -0.864  0.00  0.00     0.077 C 
ATOM      2  C1' PXY d   1      -2.107   2.576   1.346  0.00  0.00     0.077 C 
ATOM      3  C1  PXY d   1      -1.250   1.461   0.779  0.00  0.00    -0.082 A 
ATOM      4  C2  PXY d   1      -0.837   1.528  -0.477  0.00  0.00     0.003 A 
ATOM      5  C3  PXY d   1      -0.089   0.513  -1.016  0.00  0.00     0.003 A 
ATOM      6  C4  PXY d   1       0.286  -0.556  -0.246  0.00  0.00    -0.082 A 
ATOM      7  C5  PXY d   1      -0.123  -0.626   1.039  0.00  0.00     0.003 A 
ATOM      8  C6  PXY d   1      -0.917   0.394   1.555  0.00  0.00     0.003 A 
ENDROOT
TORSDOF 0
ENDMDL
