MODEL 1
REMARK minimizedAffinity 4.61771011
REMARK minimizedRMSD -1
REMARK  0 active torsions:
REMARK  status: ('A' for Active; 'I' for Inactive)
ROOT
ATOM      1  C2' OXE d   1      -2.949   1.561   4.015  0.00  0.00     0.078 C 
ATOM      2  C1' OXE d   1      -1.165  -0.119   5.385  0.00  0.00     0.078 C 
ATOM      3  C1  OXE d   1      -1.380  -0.372   3.914  0.00  0.00    -0.078 A 
ATOM      4  C2  OXE d   1      -2.290   0.425   3.261  0.00  0.00    -0.078 A 
ATOM      5  C3  OXE d   1      -2.486   0.270   1.892  0.00  0.00     0.003 A 
ATOM      6  C4  OXE d   1      -1.880  -0.789   1.205  0.00  0.00    -0.002 A 
ATOM      7  C5  OXE d   1      -0.980  -1.638   1.859  0.00  0.00    -0.002 A 
ATOM      8  C6  OXE d   1      -0.688  -1.417   3.201  0.00  0.00     0.003 A 
ENDROOT
TORSDOF 0
ENDMDL
