MODEL 1
REMARK minimizedAffinity 10.0694742
REMARK minimizedRMSD -1
REMARK  0 active torsions:
REMARK  status: ('A' for Active; 'I' for Inactive)
ROOT
ATOM      1  C2' OXE d   1      -5.033   2.813   6.000  0.00  0.00     0.078 C 
ATOM      2  C1' OXE d   1      -5.860   2.394   3.350  0.00  0.00     0.078 C 
ATOM      3  C1  OXE d   1      -4.551   1.784   3.783  0.00  0.00    -0.078 A 
ATOM      4  C2  OXE d   1      -4.131   2.033   5.068  0.00  0.00    -0.078 A 
ATOM      5  C3  OXE d   1      -2.957   1.448   5.535  0.00  0.00     0.003 A 
ATOM      6  C4  OXE d   1      -2.124   0.737   4.663  0.00  0.00    -0.002 A 
ATOM      7  C5  OXE d   1      -2.514   0.505   3.340  0.00  0.00    -0.002 A 
ATOM      8  C6  OXE d   1      -3.741   0.984   2.897  0.00  0.00     0.003 A 
ENDROOT
TORSDOF 0
ENDMDL
