MODEL 1
REMARK minimizedAffinity 4.90859509
REMARK minimizedRMSD -1
REMARK  0 active torsions:
REMARK  status: ('A' for Active; 'I' for Inactive)
ROOT
ATOM      1  C2' OXE d   1      -2.292   0.739   3.508  0.00  0.00     0.078 C 
ATOM      2  C1' OXE d   1      -4.702   0.645   2.072  0.00  0.00     0.078 C 
ATOM      3  C1  OXE d   1      -4.708   1.339   3.411  0.00  0.00    -0.078 A 
ATOM      4  C2  OXE d   1      -3.535   1.340   4.128  0.00  0.00    -0.078 A 
ATOM      5  C3  OXE d   1      -3.471   2.014   5.344  0.00  0.00     0.003 A 
ATOM      6  C4  OXE d   1      -4.628   2.558   5.914  0.00  0.00    -0.002 A 
ATOM      7  C5  OXE d   1      -5.842   2.534   5.219  0.00  0.00    -0.002 A 
ATOM      8  C6  OXE d   1      -5.889   1.967   3.950  0.00  0.00     0.003 A 
ENDROOT
TORSDOF 0
ENDMDL
