MODEL 1
REMARK minimizedAffinity 8.40902519
REMARK minimizedRMSD -1
REMARK  0 active torsions:
REMARK  status: ('A' for Active; 'I' for Inactive)
ROOT
ATOM      1  C2' OXE d   1      -3.253  -2.695   1.566  0.00  0.00     0.078 C 
ATOM      2  C1' OXE d   1      -2.410  -0.117   2.290  0.00  0.00     0.078 C 
ATOM      3  C1  OXE d   1      -1.352  -1.172   2.088  0.00  0.00    -0.078 A 
ATOM      4  C2  OXE d   1      -1.776  -2.442   1.779  0.00  0.00    -0.078 A 
ATOM      5  C3  OXE d   1      -0.839  -3.441   1.529  0.00  0.00     0.003 A 
ATOM      6  C4  OXE d   1       0.525  -3.201   1.738  0.00  0.00    -0.002 A 
ATOM      7  C5  OXE d   1       0.976  -1.925   2.091  0.00  0.00    -0.002 A 
ATOM      8  C6  OXE d   1       0.056  -0.891   2.228  0.00  0.00     0.003 A 
ENDROOT
TORSDOF 0
ENDMDL
