MODEL 1
REMARK minimizedAffinity 9.65265179
REMARK minimizedRMSD -1
REMARK  0 active torsions:
REMARK  status: ('A' for Active; 'I' for Inactive)
ROOT
ATOM      1  C2' OXE d   1      -5.952  -0.610  -2.251  0.00  0.00     0.078 C 
ATOM      2  C1' OXE d   1      -5.478  -1.489   0.372  0.00  0.00     0.078 C 
ATOM      3  C1  OXE d   1      -5.621  -0.006   0.143  0.00  0.00    -0.078 A 
ATOM      4  C2  OXE d   1      -5.807   0.419  -1.151  0.00  0.00    -0.078 A 
ATOM      5  C3  OXE d   1      -6.000   1.773  -1.411  0.00  0.00     0.003 A 
ATOM      6  C4  OXE d   1      -5.853   2.719  -0.390  0.00  0.00    -0.002 A 
ATOM      7  C5  OXE d   1      -5.625   2.311   0.929  0.00  0.00    -0.002 A 
ATOM      8  C6  OXE d   1      -5.549   0.953   1.218  0.00  0.00     0.003 A 
ENDROOT
TORSDOF 0
ENDMDL
