MODEL 1
REMARK minimizedAffinity 12.3670759
REMARK minimizedRMSD -1
REMARK  0 active torsions:
REMARK  status: ('A' for Active; 'I' for Inactive)
ROOT
ATOM      1  C2' OXE d   1      -1.847   0.396   2.985  0.00  0.00     0.078 C 
ATOM      2  C1' OXE d   1      -4.175  -0.157   1.518  0.00  0.00     0.078 C 
ATOM      3  C1  OXE d   1      -4.311   0.684   2.762  0.00  0.00    -0.078 A 
ATOM      4  C2  OXE d   1      -3.174   0.910   3.500  0.00  0.00    -0.078 A 
ATOM      5  C3  OXE d   1      -3.234   1.725   4.626  0.00  0.00     0.003 A 
ATOM      6  C4  OXE d   1      -4.467   2.189   5.101  0.00  0.00    -0.002 A 
ATOM      7  C5  OXE d   1      -5.643   1.937   4.387  0.00  0.00    -0.002 A 
ATOM      8  C6  OXE d   1      -5.577   1.223   3.195  0.00  0.00     0.003 A 
ENDROOT
TORSDOF 0
ENDMDL
