MODEL 1
REMARK minimizedAffinity 11.8710756
REMARK minimizedRMSD -1
REMARK  0 active torsions:
REMARK  status: ('A' for Active; 'I' for Inactive)
ROOT
ATOM      1  C2' OXE d   1      -1.848   0.268   2.985  0.00  0.00     0.078 C 
ATOM      2  C1' OXE d   1      -1.391   0.585   5.736  0.00  0.00     0.078 C 
ATOM      3  C1  OXE d   1      -2.687   1.113   5.173  0.00  0.00    -0.078 A 
ATOM      4  C2  OXE d   1      -2.882   0.995   3.817  0.00  0.00    -0.078 A 
ATOM      5  C3  OXE d   1      -4.083   1.416   3.254  0.00  0.00     0.003 A 
ATOM      6  C4  OXE d   1      -5.029   2.096   4.030  0.00  0.00    -0.002 A 
ATOM      7  C5  OXE d   1      -4.833   2.262   5.405  0.00  0.00    -0.002 A 
ATOM      8  C6  OXE d   1      -3.689   1.740   5.998  0.00  0.00     0.003 A 
ENDROOT
TORSDOF 0
ENDMDL
