MODEL 1
REMARK minimizedAffinity 13.0343103
REMARK minimizedRMSD -1
REMARK  0 active torsions:
REMARK  status: ('A' for Active; 'I' for Inactive)
ROOT
ATOM      1  C2' OXE d   1       0.633  -1.934   2.142  0.00  0.00     0.078 C 
ATOM      2  C1' OXE d   1      -1.625  -1.249   0.621  0.00  0.00     0.078 C 
ATOM      3  C1  OXE d   1      -1.454  -0.585   1.964  0.00  0.00    -0.078 A 
ATOM      4  C2  OXE d   1      -0.371  -0.961   2.722  0.00  0.00    -0.078 A 
ATOM      5  C3  OXE d   1      -0.136  -0.339   3.945  0.00  0.00     0.003 A 
ATOM      6  C4  OXE d   1      -1.074   0.552   4.479  0.00  0.00    -0.002 A 
ATOM      7  C5  OXE d   1      -2.205   0.919   3.741  0.00  0.00    -0.002 A 
ATOM      8  C6  OXE d   1      -2.387   0.393   2.467  0.00  0.00     0.003 A 
ENDROOT
TORSDOF 0
ENDMDL
