MODEL 1
REMARK minimizedAffinity 11.4818411
REMARK minimizedRMSD -1
REMARK  0 active torsions:
REMARK  status: ('A' for Active; 'I' for Inactive)
ROOT
ATOM      1  C2' OXE d   1       6.000  -2.667  -1.047  0.00  0.00     0.078 C 
ATOM      2  C1' OXE d   1       3.726  -1.959   0.440  0.00  0.00     0.078 C 
ATOM      3  C1  OXE d   1       3.850  -3.391  -0.017  0.00  0.00    -0.078 A 
ATOM      4  C2  OXE d   1       4.943  -3.717  -0.784  0.00  0.00    -0.078 A 
ATOM      5  C3  OXE d   1       5.133  -5.036  -1.186  0.00  0.00     0.003 A 
ATOM      6  C4  OXE d   1       4.146  -6.000  -0.948  0.00  0.00    -0.002 A 
ATOM      7  C5  OXE d   1       3.006  -5.679  -0.203  0.00  0.00    -0.002 A 
ATOM      8  C6  OXE d   1       2.864  -4.392   0.305  0.00  0.00     0.003 A 
ENDROOT
TORSDOF 0
ENDMDL
