MODEL 1
REMARK minimizedAffinity 7.91641045
REMARK minimizedRMSD -1
REMARK  0 active torsions:
REMARK  status: ('A' for Active; 'I' for Inactive)
ROOT
ATOM      1  C2' OXE d   1      -5.830   2.230   4.920  0.00  0.00     0.078 C 
ATOM      2  C1' OXE d   1      -5.104   1.414   2.334  0.00  0.00     0.078 C 
ATOM      3  C1  OXE d   1      -4.079   1.269   3.431  0.00  0.00    -0.078 A 
ATOM      4  C2  OXE d   1      -4.427   1.714   4.684  0.00  0.00    -0.078 A 
ATOM      5  C3  OXE d   1      -3.538   1.554   5.743  0.00  0.00     0.003 A 
ATOM      6  C4  OXE d   1      -2.239   1.085   5.514  0.00  0.00    -0.002 A 
ATOM      7  C5  OXE d   1      -1.851   0.663   4.238  0.00  0.00    -0.002 A 
ATOM      8  C6  OXE d   1      -2.771   0.709   3.196  0.00  0.00     0.003 A 
ENDROOT
TORSDOF 0
ENDMDL
