MODEL 1
REMARK minimizedAffinity 13.8762093
REMARK minimizedRMSD -1
REMARK  0 active torsions:
REMARK  status: ('A' for Active; 'I' for Inactive)
ROOT
ATOM      1  C2' OXE d   1       5.524   4.873  -1.767  0.00  0.00     0.078 C 
ATOM      2  C1' OXE d   1       5.999   4.452  -4.502  0.00  0.00     0.078 C 
ATOM      3  C1  OXE d   1       4.831   3.735  -3.872  0.00  0.00    -0.078 A 
ATOM      4  C2  OXE d   1       4.634   3.911  -2.524  0.00  0.00    -0.078 A 
ATOM      5  C3  OXE d   1       3.539   3.316  -1.904  0.00  0.00     0.003 A 
ATOM      6  C4  OXE d   1       2.726   2.419  -2.608  0.00  0.00    -0.002 A 
ATOM      7  C5  OXE d   1       2.933   2.195  -3.973  0.00  0.00    -0.002 A 
ATOM      8  C6  OXE d   1       3.953   2.877  -4.629  0.00  0.00     0.003 A 
ENDROOT
TORSDOF 0
ENDMDL
