MODEL 1
REMARK minimizedAffinity 10.8695707
REMARK minimizedRMSD -1
REMARK  0 active torsions:
REMARK  status: ('A' for Active; 'I' for Inactive)
ROOT
ATOM      1  C2' OXE d   1      -1.642  -0.569   2.082  0.00  0.00     0.078 C 
ATOM      2  C1' OXE d   1      -4.023   0.871   1.711  0.00  0.00     0.078 C 
ATOM      3  C1  OXE d   1      -3.297   1.037   3.022  0.00  0.00    -0.078 A 
ATOM      4  C2  OXE d   1      -2.158   0.293   3.213  0.00  0.00    -0.078 A 
ATOM      5  C3  OXE d   1      -1.420   0.450   4.383  0.00  0.00     0.003 A 
ATOM      6  C4  OXE d   1      -1.909   1.242   5.429  0.00  0.00    -0.002 A 
ATOM      7  C5  OXE d   1      -3.089   1.978   5.271  0.00  0.00    -0.002 A 
ATOM      8  C6  OXE d   1      -3.771   1.919   4.060  0.00  0.00     0.003 A 
ENDROOT
TORSDOF 0
ENDMDL
