MODEL 1
REMARK minimizedAffinity 5.47057152
REMARK minimizedRMSD -1
REMARK  0 active torsions:
REMARK  status: ('A' for Active; 'I' for Inactive)
ROOT
ATOM      1  C2' OXE d   1      -2.114   1.485   3.839  0.00  0.00     0.078 C 
ATOM      2  C1' OXE d   1      -0.817   0.240   5.996  0.00  0.00     0.078 C 
ATOM      3  C1  OXE d   1      -0.466  -0.220   4.603  0.00  0.00    -0.078 A 
ATOM      4  C2  OXE d   1      -1.139   0.362   3.556  0.00  0.00    -0.078 A 
ATOM      5  C3  OXE d   1      -0.815   0.013   2.248  0.00  0.00     0.003 A 
ATOM      6  C4  OXE d   1       0.081  -1.033   1.995  0.00  0.00    -0.002 A 
ATOM      7  C5  OXE d   1       0.748  -1.667   3.049  0.00  0.00    -0.002 A 
ATOM      8  C6  OXE d   1       0.518  -1.244   4.353  0.00  0.00     0.003 A 
ENDROOT
TORSDOF 0
ENDMDL
