MODEL 1
REMARK minimizedAffinity 13.2175856
REMARK minimizedRMSD -1
REMARK  0 active torsions:
REMARK  status: ('A' for Active; 'I' for Inactive)
ROOT
ATOM      1  C2' OXE d   1       2.310   5.976  -2.236  0.00  0.00     0.078 C 
ATOM      2  C1' OXE d   1       2.369   3.170  -2.282  0.00  0.00     0.078 C 
ATOM      3  C1  OXE d   1       3.637   3.894  -1.903  0.00  0.00    -0.078 A 
ATOM      4  C2  OXE d   1       3.611   5.268  -1.928  0.00  0.00    -0.078 A 
ATOM      5  C3  OXE d   1       4.737   5.986  -1.534  0.00  0.00     0.003 A 
ATOM      6  C4  OXE d   1       5.940   5.323  -1.260  0.00  0.00    -0.002 A 
ATOM      7  C5  OXE d   1       5.998   3.926  -1.268  0.00  0.00    -0.002 A 
ATOM      8  C6  OXE d   1       4.847   3.197  -1.545  0.00  0.00     0.003 A 
ENDROOT
TORSDOF 0
ENDMDL
