MODEL 1
REMARK minimizedAffinity 20.2515125
REMARK minimizedRMSD -1
REMARK  0 active torsions:
REMARK  status: ('A' for Active; 'I' for Inactive)
ROOT
ATOM      1  C2' OXE d   1       2.171  -1.383   1.989  0.00  0.00     0.078 C 
ATOM      2  C1' OXE d   1       0.846  -3.667   1.036  0.00  0.00     0.078 C 
ATOM      3  C1  OXE d   1       0.003  -2.491   1.461  0.00  0.00    -0.078 A 
ATOM      4  C2  OXE d   1       0.658  -1.395   1.970  0.00  0.00    -0.078 A 
ATOM      5  C3  OXE d   1      -0.069  -0.262   2.325  0.00  0.00     0.003 A 
ATOM      6  C4  OXE d   1      -1.469  -0.285   2.314  0.00  0.00    -0.002 A 
ATOM      7  C5  OXE d   1      -2.156  -1.406   1.837  0.00  0.00    -0.002 A 
ATOM      8  C6  OXE d   1      -1.436  -2.499   1.368  0.00  0.00     0.003 A 
ENDROOT
TORSDOF 0
ENDMDL
