MODEL 1
REMARK minimizedAffinity 9.45630646
REMARK minimizedRMSD -1
REMARK  0 active torsions:
REMARK  status: ('A' for Active; 'I' for Inactive)
ROOT
ATOM      1  C2' OXE d   1      -1.118  -4.861  -1.850  0.00  0.00     0.078 C 
ATOM      2  C1' OXE d   1       1.115  -4.892  -3.552  0.00  0.00     0.078 C 
ATOM      3  C1  OXE d   1      -0.223  -5.264  -4.140  0.00  0.00    -0.078 A 
ATOM      4  C2  OXE d   1      -1.302  -5.292  -3.290  0.00  0.00    -0.078 A 
ATOM      5  C3  OXE d   1      -2.569  -5.575  -3.792  0.00  0.00     0.003 A 
ATOM      6  C4  OXE d   1      -2.729  -5.982  -5.122  0.00  0.00    -0.002 A 
ATOM      7  C5  OXE d   1      -1.636  -6.000  -5.996  0.00  0.00    -0.002 A 
ATOM      8  C6  OXE d   1      -0.387  -5.604  -5.532  0.00  0.00     0.003 A 
ENDROOT
TORSDOF 0
ENDMDL
