MODEL 1
REMARK minimizedAffinity 6.80337191
REMARK minimizedRMSD -1
REMARK  0 active torsions:
REMARK  status: ('A' for Active; 'I' for Inactive)
ROOT
ATOM      1  C2' OXE d   1       0.497  -3.602   2.257  0.00  0.00     0.078 C 
ATOM      2  C1' OXE d   1      -1.214  -1.853   0.880  0.00  0.00     0.078 C 
ATOM      3  C1  OXE d   1      -0.678  -1.406   2.217  0.00  0.00    -0.078 A 
ATOM      4  C2  OXE d   1       0.121  -2.287   2.905  0.00  0.00    -0.078 A 
ATOM      5  C3  OXE d   1       0.685  -1.903   4.118  0.00  0.00     0.003 A 
ATOM      6  C4  OXE d   1       0.324  -0.689   4.715  0.00  0.00    -0.002 A 
ATOM      7  C5  OXE d   1      -0.520   0.206   4.050  0.00  0.00    -0.002 A 
ATOM      8  C6  OXE d   1      -0.995  -0.118   2.784  0.00  0.00     0.003 A 
ENDROOT
TORSDOF 0
ENDMDL
