MODEL 1
REMARK minimizedAffinity 4.36898708
REMARK minimizedRMSD -1
REMARK  0 active torsions:
REMARK  status: ('A' for Active; 'I' for Inactive)
ROOT
ATOM      1  C2' OXE d   1       1.133  -5.231  -3.000  0.00  0.00     0.078 C 
ATOM      2  C1' OXE d   1      -0.729  -5.199  -0.899  0.00  0.00     0.078 C 
ATOM      3  C1  OXE d   1      -1.239  -5.500  -2.287  0.00  0.00    -0.078 A 
ATOM      4  C2  OXE d   1      -0.328  -5.467  -3.315  0.00  0.00    -0.078 A 
ATOM      5  C3  OXE d   1      -0.735  -5.791  -4.607  0.00  0.00     0.003 A 
ATOM      6  C4  OXE d   1      -2.090  -5.999  -4.892  0.00  0.00    -0.002 A 
ATOM      7  C5  OXE d   1      -3.040  -5.997  -3.865  0.00  0.00    -0.002 A 
ATOM      8  C6  OXE d   1      -2.626  -5.792  -2.553  0.00  0.00     0.003 A 
ENDROOT
TORSDOF 0
ENDMDL
