MODEL 1
REMARK minimizedAffinity 8.36698437
REMARK minimizedRMSD -1
REMARK  0 active torsions:
REMARK  status: ('A' for Active; 'I' for Inactive)
ROOT
ATOM      1  C2' OXE d   1      -1.911   1.012   3.765  0.00  0.00     0.078 C 
ATOM      2  C1' OXE d   1      -2.038  -0.382   1.332  0.00  0.00     0.078 C 
ATOM      3  C1  OXE d   1      -0.824  -0.594   2.202  0.00  0.00    -0.078 A 
ATOM      4  C2  OXE d   1      -0.749   0.128   3.369  0.00  0.00    -0.078 A 
ATOM      5  C3  OXE d   1       0.322  -0.072   4.235  0.00  0.00     0.003 A 
ATOM      6  C4  OXE d   1       1.398  -0.884   3.857  0.00  0.00    -0.002 A 
ATOM      7  C5  OXE d   1       1.360  -1.598   2.654  0.00  0.00    -0.002 A 
ATOM      8  C6  OXE d   1       0.239  -1.497   1.837  0.00  0.00     0.003 A 
ENDROOT
TORSDOF 0
ENDMDL
