MODEL 1
REMARK minimizedAffinity 13.3060408
REMARK minimizedRMSD -1
REMARK  0 active torsions:
REMARK  status: ('A' for Active; 'I' for Inactive)
ROOT
ATOM      1  C2' OXE d   1      -2.498   1.340   4.317  0.00  0.00     0.078 C 
ATOM      2  C1' OXE d   1      -4.144   0.277   2.307  0.00  0.00     0.078 C 
ATOM      3  C1  OXE d   1      -2.679  -0.083   2.280  0.00  0.00    -0.078 A 
ATOM      4  C2  OXE d   1      -1.873   0.479   3.240  0.00  0.00    -0.078 A 
ATOM      5  C3  OXE d   1      -0.525   0.137   3.294  0.00  0.00     0.003 A 
ATOM      6  C4  OXE d   1       0.047  -0.653   2.289  0.00  0.00    -0.002 A 
ATOM      7  C5  OXE d   1      -0.749  -1.203   1.280  0.00  0.00    -0.002 A 
ATOM      8  C6  OXE d   1      -2.119  -0.964   1.285  0.00  0.00     0.003 A 
ENDROOT
TORSDOF 0
ENDMDL
