MODEL 1
REMARK minimizedAffinity -3.80537629
REMARK minimizedRMSD -1
REMARK  1 active torsions:
REMARK  status: ('A' for Active; 'I' for Inactive)
REMARK    1  A    between atoms: C3_4  and  O_7 
ROOT
ATOM      1  C   UNL d   1      -5.861  -4.910  -4.547  0.00  0.00    -0.033 A 
ATOM      2  C1  UNL d   1      -5.108  -5.718  -5.402  0.00  0.00     0.039 A 
ATOM      3  C2  UNL d   1      -3.826  -5.322  -5.789  0.00  0.00    -0.080 A 
ATOM      4  C3  UNL d   1      -3.309  -4.120  -5.315  0.00  0.00     0.150 A 
ATOM      5  C4  UNL d   1      -4.052  -3.313  -4.460  0.00  0.00    -0.007 A 
ATOM      6  C5  UNL d   1      -5.332  -3.708  -4.075  0.00  0.00     0.039 A 
ENDROOT
BRANCH   4   7
ATOM      7  O   UNL d   1      -2.065  -3.690  -5.669  0.00  0.00    -0.526 OA
ATOM      8  H5  UNL d   1      -1.680  -4.335  -6.286  0.00  0.00     0.418 HD
ENDBRANCH   4   7
TORSDOF 1
ENDMDL
