MODEL 1
REMARK minimizedAffinity -3.39456987
REMARK minimizedRMSD -1
REMARK  1 active torsions:
REMARK  status: ('A' for Active; 'I' for Inactive)
REMARK    1  A    between atoms: C3_4  and  O_7 
ROOT
ATOM      1  C   UNL d   1      -5.999  -3.066  -4.808  0.00  0.00    -0.033 A 
ATOM      2  C1  UNL d   1      -5.883  -4.047  -5.795  0.00  0.00     0.039 A 
ATOM      3  C2  UNL d   1      -4.912  -5.043  -5.682  0.00  0.00    -0.080 A 
ATOM      4  C3  UNL d   1      -4.064  -5.048  -4.578  0.00  0.00     0.150 A 
ATOM      5  C4  UNL d   1      -4.176  -4.077  -3.588  0.00  0.00    -0.007 A 
ATOM      6  C5  UNL d   1      -5.146  -3.082  -3.704  0.00  0.00     0.039 A 
ENDROOT
BRANCH   4   7
ATOM      7  O   UNL d   1      -3.097  -5.998  -4.426  0.00  0.00    -0.526 OA
ATOM      8  H5  UNL d   1      -3.119  -6.585  -5.199  0.00  0.00     0.418 HD
ENDBRANCH   4   7
TORSDOF 1
ENDMDL
