MODEL 1
REMARK minimizedAffinity -3.96170378
REMARK minimizedRMSD -1
REMARK  1 active torsions:
REMARK  status: ('A' for Active; 'I' for Inactive)
REMARK    1  A    between atoms: C3_4  and  O_7 
ROOT
ATOM      1  C   UNL d   1      -5.143  -3.869  -4.198  0.00  0.00    -0.033 A 
ATOM      2  C1  UNL d   1      -4.997  -5.213  -4.550  0.00  0.00     0.039 A 
ATOM      3  C2  UNL d   1      -3.773  -5.680  -5.032  0.00  0.00    -0.080 A 
ATOM      4  C3  UNL d   1      -2.705  -4.796  -5.158  0.00  0.00     0.150 A 
ATOM      5  C4  UNL d   1      -2.842  -3.458  -4.806  0.00  0.00    -0.007 A 
ATOM      6  C5  UNL d   1      -4.065  -2.992  -4.325  0.00  0.00     0.039 A 
ENDROOT
BRANCH   4   7
ATOM      7  O   UNL d   1      -1.493  -5.206  -5.628  0.00  0.00    -0.526 OA
ATOM      8  H5  UNL d   1      -1.554  -6.148  -5.858  0.00  0.00     0.418 HD
ENDBRANCH   4   7
TORSDOF 1
ENDMDL
