MODEL 1
REMARK minimizedAffinity -3.72595263
REMARK minimizedRMSD -1
REMARK  1 active torsions:
REMARK  status: ('A' for Active; 'I' for Inactive)
REMARK    1  A    between atoms: C3_4  and  O_7 
ROOT
ATOM      1  C   UNL d   1      -5.054  -4.225  -4.569  0.00  0.00    -0.033 A 
ATOM      2  C1  UNL d   1      -4.301  -3.055  -4.675  0.00  0.00     0.039 A 
ATOM      3  C2  UNL d   1      -2.990  -3.106  -5.155  0.00  0.00    -0.080 A 
ATOM      4  C3  UNL d   1      -2.446  -4.333  -5.525  0.00  0.00     0.150 A 
ATOM      5  C4  UNL d   1      -3.192  -5.503  -5.426  0.00  0.00    -0.007 A 
ATOM      6  C5  UNL d   1      -4.500  -5.449  -4.946  0.00  0.00     0.039 A 
ENDROOT
BRANCH   4   7
ATOM      7  O   UNL d   1      -1.170  -4.434  -5.994  0.00  0.00    -0.526 OA
ATOM      8  H5  UNL d   1      -0.767  -3.550  -5.981  0.00  0.00     0.418 HD
ENDBRANCH   4   7
TORSDOF 1
ENDMDL
