MODEL 1
REMARK minimizedAffinity -3.41058707
REMARK minimizedRMSD -1
REMARK  1 active torsions:
REMARK  status: ('A' for Active; 'I' for Inactive)
REMARK    1  A    between atoms: C3_4  and  O_7 
ROOT
ATOM      1  C   UNL d   1      -5.184  -4.824  -4.463  0.00  0.00    -0.033 A 
ATOM      2  C1  UNL d   1      -4.318  -5.529  -3.624  0.00  0.00     0.039 A 
ATOM      3  C2  UNL d   1      -2.968  -5.654  -3.957  0.00  0.00    -0.080 A 
ATOM      4  C3  UNL d   1      -2.497  -5.068  -5.129  0.00  0.00     0.150 A 
ATOM      5  C4  UNL d   1      -3.352  -4.361  -5.967  0.00  0.00    -0.007 A 
ATOM      6  C5  UNL d   1      -4.701  -4.238  -5.634  0.00  0.00     0.039 A 
ENDROOT
BRANCH   4   7
ATOM      7  O   UNL d   1      -1.188  -5.167  -5.499  0.00  0.00    -0.526 OA
ATOM      8  H5  UNL d   1      -0.722  -5.708  -4.839  0.00  0.00     0.418 HD
ENDBRANCH   4   7
TORSDOF 1
ENDMDL
