MODEL 1
REMARK minimizedAffinity -3.1799047
REMARK minimizedRMSD -1
REMARK  1 active torsions:
REMARK  status: ('A' for Active; 'I' for Inactive)
REMARK    1  A    between atoms: C3_4  and  O_7 
ROOT
ATOM      1  C   UNL d   1      -4.563  -5.582  -4.594  0.00  0.00    -0.033 A 
ATOM      2  C1  UNL d   1      -3.713  -4.971  -5.518  0.00  0.00     0.039 A 
ATOM      3  C2  UNL d   1      -4.006  -3.693  -6.000  0.00  0.00    -0.080 A 
ATOM      4  C3  UNL d   1      -5.150  -3.039  -5.550  0.00  0.00     0.150 A 
ATOM      5  C4  UNL d   1      -5.999  -3.641  -4.627  0.00  0.00    -0.007 A 
ATOM      6  C5  UNL d   1      -5.705  -4.917  -4.148  0.00  0.00     0.039 A 
ENDROOT
BRANCH   4   7
ATOM      7  O   UNL d   1      -5.480  -1.794  -5.996  0.00  0.00    -0.526 OA
ATOM      8  H5  UNL d   1      -4.818  -1.516  -6.650  0.00  0.00     0.418 HD
ENDBRANCH   4   7
TORSDOF 1
ENDMDL
