MODEL 1
REMARK minimizedAffinity -3.57714844
REMARK minimizedRMSD -1
REMARK  1 active torsions:
REMARK  status: ('A' for Active; 'I' for Inactive)
REMARK    1  A    between atoms: C3_4  and  O_7 
ROOT
ATOM      1  C   UNL d   1      -4.939  -2.008  -5.160  0.00  0.00    -0.033 A 
ATOM      2  C1  UNL d   1      -3.676  -2.582  -5.323  0.00  0.00     0.039 A 
ATOM      3  C2  UNL d   1      -3.471  -3.925  -5.005  0.00  0.00    -0.080 A 
ATOM      4  C3  UNL d   1      -4.535  -4.684  -4.525  0.00  0.00     0.150 A 
ATOM      5  C4  UNL d   1      -5.797  -4.120  -4.364  0.00  0.00    -0.007 A 
ATOM      6  C5  UNL d   1      -5.999  -2.778  -4.682  0.00  0.00     0.039 A 
ENDROOT
BRANCH   4   7
ATOM      7  O   UNL d   1      -4.383  -5.998  -4.197  0.00  0.00    -0.526 OA
ATOM      8  H5  UNL d   1      -3.452  -6.243  -4.332  0.00  0.00     0.418 HD
ENDBRANCH   4   7
TORSDOF 1
ENDMDL
