MODEL 1
REMARK minimizedAffinity -3.82416773
REMARK minimizedRMSD -1
REMARK  1 active torsions:
REMARK  status: ('A' for Active; 'I' for Inactive)
REMARK    1  A    between atoms: C3_4  and  O_7 
ROOT
ATOM      1  C   UNL d   1      -3.756  -5.074  -5.316  0.00  0.00    -0.033 A 
ATOM      2  C1  UNL d   1      -5.116  -5.095  -5.630  0.00  0.00     0.039 A 
ATOM      3  C2  UNL d   1      -5.799  -3.900  -5.865  0.00  0.00    -0.080 A 
ATOM      4  C3  UNL d   1      -5.110  -2.692  -5.783  0.00  0.00     0.150 A 
ATOM      5  C4  UNL d   1      -3.754  -2.665  -5.475  0.00  0.00    -0.007 A 
ATOM      6  C5  UNL d   1      -3.074  -3.859  -5.240  0.00  0.00     0.039 A 
ENDROOT
BRANCH   4   7
ATOM      7  O   UNL d   1      -5.735  -1.500  -5.999  0.00  0.00    -0.526 OA
ATOM      8  H5  UNL d   1      -6.675  -1.672  -6.174  0.00  0.00     0.418 HD
ENDBRANCH   4   7
TORSDOF 1
ENDMDL
