MODEL 1
REMARK minimizedAffinity -2.79973769
REMARK minimizedRMSD -1
REMARK  1 active torsions:
REMARK  status: ('A' for Active; 'I' for Inactive)
REMARK    1  A    between atoms: C3_4  and  O_7 
ROOT
ATOM      1  C   UNL d   1      -4.389  -5.165  -5.199  0.00  0.00    -0.033 A 
ATOM      2  C1  UNL d   1      -5.487  -4.844  -5.999  0.00  0.00     0.039 A 
ATOM      3  C2  UNL d   1      -5.999  -3.545  -5.996  0.00  0.00    -0.080 A 
ATOM      4  C3  UNL d   1      -5.405  -2.578  -5.189  0.00  0.00     0.150 A 
ATOM      5  C4  UNL d   1      -4.308  -2.891  -4.393  0.00  0.00    -0.007 A 
ATOM      6  C5  UNL d   1      -3.799  -4.188  -4.396  0.00  0.00     0.039 A 
ENDROOT
BRANCH   4   7
ATOM      7  O   UNL d   1      -5.872  -1.298  -5.149  0.00  0.00    -0.526 OA
ATOM      8  H5  UNL d   1      -6.650  -1.236  -5.728  0.00  0.00     0.418 HD
ENDBRANCH   4   7
TORSDOF 1
ENDMDL
