MODEL 1
REMARK minimizedAffinity -3.40894938
REMARK minimizedRMSD -1
REMARK  1 active torsions:
REMARK  status: ('A' for Active; 'I' for Inactive)
REMARK    1  A    between atoms: C3_4  and  O_7 
ROOT
ATOM      1  C   UNL d   1      -4.462  -5.423  -4.345  0.00  0.00    -0.033 A 
ATOM      2  C1  UNL d   1      -5.570  -4.757  -3.821  0.00  0.00     0.039 A 
ATOM      3  C2  UNL d   1      -5.977  -3.537  -4.366  0.00  0.00    -0.080 A 
ATOM      4  C3  UNL d   1      -5.268  -2.997  -5.435  0.00  0.00     0.150 A 
ATOM      5  C4  UNL d   1      -4.165  -3.658  -5.966  0.00  0.00    -0.007 A 
ATOM      6  C5  UNL d   1      -3.760  -4.875  -5.419  0.00  0.00     0.039 A 
ENDROOT
BRANCH   4   7
ATOM      7  O   UNL d   1      -5.623  -1.807  -5.998  0.00  0.00    -0.526 OA
ATOM      8  H5  UNL d   1      -6.385  -1.452  -5.510  0.00  0.00     0.418 HD
ENDBRANCH   4   7
TORSDOF 1
ENDMDL
