MODEL 1
REMARK minimizedAffinity -3.24061584
REMARK minimizedRMSD -1
REMARK  1 active torsions:
REMARK  status: ('A' for Active; 'I' for Inactive)
REMARK    1  A    between atoms: C3_4  and  O_7 
ROOT
ATOM      1  C   UNL d   1      -4.901  -4.840  -5.484  0.00  0.00    -0.033 A 
ATOM      2  C1  UNL d   1      -4.237  -5.966  -5.974  0.00  0.00     0.039 A 
ATOM      3  C2  UNL d   1      -2.841  -6.000  -6.000  0.00  0.00    -0.080 A 
ATOM      4  C3  UNL d   1      -2.123  -4.903  -5.531  0.00  0.00     0.150 A 
ATOM      5  C4  UNL d   1      -2.778  -3.780  -5.037  0.00  0.00    -0.007 A 
ATOM      6  C5  UNL d   1      -4.172  -3.748  -5.014  0.00  0.00     0.039 A 
ENDROOT
BRANCH   4   7
ATOM      7  O   UNL d   1      -0.760  -4.888  -5.540  0.00  0.00    -0.526 OA
ATOM      8  H5  UNL d   1      -0.445  -5.719  -5.935  0.00  0.00     0.418 HD
ENDBRANCH   4   7
TORSDOF 1
ENDMDL
