MODEL 1
REMARK minimizedAffinity -0.68945539
REMARK minimizedRMSD -1
REMARK  1 active torsions:
REMARK  status: ('A' for Active; 'I' for Inactive)
REMARK    1  A    between atoms: C3_4  and  O_7 
ROOT
ATOM      1  C   UNL d   1      -4.490  -4.006  -6.000  0.00  0.00    -0.033 A 
ATOM      2  C1  UNL d   1      -3.671  -2.947  -5.604  0.00  0.00     0.039 A 
ATOM      3  C2  UNL d   1      -2.356  -3.191  -5.204  0.00  0.00    -0.080 A 
ATOM      4  C3  UNL d   1      -1.872  -4.496  -5.205  0.00  0.00     0.150 A 
ATOM      5  C4  UNL d   1      -2.682  -5.556  -5.602  0.00  0.00    -0.007 A 
ATOM      6  C5  UNL d   1      -3.995  -5.311  -6.000  0.00  0.00     0.039 A 
ENDROOT
BRANCH   4   7
ATOM      7  O   UNL d   1      -0.597  -4.784  -4.818  0.00  0.00    -0.526 OA
ATOM      8  H5  UNL d   1      -0.165  -3.958  -4.544  0.00  0.00     0.418 HD
ENDBRANCH   4   7
TORSDOF 1
ENDMDL
