MODEL 1
REMARK minimizedAffinity -3.9338007
REMARK minimizedRMSD -1
REMARK  1 active torsions:
REMARK  status: ('A' for Active; 'I' for Inactive)
REMARK    1  A    between atoms: C3_4  and  O_7 
ROOT
ATOM      1  C   UNL d   1      -5.068  -4.890  -4.860  0.00  0.00    -0.033 A 
ATOM      2  C1  UNL d   1      -4.456  -3.638  -4.775  0.00  0.00     0.039 A 
ATOM      3  C2  UNL d   1      -3.113  -3.490  -5.128  0.00  0.00    -0.080 A 
ATOM      4  C3  UNL d   1      -2.395  -4.599  -5.566  0.00  0.00     0.150 A 
ATOM      5  C4  UNL d   1      -3.000  -5.849  -5.657  0.00  0.00    -0.007 A 
ATOM      6  C5  UNL d   1      -4.340  -5.995  -5.303  0.00  0.00     0.039 A 
ENDROOT
BRANCH   4   7
ATOM      7  O   UNL d   1      -1.082  -4.505  -5.917  0.00  0.00    -0.526 OA
ATOM      8  H5  UNL d   1      -0.790  -3.588  -5.776  0.00  0.00     0.418 HD
ENDBRANCH   4   7
TORSDOF 1
ENDMDL
