MODEL 1
REMARK minimizedAffinity -3.17394805
REMARK minimizedRMSD -1
REMARK  1 active torsions:
REMARK  status: ('A' for Active; 'I' for Inactive)
REMARK    1  A    between atoms: C3_4  and  O_7 
ROOT
ATOM      1  C   UNL d   1      -5.376  -3.441  -4.433  0.00  0.00    -0.033 A 
ATOM      2  C1  UNL d   1      -5.153  -4.677  -3.824  0.00  0.00     0.039 A 
ATOM      3  C2  UNL d   1      -4.049  -5.449  -4.191  0.00  0.00    -0.080 A 
ATOM      4  C3  UNL d   1      -3.176  -4.974  -5.166  0.00  0.00     0.150 A 
ATOM      5  C4  UNL d   1      -3.390  -3.741  -5.774  0.00  0.00    -0.007 A 
ATOM      6  C5  UNL d   1      -4.493  -2.972  -5.407  0.00  0.00     0.039 A 
ENDROOT
BRANCH   4   7
ATOM      7  O   UNL d   1      -2.087  -5.693  -5.560  0.00  0.00    -0.526 OA
ATOM      8  H5  UNL d   1      -2.083  -6.536  -5.076  0.00  0.00     0.418 HD
ENDBRANCH   4   7
TORSDOF 1
ENDMDL
