MODEL 1
REMARK minimizedAffinity 3.01209116
REMARK minimizedRMSD -1
REMARK  1 active torsions:
REMARK  status: ('A' for Active; 'I' for Inactive)
REMARK    1  A    between atoms: C3_4  and  O_7 
ROOT
ATOM      1  C   UNL d   1      -1.148  -6.000  -5.362  0.00  0.00    -0.033 A 
ATOM      2  C1  UNL d   1      -2.391  -5.995  -6.000  0.00  0.00     0.039 A 
ATOM      3  C2  UNL d   1      -3.373  -5.081  -5.612  0.00  0.00    -0.080 A 
ATOM      4  C3  UNL d   1      -3.100  -4.179  -4.587  0.00  0.00     0.150 A 
ATOM      5  C4  UNL d   1      -1.864  -4.176  -3.950  0.00  0.00    -0.007 A 
ATOM      6  C5  UNL d   1      -0.884  -5.089  -4.339  0.00  0.00     0.039 A 
ENDROOT
BRANCH   4   7
ATOM      7  O   UNL d   1      -4.029  -3.272  -4.171  0.00  0.00    -0.526 OA
ATOM      8  H5  UNL d   1      -4.845  -3.411  -4.681  0.00  0.00     0.418 HD
ENDBRANCH   4   7
TORSDOF 1
ENDMDL
