MODEL 1
REMARK minimizedAffinity -3.55852795
REMARK minimizedRMSD -1
REMARK  1 active torsions:
REMARK  status: ('A' for Active; 'I' for Inactive)
REMARK    1  A    between atoms: C3_4  and  O_7 
ROOT
ATOM      1  C   UNL d   1      -5.369  -3.911  -5.593  0.00  0.00    -0.033 A 
ATOM      2  C1  UNL d   1      -4.241  -3.213  -5.158  0.00  0.00     0.039 A 
ATOM      3  C2  UNL d   1      -3.060  -3.900  -4.873  0.00  0.00    -0.080 A 
ATOM      4  C3  UNL d   1      -3.019  -5.283  -5.027  0.00  0.00     0.150 A 
ATOM      5  C4  UNL d   1      -4.138  -5.985  -5.464  0.00  0.00    -0.007 A 
ATOM      6  C5  UNL d   1      -5.317  -5.297  -5.747  0.00  0.00     0.039 A 
ENDROOT
BRANCH   4   7
ATOM      7  O   UNL d   1      -1.890  -5.998  -4.756  0.00  0.00    -0.526 OA
ATOM      8  H5  UNL d   1      -1.207  -5.385  -4.437  0.00  0.00     0.418 HD
ENDBRANCH   4   7
TORSDOF 1
ENDMDL
