MODEL 1
REMARK minimizedAffinity -2.64348507
REMARK minimizedRMSD -1
REMARK  1 active torsions:
REMARK  status: ('A' for Active; 'I' for Inactive)
REMARK    1  A    between atoms: C3_4  and  O_7 
ROOT
ATOM      1  C   UNL d   1      -3.719  -5.902  -5.828  0.00  0.00    -0.033 A 
ATOM      2  C1  UNL d   1      -5.091  -5.998  -5.590  0.00  0.00     0.039 A 
ATOM      3  C2  UNL d   1      -5.871  -4.842  -5.520  0.00  0.00    -0.080 A 
ATOM      4  C3  UNL d   1      -5.267  -3.599  -5.690  0.00  0.00     0.150 A 
ATOM      5  C4  UNL d   1      -3.901  -3.497  -5.931  0.00  0.00    -0.007 A 
ATOM      6  C5  UNL d   1      -3.124  -4.652  -6.000  0.00  0.00     0.039 A 
ENDROOT
BRANCH   4   7
ATOM      7  O   UNL d   1      -5.987  -2.442  -5.625  0.00  0.00    -0.526 OA
ATOM      8  H5  UNL d   1      -6.911  -2.666  -5.424  0.00  0.00     0.418 HD
ENDBRANCH   4   7
TORSDOF 1
ENDMDL
