MODEL 1
REMARK minimizedAffinity 0.895518064
REMARK minimizedRMSD -1
REMARK  0 active torsions:
REMARK  status: ('A' for Active; 'I' for Inactive)
ROOT
ATOM      1  C   UNL d   1      -5.949  -5.317   3.975  0.00  0.00     0.078 C 
ATOM      2  C1  UNL d   1      -5.362  -5.322   2.595  0.00  0.00    -0.077 A 
ATOM      3  C2  UNL d   1      -5.999  -5.993   1.543  0.00  0.00    -0.001 A 
ATOM      4  C3  UNL d   1      -5.436  -5.997   0.266  0.00  0.00     0.003 A 
ATOM      5  C4  UNL d   1      -4.234  -5.334   0.028  0.00  0.00    -0.005 A 
ATOM      6  C5  UNL d   1      -3.593  -4.665   1.069  0.00  0.00     0.003 A 
ATOM      7  C6  UNL d   1      -4.153  -4.660   2.347  0.00  0.00    -0.001 A 
ENDROOT
TORSDOF 0
ENDMDL
