MODEL 1
REMARK minimizedAffinity 2.4883461
REMARK minimizedRMSD -1
REMARK  0 active torsions:
REMARK  status: ('A' for Active; 'I' for Inactive)
ROOT
ATOM      1  C   UNL d   1       0.793  -5.962  -5.989  0.00  0.00     0.078 C 
ATOM      2  C1  UNL d   1      -0.066  -5.966  -4.759  0.00  0.00    -0.077 A 
ATOM      3  C2  UNL d   1       0.505  -5.965  -3.481  0.00  0.00    -0.001 A 
ATOM      4  C3  UNL d   1      -0.307  -5.979  -2.345  0.00  0.00     0.003 A 
ATOM      5  C4  UNL d   1      -1.694  -5.995  -2.477  0.00  0.00    -0.005 A 
ATOM      6  C5  UNL d   1      -2.271  -5.998  -3.745  0.00  0.00     0.003 A 
ATOM      7  C6  UNL d   1      -1.461  -5.984  -4.882  0.00  0.00    -0.001 A 
ENDROOT
TORSDOF 0
ENDMDL
