MODEL 1
REMARK minimizedAffinity 1.18763828
REMARK minimizedRMSD -1
REMARK  0 active torsions:
REMARK  status: ('A' for Active; 'I' for Inactive)
ROOT
ATOM      1  C   UNL d   1       1.295   3.769   0.336  0.00  0.00     0.078 C 
ATOM      2  C1  UNL d   1       2.741   4.098   0.116  0.00  0.00    -0.077 A 
ATOM      3  C2  UNL d   1       3.404   5.019   0.937  0.00  0.00    -0.001 A 
ATOM      4  C3  UNL d   1       4.748   5.324   0.715  0.00  0.00     0.003 A 
ATOM      5  C4  UNL d   1       5.440   4.713  -0.329  0.00  0.00    -0.005 A 
ATOM      6  C5  UNL d   1       4.788   3.797  -1.152  0.00  0.00     0.003 A 
ATOM      7  C6  UNL d   1       3.445   3.491  -0.931  0.00  0.00    -0.001 A 
ENDROOT
TORSDOF 0
ENDMDL
