MODEL 1
REMARK minimizedAffinity 0.416594446
REMARK minimizedRMSD -1
REMARK  0 active torsions:
REMARK  status: ('A' for Active; 'I' for Inactive)
ROOT
ATOM      1  C   UNL d   1       0.019  -5.998  -1.671  0.00  0.00     0.078 C 
ATOM      2  C1  UNL d   1       0.047  -5.999  -3.170  0.00  0.00    -0.077 A 
ATOM      3  C2  UNL d   1       1.261  -5.986  -3.868  0.00  0.00    -0.001 A 
ATOM      4  C3  UNL d   1       1.272  -5.976  -5.264  0.00  0.00     0.003 A 
ATOM      5  C4  UNL d   1       0.073  -5.980  -5.973  0.00  0.00    -0.005 A 
ATOM      6  C5  UNL d   1      -1.139  -5.991  -5.287  0.00  0.00     0.003 A 
ATOM      7  C6  UNL d   1      -1.153  -6.000  -3.892  0.00  0.00    -0.001 A 
ENDROOT
TORSDOF 0
ENDMDL
