MODEL 1
REMARK minimizedAffinity -3.74566197
REMARK minimizedRMSD -1
REMARK  0 active torsions:
REMARK  status: ('A' for Active; 'I' for Inactive)
ROOT
ATOM      1  C   UNL d   1       1.203  -5.578  -5.219  0.00  0.00     0.078 C 
ATOM      2  C1  UNL d   1      -0.264  -5.705  -4.939  0.00  0.00    -0.077 A 
ATOM      3  C2  UNL d   1      -0.738  -5.873  -3.632  0.00  0.00    -0.001 A 
ATOM      4  C3  UNL d   1      -2.106  -6.000  -3.388  0.00  0.00     0.003 A 
ATOM      5  C4  UNL d   1      -3.012  -5.960  -4.446  0.00  0.00    -0.005 A 
ATOM      6  C5  UNL d   1      -2.551  -5.795  -5.750  0.00  0.00     0.003 A 
ATOM      7  C6  UNL d   1      -1.183  -5.668  -5.996  0.00  0.00    -0.001 A 
ENDROOT
TORSDOF 0
ENDMDL
