MODEL 1
REMARK minimizedAffinity 2.4861443
REMARK minimizedRMSD -1
REMARK  0 active torsions:
REMARK  status: ('A' for Active; 'I' for Inactive)
ROOT
ATOM      1  C   UNL d   1       0.153  -5.974  -1.825  0.00  0.00     0.078 C 
ATOM      2  C1  UNL d   1      -0.203  -5.988  -3.282  0.00  0.00    -0.077 A 
ATOM      3  C2  UNL d   1       0.792  -5.982  -4.267  0.00  0.00    -0.001 A 
ATOM      4  C3  UNL d   1       0.446  -5.985  -5.619  0.00  0.00     0.003 A 
ATOM      5  C4  UNL d   1      -0.894  -5.992  -5.999  0.00  0.00    -0.005 A 
ATOM      6  C5  UNL d   1      -1.891  -5.996  -5.026  0.00  0.00     0.003 A 
ATOM      7  C6  UNL d   1      -1.548  -5.993  -3.673  0.00  0.00    -0.001 A 
ENDROOT
TORSDOF 0
ENDMDL
