MODEL 1
REMARK minimizedAffinity -0.162599459
REMARK minimizedRMSD -1
REMARK  0 active torsions:
REMARK  status: ('A' for Active; 'I' for Inactive)
ROOT
ATOM      1  C   UNL d   1      -1.725  -1.789   0.074  0.00  0.00     0.078 C 
ATOM      2  C1  UNL d   1      -0.248  -1.571   0.221  0.00  0.00    -0.077 A 
ATOM      3  C2  UNL d   1       0.361  -0.408  -0.267  0.00  0.00    -0.001 A 
ATOM      4  C3  UNL d   1       1.738  -0.223  -0.132  0.00  0.00     0.003 A 
ATOM      5  C4  UNL d   1       2.517  -1.197   0.488  0.00  0.00    -0.005 A 
ATOM      6  C5  UNL d   1       1.921  -2.359   0.974  0.00  0.00     0.003 A 
ATOM      7  C6  UNL d   1       0.544  -2.546   0.840  0.00  0.00    -0.001 A 
ENDROOT
TORSDOF 0
ENDMDL
