MODEL 1
REMARK minimizedAffinity -0.161546066
REMARK minimizedRMSD -1
REMARK  0 active torsions:
REMARK  status: ('A' for Active; 'I' for Inactive)
ROOT
ATOM      1  C   UNL d   1      -2.554  -5.997  -2.888  0.00  0.00     0.078 C 
ATOM      2  C1  UNL d   1      -1.351  -5.990  -3.783  0.00  0.00    -0.077 A 
ATOM      3  C2  UNL d   1      -1.489  -5.993  -5.177  0.00  0.00    -0.001 A 
ATOM      4  C3  UNL d   1      -0.360  -5.997  -5.997  0.00  0.00     0.003 A 
ATOM      5  C4  UNL d   1       0.915  -6.000  -5.434  0.00  0.00    -0.005 A 
ATOM      6  C5  UNL d   1       1.062  -5.999  -4.048  0.00  0.00     0.003 A 
ATOM      7  C6  UNL d   1      -0.066  -5.995  -3.226  0.00  0.00    -0.001 A 
ENDROOT
TORSDOF 0
ENDMDL
