MODEL 1
REMARK minimizedAffinity -1.12927425
REMARK minimizedRMSD -1
REMARK  0 active torsions:
REMARK  status: ('A' for Active; 'I' for Inactive)
ROOT
ATOM      1  C   UNL d   1       1.461   0.773   0.328  0.00  0.00     0.078 C 
ATOM      2  C1  UNL d   1       0.605  -0.423   0.622  0.00  0.00    -0.077 A 
ATOM      3  C2  UNL d   1       0.958  -1.694   0.153  0.00  0.00    -0.001 A 
ATOM      4  C3  UNL d   1       0.146  -2.797   0.426  0.00  0.00     0.003 A 
ATOM      5  C4  UNL d   1      -1.023  -2.639   1.167  0.00  0.00    -0.005 A 
ATOM      6  C5  UNL d   1      -1.383  -1.377   1.636  0.00  0.00     0.003 A 
ATOM      7  C6  UNL d   1      -0.573  -0.273   1.364  0.00  0.00    -0.001 A 
ENDROOT
TORSDOF 0
ENDMDL
