MODEL 1
REMARK minimizedAffinity -2.80729151
REMARK minimizedRMSD -1
REMARK  0 active torsions:
REMARK  status: ('A' for Active; 'I' for Inactive)
ROOT
ATOM      1  C   UNL d   1       2.968  -0.777   0.287  0.00  0.00     0.078 C 
ATOM      2  C1  UNL d   1       1.551  -1.162   0.592  0.00  0.00    -0.077 A 
ATOM      3  C2  UNL d   1       0.578  -0.188   0.846  0.00  0.00    -0.001 A 
ATOM      4  C3  UNL d   1      -0.735  -0.561   1.137  0.00  0.00     0.003 A 
ATOM      5  C4  UNL d   1      -1.086  -1.909   1.179  0.00  0.00    -0.005 A 
ATOM      6  C5  UNL d   1      -0.124  -2.886   0.930  0.00  0.00     0.003 A 
ATOM      7  C6  UNL d   1       1.189  -2.514   0.638  0.00  0.00    -0.001 A 
ENDROOT
TORSDOF 0
ENDMDL
