MODEL 1
REMARK minimizedAffinity 1.28869951
REMARK minimizedRMSD -1
REMARK  0 active torsions:
REMARK  status: ('A' for Active; 'I' for Inactive)
ROOT
ATOM      1  C   UNL d   1       0.100  -5.953  -1.950  0.00  0.00     0.078 C 
ATOM      2  C1  UNL d   1      -0.410  -5.976  -3.360  0.00  0.00    -0.077 A 
ATOM      3  C2  UNL d   1       0.473  -5.974  -4.446  0.00  0.00    -0.001 A 
ATOM      4  C3  UNL d   1      -0.015  -5.986  -5.754  0.00  0.00     0.003 A 
ATOM      5  C4  UNL d   1      -1.389  -6.000  -5.987  0.00  0.00    -0.005 A 
ATOM      6  C5  UNL d   1      -2.276  -6.000  -4.912  0.00  0.00     0.003 A 
ATOM      7  C6  UNL d   1      -1.789  -5.988  -3.604  0.00  0.00    -0.001 A 
ENDROOT
TORSDOF 0
ENDMDL
