MODEL 1
REMARK minimizedAffinity -3.98428917
REMARK minimizedRMSD -1
REMARK  0 active torsions:
REMARK  status: ('A' for Active; 'I' for Inactive)
ROOT
ATOM      1  C   UNL d   1      -3.143  -5.902  -3.732  0.00  0.00     0.078 C 
ATOM      2  C1  UNL d   1      -1.676  -5.766  -4.009  0.00  0.00    -0.077 A 
ATOM      3  C2  UNL d   1      -0.740  -5.792  -2.968  0.00  0.00    -0.001 A 
ATOM      4  C3  UNL d   1       0.622  -5.655  -3.240  0.00  0.00     0.003 A 
ATOM      5  C4  UNL d   1       1.061  -5.491  -4.552  0.00  0.00    -0.005 A 
ATOM      6  C5  UNL d   1       0.137  -5.462  -5.594  0.00  0.00     0.003 A 
ATOM      7  C6  UNL d   1      -1.225  -5.599  -5.325  0.00  0.00    -0.001 A 
ENDROOT
TORSDOF 0
ENDMDL
