MODEL 1
REMARK minimizedAffinity -0.413561881
REMARK minimizedRMSD -1
REMARK  0 active torsions:
REMARK  status: ('A' for Active; 'I' for Inactive)
ROOT
ATOM      1  C   UNL d   1       0.436  -5.973  -5.457  0.00  0.00     0.078 C 
ATOM      2  C1  UNL d   1      -0.495  -5.973  -4.282  0.00  0.00    -0.077 A 
ATOM      3  C2  UNL d   1      -0.002  -5.972  -2.971  0.00  0.00    -0.001 A 
ATOM      4  C3  UNL d   1      -0.880  -5.982  -1.886  0.00  0.00     0.003 A 
ATOM      5  C4  UNL d   1      -2.257  -5.995  -2.101  0.00  0.00    -0.005 A 
ATOM      6  C5  UNL d   1      -2.757  -5.999  -3.401  0.00  0.00     0.003 A 
ATOM      7  C6  UNL d   1      -1.880  -5.989  -4.487  0.00  0.00    -0.001 A 
ENDROOT
TORSDOF 0
ENDMDL
