MODEL 1
REMARK minimizedAffinity 0.617818356
REMARK minimizedRMSD -1
REMARK  0 active torsions:
REMARK  status: ('A' for Active; 'I' for Inactive)
ROOT
ATOM      1  C   UNL d   1      -2.781  -6.000  -2.626  0.00  0.00     0.078 C 
ATOM      2  C1  UNL d   1      -1.684  -5.990  -3.649  0.00  0.00    -0.077 A 
ATOM      3  C2  UNL d   1      -1.976  -5.991  -5.019  0.00  0.00    -0.001 A 
ATOM      4  C3  UNL d   1      -0.945  -5.992  -5.960  0.00  0.00     0.003 A 
ATOM      5  C4  UNL d   1       0.384  -5.993  -5.542  0.00  0.00    -0.005 A 
ATOM      6  C5  UNL d   1       0.684  -5.994  -4.181  0.00  0.00     0.003 A 
ATOM      7  C6  UNL d   1      -0.345  -5.994  -3.238  0.00  0.00    -0.001 A 
ENDROOT
TORSDOF 0
ENDMDL
