MODEL 1
REMARK minimizedAffinity -0.879337132
REMARK minimizedRMSD -1
REMARK  0 active torsions:
REMARK  status: ('A' for Active; 'I' for Inactive)
ROOT
ATOM      1  C   UNL d   1       4.288  -0.125   0.755  0.00  0.00     0.078 C 
ATOM      2  C1  UNL d   1       2.872  -0.548   0.498  0.00  0.00    -0.077 A 
ATOM      3  C2  UNL d   1       1.970   0.306  -0.149  0.00  0.00    -0.001 A 
ATOM      4  C3  UNL d   1       0.653  -0.097  -0.373  0.00  0.00     0.003 A 
ATOM      5  C4  UNL d   1       0.226  -1.355   0.047  0.00  0.00    -0.005 A 
ATOM      6  C5  UNL d   1       1.115  -2.211   0.693  0.00  0.00     0.003 A 
ATOM      7  C6  UNL d   1       2.433  -1.810   0.918  0.00  0.00    -0.001 A 
ENDROOT
TORSDOF 0
ENDMDL
