MODEL 1
REMARK minimizedAffinity 3.28430533
REMARK minimizedRMSD -1
REMARK  0 active torsions:
REMARK  status: ('A' for Active; 'I' for Inactive)
ROOT
ATOM      1  C   UNL d   1       3.593  -0.547   0.615  0.00  0.00     0.078 C 
ATOM      2  C1  UNL d   1       2.249  -1.212   0.649  0.00  0.00    -0.077 A 
ATOM      3  C2  UNL d   1       2.134  -2.601   0.781  0.00  0.00    -0.001 A 
ATOM      4  C3  UNL d   1       0.877  -3.206   0.802  0.00  0.00     0.003 A 
ATOM      5  C4  UNL d   1      -0.275  -2.431   0.690  0.00  0.00    -0.005 A 
ATOM      6  C5  UNL d   1      -0.171  -1.048   0.556  0.00  0.00     0.003 A 
ATOM      7  C6  UNL d   1       1.086  -0.440   0.535  0.00  0.00    -0.001 A 
ENDROOT
TORSDOF 0
ENDMDL
