MODEL 1
REMARK minimizedAffinity 3.82345986
REMARK minimizedRMSD -1
REMARK  2 active torsions:
REMARK  status: ('A' for Active; 'I' for Inactive)
REMARK    1  A    between atoms: C1_2  and  C2_3 
REMARK    2  A    between atoms: C2_3  and  C3_4 
ROOT
ATOM      1  C3  UNL d   1      -0.289   2.167   0.823  0.00  0.00    -0.075 A 
ATOM      2  C4  UNL d   1       0.671   2.455   1.804  0.00  0.00     0.002 A 
ATOM      3  C5  UNL d   1       0.346   2.373   3.158  0.00  0.00     0.002 A 
ATOM      4  C6  UNL d   1      -0.942   2.015   3.549  0.00  0.00    -0.004 A 
ATOM      5  C7  UNL d   1      -1.909   1.743   2.583  0.00  0.00     0.002 A 
ATOM      6  C8  UNL d   1      -1.585   1.820   1.227  0.00  0.00     0.002 A 
ENDROOT
BRANCH   1   7
ATOM      7  C2  UNL d   1       0.064   2.225  -0.644  0.00  0.00     0.056 C 
BRANCH   7   8
ATOM      8  C1  UNL d   1      -0.280   3.558  -1.316  0.00  0.00     0.007 C 
ATOM      9  C   UNL d   1      -0.723   3.403  -2.765  0.00  0.00     0.009 C 
ENDBRANCH   7   8
ENDBRANCH   1   7
TORSDOF 2
ENDMDL
