MODEL 1
REMARK minimizedAffinity -1.81638229
REMARK minimizedRMSD -1
REMARK  2 active torsions:
REMARK  status: ('A' for Active; 'I' for Inactive)
REMARK    1  A    between atoms: C1_2  and  C2_3 
REMARK    2  A    between atoms: C2_3  and  C3_4 
ROOT
ATOM      1  C3  UNL d   1      -0.746   2.484   1.120  0.00  0.00    -0.075 A 
ATOM      2  C4  UNL d   1      -1.995   1.957   1.483  0.00  0.00     0.002 A 
ATOM      3  C5  UNL d   1      -2.233   1.538   2.792  0.00  0.00     0.002 A 
ATOM      4  C6  UNL d   1      -1.226   1.630   3.750  0.00  0.00    -0.004 A 
ATOM      5  C7  UNL d   1       0.023   2.136   3.397  0.00  0.00     0.002 A 
ATOM      6  C8  UNL d   1       0.263   2.560   2.089  0.00  0.00     0.002 A 
ENDROOT
BRANCH   1   7
ATOM      7  C2  UNL d   1      -0.491   2.967  -0.287  0.00  0.00     0.056 C 
BRANCH   7   8
ATOM      8  C1  UNL d   1       0.856   3.674  -0.470  0.00  0.00     0.007 C 
ATOM      9  C   UNL d   1       1.215   3.915  -1.930  0.00  0.00     0.009 C 
ENDBRANCH   7   8
ENDBRANCH   1   7
TORSDOF 2
ENDMDL
