MODEL 1
REMARK minimizedAffinity 9.03234005
REMARK minimizedRMSD -1
REMARK  2 active torsions:
REMARK  status: ('A' for Active; 'I' for Inactive)
REMARK    1  A    between atoms: C1_2  and  C2_3 
REMARK    2  A    between atoms: C2_3  and  C3_4 
ROOT
ATOM      1  C3  UNL d   1      -1.423   4.473   0.459  0.00  0.00    -0.075 A 
ATOM      2  C4  UNL d   1      -1.855   3.149   0.626  0.00  0.00     0.002 A 
ATOM      3  C5  UNL d   1      -0.991   2.084   0.370  0.00  0.00     0.002 A 
ATOM      4  C6  UNL d   1       0.310   2.327  -0.066  0.00  0.00    -0.004 A 
ATOM      5  C7  UNL d   1       0.745   3.638  -0.251  0.00  0.00     0.002 A 
ATOM      6  C8  UNL d   1      -0.116   4.706   0.008  0.00  0.00     0.002 A 
ENDROOT
BRANCH   1   7
ATOM      7  C2  UNL d   1      -2.343   5.631   0.762  0.00  0.00     0.056 C 
BRANCH   7   8
ATOM      8  C1  UNL d   1      -3.829   5.256   0.789  0.00  0.00     0.007 C 
ATOM      9  C   UNL d   1      -4.614   5.989   1.868  0.00  0.00     0.009 C 
ENDBRANCH   7   8
ENDBRANCH   1   7
TORSDOF 2
ENDMDL
