MODEL 1
REMARK minimizedAffinity 5.11289501
REMARK minimizedRMSD -1
REMARK  2 active torsions:
REMARK  status: ('A' for Active; 'I' for Inactive)
REMARK    1  A    between atoms: C1_2  and  C2_3 
REMARK    2  A    between atoms: C2_3  and  C3_4 
ROOT
ATOM      1  C3  UNL d   1      -5.593  -3.136   1.033  0.00  0.00    -0.075 A 
ATOM      2  C4  UNL d   1      -5.999  -4.466   0.845  0.00  0.00     0.002 A 
ATOM      3  C5  UNL d   1      -5.998  -5.364   1.912  0.00  0.00     0.002 A 
ATOM      4  C6  UNL d   1      -5.582  -4.950   3.176  0.00  0.00    -0.004 A 
ATOM      5  C7  UNL d   1      -5.161  -3.636   3.370  0.00  0.00     0.002 A 
ATOM      6  C8  UNL d   1      -5.166  -2.733   2.305  0.00  0.00     0.002 A 
ENDROOT
BRANCH   1   7
ATOM      7  C2  UNL d   1      -5.620  -2.151  -0.111  0.00  0.00     0.056 C 
BRANCH   7   8
ATOM      8  C1  UNL d   1      -5.998  -0.725   0.303  0.00  0.00     0.007 C 
ATOM      9  C   UNL d   1      -4.875   0.281   0.087  0.00  0.00     0.009 C 
ENDBRANCH   7   8
ENDBRANCH   1   7
TORSDOF 2
ENDMDL
