MODEL 1
REMARK minimizedAffinity 1.40245068
REMARK minimizedRMSD -1
REMARK  2 active torsions:
REMARK  status: ('A' for Active; 'I' for Inactive)
REMARK    1  A    between atoms: C1_2  and  C2_3 
REMARK    2  A    between atoms: C2_3  and  C3_4 
ROOT
ATOM      1  C3  UNL d   1      -1.769   4.800   0.495  0.00  0.00    -0.075 A 
ATOM      2  C4  UNL d   1      -2.068   3.490   0.897  0.00  0.00     0.002 A 
ATOM      3  C5  UNL d   1      -1.085   2.500   0.871  0.00  0.00     0.002 A 
ATOM      4  C6  UNL d   1       0.203   2.804   0.435  0.00  0.00    -0.004 A 
ATOM      5  C7  UNL d   1       0.506   4.098   0.017  0.00  0.00     0.002 A 
ATOM      6  C8  UNL d   1      -0.474   5.091   0.046  0.00  0.00     0.002 A 
ENDROOT
BRANCH   1   7
ATOM      7  C2  UNL d   1      -2.820   5.883   0.548  0.00  0.00     0.056 C 
BRANCH   7   8
ATOM      8  C1  UNL d   1      -4.180   5.407   1.068  0.00  0.00     0.007 C 
ATOM      9  C   UNL d   1      -5.354   5.945   0.260  0.00  0.00     0.009 C 
ENDBRANCH   7   8
ENDBRANCH   1   7
TORSDOF 2
ENDMDL
