MODEL 1
REMARK minimizedAffinity 19.0035286
REMARK minimizedRMSD -1
REMARK  2 active torsions:
REMARK  status: ('A' for Active; 'I' for Inactive)
REMARK    1  A    between atoms: C1_2  and  C2_3 
REMARK    2  A    between atoms: C2_3  and  C3_4 
ROOT
ATOM      1  C3  UNL d   1      -3.509   5.222  -0.837  0.00  0.00    -0.075 A 
ATOM      2  C4  UNL d   1      -4.864   5.569  -0.940  0.00  0.00     0.002 A 
ATOM      3  C5  UNL d   1      -5.584   5.959   0.190  0.00  0.00     0.002 A 
ATOM      4  C6  UNL d   1      -4.962   5.997   1.437  0.00  0.00    -0.004 A 
ATOM      5  C7  UNL d   1      -3.621   5.638   1.554  0.00  0.00     0.002 A 
ATOM      6  C8  UNL d   1      -2.898   5.252   0.424  0.00  0.00     0.002 A 
ENDROOT
BRANCH   1   7
ATOM      7  C2  UNL d   1      -2.717   4.828  -2.060  0.00  0.00     0.056 C 
BRANCH   7   8
ATOM      8  C1  UNL d   1      -1.418   4.078  -1.748  0.00  0.00     0.007 C 
ATOM      9  C   UNL d   1      -0.665   3.636  -2.995  0.00  0.00     0.009 C 
ENDBRANCH   7   8
ENDBRANCH   1   7
TORSDOF 2
ENDMDL
