MODEL 1
REMARK minimizedAffinity 7.86424732
REMARK minimizedRMSD -1
REMARK  2 active torsions:
REMARK  status: ('A' for Active; 'I' for Inactive)
REMARK    1  A    between atoms: C1_2  and  C2_3 
REMARK    2  A    between atoms: C2_3  and  C3_4 
ROOT
ATOM      1  C3  UNL d   1      -2.595   5.820  -0.007  0.00  0.00    -0.075 A 
ATOM      2  C4  UNL d   1      -3.446   5.916   1.104  0.00  0.00     0.002 A 
ATOM      3  C5  UNL d   1      -4.828   6.000   0.931  0.00  0.00     0.002 A 
ATOM      4  C6  UNL d   1      -5.375   5.999  -0.350  0.00  0.00    -0.004 A 
ATOM      5  C7  UNL d   1      -4.538   5.921  -1.461  0.00  0.00     0.002 A 
ATOM      6  C8  UNL d   1      -3.155   5.832  -1.291  0.00  0.00     0.002 A 
ENDROOT
BRANCH   1   7
ATOM      7  C2  UNL d   1      -1.101   5.699   0.174  0.00  0.00     0.056 C 
BRANCH   7   8
ATOM      8  C1  UNL d   1      -0.515   4.381  -0.344  0.00  0.00     0.007 C 
ATOM      9  C   UNL d   1       1.005   4.400  -0.450  0.00  0.00     0.009 C 
ENDBRANCH   7   8
ENDBRANCH   1   7
TORSDOF 2
ENDMDL
