MODEL 1
REMARK minimizedAffinity 13.3125839
REMARK minimizedRMSD -1
REMARK  2 active torsions:
REMARK  status: ('A' for Active; 'I' for Inactive)
REMARK    1  A    between atoms: C1_2  and  C2_3 
REMARK    2  A    between atoms: C2_3  and  C3_4 
ROOT
ATOM      1  C3  UNL d   1      -1.365   5.168   0.249  0.00  0.00    -0.075 A 
ATOM      2  C4  UNL d   1      -0.795   3.973   0.713  0.00  0.00     0.002 A 
ATOM      3  C5  UNL d   1       0.047   3.224  -0.109  0.00  0.00     0.002 A 
ATOM      4  C6  UNL d   1       0.321   3.653  -1.406  0.00  0.00    -0.004 A 
ATOM      5  C7  UNL d   1      -0.252   4.830  -1.883  0.00  0.00     0.002 A 
ATOM      6  C8  UNL d   1      -1.092   5.584  -1.061  0.00  0.00     0.002 A 
ENDROOT
BRANCH   1   7
ATOM      7  C2  UNL d   1      -2.253   5.999   1.144  0.00  0.00     0.056 C 
BRANCH   7   8
ATOM      8  C1  UNL d   1      -3.731   5.594   1.105  0.00  0.00     0.007 C 
ATOM      9  C   UNL d   1      -4.498   5.999   2.357  0.00  0.00     0.009 C 
ENDBRANCH   7   8
ENDBRANCH   1   7
TORSDOF 2
ENDMDL
