MODEL 1
REMARK minimizedAffinity -0.501511395
REMARK minimizedRMSD -1
REMARK  2 active torsions:
REMARK  status: ('A' for Active; 'I' for Inactive)
REMARK    1  A    between atoms: C1_2  and  C2_3 
REMARK    2  A    between atoms: C2_3  and  C3_4 
ROOT
ATOM      1  C3  UNL d   1      -1.788   0.931   2.470  0.00  0.00    -0.075 A 
ATOM      2  C4  UNL d   1      -0.597   0.618   1.798  0.00  0.00     0.002 A 
ATOM      3  C5  UNL d   1       0.032   1.567   0.992  0.00  0.00     0.002 A 
ATOM      4  C6  UNL d   1      -0.526   2.835   0.839  0.00  0.00    -0.004 A 
ATOM      5  C7  UNL d   1      -1.717   3.151   1.487  0.00  0.00     0.002 A 
ATOM      6  C8  UNL d   1      -2.346   2.204   2.298  0.00  0.00     0.002 A 
ENDROOT
BRANCH   1   7
ATOM      7  C2  UNL d   1      -2.457  -0.082   3.367  0.00  0.00     0.056 C 
BRANCH   7   8
ATOM      8  C1  UNL d   1      -1.719  -1.423   3.454  0.00  0.00     0.007 C 
ATOM      9  C   UNL d   1      -2.625  -2.582   3.847  0.00  0.00     0.009 C 
ENDBRANCH   7   8
ENDBRANCH   1   7
TORSDOF 2
ENDMDL
