MODEL 1
REMARK minimizedAffinity 2.64383936
REMARK minimizedRMSD -1
REMARK  2 active torsions:
REMARK  status: ('A' for Active; 'I' for Inactive)
REMARK    1  A    between atoms: C1_2  and  C2_3 
REMARK    2  A    between atoms: C2_3  and  C3_4 
ROOT
ATOM      1  C3  UNL d   1      -1.965   0.077   3.547  0.00  0.00    -0.075 A 
ATOM      2  C4  UNL d   1      -2.871   0.275   2.495  0.00  0.00     0.002 A 
ATOM      3  C5  UNL d   1      -2.538   1.099   1.419  0.00  0.00     0.002 A 
ATOM      4  C6  UNL d   1      -1.302   1.742   1.387  0.00  0.00    -0.004 A 
ATOM      5  C7  UNL d   1      -0.401   1.566   2.434  0.00  0.00     0.002 A 
ATOM      6  C8  UNL d   1      -0.730   0.738   3.510  0.00  0.00     0.002 A 
ENDROOT
BRANCH   1   7
ATOM      7  C2  UNL d   1      -2.307  -0.837   4.700  0.00  0.00     0.056 C 
BRANCH   7   8
ATOM      8  C1  UNL d   1      -2.143  -2.327   4.384  0.00  0.00     0.007 C 
ATOM      9  C   UNL d   1      -0.692  -2.741   4.177  0.00  0.00     0.009 C 
ENDBRANCH   7   8
ENDBRANCH   1   7
TORSDOF 2
ENDMDL
