MODEL 1
REMARK minimizedAffinity -5.30833483
REMARK minimizedRMSD -1
REMARK  2 active torsions:
REMARK  status: ('A' for Active; 'I' for Inactive)
REMARK    1  A    between atoms: C1_2  and  C2_3 
REMARK    2  A    between atoms: C2_3  and  C3_4 
ROOT
ATOM      1  C3  UNL d   1      -0.022   3.044   1.774  0.00  0.00    -0.075 A 
ATOM      2  C4  UNL d   1       0.353   2.590   3.047  0.00  0.00     0.002 A 
ATOM      3  C5  UNL d   1      -0.330   1.534   3.652  0.00  0.00     0.002 A 
ATOM      4  C6  UNL d   1      -1.400   0.927   2.999  0.00  0.00    -0.004 A 
ATOM      5  C7  UNL d   1      -1.791   1.381   1.741  0.00  0.00     0.002 A 
ATOM      6  C8  UNL d   1      -1.107   2.434   1.131  0.00  0.00     0.002 A 
ENDROOT
BRANCH   1   7
ATOM      7  C2  UNL d   1       0.732   4.167   1.102  0.00  0.00     0.056 C 
BRANCH   7   8
ATOM      8  C1  UNL d   1       0.378   4.357  -0.377  0.00  0.00     0.007 C 
ATOM      9  C   UNL d   1       0.730   5.741  -0.905  0.00  0.00     0.009 C 
ENDBRANCH   7   8
ENDBRANCH   1   7
TORSDOF 2
ENDMDL
