MODEL 1
REMARK minimizedAffinity 2.87342834
REMARK minimizedRMSD -1
REMARK  2 active torsions:
REMARK  status: ('A' for Active; 'I' for Inactive)
REMARK    1  A    between atoms: C1_2  and  C2_3 
REMARK    2  A    between atoms: C2_3  and  C3_4 
ROOT
ATOM      1  C3  UNL d   1      -1.469  -1.266   3.465  0.00  0.00    -0.075 A 
ATOM      2  C4  UNL d   1      -0.332  -1.549   2.694  0.00  0.00     0.002 A 
ATOM      3  C5  UNL d   1       0.108  -2.864   2.539  0.00  0.00     0.002 A 
ATOM      4  C6  UNL d   1      -0.574  -3.908   3.159  0.00  0.00    -0.004 A 
ATOM      5  C7  UNL d   1      -1.695  -3.637   3.941  0.00  0.00     0.002 A 
ATOM      6  C8  UNL d   1      -2.140  -2.323   4.094  0.00  0.00     0.002 A 
ENDROOT
BRANCH   1   7
ATOM      7  C2  UNL d   1      -1.968   0.152   3.613  0.00  0.00     0.056 C 
BRANCH   7   8
ATOM      8  C1  UNL d   1      -1.503   1.096   2.501  0.00  0.00     0.007 C 
ATOM      9  C   UNL d   1      -0.487   2.128   2.974  0.00  0.00     0.009 C 
ENDBRANCH   7   8
ENDBRANCH   1   7
TORSDOF 2
ENDMDL
