MODEL 1
REMARK minimizedAffinity -1.13813198
REMARK minimizedRMSD -1
REMARK  2 active torsions:
REMARK  status: ('A' for Active; 'I' for Inactive)
REMARK    1  A    between atoms: C1_2  and  C2_3 
REMARK    2  A    between atoms: C2_3  and  C3_4 
ROOT
ATOM      1  C3  UNL d   1      -0.389   2.296   0.664  0.00  0.00    -0.075 A 
ATOM      2  C4  UNL d   1      -0.396   2.177  -0.733  0.00  0.00     0.002 A 
ATOM      3  C5  UNL d   1      -0.079   3.271  -1.539  0.00  0.00     0.002 A 
ATOM      4  C6  UNL d   1       0.238   4.498  -0.959  0.00  0.00    -0.004 A 
ATOM      5  C7  UNL d   1       0.231   4.632   0.428  0.00  0.00     0.002 A 
ATOM      6  C8  UNL d   1      -0.081   3.537   1.236  0.00  0.00     0.002 A 
ENDROOT
BRANCH   1   7
ATOM      7  C2  UNL d   1      -0.703   1.107   1.542  0.00  0.00     0.056 C 
BRANCH   7   8
ATOM      8  C1  UNL d   1      -1.100   1.478   2.974  0.00  0.00     0.007 C 
ATOM      9  C   UNL d   1      -1.859   0.369   3.692  0.00  0.00     0.009 C 
ENDBRANCH   7   8
ENDBRANCH   1   7
TORSDOF 2
ENDMDL
