MODEL 1
REMARK minimizedAffinity 3.93089247
REMARK minimizedRMSD -1
REMARK  2 active torsions:
REMARK  status: ('A' for Active; 'I' for Inactive)
REMARK    1  A    between atoms: C1_2  and  C2_3 
REMARK    2  A    between atoms: C2_3  and  C3_4 
ROOT
ATOM      1  C3  UNL d   1      -0.926   0.220   2.520  0.00  0.00    -0.075 A 
ATOM      2  C4  UNL d   1      -2.238   0.607   2.209  0.00  0.00     0.002 A 
ATOM      3  C5  UNL d   1      -2.487   1.832   1.590  0.00  0.00     0.002 A 
ATOM      4  C6  UNL d   1      -1.432   2.689   1.284  0.00  0.00    -0.004 A 
ATOM      5  C7  UNL d   1      -0.126   2.322   1.603  0.00  0.00     0.002 A 
ATOM      6  C8  UNL d   1       0.126   1.094   2.218  0.00  0.00     0.002 A 
ENDROOT
BRANCH   1   7
ATOM      7  C2  UNL d   1      -0.648  -1.118   3.163  0.00  0.00     0.056 C 
BRANCH   7   8
ATOM      8  C1  UNL d   1      -1.837  -1.700   3.933  0.00  0.00     0.007 C 
ATOM      9  C   UNL d   1      -1.524  -3.029   4.607  0.00  0.00     0.009 C 
ENDBRANCH   7   8
ENDBRANCH   1   7
TORSDOF 2
ENDMDL
