MODEL 1
REMARK minimizedAffinity -1.55096197
REMARK minimizedRMSD -1
REMARK  2 active torsions:
REMARK  status: ('A' for Active; 'I' for Inactive)
REMARK    1  A    between atoms: C1_2  and  C2_3 
REMARK    2  A    between atoms: C2_3  and  C3_4 
ROOT
ATOM      1  C3  UNL d   1      -0.309   2.860   0.801  0.00  0.00    -0.075 A 
ATOM      2  C4  UNL d   1      -0.065   3.201  -0.537  0.00  0.00     0.002 A 
ATOM      3  C5  UNL d   1       0.868   4.187  -0.858  0.00  0.00     0.002 A 
ATOM      4  C6  UNL d   1       1.560   4.851   0.153  0.00  0.00    -0.004 A 
ATOM      5  C7  UNL d   1       1.314   4.532   1.486  0.00  0.00     0.002 A 
ATOM      6  C8  UNL d   1       0.384   3.543   1.810  0.00  0.00     0.002 A 
ENDROOT
BRANCH   1   7
ATOM      7  C2  UNL d   1      -1.295   1.773   1.154  0.00  0.00     0.056 C 
BRANCH   7   8
ATOM      8  C1  UNL d   1      -1.530   1.607   2.659  0.00  0.00     0.007 C 
ATOM      9  C   UNL d   1      -2.479   0.465   2.997  0.00  0.00     0.009 C 
ENDBRANCH   7   8
ENDBRANCH   1   7
TORSDOF 2
ENDMDL
