MODEL 1
REMARK minimizedAffinity 12.6537285
REMARK minimizedRMSD -1
REMARK  0 active torsions:
REMARK  status: ('A' for Active; 'I' for Inactive)
ROOT
ATOM      1  C   UNL d   1       1.014   4.067   1.342  0.00  0.00     0.124 A 
ATOM      2  C1  UNL d   1       1.374   3.585   2.593  0.00  0.00     0.062 A 
ATOM      3  C2  UNL d   1       0.971   2.316   2.996  0.00  0.00     0.162 A 
ATOM      4  C3  UNL d   1       0.204   1.518   2.147  0.00  0.00    -0.034 A 
ATOM      5  C4  UNL d   1      -0.155   2.010   0.891  0.00  0.00     0.162 A 
ATOM      6  C5  UNL d   1       0.250   3.279   0.493  0.00  0.00     0.062 A 
ATOM      7  F   UNL d   1      -0.099   3.743  -0.716  0.00  0.00    -0.097 F 
ATOM      8  F1  UNL d   1      -0.892   1.269   0.050  0.00  0.00    -0.096 F 
ATOM      9  I   UNL d   1      -0.401  -0.381   2.747  0.00  0.00    -0.060 I 
ATOM     10  F2  UNL d   1       1.334   1.875   4.210  0.00  0.00    -0.096 F 
ATOM     11  F3  UNL d   1       2.111   4.345   3.416  0.00  0.00    -0.097 F 
ATOM     12  F4  UNL d   1       1.402   5.290   0.957  0.00  0.00    -0.092 F 
ENDROOT
TORSDOF 0
ENDMDL
