MODEL 1
REMARK minimizedAffinity 20.2466888
REMARK minimizedRMSD -1
REMARK  0 active torsions:
REMARK  status: ('A' for Active; 'I' for Inactive)
ROOT
ATOM      1  C   UNL d   1       0.828   4.131   1.396  0.00  0.00     0.124 A 
ATOM      2  C1  UNL d   1       0.307   3.297   0.416  0.00  0.00     0.062 A 
ATOM      3  C2  UNL d   1       0.118   1.943   0.678  0.00  0.00     0.162 A 
ATOM      4  C3  UNL d   1       0.449   1.415   1.926  0.00  0.00    -0.034 A 
ATOM      5  C4  UNL d   1       0.974   2.260   2.906  0.00  0.00     0.162 A 
ATOM      6  C5  UNL d   1       1.161   3.612   2.639  0.00  0.00     0.062 A 
ATOM      7  F   UNL d   1       1.665   4.417   3.586  0.00  0.00    -0.097 F 
ATOM      8  F1  UNL d   1       1.303   1.785   4.116  0.00  0.00    -0.096 F 
ATOM      9  I   UNL d   1       0.168  -0.609   2.322  0.00  0.00    -0.060 I 
ATOM     10  F2  UNL d   1      -0.387   1.161  -0.287  0.00  0.00    -0.096 F 
ATOM     11  F3  UNL d   1      -0.014   3.796  -0.786  0.00  0.00    -0.097 F 
ATOM     12  F4  UNL d   1       1.010   5.433   1.141  0.00  0.00    -0.092 F 
ENDROOT
TORSDOF 0
ENDMDL
