MODEL 1
REMARK minimizedAffinity 13.47754
REMARK minimizedRMSD -1
REMARK  0 active torsions:
REMARK  status: ('A' for Active; 'I' for Inactive)
ROOT
ATOM      1  C   UNL d   1      -0.073   1.963   0.243  0.00  0.00     0.124 A 
ATOM      2  C1  UNL d   1       0.078   0.635  -0.134  0.00  0.00     0.062 A 
ATOM      3  C2  UNL d   1       0.459  -0.320   0.804  0.00  0.00     0.162 A 
ATOM      4  C3  UNL d   1       0.692   0.048   2.129  0.00  0.00    -0.034 A 
ATOM      5  C4  UNL d   1       0.540   1.385   2.501  0.00  0.00     0.162 A 
ATOM      6  C5  UNL d   1       0.158   2.336   1.560  0.00  0.00     0.062 A 
ATOM      7  F   UNL d   1       0.013   3.618   1.926  0.00  0.00    -0.097 F 
ATOM      8  F1  UNL d   1       0.756   1.774   3.766  0.00  0.00    -0.096 F 
ATOM      9  I   UNL d   1       1.263  -1.377   3.534  0.00  0.00    -0.060 I 
ATOM     10  F2  UNL d   1       0.597  -1.595   0.411  0.00  0.00    -0.096 F 
ATOM     11  F3  UNL d   1      -0.144   0.272  -1.405  0.00  0.00    -0.097 F 
ATOM     12  F4  UNL d   1      -0.439   2.880  -0.661  0.00  0.00    -0.092 F 
ENDROOT
TORSDOF 0
ENDMDL
