MODEL 1
REMARK minimizedAffinity 8.27595806
REMARK minimizedRMSD -1
REMARK  0 active torsions:
REMARK  status: ('A' for Active; 'I' for Inactive)
ROOT
ATOM      1  C   UNL d   1       1.129   3.613   1.311  0.00  0.00     0.124 A 
ATOM      2  C1  UNL d   1       0.447   2.886   0.345  0.00  0.00     0.062 A 
ATOM      3  C2  UNL d   1      -0.004   1.600   0.625  0.00  0.00     0.162 A 
ATOM      4  C3  UNL d   1       0.223   1.032   1.879  0.00  0.00    -0.034 A 
ATOM      5  C4  UNL d   1       0.910   1.769   2.846  0.00  0.00     0.162 A 
ATOM      6  C5  UNL d   1       1.359   3.054   2.560  0.00  0.00     0.062 A 
ATOM      7  F   UNL d   1       2.017   3.755   3.495  0.00  0.00    -0.097 F 
ATOM      8  F1  UNL d   1       1.146   1.253   4.061  0.00  0.00    -0.096 F 
ATOM      9  I   UNL d   1      -0.450  -0.891   2.302  0.00  0.00    -0.060 I 
ATOM     10  F2  UNL d   1      -0.659   0.921  -0.328  0.00  0.00    -0.096 F 
ATOM     11  F3  UNL d   1       0.224   3.424  -0.863  0.00  0.00    -0.097 F 
ATOM     12  F4  UNL d   1       1.563   4.850   1.039  0.00  0.00    -0.092 F 
ENDROOT
TORSDOF 0
ENDMDL
