MODEL 1
REMARK minimizedAffinity 1.97974277
REMARK minimizedRMSD -1
REMARK  0 active torsions:
REMARK  status: ('A' for Active; 'I' for Inactive)
ROOT
ATOM      1  C   UNL d   1       0.633  -0.012   1.913  0.00  0.00     0.124 A 
ATOM      2  C1  UNL d   1       0.366   1.237   2.455  0.00  0.00     0.062 A 
ATOM      3  C2  UNL d   1       0.231   2.346   1.626  0.00  0.00     0.162 A 
ATOM      4  C3  UNL d   1       0.361   2.211   0.244  0.00  0.00    -0.034 A 
ATOM      5  C4  UNL d   1       0.630   0.952  -0.295  0.00  0.00     0.162 A 
ATOM      6  C5  UNL d   1       0.765  -0.154   0.538  0.00  0.00     0.062 A 
ATOM      7  F   UNL d   1       1.022  -1.360   0.012  0.00  0.00    -0.097 F 
ATOM      8  F1  UNL d   1       0.762   0.787  -1.620  0.00  0.00    -0.096 F 
ATOM      9  I   UNL d   1       0.160   3.868  -1.000  0.00  0.00    -0.060 I 
ATOM     10  F2  UNL d   1      -0.027   3.541   2.178  0.00  0.00    -0.096 F 
ATOM     11  F3  UNL d   1       0.239   1.376   3.783  0.00  0.00    -0.097 F 
ATOM     12  F4  UNL d   1       0.763  -1.078   2.713  0.00  0.00    -0.092 F 
ENDROOT
TORSDOF 0
ENDMDL
