MODEL 1
REMARK minimizedAffinity 2.73730278
REMARK minimizedRMSD -1
REMARK  0 active torsions:
REMARK  status: ('A' for Active; 'I' for Inactive)
ROOT
ATOM      1  C   UNL d   1       0.674   1.533   1.438  0.00  0.00     0.124 A 
ATOM      2  C1  UNL d   1       0.364   2.281   0.311  0.00  0.00     0.062 A 
ATOM      3  C2  UNL d   1      -0.173   1.662  -0.815  0.00  0.00     0.162 A 
ATOM      4  C3  UNL d   1      -0.405   0.286  -0.818  0.00  0.00    -0.034 A 
ATOM      5  C4  UNL d   1      -0.090  -0.460   0.319  0.00  0.00     0.162 A 
ATOM      6  C5  UNL d   1       0.447   0.164   1.441  0.00  0.00     0.062 A 
ATOM      7  F   UNL d   1       0.745  -0.561   2.529  0.00  0.00    -0.097 F 
ATOM      8  F1  UNL d   1      -0.300  -1.784   0.350  0.00  0.00    -0.096 F 
ATOM      9  I   UNL d   1      -1.207  -0.643  -2.498  0.00  0.00    -0.060 I 
ATOM     10  F2  UNL d   1      -0.463   2.410  -1.890  0.00  0.00    -0.096 F 
ATOM     11  F3  UNL d   1       0.583   3.603   0.305  0.00  0.00    -0.097 F 
ATOM     12  F4  UNL d   1       1.191   2.130   2.519  0.00  0.00    -0.092 F 
ENDROOT
TORSDOF 0
ENDMDL
