MODEL 1
REMARK minimizedAffinity 1.71368432
REMARK minimizedRMSD -1
REMARK  1 active torsions:
REMARK  status: ('A' for Active; 'I' for Inactive)
REMARK    1  A    between atoms: N_2  and  C1_3 
ROOT
ATOM      1  C1  UNL d   1      -0.236   1.048   0.010  0.00  0.00     0.143 A 
ATOM      2  C2  UNL d   1      -0.092   2.354   0.489  0.00  0.00    -0.057 A 
ATOM      3  C3  UNL d   1       0.104   2.611   1.851  0.00  0.00     0.033 A 
ATOM      4  C4  UNL d   1       0.130   1.564   2.766  0.00  0.00    -0.042 A 
ATOM      5  C5  UNL d   1      -0.037   0.259   2.316  0.00  0.00     0.033 A 
ATOM      6  C6  UNL d   1      -0.226   0.008   0.954  0.00  0.00    -0.057 A 
ENDROOT
BRANCH   1   7
ATOM      7  N   UNL d   1      -0.532   0.734  -1.318  0.00  0.00    -0.732 N 
ATOM      8  C   UNL d   1      -1.788   0.105  -1.665  0.00  0.00     0.284 C 
ATOM      9  H3  UNL d   1      -0.241   1.464  -1.964  0.00  0.00     0.395 HD
ENDBRANCH   1   7
TORSDOF 1
ENDMDL
