MODEL 1
REMARK minimizedAffinity 4.74608326
REMARK minimizedRMSD -1
REMARK  1 active torsions:
REMARK  status: ('A' for Active; 'I' for Inactive)
REMARK    1  A    between atoms: N_2  and  C1_3 
ROOT
ATOM      1  C1  UNL d   1      -0.600   1.839  -0.382  0.00  0.00     0.143 A 
ATOM      2  C2  UNL d   1       0.059   0.825   0.321  0.00  0.00    -0.057 A 
ATOM      3  C3  UNL d   1       0.231   0.897   1.709  0.00  0.00     0.033 A 
ATOM      4  C4  UNL d   1      -0.229   2.004   2.416  0.00  0.00    -0.042 A 
ATOM      5  C5  UNL d   1      -0.864   3.035   1.734  0.00  0.00     0.033 A 
ATOM      6  C6  UNL d   1      -1.039   2.954   0.349  0.00  0.00    -0.057 A 
ENDROOT
BRANCH   1   7
ATOM      7  N   UNL d   1      -0.715   1.871  -1.774  0.00  0.00    -0.732 N 
ATOM      8  C   UNL d   1      -0.058   0.874  -2.592  0.00  0.00     0.284 C 
ATOM      9  H3  UNL d   1      -1.656   2.106  -2.080  0.00  0.00     0.395 HD
ENDBRANCH   1   7
TORSDOF 1
ENDMDL
