MODEL 1
REMARK minimizedAffinity 4.7894268
REMARK minimizedRMSD -1
REMARK  1 active torsions:
REMARK  status: ('A' for Active; 'I' for Inactive)
REMARK    1  A    between atoms: N_2  and  C1_3 
ROOT
ATOM      1  C1  UNL d   1      -0.875  -1.700  -2.329  0.00  0.00     0.143 A 
ATOM      2  C2  UNL d   1      -1.183  -1.254  -3.619  0.00  0.00    -0.057 A 
ATOM      3  C3  UNL d   1      -0.650  -0.061  -4.120  0.00  0.00     0.033 A 
ATOM      4  C4  UNL d   1       0.179   0.726  -3.327  0.00  0.00    -0.042 A 
ATOM      5  C5  UNL d   1       0.478   0.315  -2.033  0.00  0.00     0.033 A 
ATOM      6  C6  UNL d   1      -0.051  -0.882  -1.540  0.00  0.00    -0.057 A 
ENDROOT
BRANCH   1   7
ATOM      7  N   UNL d   1      -1.450  -2.828  -1.738  0.00  0.00    -0.732 N 
ATOM      8  C   UNL d   1      -0.716  -4.072  -1.654  0.00  0.00     0.284 C 
ATOM      9  H3  UNL d   1      -1.979  -2.599  -0.898  0.00  0.00     0.395 HD
ENDBRANCH   1   7
TORSDOF 1
ENDMDL
