MODEL 1
REMARK minimizedAffinity 3.92886209
REMARK minimizedRMSD -1
REMARK  1 active torsions:
REMARK  status: ('A' for Active; 'I' for Inactive)
REMARK    1  A    between atoms: N_2  and  C1_3 
ROOT
ATOM      1  C1  UNL d   1       0.166   0.535   2.132  0.00  0.00     0.143 A 
ATOM      2  C2  UNL d   1      -0.094  -0.032   3.384  0.00  0.00    -0.057 A 
ATOM      3  C3  UNL d   1       0.663  -1.107   3.866  0.00  0.00     0.033 A 
ATOM      4  C4  UNL d   1       1.677  -1.656   3.087  0.00  0.00    -0.042 A 
ATOM      5  C5  UNL d   1       1.935  -1.125   1.828  0.00  0.00     0.033 A 
ATOM      6  C6  UNL d   1       1.181  -0.046   1.356  0.00  0.00    -0.057 A 
ENDROOT
BRANCH   1   7
ATOM      7  N   UNL d   1      -0.615   1.541   1.556  0.00  0.00    -0.732 N 
ATOM      8  C   UNL d   1      -0.806   2.804   2.235  0.00  0.00     0.284 C 
ATOM      9  H3  UNL d   1      -0.461   1.626   0.554  0.00  0.00     0.395 HD
ENDBRANCH   1   7
TORSDOF 1
ENDMDL
