MODEL 1
REMARK minimizedAffinity 0.155624285
REMARK minimizedRMSD -1
REMARK  1 active torsions:
REMARK  status: ('A' for Active; 'I' for Inactive)
REMARK    1  A    between atoms: N_2  and  C1_3 
ROOT
ATOM      1  C1  UNL d   1       0.279   2.708   0.866  0.00  0.00     0.143 A 
ATOM      2  C2  UNL d   1       0.082   2.264   2.178  0.00  0.00    -0.057 A 
ATOM      3  C3  UNL d   1       0.237   0.915   2.518  0.00  0.00     0.033 A 
ATOM      4  C4  UNL d   1       0.564  -0.022   1.543  0.00  0.00    -0.042 A 
ATOM      5  C5  UNL d   1       0.740   0.393   0.228  0.00  0.00     0.033 A 
ATOM      6  C6  UNL d   1       0.590   1.743  -0.104  0.00  0.00    -0.057 A 
ENDROOT
BRANCH   1   7
ATOM      7  N   UNL d   1       0.044   4.020   0.445  0.00  0.00    -0.732 N 
ATOM      8  C   UNL d   1       0.856   4.618  -0.592  0.00  0.00     0.284 C 
ATOM      9  H3  UNL d   1      -0.948   4.232   0.370  0.00  0.00     0.395 HD
ENDBRANCH   1   7
TORSDOF 1
ENDMDL
