MODEL 1
REMARK minimizedAffinity 1.2054503
REMARK minimizedRMSD -1
REMARK  1 active torsions:
REMARK  status: ('A' for Active; 'I' for Inactive)
REMARK    1  A    between atoms: N_2  and  C1_3 
ROOT
ATOM      1  C1  UNL d   1       0.404   0.518   0.724  0.00  0.00     0.143 A 
ATOM      2  C2  UNL d   1       0.819   1.683   1.379  0.00  0.00    -0.057 A 
ATOM      3  C3  UNL d   1       0.866   1.752   2.776  0.00  0.00     0.033 A 
ATOM      4  C4  UNL d   1       0.469   0.664   3.546  0.00  0.00    -0.042 A 
ATOM      5  C5  UNL d   1       0.029  -0.495   2.917  0.00  0.00     0.033 A 
ATOM      6  C6  UNL d   1      -0.009  -0.561   1.521  0.00  0.00    -0.057 A 
ENDROOT
BRANCH   1   7
ATOM      7  N   UNL d   1       0.242   0.420  -0.661  0.00  0.00    -0.732 N 
ATOM      8  C   UNL d   1      -1.081   0.386  -1.247  0.00  0.00     0.284 C 
ATOM      9  H3  UNL d   1       0.908   0.995  -1.171  0.00  0.00     0.395 HD
ENDBRANCH   1   7
TORSDOF 1
ENDMDL
