MODEL 1
REMARK minimizedAffinity 2.41379547
REMARK minimizedRMSD -1
REMARK  1 active torsions:
REMARK  status: ('A' for Active; 'I' for Inactive)
REMARK    1  A    between atoms: N_2  and  C1_3 
ROOT
ATOM      1  C1  UNL d   1       1.049   3.225   0.659  0.00  0.00     0.143 A 
ATOM      2  C2  UNL d   1       1.062   3.027   2.044  0.00  0.00    -0.057 A 
ATOM      3  C3  UNL d   1       0.791   1.772   2.601  0.00  0.00     0.033 A 
ATOM      4  C4  UNL d   1       0.473   0.694   1.781  0.00  0.00    -0.042 A 
ATOM      5  C5  UNL d   1       0.430   0.873   0.403  0.00  0.00     0.033 A 
ATOM      6  C6  UNL d   1       0.708   2.128  -0.148  0.00  0.00    -0.057 A 
ENDROOT
BRANCH   1   7
ATOM      7  N   UNL d   1       1.213   4.471   0.049  0.00  0.00    -0.732 N 
ATOM      8  C   UNL d   1       0.840   4.669  -1.335  0.00  0.00     0.284 C 
ATOM      9  H3  UNL d   1       0.956   5.240   0.663  0.00  0.00     0.395 HD
ENDBRANCH   1   7
TORSDOF 1
ENDMDL
