MODEL 1
REMARK minimizedAffinity -6.16558981
REMARK minimizedRMSD -1
REMARK  0 active torsions:
REMARK  status: ('A' for Active; 'I' for Inactive)
ROOT
ATOM      1  N1  IND d   1      -2.387   0.482   0.211  0.00  0.00    -0.196 N 
ATOM      2  C2  IND d   1      -3.411   0.516   1.116  0.00  0.00     0.054 A 
ATOM      3  C3  IND d   1      -2.955   0.220   2.353  0.00  0.00    -0.031 A 
ATOM      4  C4  IND d   1      -0.550  -0.252   3.140  0.00  0.00     0.051 A 
ATOM      5  C5  IND d   1       0.722  -0.429   2.671  0.00  0.00    -0.031 A 
ATOM      6  C6  IND d   1       1.029  -0.305   1.332  0.00  0.00     0.015 A 
ATOM      7  C7  IND d   1       0.073   0.012   0.408  0.00  0.00    -0.016 A 
ATOM      8  C8  IND d   1      -1.221   0.185   0.880  0.00  0.00    -0.047 A 
ATOM      9  C9  IND d   1      -1.546   0.019   2.232  0.00  0.00    -0.096 A 
ATOM     10  HN1 IND d   1      -2.460   0.623  -0.634  0.00  0.00     0.298 HD
ENDROOT
TORSDOF 0
ENDMDL
