MODEL 1
REMARK minimizedAffinity -3.45060015
REMARK minimizedRMSD -1
REMARK  0 active torsions:
REMARK  status: ('A' for Active; 'I' for Inactive)
ROOT
ATOM      1  N1  IND d   1      -0.422  -1.498   1.558  0.00  0.00    -0.196 N 
ATOM      2  C2  IND d   1      -0.480  -0.761   2.708  0.00  0.00     0.054 A 
ATOM      3  C3  IND d   1       0.032   0.473   2.501  0.00  0.00    -0.031 A 
ATOM      4  C4  IND d   1       0.927   1.530   0.331  0.00  0.00     0.051 A 
ATOM      5  C5  IND d   1       1.215   1.235  -0.972  0.00  0.00    -0.031 A 
ATOM      6  C6  IND d   1       0.965  -0.011  -1.510  0.00  0.00     0.015 A 
ATOM      7  C7  IND d   1       0.404  -1.009  -0.764  0.00  0.00    -0.016 A 
ATOM      8  C8  IND d   1       0.116  -0.715   0.561  0.00  0.00    -0.047 A 
ATOM      9  C9  IND d   1       0.407   0.534   1.124  0.00  0.00    -0.096 A 
ATOM     10  HN1 IND d   1      -0.679  -2.315   1.472  0.00  0.00     0.298 HD
ENDROOT
TORSDOF 0
ENDMDL
