MODEL 1
REMARK minimizedAffinity -5.98214912
REMARK minimizedRMSD -1
REMARK  0 active torsions:
REMARK  status: ('A' for Active; 'I' for Inactive)
ROOT
ATOM      1  N1  IND d   1       1.020  -0.205   1.950  0.00  0.00    -0.196 N 
ATOM      2  C2  IND d   1       0.266  -0.754   2.949  0.00  0.00     0.054 A 
ATOM      3  C3  IND d   1      -1.041  -0.757   2.605  0.00  0.00    -0.031 A 
ATOM      4  C4  IND d   1      -2.156  -0.006   0.410  0.00  0.00     0.051 A 
ATOM      5  C5  IND d   1      -1.883   0.598  -0.786  0.00  0.00    -0.031 A 
ATOM      6  C6  IND d   1      -0.602   0.970  -1.139  0.00  0.00     0.015 A 
ATOM      7  C7  IND d   1       0.460   0.741  -0.310  0.00  0.00    -0.016 A 
ATOM      8  C8  IND d   1       0.185   0.134   0.907  0.00  0.00    -0.047 A 
ATOM      9  C9  IND d   1      -1.119  -0.207   1.289  0.00  0.00    -0.096 A 
ATOM     10  HN1 IND d   1       1.872  -0.090   1.969  0.00  0.00     0.298 HD
ENDROOT
TORSDOF 0
ENDMDL
