MODEL 1
REMARK minimizedAffinity -4.0250597
REMARK minimizedRMSD -1
REMARK  0 active torsions:
REMARK  status: ('A' for Active; 'I' for Inactive)
ROOT
ATOM      1  N1  IND d   1      -1.838  -0.888   2.059  0.00  0.00    -0.196 N 
ATOM      2  C2  IND d   1      -1.292  -1.112   3.292  0.00  0.00     0.054 A 
ATOM      3  C3  IND d   1      -0.002  -0.710   3.315  0.00  0.00    -0.031 A 
ATOM      4  C4  IND d   1       1.387   0.435   1.475  0.00  0.00     0.051 A 
ATOM      5  C5  IND d   1       1.333   0.815   0.163  0.00  0.00    -0.031 A 
ATOM      6  C6  IND d   1       0.194   0.646  -0.598  0.00  0.00     0.015 A 
ATOM      7  C7  IND d   1      -0.941   0.098  -0.071  0.00  0.00    -0.016 A 
ATOM      8  C8  IND d   1      -0.886  -0.296   1.259  0.00  0.00    -0.047 A 
ATOM      9  C9  IND d   1       0.279  -0.165   2.025  0.00  0.00    -0.096 A 
ATOM     10  HN1 IND d   1      -2.641  -1.085   1.823  0.00  0.00     0.298 HD
ENDROOT
TORSDOF 0
ENDMDL
