MODEL 1
REMARK minimizedAffinity -1.35253263
REMARK minimizedRMSD -1
REMARK  0 active torsions:
REMARK  status: ('A' for Active; 'I' for Inactive)
ROOT
ATOM      1  N1  IND d   1       0.891   0.978   0.197  0.00  0.00    -0.196 N 
ATOM      2  C2  IND d   1       0.235   0.748  -0.980  0.00  0.00     0.054 A 
ATOM      3  C3  IND d   1      -0.810  -0.086  -0.781  0.00  0.00    -0.031 A 
ATOM      4  C4  IND d   1      -1.688  -1.113   1.410  0.00  0.00     0.051 A 
ATOM      5  C5  IND d   1      -1.398  -1.223   2.741  0.00  0.00    -0.031 A 
ATOM      6  C6  IND d   1      -0.309  -0.589   3.304  0.00  0.00     0.015 A 
ATOM      7  C7  IND d   1       0.527   0.191   2.556  0.00  0.00    -0.016 A 
ATOM      8  C8  IND d   1       0.239   0.298   1.203  0.00  0.00    -0.047 A 
ATOM      9  C9  IND d   1      -0.840  -0.377   0.618  0.00  0.00    -0.096 A 
ATOM     10  HN1 IND d   1       1.593   1.465   0.294  0.00  0.00     0.298 HD
ENDROOT
TORSDOF 0
ENDMDL
