MODEL 1
REMARK minimizedAffinity -2.89010525
REMARK minimizedRMSD -1
REMARK  0 active torsions:
REMARK  status: ('A' for Active; 'I' for Inactive)
ROOT
ATOM      1  N1  IND d   1      -0.910   0.494  -1.559  0.00  0.00    -0.196 N 
ATOM      2  C2  IND d   1       0.243   0.231  -2.245  0.00  0.00     0.054 A 
ATOM      3  C3  IND d   1       1.253  -0.031  -1.384  0.00  0.00    -0.031 A 
ATOM      4  C4  IND d   1       1.214  -0.182   1.185  0.00  0.00     0.051 A 
ATOM      5  C5  IND d   1       0.398   0.015   2.264  0.00  0.00    -0.031 A 
ATOM      6  C6  IND d   1      -0.923   0.385   2.120  0.00  0.00     0.015 A 
ATOM      7  C7  IND d   1      -1.483   0.564   0.887  0.00  0.00    -0.016 A 
ATOM      8  C8  IND d   1      -0.656   0.372  -0.210  0.00  0.00    -0.047 A 
ATOM      9  C9  IND d   1       0.697   0.037  -0.070  0.00  0.00    -0.096 A 
ATOM     10  HN1 IND d   1      -1.667   0.701  -1.910  0.00  0.00     0.298 HD
ENDROOT
TORSDOF 0
ENDMDL
