MODEL 1
REMARK minimizedAffinity -5.73880768
REMARK minimizedRMSD -1
REMARK  0 active torsions:
REMARK  status: ('A' for Active; 'I' for Inactive)
ROOT
ATOM      1  N1  IND d   1      -2.477   0.933   0.344  0.00  0.00    -0.196 N 
ATOM      2  C2  IND d   1      -3.400   0.878   1.352  0.00  0.00     0.054 A 
ATOM      3  C3  IND d   1      -2.849   0.344   2.465  0.00  0.00    -0.031 A 
ATOM      4  C4  IND d   1      -0.425  -0.414   2.889  0.00  0.00     0.051 A 
ATOM      5  C5  IND d   1       0.774  -0.590   2.258  0.00  0.00    -0.031 A 
ATOM      6  C6  IND d   1       0.955  -0.259   0.931  0.00  0.00     0.015 A 
ATOM      7  C7  IND d   1      -0.057   0.274   0.185  0.00  0.00    -0.016 A 
ATOM      8  C8  IND d   1      -1.279   0.449   0.820  0.00  0.00    -0.047 A 
ATOM      9  C9  IND d   1      -1.481   0.075   2.155  0.00  0.00    -0.096 A 
ATOM     10  HN1 IND d   1      -2.621   1.222  -0.453  0.00  0.00     0.298 HD
ENDROOT
TORSDOF 0
ENDMDL
