MODEL 1
REMARK minimizedAffinity -6.39415789
REMARK minimizedRMSD -1
REMARK  0 active torsions:
REMARK  status: ('A' for Active; 'I' for Inactive)
ROOT
ATOM      1  N1  IND d   1       0.757  -0.302   2.275  0.00  0.00    -0.196 N 
ATOM      2  C2  IND d   1       1.477  -0.251   1.115  0.00  0.00     0.054 A 
ATOM      3  C3  IND d   1       0.671   0.059   0.074  0.00  0.00    -0.031 A 
ATOM      4  C4  IND d   1      -1.841   0.623   0.062  0.00  0.00     0.051 A 
ATOM      5  C5  IND d   1      -2.938   0.672   0.876  0.00  0.00    -0.031 A 
ATOM      6  C6  IND d   1      -2.857   0.396   2.226  0.00  0.00     0.015 A 
ATOM      7  C7  IND d   1      -1.669   0.070   2.817  0.00  0.00    -0.016 A 
ATOM      8  C8  IND d   1      -0.554   0.012   1.992  0.00  0.00    -0.047 A 
ATOM      9  C9  IND d   1      -0.638   0.250   0.614  0.00  0.00    -0.096 A 
ATOM     10  HN1 IND d   1       1.070  -0.498   3.052  0.00  0.00     0.298 HD
ENDROOT
TORSDOF 0
ENDMDL
