MODEL 1
REMARK minimizedAffinity -5.81341791
REMARK minimizedRMSD -1
REMARK  0 active torsions:
REMARK  status: ('A' for Active; 'I' for Inactive)
ROOT
ATOM      1  N1  IND d   1      -0.738   0.604  -1.012  0.00  0.00    -0.196 N 
ATOM      2  C2  IND d   1       0.565   0.192  -1.009  0.00  0.00     0.054 A 
ATOM      3  C3  IND d   1       0.859  -0.430   0.155  0.00  0.00    -0.031 A 
ATOM      4  C4  IND d   1      -0.673  -0.973   2.152  0.00  0.00     0.051 A 
ATOM      5  C5  IND d   1      -1.937  -0.765   2.627  0.00  0.00    -0.031 A 
ATOM      6  C6  IND d   1      -2.887  -0.079   1.898  0.00  0.00     0.015 A 
ATOM      7  C7  IND d   1      -2.609   0.417   0.656  0.00  0.00    -0.016 A 
ATOM      8  C8  IND d   1      -1.324   0.215   0.173  0.00  0.00    -0.047 A 
ATOM      9  C9  IND d   1      -0.344  -0.444   0.926  0.00  0.00    -0.096 A 
ATOM     10  HN1 IND d   1      -1.127   1.034  -1.647  0.00  0.00     0.298 HD
ENDROOT
TORSDOF 0
ENDMDL
