MODEL 1
REMARK minimizedAffinity -4.96855116
REMARK minimizedRMSD -1
REMARK  0 active torsions:
REMARK  status: ('A' for Active; 'I' for Inactive)
ROOT
ATOM      1  N1  IND d   1      -1.148   1.265  -0.982  0.00  0.00    -0.196 N 
ATOM      2  C2  IND d   1      -2.478   1.137  -0.695  0.00  0.00     0.054 A 
ATOM      3  C3  IND d   1      -2.646   0.474   0.471  0.00  0.00    -0.031 A 
ATOM      4  C4  IND d   1      -0.877  -0.401   2.124  0.00  0.00     0.051 A 
ATOM      5  C5  IND d   1       0.473  -0.551   2.278  0.00  0.00    -0.031 A 
ATOM      6  C6  IND d   1       1.370  -0.091   1.336  0.00  0.00     0.015 A 
ATOM      7  C7  IND d   1       0.949   0.548   0.204  0.00  0.00    -0.016 A 
ATOM      8  C8  IND d   1      -0.422   0.696   0.041  0.00  0.00    -0.047 A 
ATOM      9  C9  IND d   1      -1.338   0.194   0.974  0.00  0.00    -0.096 A 
ATOM     10  HN1 IND d   1      -0.819   1.639  -1.683  0.00  0.00     0.298 HD
ENDROOT
TORSDOF 0
ENDMDL
