MODEL 1
REMARK minimizedAffinity -5.75427055
REMARK minimizedRMSD -1
REMARK  0 active torsions:
REMARK  status: ('A' for Active; 'I' for Inactive)
ROOT
ATOM      1  N1  IND d   1      -0.986  -0.013  -0.665  0.00  0.00    -0.196 N 
ATOM      2  C2  IND d   1       0.373  -0.152  -0.722  0.00  0.00     0.054 A 
ATOM      3  C3  IND d   1       0.887  -0.266   0.523  0.00  0.00    -0.031 A 
ATOM      4  C4  IND d   1      -0.327  -0.353   2.792  0.00  0.00     0.051 A 
ATOM      5  C5  IND d   1      -1.566  -0.229   3.356  0.00  0.00    -0.031 A 
ATOM      6  C6  IND d   1      -2.697  -0.026   2.593  0.00  0.00     0.015 A 
ATOM      7  C7  IND d   1      -2.634   0.050   1.231  0.00  0.00    -0.016 A 
ATOM      8  C8  IND d   1      -1.377  -0.068   0.655  0.00  0.00    -0.047 A 
ATOM      9  C9  IND d   1      -0.219  -0.232   1.427  0.00  0.00    -0.096 A 
ATOM     10  HN1 IND d   1      -1.508   0.090  -1.340  0.00  0.00     0.298 HD
ENDROOT
TORSDOF 0
ENDMDL
