MODEL 1
REMARK minimizedAffinity 0.483379185
REMARK minimizedRMSD -1
REMARK  0 active torsions:
REMARK  status: ('A' for Active; 'I' for Inactive)
ROOT
ATOM      1  N1  IND d   1       0.652   0.923  -0.182  0.00  0.00    -0.196 N 
ATOM      2  C2  IND d   1       0.510   0.013  -1.191  0.00  0.00     0.054 A 
ATOM      3  C3  IND d   1      -0.163  -1.075  -0.752  0.00  0.00    -0.031 A 
ATOM      4  C4  IND d   1      -1.213  -1.528   1.554  0.00  0.00     0.051 A 
ATOM      5  C5  IND d   1      -1.314  -1.006   2.813  0.00  0.00    -0.031 A 
ATOM      6  C6  IND d   1      -0.756   0.212   3.144  0.00  0.00     0.015 A 
ATOM      7  C7  IND d   1      -0.083   0.962   2.221  0.00  0.00    -0.016 A 
ATOM      8  C8  IND d   1       0.028   0.431   0.944  0.00  0.00    -0.047 A 
ATOM      9  C9  IND d   1      -0.500  -0.824   0.613  0.00  0.00    -0.096 A 
ATOM     10  HN1 IND d   1       1.062   1.677  -0.240  0.00  0.00     0.298 HD
ENDROOT
TORSDOF 0
ENDMDL
