MODEL 1
REMARK minimizedAffinity -6.16088295
REMARK minimizedRMSD -1
REMARK  0 active torsions:
REMARK  status: ('A' for Active; 'I' for Inactive)
ROOT
ATOM      1  N1  IND d   1      -2.185   0.798  -0.692  0.00  0.00    -0.196 N 
ATOM      2  C2  IND d   1      -1.246   0.722  -1.683  0.00  0.00     0.054 A 
ATOM      3  C3  IND d   1      -0.021   0.505  -1.155  0.00  0.00    -0.031 A 
ATOM      4  C4  IND d   1       0.659   0.139   1.301  0.00  0.00     0.051 A 
ATOM      5  C5  IND d   1       0.157   0.154   2.572  0.00  0.00    -0.031 A 
ATOM      6  C6  IND d   1      -1.180   0.385   2.824  0.00  0.00     0.015 A 
ATOM      7  C7  IND d   1      -2.070   0.601   1.810  0.00  0.00    -0.016 A 
ATOM      8  C8  IND d   1      -1.561   0.594   0.519  0.00  0.00    -0.047 A 
ATOM      9  C9  IND d   1      -0.198   0.402   0.259  0.00  0.00    -0.096 A 
ATOM     10  HN1 IND d   1      -3.024   0.947  -0.807  0.00  0.00     0.298 HD
ENDROOT
TORSDOF 0
ENDMDL
