MODEL 1
REMARK minimizedAffinity -5.55309772
REMARK minimizedRMSD -1
REMARK  0 active torsions:
REMARK  status: ('A' for Active; 'I' for Inactive)
ROOT
ATOM      1  N1  IND d   1      -0.267   0.342  -0.580  0.00  0.00    -0.196 N 
ATOM      2  C2  IND d   1       1.094   0.462  -0.610  0.00  0.00     0.054 A 
ATOM      3  C3  IND d   1       1.613   0.238   0.618  0.00  0.00    -0.031 A 
ATOM      4  C4  IND d   1       0.423  -0.442   2.797  0.00  0.00     0.051 A 
ATOM      5  C5  IND d   1      -0.821  -0.640   3.329  0.00  0.00    -0.031 A 
ATOM      6  C6  IND d   1      -1.966  -0.521   2.569  0.00  0.00     0.015 A 
ATOM      7  C7  IND d   1      -1.910  -0.209   1.240  0.00  0.00    -0.016 A 
ATOM      8  C8  IND d   1      -0.649  -0.001   0.698  0.00  0.00    -0.047 A 
ATOM      9  C9  IND d   1       0.514  -0.079   1.474  0.00  0.00    -0.096 A 
ATOM     10  HN1 IND d   1      -0.796   0.460  -1.248  0.00  0.00     0.298 HD
ENDROOT
TORSDOF 0
ENDMDL
