MODEL 1
REMARK minimizedAffinity -1.06697917
REMARK minimizedRMSD -1
REMARK  0 active torsions:
REMARK  status: ('A' for Active; 'I' for Inactive)
ROOT
ATOM      1  N1  IND d   1      -1.048  -1.023   2.950  0.00  0.00    -0.196 N 
ATOM      2  C2  IND d   1      -1.810  -2.013   2.395  0.00  0.00     0.054 A 
ATOM      3  C3  IND d   1      -1.722  -1.974   1.046  0.00  0.00    -0.031 A 
ATOM      4  C4  IND d   1      -0.309  -0.434  -0.457  0.00  0.00     0.051 A 
ATOM      5  C5  IND d   1       0.521   0.651  -0.410  0.00  0.00    -0.031 A 
ATOM      6  C6  IND d   1       0.879   1.244   0.784  0.00  0.00     0.015 A 
ATOM      7  C7  IND d   1       0.428   0.765   1.981  0.00  0.00    -0.016 A 
ATOM      8  C8  IND d   1      -0.420  -0.333   1.937  0.00  0.00    -0.047 A 
ATOM      9  C9  IND d   1      -0.821  -0.912   0.726  0.00  0.00    -0.096 A 
ATOM     10  HN1 IND d   1      -0.974  -0.858   3.791  0.00  0.00     0.298 HD
ENDROOT
TORSDOF 0
ENDMDL
