MODEL 1
REMARK minimizedAffinity 0.570941508
REMARK minimizedRMSD -1
REMARK  0 active torsions:
REMARK  status: ('A' for Active; 'I' for Inactive)
ROOT
ATOM      1  N1  IND d   1      -0.596   0.527   1.866  0.00  0.00    -0.196 N 
ATOM      2  C2  IND d   1       0.756   0.347   1.957  0.00  0.00     0.054 A 
ATOM      3  C3  IND d   1       1.311   0.327   0.725  0.00  0.00    -0.031 A 
ATOM      4  C4  IND d   1       0.205   0.672  -1.574  0.00  0.00     0.051 A 
ATOM      5  C5  IND d   1      -1.014   0.834  -2.169  0.00  0.00    -0.031 A 
ATOM      6  C6  IND d   1      -2.180   0.906  -1.434  0.00  0.00     0.015 A 
ATOM      7  C7  IND d   1      -2.169   0.829  -0.070  0.00  0.00    -0.016 A 
ATOM      8  C8  IND d   1      -0.933   0.658   0.537  0.00  0.00    -0.047 A 
ATOM      9  C9  IND d   1       0.249   0.542  -0.206  0.00  0.00    -0.096 A 
ATOM     10  HN1 IND d   1      -1.145   0.553   2.528  0.00  0.00     0.298 HD
ENDROOT
TORSDOF 0
ENDMDL
