MODEL 1
REMARK minimizedAffinity -3.23576307
REMARK minimizedRMSD -1
REMARK  0 active torsions:
REMARK  status: ('A' for Active; 'I' for Inactive)
ROOT
ATOM      1  N1  IND d   1      -0.736   0.207  -0.889  0.00  0.00    -0.196 N 
ATOM      2  C2  IND d   1       0.555   0.632  -1.036  0.00  0.00     0.054 A 
ATOM      3  C3  IND d   1       1.147   0.767   0.172  0.00  0.00    -0.031 A 
ATOM      4  C4  IND d   1       0.217   0.246   2.515  0.00  0.00     0.051 A 
ATOM      5  C5  IND d   1      -0.927  -0.133   3.161  0.00  0.00    -0.031 A 
ATOM      6  C6  IND d   1      -2.088  -0.425   2.476  0.00  0.00     0.015 A 
ATOM      7  C7  IND d   1      -2.146  -0.362   1.112  0.00  0.00    -0.016 A 
ATOM      8  C8  IND d   1      -0.988   0.029   0.454  0.00  0.00    -0.047 A 
ATOM      9  C9  IND d   1       0.181   0.368   1.147  0.00  0.00    -0.096 A 
ATOM     10  HN1 IND d   1      -1.296   0.073  -1.527  0.00  0.00     0.298 HD
ENDROOT
TORSDOF 0
ENDMDL
