MODEL 1
REMARK minimizedAffinity 4.05497646
REMARK minimizedRMSD -1
REMARK  0 active torsions:
REMARK  status: ('A' for Active; 'I' for Inactive)
ROOT
ATOM      1  O1  BZF d   1       2.146  -1.161   1.555  0.00  0.00    -0.204 OA
ATOM      2  C2  BZF d   1       3.373  -0.586   1.285  0.00  0.00     0.174 A 
ATOM      3  C3  BZF d   1       3.311   0.172   0.171  0.00  0.00    -0.012 A 
ATOM      4  C3A BZF d   1       1.939   0.139  -0.232  0.00  0.00    -0.107 A 
ATOM      5  C4  BZF d   1       1.248   0.713  -1.260  0.00  0.00     0.055 A 
ATOM      6  C5  BZF d   1      -0.070   0.421  -1.415  0.00  0.00    -0.016 A 
ATOM      7  C6  BZF d   1      -0.727  -0.443  -0.563  0.00  0.00     0.022 A 
ATOM      8  C7  BZF d   1      -0.085  -1.033   0.474  0.00  0.00     0.029 A 
ATOM      9  C7A BZF d   1       1.239  -0.714   0.653  0.00  0.00     0.058 A 
ENDROOT
TORSDOF 0
ENDMDL
