MODEL 1
REMARK minimizedAffinity -4.73307943
REMARK minimizedRMSD -1
REMARK  0 active torsions:
REMARK  status: ('A' for Active; 'I' for Inactive)
ROOT
ATOM      1  O1  BZF d   1      -4.955   5.120   0.289  0.00  0.00    -0.204 OA
ATOM      2  C2  BZF d   1      -3.751   5.730  -0.008  0.00  0.00     0.174 A 
ATOM      3  C3  BZF d   1      -2.999   4.941  -0.802  0.00  0.00    -0.012 A 
ATOM      4  C3A BZF d   1      -3.820   3.805  -1.091  0.00  0.00    -0.107 A 
ATOM      5  C4  BZF d   1      -3.635   2.680  -1.843  0.00  0.00     0.055 A 
ATOM      6  C5  BZF d   1      -4.606   1.730  -1.858  0.00  0.00    -0.016 A 
ATOM      7  C6  BZF d   1      -5.770   1.868  -1.130  0.00  0.00     0.022 A 
ATOM      8  C7  BZF d   1      -6.000   2.969  -0.373  0.00  0.00     0.029 A 
ATOM      9  C7A BZF d   1      -5.035   3.946  -0.382  0.00  0.00     0.058 A 
ENDROOT
TORSDOF 0
ENDMDL
