MODEL 1
REMARK minimizedAffinity -2.72832799
REMARK minimizedRMSD -1
REMARK  0 active torsions:
REMARK  status: ('A' for Active; 'I' for Inactive)
ROOT
ATOM      1  O1  BZF d   1      -2.355   0.811   2.293  0.00  0.00    -0.204 OA
ATOM      2  C2  BZF d   1      -1.149   1.453   2.090  0.00  0.00     0.174 A 
ATOM      3  C3  BZF d   1      -0.214   0.998   2.949  0.00  0.00    -0.012 A 
ATOM      4  C3A BZF d   1      -0.853  -0.056   3.676  0.00  0.00    -0.107 A 
ATOM      5  C4  BZF d   1      -0.434  -0.905   4.661  0.00  0.00     0.055 A 
ATOM      6  C5  BZF d   1      -1.326  -1.771   5.209  0.00  0.00    -0.016 A 
ATOM      7  C6  BZF d   1      -2.644  -1.811   4.802  0.00  0.00     0.022 A 
ATOM      8  C7  BZF d   1      -3.104  -0.992   3.825  0.00  0.00     0.029 A 
ATOM      9  C7A BZF d   1      -2.197  -0.139   3.246  0.00  0.00     0.058 A 
ENDROOT
TORSDOF 0
ENDMDL
