MODEL 1
REMARK minimizedAffinity 6.62124729
REMARK minimizedRMSD -1
REMARK  0 active torsions:
REMARK  status: ('A' for Active; 'I' for Inactive)
ROOT
ATOM      1  O1  BZF d   1      -2.774   1.140   0.033  0.00  0.00    -0.204 OA
ATOM      2  C2  BZF d   1      -3.330  -0.043  -0.416  0.00  0.00     0.174 A 
ATOM      3  C3  BZF d   1      -3.117  -1.038   0.469  0.00  0.00    -0.012 A 
ATOM      4  C3A BZF d   1      -2.462  -0.419   1.580  0.00  0.00    -0.107 A 
ATOM      5  C4  BZF d   1      -2.006  -0.885   2.780  0.00  0.00     0.055 A 
ATOM      6  C5  BZF d   1      -1.347  -0.036   3.612  0.00  0.00    -0.016 A 
ATOM      7  C6  BZF d   1      -1.121   1.282   3.273  0.00  0.00     0.022 A 
ATOM      8  C7  BZF d   1      -1.559   1.792   2.096  0.00  0.00     0.029 A 
ATOM      9  C7A BZF d   1      -2.254   0.945   1.268  0.00  0.00     0.058 A 
ENDROOT
TORSDOF 0
ENDMDL
