MODEL 1
REMARK minimizedAffinity 0.407902181
REMARK minimizedRMSD -1
REMARK  0 active torsions:
REMARK  status: ('A' for Active; 'I' for Inactive)
ROOT
ATOM      1  O1  BZF d   1       1.094  -2.835  -0.844  0.00  0.00    -0.204 OA
ATOM      2  C2  BZF d   1       1.804  -1.668  -1.049  0.00  0.00     0.174 A 
ATOM      3  C3  BZF d   1       1.861  -1.367  -2.363  0.00  0.00    -0.012 A 
ATOM      4  C3A BZF d   1       1.063  -2.361  -3.012  0.00  0.00    -0.107 A 
ATOM      5  C4  BZF d   1       0.721  -2.588  -4.314  0.00  0.00     0.055 A 
ATOM      6  C5  BZF d   1      -0.013  -3.689  -4.622  0.00  0.00    -0.016 A 
ATOM      7  C6  BZF d   1      -0.418  -4.586  -3.656  0.00  0.00     0.022 A 
ATOM      8  C7  BZF d   1      -0.108  -4.401  -2.349  0.00  0.00     0.029 A 
ATOM      9  C7A BZF d   1       0.606  -3.272  -2.030  0.00  0.00     0.058 A 
ENDROOT
TORSDOF 0
ENDMDL
