MODEL 1
REMARK minimizedAffinity 2.75861955
REMARK minimizedRMSD -1
REMARK  0 active torsions:
REMARK  status: ('A' for Active; 'I' for Inactive)
ROOT
ATOM      1  O1  BZF d   1      -3.053   1.471   2.284  0.00  0.00    -0.204 OA
ATOM      2  C2  BZF d   1      -3.646   0.969   1.142  0.00  0.00     0.174 A 
ATOM      3  C3  BZF d   1      -2.751   0.286   0.399  0.00  0.00    -0.012 A 
ATOM      4  C3A BZF d   1      -1.544   0.287   1.167  0.00  0.00    -0.107 A 
ATOM      5  C4  BZF d   1      -0.303  -0.245   0.967  0.00  0.00     0.055 A 
ATOM      6  C5  BZF d   1       0.676   0.000   1.877  0.00  0.00    -0.016 A 
ATOM      7  C6  BZF d   1       0.450   0.776   2.995  0.00  0.00     0.022 A 
ATOM      8  C7  BZF d   1      -0.767   1.322   3.239  0.00  0.00     0.029 A 
ATOM      9  C7A BZF d   1      -1.767   1.049   2.338  0.00  0.00     0.058 A 
ENDROOT
TORSDOF 0
ENDMDL
