MODEL 1
REMARK minimizedAffinity 10.0546398
REMARK minimizedRMSD -1
REMARK  0 active torsions:
REMARK  status: ('A' for Active; 'I' for Inactive)
ROOT
ATOM      1  O1  BZF d   1      -3.038   1.918   2.238  0.00  0.00    -0.204 OA
ATOM      2  C2  BZF d   1      -1.833   2.019   1.570  0.00  0.00     0.174 A 
ATOM      3  C3  BZF d   1      -1.167   0.847   1.604  0.00  0.00    -0.012 A 
ATOM      4  C3A BZF d   1      -2.049  -0.068   2.260  0.00  0.00    -0.107 A 
ATOM      5  C4  BZF d   1      -1.959  -1.393   2.579  0.00  0.00     0.055 A 
ATOM      6  C5  BZF d   1      -2.966  -1.972   3.285  0.00  0.00    -0.016 A 
ATOM      7  C6  BZF d   1      -4.073  -1.256   3.692  0.00  0.00     0.022 A 
ATOM      8  C7  BZF d   1      -4.209   0.059   3.394  0.00  0.00     0.029 A 
ATOM      9  C7A BZF d   1      -3.209   0.639   2.652  0.00  0.00     0.058 A 
ENDROOT
TORSDOF 0
ENDMDL
