MODEL 1
REMARK minimizedAffinity 2.97148108
REMARK minimizedRMSD -1
REMARK  0 active torsions:
REMARK  status: ('A' for Active; 'I' for Inactive)
ROOT
ATOM      1  O1  BZF d   1       0.993  -1.229  -5.537  0.00  0.00    -0.204 OA
ATOM      2  C2  BZF d   1       0.119  -0.182  -5.316  0.00  0.00     0.174 A 
ATOM      3  C3  BZF d   1      -1.125  -0.641  -5.067  0.00  0.00    -0.012 A 
ATOM      4  C3A BZF d   1      -1.002  -2.066  -5.045  0.00  0.00    -0.107 A 
ATOM      5  C4  BZF d   1      -1.889  -3.082  -4.830  0.00  0.00     0.055 A 
ATOM      6  C5  BZF d   1      -1.465  -4.367  -4.952  0.00  0.00    -0.016 A 
ATOM      7  C6  BZF d   1      -0.163  -4.672  -5.291  0.00  0.00     0.022 A 
ATOM      8  C7  BZF d   1       0.755  -3.699  -5.508  0.00  0.00     0.029 A 
ATOM      9  C7A BZF d   1       0.337  -2.400  -5.354  0.00  0.00     0.058 A 
ENDROOT
TORSDOF 0
ENDMDL
