MODEL 1
REMARK minimizedAffinity -5.49327517
REMARK minimizedRMSD -1
REMARK  2 active torsions:
REMARK  status: ('A' for Active; 'I' for Inactive)
REMARK    1  A    between atoms: C2'_3  and  C1'_4 
REMARK    2  A    between atoms: C1'_4  and  C1_5 
ROOT
ATOM      1  C1  I4B d   1       0.155   0.347   0.053  0.00  0.00    -0.075 A 
ATOM      2  C2  I4B d   1       1.201  -0.509   0.293  0.00  0.00     0.003 A 
ATOM      3  C3  I4B d   1       0.953  -1.842   0.700  0.00  0.00     0.002 A 
ATOM      4  C4  I4B d   1      -0.347  -2.260   0.904  0.00  0.00    -0.004 A 
ATOM      5  C5  I4B d   1      -1.407  -1.397   0.639  0.00  0.00     0.002 A 
ATOM      6  C6  I4B d   1      -1.155  -0.090   0.199  0.00  0.00     0.003 A 
ENDROOT
BRANCH   1   7
ATOM      7  C1' I4B d   1       0.454   1.757  -0.344  0.00  0.00     0.060 C 
BRANCH   7   8
ATOM      8  C2' I4B d   1       0.932   1.746  -1.782  0.00  0.00    -0.013 C 
ATOM      9  C4' I4B d   1      -0.105   2.329  -2.705  0.00  0.00     0.013 C 
ATOM     10  C3' I4B d   1       2.214   2.521  -1.850  0.00  0.00     0.013 C 
ENDBRANCH   7   8
ENDBRANCH   1   7
TORSDOF 2
ENDMDL
