MODEL 1
REMARK minimizedAffinity -1.25170267
REMARK minimizedRMSD -1
REMARK  2 active torsions:
REMARK  status: ('A' for Active; 'I' for Inactive)
REMARK    1  A    between atoms: C2'_3  and  C1'_4 
REMARK    2  A    between atoms: C1'_4  and  C1_5 
ROOT
ATOM      1  C1  I4B d   1       0.770   0.734  -0.533  0.00  0.00    -0.075 A 
ATOM      2  C2  I4B d   1      -0.557   1.003  -0.307  0.00  0.00     0.003 A 
ATOM      3  C3  I4B d   1      -1.365   0.070   0.386  0.00  0.00     0.002 A 
ATOM      4  C4  I4B d   1      -0.822  -1.133   0.789  0.00  0.00    -0.004 A 
ATOM      5  C5  I4B d   1       0.529  -1.394   0.579  0.00  0.00     0.002 A 
ATOM      6  C6  I4B d   1       1.334  -0.450  -0.075  0.00  0.00     0.003 A 
ENDROOT
BRANCH   1   7
ATOM      7  C1' I4B d   1       1.587   1.727  -1.297  0.00  0.00     0.060 C 
BRANCH   7   8
ATOM      8  C2' I4B d   1       1.156   1.667  -2.749  0.00  0.00    -0.013 C 
ATOM      9  C4' I4B d   1       0.360   2.887  -3.132  0.00  0.00     0.013 C 
ATOM     10  C3' I4B d   1       2.389   1.538  -3.593  0.00  0.00     0.013 C 
ENDBRANCH   7   8
ENDBRANCH   1   7
TORSDOF 2
ENDMDL
