MODEL 1
REMARK minimizedAffinity -3.4715941
REMARK minimizedRMSD -1
REMARK  2 active torsions:
REMARK  status: ('A' for Active; 'I' for Inactive)
REMARK    1  A    between atoms: C2'_3  and  C1'_4 
REMARK    2  A    between atoms: C1'_4  and  C1_5 
ROOT
ATOM      1  C1  I4B d   1       0.219   0.147  -0.049  0.00  0.00    -0.075 A 
ATOM      2  C2  I4B d   1       1.114  -0.893   0.006  0.00  0.00     0.003 A 
ATOM      3  C3  I4B d   1       0.684  -2.183   0.400  0.00  0.00     0.002 A 
ATOM      4  C4  I4B d   1      -0.630  -2.376   0.776  0.00  0.00    -0.004 A 
ATOM      5  C5  I4B d   1      -1.541  -1.326   0.697  0.00  0.00     0.002 A 
ATOM      6  C6  I4B d   1      -1.117  -0.059   0.270  0.00  0.00     0.003 A 
ENDROOT
BRANCH   1   7
ATOM      7  C1' I4B d   1       0.714   1.504  -0.437  0.00  0.00     0.060 C 
BRANCH   7   8
ATOM      8  C2' I4B d   1       1.126   1.451  -1.895  0.00  0.00    -0.013 C 
ATOM      9  C4' I4B d   1       0.120   2.151  -2.771  0.00  0.00     0.013 C 
ATOM     10  C3' I4B d   1       2.481   2.082  -2.016  0.00  0.00     0.013 C 
ENDBRANCH   7   8
ENDBRANCH   1   7
TORSDOF 2
ENDMDL
