MODEL 1
REMARK minimizedAffinity -3.34078383
REMARK minimizedRMSD -1
REMARK  2 active torsions:
REMARK  status: ('A' for Active; 'I' for Inactive)
REMARK    1  A    between atoms: C2'_3  and  C1'_4 
REMARK    2  A    between atoms: C1'_4  and  C1_5 
ROOT
ATOM      1  C1  I4B d   1       0.229   0.301  -0.050  0.00  0.00    -0.075 A 
ATOM      2  C2  I4B d   1       1.202  -0.628  -0.324  0.00  0.00     0.003 A 
ATOM      3  C3  I4B d   1       1.042  -1.972   0.093  0.00  0.00     0.002 A 
ATOM      4  C4  I4B d   1      -0.076  -2.329   0.819  0.00  0.00    -0.004 A 
ATOM      5  C5  I4B d   1      -1.072  -1.391   1.076  0.00  0.00     0.002 A 
ATOM      6  C6  I4B d   1      -0.924  -0.070   0.628  0.00  0.00     0.003 A 
ENDROOT
BRANCH   1   7
ATOM      7  C1' I4B d   1       0.446   1.719  -0.476  0.00  0.00     0.060 C 
BRANCH   7   8
ATOM      8  C2' I4B d   1       1.021   1.702  -1.877  0.00  0.00    -0.013 C 
ATOM      9  C4' I4B d   1      -0.002   2.143  -2.891  0.00  0.00     0.013 C 
ATOM     10  C3' I4B d   1       2.223   2.599  -1.896  0.00  0.00     0.013 C 
ENDBRANCH   7   8
ENDBRANCH   1   7
TORSDOF 2
ENDMDL
