MODEL 1
REMARK minimizedAffinity -3.49914932
REMARK minimizedRMSD -1
REMARK  2 active torsions:
REMARK  status: ('A' for Active; 'I' for Inactive)
REMARK    1  A    between atoms: C2'_3  and  C1'_4 
REMARK    2  A    between atoms: C1'_4  and  C1_5 
ROOT
ATOM      1  C1  I4B d   1       0.262   1.002  -1.271  0.00  0.00    -0.075 A 
ATOM      2  C2  I4B d   1       1.423   1.734  -1.284  0.00  0.00     0.003 A 
ATOM      3  C3  I4B d   1       1.851   2.370  -2.474  0.00  0.00     0.002 A 
ATOM      4  C4  I4B d   1       1.119   2.208  -3.632  0.00  0.00    -0.004 A 
ATOM      5  C5  I4B d   1      -0.070   1.485  -3.612  0.00  0.00     0.002 A 
ATOM      6  C6  I4B d   1      -0.508   0.888  -2.421  0.00  0.00     0.003 A 
ENDROOT
BRANCH   1   7
ATOM      7  C1' I4B d   1      -0.144   0.316  -0.005  0.00  0.00     0.060 C 
BRANCH   7   8
ATOM      8  C2' I4B d   1       0.356  -1.113  -0.068  0.00  0.00    -0.013 C 
ATOM      9  C4' I4B d   1       1.758  -1.224   0.471  0.00  0.00     0.013 C 
ATOM     10  C3' I4B d   1      -0.594  -1.971   0.713  0.00  0.00     0.013 C 
ENDBRANCH   7   8
ENDBRANCH   1   7
TORSDOF 2
ENDMDL
