MODEL 1
REMARK minimizedAffinity -3.88887429
REMARK minimizedRMSD -1
REMARK  2 active torsions:
REMARK  status: ('A' for Active; 'I' for Inactive)
REMARK    1  A    between atoms: C2'_3  and  C1'_4 
REMARK    2  A    between atoms: C1'_4  and  C1_5 
ROOT
ATOM      1  C1  I4B d   1       0.046   0.127   0.086  0.00  0.00    -0.075 A 
ATOM      2  C2  I4B d   1       0.945  -0.896   0.261  0.00  0.00     0.003 A 
ATOM      3  C3  I4B d   1       0.489  -2.200   0.569  0.00  0.00     0.002 A 
ATOM      4  C4  I4B d   1      -0.861  -2.425   0.743  0.00  0.00    -0.004 A 
ATOM      5  C5  I4B d   1      -1.773  -1.392   0.543  0.00  0.00     0.002 A 
ATOM      6  C6  I4B d   1      -1.318  -0.111   0.200  0.00  0.00     0.003 A 
ENDROOT
BRANCH   1   7
ATOM      7  C1' I4B d   1       0.564   1.499  -0.207  0.00  0.00     0.060 C 
BRANCH   7   8
ATOM      8  C2' I4B d   1       1.207   1.473  -1.578  0.00  0.00    -0.013 C 
ATOM      9  C4' I4B d   1       0.307   2.092  -2.615  0.00  0.00     0.013 C 
ATOM     10  C3' I4B d   1       2.514   2.202  -1.490  0.00  0.00     0.013 C 
ENDBRANCH   7   8
ENDBRANCH   1   7
TORSDOF 2
ENDMDL
