MODEL 1
REMARK minimizedAffinity -4.18979359
REMARK minimizedRMSD -1
REMARK  2 active torsions:
REMARK  status: ('A' for Active; 'I' for Inactive)
REMARK    1  A    between atoms: C2'_3  and  C1'_4 
REMARK    2  A    between atoms: C1'_4  and  C1_5 
ROOT
ATOM      1  C1  I4B d   1      -0.061   0.551  -0.297  0.00  0.00    -0.075 A 
ATOM      2  C2  I4B d   1       0.808  -0.511  -0.274  0.00  0.00     0.003 A 
ATOM      3  C3  I4B d   1       0.387  -1.765   0.232  0.00  0.00     0.002 A 
ATOM      4  C4  I4B d   1      -0.886  -1.897   0.748  0.00  0.00    -0.004 A 
ATOM      5  C5  I4B d   1      -1.773  -0.825   0.703  0.00  0.00     0.002 A 
ATOM      6  C6  I4B d   1      -1.362   0.403   0.165  0.00  0.00     0.003 A 
ENDROOT
BRANCH   1   7
ATOM      7  C1' I4B d   1       0.426   1.870  -0.809  0.00  0.00     0.060 C 
BRANCH   7   8
ATOM      8  C2' I4B d   1       1.046   1.642  -2.172  0.00  0.00    -0.013 C 
ATOM      9  C4' I4B d   1       0.228   2.288  -3.259  0.00  0.00     0.013 C 
ATOM     10  C3' I4B d   1       2.441   2.193  -2.145  0.00  0.00     0.013 C 
ENDBRANCH   7   8
ENDBRANCH   1   7
TORSDOF 2
ENDMDL
