MODEL 1
REMARK minimizedAffinity -4.11369038
REMARK minimizedRMSD -1
REMARK  2 active torsions:
REMARK  status: ('A' for Active; 'I' for Inactive)
REMARK    1  A    between atoms: C2'_3  and  C1'_4 
REMARK    2  A    between atoms: C1'_4  and  C1_5 
ROOT
ATOM      1  C1  I4B d   1       0.179   0.450   0.001  0.00  0.00    -0.075 A 
ATOM      2  C2  I4B d   1      -1.123   0.038   0.138  0.00  0.00     0.003 A 
ATOM      3  C3  I4B d   1      -1.412  -1.265   0.613  0.00  0.00     0.002 A 
ATOM      4  C4  I4B d   1      -0.376  -2.133   0.889  0.00  0.00    -0.004 A 
ATOM      5  C5  I4B d   1       0.944  -1.705   0.772  0.00  0.00     0.002 A 
ATOM      6  C6  I4B d   1       1.223  -0.401   0.337  0.00  0.00     0.003 A 
ENDROOT
BRANCH   1   7
ATOM      7  C1' I4B d   1       0.448   1.821  -0.534  0.00  0.00     0.060 C 
BRANCH   7   8
ATOM      8  C2' I4B d   1       0.889   1.680  -1.977  0.00  0.00    -0.013 C 
ATOM      9  C4' I4B d   1       0.043   2.526  -2.891  0.00  0.00     0.013 C 
ATOM     10  C3' I4B d   1       2.334   2.073  -2.059  0.00  0.00     0.013 C 
ENDBRANCH   7   8
ENDBRANCH   1   7
TORSDOF 2
ENDMDL
