MODEL 1
REMARK minimizedAffinity -4.65140009
REMARK minimizedRMSD -1
REMARK  2 active torsions:
REMARK  status: ('A' for Active; 'I' for Inactive)
REMARK    1  A    between atoms: C2'_3  and  C1'_4 
REMARK    2  A    between atoms: C1'_4  and  C1_5 
ROOT
ATOM      1  C1  I4B d   1      -0.429   0.291   0.367  0.00  0.00    -0.075 A 
ATOM      2  C2  I4B d   1       0.141  -0.953   0.264  0.00  0.00     0.003 A 
ATOM      3  C3  I4B d   1      -0.495  -2.079   0.841  0.00  0.00     0.002 A 
ATOM      4  C4  I4B d   1      -1.666  -1.908   1.551  0.00  0.00    -0.004 A 
ATOM      5  C5  I4B d   1      -2.255  -0.649   1.635  0.00  0.00     0.002 A 
ATOM      6  C6  I4B d   1      -1.639   0.455   1.029  0.00  0.00     0.003 A 
ENDROOT
BRANCH   1   7
ATOM      7  C1' I4B d   1       0.286   1.463  -0.226  0.00  0.00     0.060 C 
BRANCH   7   8
ATOM      8  C2' I4B d   1       0.617   1.128  -1.667  0.00  0.00    -0.013 C 
ATOM      9  C4' I4B d   1      -0.526   1.475  -2.584  0.00  0.00     0.013 C 
ATOM     10  C3' I4B d   1       1.860   1.877  -2.043  0.00  0.00     0.013 C 
ENDBRANCH   7   8
ENDBRANCH   1   7
TORSDOF 2
ENDMDL
