MODEL 1
REMARK minimizedAffinity -6.26073933
REMARK minimizedRMSD -1
REMARK  2 active torsions:
REMARK  status: ('A' for Active; 'I' for Inactive)
REMARK    1  A    between atoms: C2'_3  and  C1'_4 
REMARK    2  A    between atoms: C1'_4  and  C1_5 
ROOT
ATOM      1  C1  I4B d   1       0.009   0.101  -0.160  0.00  0.00    -0.075 A 
ATOM      2  C2  I4B d   1      -1.346  -0.027   0.016  0.00  0.00     0.003 A 
ATOM      3  C3  I4B d   1      -1.898  -1.266   0.422  0.00  0.00     0.002 A 
ATOM      4  C4  I4B d   1      -1.069  -2.357   0.591  0.00  0.00    -0.004 A 
ATOM      5  C5  I4B d   1       0.307  -2.219   0.434  0.00  0.00     0.002 A 
ATOM      6  C6  I4B d   1       0.852  -0.979   0.068  0.00  0.00     0.003 A 
ENDROOT
BRANCH   1   7
ATOM      7  C1' I4B d   1       0.555   1.415  -0.622  0.00  0.00     0.060 C 
BRANCH   7   8
ATOM      8  C2' I4B d   1       0.822   1.313  -2.110  0.00  0.00    -0.013 C 
ATOM      9  C4' I4B d   1      -0.311   1.902  -2.909  0.00  0.00     0.013 C 
ATOM     10  C3' I4B d   1       2.112   2.019  -2.399  0.00  0.00     0.013 C 
ENDBRANCH   7   8
ENDBRANCH   1   7
TORSDOF 2
ENDMDL
