MODEL 1
REMARK minimizedAffinity -1.84303355
REMARK minimizedRMSD -1
REMARK  2 active torsions:
REMARK  status: ('A' for Active; 'I' for Inactive)
REMARK    1  A    between atoms: C2'_3  and  C1'_4 
REMARK    2  A    between atoms: C1'_4  and  C1_5 
ROOT
ATOM      1  C1  I4B d   1      -1.500  -0.531   0.194  0.00  0.00    -0.075 A 
ATOM      2  C2  I4B d   1      -2.370   0.373   0.750  0.00  0.00     0.003 A 
ATOM      3  C3  I4B d   1      -1.899   1.631   1.199  0.00  0.00     0.002 A 
ATOM      4  C4  I4B d   1      -0.553   1.921   1.120  0.00  0.00    -0.004 A 
ATOM      5  C5  I4B d   1       0.324   1.012   0.534  0.00  0.00     0.002 A 
ATOM      6  C6  I4B d   1      -0.154  -0.217   0.057  0.00  0.00     0.003 A 
ENDROOT
BRANCH   1   7
ATOM      7  C1' I4B d   1      -2.025  -1.863  -0.240  0.00  0.00     0.060 C 
BRANCH   7   8
ATOM      8  C2' I4B d   1      -1.707  -2.867   0.849  0.00  0.00    -0.013 C 
ATOM      9  C4' I4B d   1      -0.582  -2.383   1.725  0.00  0.00     0.013 C 
ATOM     10  C3' I4B d   1      -2.955  -3.096   1.647  0.00  0.00     0.013 C 
ENDBRANCH   7   8
ENDBRANCH   1   7
TORSDOF 2
ENDMDL
