MODEL 1
REMARK minimizedAffinity -4.11872053
REMARK minimizedRMSD -1
REMARK  2 active torsions:
REMARK  status: ('A' for Active; 'I' for Inactive)
REMARK    1  A    between atoms: C2'_3  and  C1'_4 
REMARK    2  A    between atoms: C1'_4  and  C1_5 
ROOT
ATOM      1  C1  I4B d   1      -4.126  -3.023  -5.003  0.00  0.00    -0.075 A 
ATOM      2  C2  I4B d   1      -4.615  -1.864  -5.552  0.00  0.00     0.003 A 
ATOM      3  C3  I4B d   1      -5.548  -1.074  -4.836  0.00  0.00     0.002 A 
ATOM      4  C4  I4B d   1      -5.998  -1.505  -3.604  0.00  0.00    -0.004 A 
ATOM      5  C5  I4B d   1      -5.484  -2.668  -3.040  0.00  0.00     0.002 A 
ATOM      6  C6  I4B d   1      -4.532  -3.426  -3.738  0.00  0.00     0.003 A 
ENDROOT
BRANCH   1   7
ATOM      7  C1' I4B d   1      -3.168  -3.849  -5.801  0.00  0.00     0.060 C 
BRANCH   7   8
ATOM      8  C2' I4B d   1      -3.294  -5.287  -5.339  0.00  0.00    -0.013 C 
ATOM      9  C4' I4B d   1      -4.462  -5.971  -5.999  0.00  0.00     0.013 C 
ATOM     10  C3' I4B d   1      -2.006  -5.988  -5.654  0.00  0.00     0.013 C 
ENDBRANCH   7   8
ENDBRANCH   1   7
TORSDOF 2
ENDMDL
