MODEL 1
REMARK minimizedAffinity 6.82499218
REMARK minimizedRMSD -1
REMARK  0 active torsions:
REMARK  status: ('A' for Active; 'I' for Inactive)
ROOT
ATOM      1  C   UNL d   1      -4.711   1.157   0.619  0.00  0.00    -0.002 A 
ATOM      2  C1  UNL d   1      -4.121   0.241   1.478  0.00  0.00     0.010 A 
ATOM      3  C2  UNL d   1      -2.735   0.215   1.647  0.00  0.00     0.041 A 
ATOM      4  C3  UNL d   1      -1.945   1.136   0.931  0.00  0.00    -0.075 A 
ATOM      5  S   UNL d   1      -0.228   1.290   0.979  0.00  0.00     0.015 SA
ATOM      6  C4  UNL d   1      -0.238   2.576  -0.138  0.00  0.00     0.022 A 
ATOM      7  C5  UNL d   1      -1.511   2.893  -0.549  0.00  0.00     0.026 A 
ATOM      8  C6  UNL d   1      -2.516   2.069   0.061  0.00  0.00    -0.082 A 
ATOM      9  C7  UNL d   1      -3.923   2.069  -0.088  0.00  0.00     0.045 A 
ENDROOT
TORSDOF 0
ENDMDL
