MODEL 1
REMARK minimizedAffinity -3.35804319
REMARK minimizedRMSD -1
REMARK  0 active torsions:
REMARK  status: ('A' for Active; 'I' for Inactive)
ROOT
ATOM      1  C   UNL d   1      -3.311   0.906   0.784  0.00  0.00    -0.002 A 
ATOM      2  C1  UNL d   1      -2.785  -0.155   1.507  0.00  0.00     0.010 A 
ATOM      3  C2  UNL d   1      -1.404  -0.294   1.663  0.00  0.00     0.041 A 
ATOM      4  C3  UNL d   1      -0.553   0.662   1.075  0.00  0.00    -0.075 A 
ATOM      5  S   UNL d   1       1.170   0.696   1.134  0.00  0.00     0.015 SA
ATOM      6  C4  UNL d   1       1.248   2.120   0.202  0.00  0.00     0.022 A 
ATOM      7  C5  UNL d   1      -0.000   2.573  -0.155  0.00  0.00     0.026 A 
ATOM      8  C6  UNL d   1      -1.059   1.740   0.343  0.00  0.00    -0.082 A 
ATOM      9  C7  UNL d   1      -2.463   1.852   0.202  0.00  0.00     0.045 A 
ENDROOT
TORSDOF 0
ENDMDL
