MODEL 1
REMARK minimizedAffinity 2.12129784
REMARK minimizedRMSD -1
REMARK  0 active torsions:
REMARK  status: ('A' for Active; 'I' for Inactive)
ROOT
ATOM      1  C   UNL d   1       0.711   0.924   0.729  0.00  0.00    -0.002 A 
ATOM      2  C1  UNL d   1      -0.012  -0.091   1.340  0.00  0.00     0.010 A 
ATOM      3  C2  UNL d   1      -1.408  -0.085   1.311  0.00  0.00     0.041 A 
ATOM      4  C3  UNL d   1      -2.072   0.966   0.649  0.00  0.00    -0.075 A 
ATOM      5  S   UNL d   1      -3.775   1.181   0.485  0.00  0.00     0.015 SA
ATOM      6  C4  UNL d   1      -3.583   2.624  -0.402  0.00  0.00     0.022 A 
ATOM      7  C5  UNL d   1      -2.258   2.949  -0.577  0.00  0.00     0.026 A 
ATOM      8  C6  UNL d   1      -1.366   1.999   0.025  0.00  0.00    -0.082 A 
ATOM      9  C7  UNL d   1       0.049   1.965   0.073  0.00  0.00     0.045 A 
ENDROOT
TORSDOF 0
ENDMDL
