MODEL 1
REMARK minimizedAffinity 9.95655537
REMARK minimizedRMSD -1
REMARK  0 active torsions:
REMARK  status: ('A' for Active; 'I' for Inactive)
ROOT
ATOM      1  C   UNL d   1      -0.468  -5.962  -1.821  0.00  0.00    -0.002 A 
ATOM      2  C1  UNL d   1      -0.198  -5.383  -3.052  0.00  0.00     0.010 A 
ATOM      3  C2  UNL d   1      -0.787  -4.168  -3.411  0.00  0.00     0.041 A 
ATOM      4  C3  UNL d   1      -1.659  -3.539  -2.501  0.00  0.00    -0.075 A 
ATOM      5  S   UNL d   1      -2.494  -2.047  -2.723  0.00  0.00     0.015 SA
ATOM      6  C4  UNL d   1      -3.228  -2.143  -1.188  0.00  0.00     0.022 A 
ATOM      7  C5  UNL d   1      -2.856  -3.279  -0.509  0.00  0.00     0.026 A 
ATOM      8  C6  UNL d   1      -1.945  -4.102  -1.254  0.00  0.00    -0.082 A 
ATOM      9  C7  UNL d   1      -1.333  -5.334  -0.921  0.00  0.00     0.045 A 
ENDROOT
TORSDOF 0
ENDMDL
