MODEL 1
REMARK minimizedAffinity 1.28272736
REMARK minimizedRMSD -1
REMARK  0 active torsions:
REMARK  status: ('A' for Active; 'I' for Inactive)
ROOT
ATOM      1  C   UNL d   1      -0.188   1.554  -0.015  0.00  0.00    -0.002 A 
ATOM      2  C1  UNL d   1      -1.156   2.480  -0.378  0.00  0.00     0.010 A 
ATOM      3  C2  UNL d   1      -2.497   2.271  -0.049  0.00  0.00     0.041 A 
ATOM      4  C3  UNL d   1      -2.852   1.106   0.660  0.00  0.00    -0.075 A 
ATOM      5  S   UNL d   1      -4.431   0.641   1.172  0.00  0.00     0.015 SA
ATOM      6  C4  UNL d   1      -3.858  -0.797   1.885  0.00  0.00     0.022 A 
ATOM      7  C5  UNL d   1      -2.497  -0.935   1.745  0.00  0.00     0.026 A 
ATOM      8  C6  UNL d   1      -1.895   0.160   1.037  0.00  0.00    -0.082 A 
ATOM      9  C7  UNL d   1      -0.544   0.400   0.687  0.00  0.00     0.045 A 
ENDROOT
TORSDOF 0
ENDMDL
