MODEL 1
REMARK minimizedAffinity 3.87245774
REMARK minimizedRMSD -1
REMARK  0 active torsions:
REMARK  status: ('A' for Active; 'I' for Inactive)
ROOT
ATOM      1  C   UNL d   1       0.526   1.431   0.724  0.00  0.00    -0.002 A 
ATOM      2  C1  UNL d   1      -0.035   2.507   0.050  0.00  0.00     0.010 A 
ATOM      3  C2  UNL d   1      -1.417   2.590  -0.130  0.00  0.00     0.041 A 
ATOM      4  C3  UNL d   1      -2.234   1.565   0.386  0.00  0.00    -0.075 A 
ATOM      5  S   UNL d   1      -3.952   1.456   0.286  0.00  0.00     0.015 SA
ATOM      6  C4  UNL d   1      -3.983  -0.020   1.136  0.00  0.00     0.022 A 
ATOM      7  C5  UNL d   1      -2.722  -0.435   1.495  0.00  0.00     0.026 A 
ATOM      8  C6  UNL d   1      -1.693   0.472   1.069  0.00  0.00    -0.082 A 
ATOM      9  C7  UNL d   1      -0.289   0.416   1.234  0.00  0.00     0.045 A 
ENDROOT
TORSDOF 0
ENDMDL
