MODEL 1
REMARK minimizedAffinity 3.03379655
REMARK minimizedRMSD -1
REMARK  0 active torsions:
REMARK  status: ('A' for Active; 'I' for Inactive)
ROOT
ATOM      1  C   UNL d   1      -3.829   1.167   0.434  0.00  0.00    -0.002 A 
ATOM      2  C1  UNL d   1      -3.486   2.449   0.028  0.00  0.00     0.010 A 
ATOM      3  C2  UNL d   1      -2.149   2.852   0.005  0.00  0.00     0.041 A 
ATOM      4  C3  UNL d   1      -1.154   1.936   0.398  0.00  0.00    -0.075 A 
ATOM      5  S   UNL d   1       0.548   2.209   0.448  0.00  0.00     0.015 SA
ATOM      6  C4  UNL d   1       0.860   0.629   1.008  0.00  0.00     0.022 A 
ATOM      7  C5  UNL d   1      -0.295  -0.102   1.158  0.00  0.00     0.026 A 
ATOM      8  C6  UNL d   1      -1.474   0.639   0.809  0.00  0.00    -0.082 A 
ATOM      9  C7  UNL d   1      -2.838   0.261   0.822  0.00  0.00     0.045 A 
ENDROOT
TORSDOF 0
ENDMDL
