MODEL 1
REMARK minimizedAffinity 4.95081425
REMARK minimizedRMSD -1
REMARK  0 active torsions:
REMARK  status: ('A' for Active; 'I' for Inactive)
ROOT
ATOM      1  C   UNL d   1      -3.924   1.356   0.330  0.00  0.00    -0.002 A 
ATOM      2  C1  UNL d   1      -3.536   0.415   1.273  0.00  0.00     0.010 A 
ATOM      3  C2  UNL d   1      -2.208   0.342   1.699  0.00  0.00     0.041 A 
ATOM      4  C3  UNL d   1      -1.268   1.241   1.157  0.00  0.00    -0.075 A 
ATOM      5  S   UNL d   1       0.412   1.338   1.530  0.00  0.00     0.015 SA
ATOM      6  C4  UNL d   1       0.654   2.632   0.447  0.00  0.00     0.022 A 
ATOM      7  C5  UNL d   1      -0.508   2.994  -0.192  0.00  0.00     0.026 A 
ATOM      8  C6  UNL d   1      -1.635   2.199   0.207  0.00  0.00    -0.082 A 
ATOM      9  C7  UNL d   1      -2.989   2.247  -0.205  0.00  0.00     0.045 A 
ENDROOT
TORSDOF 0
ENDMDL
