MODEL 1
REMARK minimizedAffinity 5.30780983
REMARK minimizedRMSD -1
REMARK  0 active torsions:
REMARK  status: ('A' for Active; 'I' for Inactive)
ROOT
ATOM      1  C   UNL d   1      -0.389   0.936   0.423  0.00  0.00    -0.002 A 
ATOM      2  C1  UNL d   1      -0.751   1.959   1.289  0.00  0.00     0.010 A 
ATOM      3  C2  UNL d   1       0.224   2.697   1.963  0.00  0.00     0.041 A 
ATOM      4  C3  UNL d   1       1.582   2.389   1.749  0.00  0.00    -0.075 A 
ATOM      5  S   UNL d   1       2.948   3.159   2.464  0.00  0.00     0.015 SA
ATOM      6  C4  UNL d   1       4.044   2.150   1.638  0.00  0.00     0.022 A 
ATOM      7  C5  UNL d   1       3.401   1.241   0.831  0.00  0.00     0.026 A 
ATOM      8  C6  UNL d   1       1.971   1.364   0.882  0.00  0.00    -0.082 A 
ATOM      9  C7  UNL d   1       0.959   0.633   0.214  0.00  0.00     0.045 A 
ENDROOT
TORSDOF 0
ENDMDL
