MODEL 1
REMARK minimizedAffinity 11.0130005
REMARK minimizedRMSD -1
REMARK  0 active torsions:
REMARK  status: ('A' for Active; 'I' for Inactive)
ROOT
ATOM      1  C   UNL d   1      -4.226   1.931  -0.375  0.00  0.00    -0.002 A 
ATOM      2  C1  UNL d   1      -2.932   2.422  -0.470  0.00  0.00     0.010 A 
ATOM      3  C2  UNL d   1      -1.935   1.971   0.397  0.00  0.00     0.041 A 
ATOM      4  C3  UNL d   1      -2.264   1.008   1.371  0.00  0.00    -0.075 A 
ATOM      5  S   UNL d   1      -1.207   0.309   2.540  0.00  0.00     0.015 SA
ATOM      6  C4  UNL d   1      -2.448  -0.659   3.193  0.00  0.00     0.022 A 
ATOM      7  C5  UNL d   1      -3.646  -0.467   2.547  0.00  0.00     0.026 A 
ATOM      8  C6  UNL d   1      -3.560   0.497   1.486  0.00  0.00    -0.082 A 
ATOM      9  C7  UNL d   1      -4.548   0.975   0.592  0.00  0.00     0.045 A 
ENDROOT
TORSDOF 0
ENDMDL
