MODEL 1
REMARK minimizedAffinity 1.74654341
REMARK minimizedRMSD -1
REMARK  0 active torsions:
REMARK  status: ('A' for Active; 'I' for Inactive)
ROOT
ATOM      1  C   UNL d   1       0.408   0.518  -0.294  0.00  0.00    -0.002 A 
ATOM      2  C1  UNL d   1       1.698   0.768   0.152  0.00  0.00     0.010 A 
ATOM      3  C2  UNL d   1       1.922   1.607   1.244  0.00  0.00     0.041 A 
ATOM      4  C3  UNL d   1       0.817   2.196   1.890  0.00  0.00    -0.075 A 
ATOM      5  S   UNL d   1       0.851   3.257   3.248  0.00  0.00     0.015 SA
ATOM      6  C4  UNL d   1      -0.847   3.404   3.270  0.00  0.00     0.022 A 
ATOM      7  C5  UNL d   1      -1.441   2.668   2.272  0.00  0.00     0.026 A 
ATOM      8  C6  UNL d   1      -0.492   1.959   1.460  0.00  0.00    -0.082 A 
ATOM      9  C7  UNL d   1      -0.686   1.104   0.349  0.00  0.00     0.045 A 
ENDROOT
TORSDOF 0
ENDMDL
