MODEL 1
REMARK minimizedAffinity 14.3585291
REMARK minimizedRMSD -1
REMARK  0 active torsions:
REMARK  status: ('A' for Active; 'I' for Inactive)
ROOT
ATOM      1  C   UNL d   1      -0.873  -2.205   1.440  0.00  0.00    -0.002 A 
ATOM      2  C1  UNL d   1      -1.895  -1.712   0.642  0.00  0.00     0.010 A 
ATOM      3  C2  UNL d   1      -1.693  -0.582  -0.153  0.00  0.00     0.041 A 
ATOM      4  C3  UNL d   1      -0.433   0.048  -0.135  0.00  0.00    -0.075 A 
ATOM      5  S   UNL d   1       0.044   1.444  -1.027  0.00  0.00     0.015 SA
ATOM      6  C4  UNL d   1       1.617   1.417  -0.371  0.00  0.00     0.022 A 
ATOM      7  C5  UNL d   1       1.791   0.376   0.509  0.00  0.00     0.026 A 
ATOM      8  C6  UNL d   1       0.612  -0.431   0.659  0.00  0.00    -0.082 A 
ATOM      9  C7  UNL d   1       0.376  -1.578   1.455  0.00  0.00     0.045 A 
ENDROOT
TORSDOF 0
ENDMDL
