MODEL 1
REMARK minimizedAffinity -0.742119372
REMARK minimizedRMSD -1
REMARK  0 active torsions:
REMARK  status: ('A' for Active; 'I' for Inactive)
ROOT
ATOM      1  C   UNL d   1      -4.715   4.651  -5.995  0.00  0.00     0.020 A 
ATOM      2  C1  UNL d   1      -5.861   3.857  -5.998  0.00  0.00     0.020 A 
ATOM      3  C2  UNL d   1      -6.000   2.829  -5.063  0.00  0.00     0.034 A 
ATOM      4  C3  UNL d   1      -4.991   2.592  -4.122  0.00  0.00     0.017 A 
ATOM      5  C4  UNL d   1      -3.841   3.389  -4.120  0.00  0.00     0.017 A 
ATOM      6  C5  UNL d   1      -3.707   4.417  -5.058  0.00  0.00     0.034 A 
ATOM      7 Cl   UNL d   1      -2.554   3.158  -2.990  0.00  0.00    -0.070 Cl
ATOM      8 Cl1  UNL d   1      -5.230   1.304  -2.995  0.00  0.00    -0.070 Cl
ENDROOT
TORSDOF 0
ENDMDL
