MODEL 1
REMARK minimizedAffinity 8.64582348
REMARK minimizedRMSD -1
REMARK  0 active torsions:
REMARK  status: ('A' for Active; 'I' for Inactive)
ROOT
ATOM      1  C   UNL d   1       2.324  -0.918   2.695  0.00  0.00     0.020 A 
ATOM      2  C1  UNL d   1       2.662  -0.557   1.392  0.00  0.00     0.020 A 
ATOM      3  C2  UNL d   1       3.767  -1.142   0.770  0.00  0.00     0.034 A 
ATOM      4  C3  UNL d   1       4.538  -2.090   1.451  0.00  0.00     0.017 A 
ATOM      5  C4  UNL d   1       4.198  -2.452   2.760  0.00  0.00     0.017 A 
ATOM      6  C5  UNL d   1       3.090  -1.864   3.378  0.00  0.00     0.034 A 
ATOM      7 Cl   UNL d   1       5.101  -3.615   3.664  0.00  0.00    -0.070 Cl
ATOM      8 Cl1  UNL d   1       5.891  -2.773   0.620  0.00  0.00    -0.070 Cl
ENDROOT
TORSDOF 0
ENDMDL
