MODEL 1
REMARK minimizedAffinity 5.99580908
REMARK minimizedRMSD -1
REMARK  0 active torsions:
REMARK  status: ('A' for Active; 'I' for Inactive)
ROOT
ATOM      1  C   UNL d   1      -0.610   5.835  -1.643  0.00  0.00     0.020 A 
ATOM      2  C1  UNL d   1       0.713   5.401  -1.555  0.00  0.00     0.020 A 
ATOM      3  C2  UNL d   1       1.021   4.243  -0.837  0.00  0.00     0.034 A 
ATOM      4  C3  UNL d   1       0.006   3.515  -0.205  0.00  0.00     0.017 A 
ATOM      5  C4  UNL d   1      -1.321   3.952  -0.295  0.00  0.00     0.017 A 
ATOM      6  C5  UNL d   1      -1.624   5.111  -1.015  0.00  0.00     0.034 A 
ATOM      7 Cl   UNL d   1      -2.627   3.106   0.457  0.00  0.00    -0.070 Cl
ATOM      8 Cl1  UNL d   1       0.459   2.093   0.664  0.00  0.00    -0.070 Cl
ENDROOT
TORSDOF 0
ENDMDL
