MODEL 1
REMARK minimizedAffinity 7.08934498
REMARK minimizedRMSD -1
REMARK  0 active torsions:
REMARK  status: ('A' for Active; 'I' for Inactive)
ROOT
ATOM      1  C   UNL d   1      -1.392   3.638  -1.781  0.00  0.00     0.020 A 
ATOM      2  C1  UNL d   1      -0.915   2.831  -0.749  0.00  0.00     0.020 A 
ATOM      3  C2  UNL d   1       0.391   2.996  -0.281  0.00  0.00     0.034 A 
ATOM      4  C3  UNL d   1       1.223   3.969  -0.845  0.00  0.00     0.017 A 
ATOM      5  C4  UNL d   1       0.744   4.778  -1.881  0.00  0.00     0.017 A 
ATOM      6  C5  UNL d   1      -0.565   4.609  -2.346  0.00  0.00     0.034 A 
ATOM      7 Cl   UNL d   1       1.712   6.000  -2.627  0.00  0.00    -0.070 Cl
ATOM      8 Cl1  UNL d   1       2.826   4.117  -0.217  0.00  0.00    -0.070 Cl
ENDROOT
TORSDOF 0
ENDMDL
