MODEL 1
REMARK minimizedAffinity 7.19114113
REMARK minimizedRMSD -1
REMARK  0 active torsions:
REMARK  status: ('A' for Active; 'I' for Inactive)
ROOT
ATOM      1  C   UNL d   1       0.293   5.999  -1.936  0.00  0.00     0.020 A 
ATOM      2  C1  UNL d   1       1.487   5.329  -1.673  0.00  0.00     0.020 A 
ATOM      3  C2  UNL d   1       1.471   3.964  -1.379  0.00  0.00     0.034 A 
ATOM      4  C3  UNL d   1       0.259   3.265  -1.347  0.00  0.00     0.017 A 
ATOM      5  C4  UNL d   1      -0.939   3.939  -1.611  0.00  0.00     0.017 A 
ATOM      6  C5  UNL d   1      -0.917   5.306  -1.905  0.00  0.00     0.034 A 
ATOM      7 Cl   UNL d   1      -2.473   3.144  -1.590  0.00  0.00    -0.070 Cl
ATOM      8 Cl1  UNL d   1       0.314   1.578  -0.977  0.00  0.00    -0.070 Cl
ENDROOT
TORSDOF 0
ENDMDL
