MODEL 1
REMARK minimizedAffinity 14.3440685
REMARK minimizedRMSD -1
REMARK  0 active torsions:
REMARK  status: ('A' for Active; 'I' for Inactive)
ROOT
ATOM      1  C   UNL d   1      -5.670   1.167  -1.831  0.00  0.00     0.020 A 
ATOM      2  C1  UNL d   1      -5.340   0.061  -2.613  0.00  0.00     0.020 A 
ATOM      3  C2  UNL d   1      -4.176   0.073  -3.384  0.00  0.00     0.034 A 
ATOM      4  C3  UNL d   1      -3.336   1.194  -3.373  0.00  0.00     0.017 A 
ATOM      5  C4  UNL d   1      -3.668   2.303  -2.587  0.00  0.00     0.017 A 
ATOM      6  C5  UNL d   1      -4.835   2.286  -1.818  0.00  0.00     0.034 A 
ATOM      7 Cl   UNL d   1      -2.682   3.721  -2.523  0.00  0.00    -0.070 Cl
ATOM      8 Cl1  UNL d   1      -1.912   1.140  -4.350  0.00  0.00    -0.070 Cl
ENDROOT
TORSDOF 0
ENDMDL
