MODEL 1
REMARK minimizedAffinity 18.1967545
REMARK minimizedRMSD -1
REMARK  0 active torsions:
REMARK  status: ('A' for Active; 'I' for Inactive)
ROOT
ATOM      1  C   UNL d   1      -2.218  -0.017  -5.461  0.00  0.00     0.020 A 
ATOM      2  C1  UNL d   1      -1.035   0.556  -4.996  0.00  0.00     0.020 A 
ATOM      3  C2  UNL d   1      -1.052   1.369  -3.861  0.00  0.00     0.034 A 
ATOM      4  C3  UNL d   1      -2.254   1.612  -3.187  0.00  0.00     0.017 A 
ATOM      5  C4  UNL d   1      -3.441   1.036  -3.654  0.00  0.00     0.017 A 
ATOM      6  C5  UNL d   1      -3.418   0.222  -4.791  0.00  0.00     0.034 A 
ATOM      7 Cl   UNL d   1      -4.963   1.288  -2.875  0.00  0.00    -0.070 Cl
ATOM      8 Cl1  UNL d   1      -2.201   2.627  -1.790  0.00  0.00    -0.070 Cl
ENDROOT
TORSDOF 0
ENDMDL
