MODEL 1
REMARK minimizedAffinity 0.224191487
REMARK minimizedRMSD -1
REMARK  0 active torsions:
REMARK  status: ('A' for Active; 'I' for Inactive)
ROOT
ATOM      1  C   UNL d   1      -4.317   5.198   2.041  0.00  0.00     0.020 A 
ATOM      2  C1  UNL d   1      -3.638   5.997   1.122  0.00  0.00     0.020 A 
ATOM      3  C2  UNL d   1      -2.577   5.466   0.386  0.00  0.00     0.034 A 
ATOM      4  C3  UNL d   1      -2.191   4.132   0.568  0.00  0.00     0.017 A 
ATOM      5  C4  UNL d   1      -2.874   3.332   1.491  0.00  0.00     0.017 A 
ATOM      6  C5  UNL d   1      -3.936   3.868   2.225  0.00  0.00     0.034 A 
ATOM      7 Cl   UNL d   1      -2.456   1.678   1.770  0.00  0.00    -0.070 Cl
ATOM      8 Cl1  UNL d   1      -0.870   3.542  -0.376  0.00  0.00    -0.070 Cl
ENDROOT
TORSDOF 0
ENDMDL
