MODEL 1
REMARK minimizedAffinity 10.7140703
REMARK minimizedRMSD -1
REMARK  0 active torsions:
REMARK  status: ('A' for Active; 'I' for Inactive)
ROOT
ATOM      1  C   UNL d   1       1.179  -5.889   0.710  0.00  0.00     0.020 A 
ATOM      2  C1  UNL d   1       0.144  -5.541  -0.157  0.00  0.00     0.020 A 
ATOM      3  C2  UNL d   1       0.413  -5.303  -1.506  0.00  0.00     0.034 A 
ATOM      4  C3  UNL d   1       1.721  -5.413  -1.993  0.00  0.00     0.017 A 
ATOM      5  C4  UNL d   1       2.759  -5.763  -1.123  0.00  0.00     0.017 A 
ATOM      6  C5  UNL d   1       2.484  -6.000   0.228  0.00  0.00     0.034 A 
ATOM      7 Cl   UNL d   1       4.398  -5.918  -1.650  0.00  0.00    -0.070 Cl
ATOM      8 Cl1  UNL d   1       1.981  -5.105  -3.674  0.00  0.00    -0.070 Cl
ENDROOT
TORSDOF 0
ENDMDL
