MODEL 1
REMARK minimizedAffinity 14.2914057
REMARK minimizedRMSD -1
REMARK  0 active torsions:
REMARK  status: ('A' for Active; 'I' for Inactive)
ROOT
ATOM      1  C2' OXE d   1       4.190   1.322   3.989  0.00  0.00     0.078 C 
ATOM      2  C1' OXE d   1       4.095   3.925   5.036  0.00  0.00     0.078 C 
ATOM      3  C1  OXE d   1       4.168   3.771   3.537  0.00  0.00    -0.078 A 
ATOM      4  C2  OXE d   1       4.261   2.495   3.036  0.00  0.00    -0.078 A 
ATOM      5  C3  OXE d   1       4.276   2.295   1.659  0.00  0.00     0.003 A 
ATOM      6  C4  OXE d   1       4.352   3.386   0.785  0.00  0.00    -0.002 A 
ATOM      7  C5  OXE d   1       4.298   4.695   1.276  0.00  0.00    -0.002 A 
ATOM      8  C6  OXE d   1       4.164   4.904   2.644  0.00  0.00     0.003 A 
ENDROOT
TORSDOF 0
ENDMDL
