MODEL 1
REMARK minimizedAffinity 6.33667946
REMARK minimizedRMSD -1
REMARK  0 active torsions:
REMARK  status: ('A' for Active; 'I' for Inactive)
ROOT
ATOM      1  C2' OXE d   1       4.050   1.451   3.759  0.00  0.00     0.078 C 
ATOM      2  C1' OXE d   1       4.215   3.920   5.085  0.00  0.00     0.078 C 
ATOM      3  C1  OXE d   1       4.135   3.934   3.579  0.00  0.00    -0.078 A 
ATOM      4  C2  OXE d   1       4.101   2.720   2.936  0.00  0.00    -0.078 A 
ATOM      5  C3  OXE d   1       3.972   2.677   1.551  0.00  0.00     0.003 A 
ATOM      6  C4  OXE d   1       4.030   3.855   0.796  0.00  0.00    -0.002 A 
ATOM      7  C5  OXE d   1       4.104   5.100   1.429  0.00  0.00    -0.002 A 
ATOM      8  C6  OXE d   1       4.114   5.159   2.818  0.00  0.00     0.003 A 
ENDROOT
TORSDOF 0
ENDMDL
