MODEL 1
REMARK minimizedAffinity 5.21204185
REMARK minimizedRMSD -1
REMARK  0 active torsions:
REMARK  status: ('A' for Active; 'I' for Inactive)
ROOT
ATOM      1  C2' OXE d   1      -3.319   0.450   2.088  0.00  0.00     0.078 C 
ATOM      2  C1' OXE d   1      -3.630  -2.155   3.088  0.00  0.00     0.078 C 
ATOM      3  C1  OXE d   1      -2.261  -1.528   3.172  0.00  0.00    -0.078 A 
ATOM      4  C2  OXE d   1      -2.107  -0.271   2.638  0.00  0.00    -0.078 A 
ATOM      5  C3  OXE d   1      -0.878   0.375   2.738  0.00  0.00     0.003 A 
ATOM      6  C4  OXE d   1       0.240  -0.303   3.239  0.00  0.00    -0.002 A 
ATOM      7  C5  OXE d   1       0.114  -1.599   3.751  0.00  0.00    -0.002 A 
ATOM      8  C6  OXE d   1      -1.135  -2.208   3.764  0.00  0.00     0.003 A 
ENDROOT
TORSDOF 0
ENDMDL
