MODEL 1
REMARK minimizedAffinity 12.4763613
REMARK minimizedRMSD -1
REMARK  0 active torsions:
REMARK  status: ('A' for Active; 'I' for Inactive)
ROOT
ATOM      1  C2' OXE d   1      -1.118   2.009   2.598  0.00  0.00     0.078 C 
ATOM      2  C1' OXE d   1      -1.867  -0.582   1.821  0.00  0.00     0.078 C 
ATOM      3  C1  OXE d   1      -0.478  -0.388   2.376  0.00  0.00    -0.078 A 
ATOM      4  C2  OXE d   1      -0.104   0.892   2.710  0.00  0.00    -0.078 A 
ATOM      5  C3  OXE d   1       1.147   1.118   3.277  0.00  0.00     0.003 A 
ATOM      6  C4  OXE d   1       2.082   0.080   3.368  0.00  0.00    -0.002 A 
ATOM      7  C5  OXE d   1       1.735  -1.223   2.997  0.00  0.00    -0.002 A 
ATOM      8  C6  OXE d   1       0.448  -1.481   2.540  0.00  0.00     0.003 A 
ENDROOT
TORSDOF 0
ENDMDL
