MODEL 1
REMARK minimizedAffinity 14.5367241
REMARK minimizedRMSD -1
REMARK  0 active torsions:
REMARK  status: ('A' for Active; 'I' for Inactive)
ROOT
ATOM      1  C2' OXE d   1       1.890  -4.214  -5.593  0.00  0.00     0.078 C 
ATOM      2  C1' OXE d   1       3.604  -2.558  -4.108  0.00  0.00     0.078 C 
ATOM      3  C1  OXE d   1       2.366  -1.936  -4.704  0.00  0.00    -0.078 A 
ATOM      4  C2  OXE d   1       1.558  -2.743  -5.468  0.00  0.00    -0.078 A 
ATOM      5  C3  OXE d   1       0.375  -2.232  -5.996  0.00  0.00     0.003 A 
ATOM      6  C4  OXE d   1       0.080  -0.868  -5.885  0.00  0.00    -0.002 A 
ATOM      7  C5  OXE d   1       0.910  -0.020  -5.144  0.00  0.00    -0.002 A 
ATOM      8  C6  OXE d   1       2.032  -0.546  -4.513  0.00  0.00     0.003 A 
ENDROOT
TORSDOF 0
ENDMDL
