MODEL 1
REMARK minimizedAffinity 10.999136
REMARK minimizedRMSD -1
REMARK  0 active torsions:
REMARK  status: ('A' for Active; 'I' for Inactive)
ROOT
ATOM      1  C2' OXE d   1      -0.102   1.195   1.387  0.00  0.00     0.078 C 
ATOM      2  C1' OXE d   1      -1.933  -0.924   1.572  0.00  0.00     0.078 C 
ATOM      3  C1  OXE d   1      -0.619  -1.065   2.298  0.00  0.00    -0.078 A 
ATOM      4  C2  OXE d   1       0.290  -0.044   2.163  0.00  0.00    -0.078 A 
ATOM      5  C3  OXE d   1       1.496  -0.099   2.857  0.00  0.00     0.003 A 
ATOM      6  C4  OXE d   1       1.855  -1.252   3.564  0.00  0.00    -0.002 A 
ATOM      7  C5  OXE d   1       0.960  -2.321   3.681  0.00  0.00    -0.002 A 
ATOM      8  C6  OXE d   1      -0.295  -2.226   3.090  0.00  0.00     0.003 A 
ENDROOT
TORSDOF 0
ENDMDL
