MODEL 1
REMARK minimizedAffinity 4.76351452
REMARK minimizedRMSD -1
REMARK  0 active torsions:
REMARK  status: ('A' for Active; 'I' for Inactive)
ROOT
ATOM      1  C2' OXE d   1       6.000   4.892   5.096  0.00  0.00     0.078 C 
ATOM      2  C1' OXE d   1       5.188   2.394   4.106  0.00  0.00     0.078 C 
ATOM      3  C1  OXE d   1       4.826   3.619   3.305  0.00  0.00    -0.078 A 
ATOM      4  C2  OXE d   1       5.186   4.841   3.821  0.00  0.00    -0.078 A 
ATOM      5  C3  OXE d   1       4.925   6.000   3.095  0.00  0.00     0.003 A 
ATOM      6  C4  OXE d   1       4.163   5.945   1.922  0.00  0.00    -0.002 A 
ATOM      7  C5  OXE d   1       3.752   4.714   1.399  0.00  0.00    -0.002 A 
ATOM      8  C6  OXE d   1       4.111   3.541   2.055  0.00  0.00     0.003 A 
ENDROOT
TORSDOF 0
ENDMDL
