MODEL 1
REMARK minimizedAffinity 5.87022114
REMARK minimizedRMSD -1
REMARK  0 active torsions:
REMARK  status: ('A' for Active; 'I' for Inactive)
ROOT
ATOM      1  C2' OXE d   1      -1.079  -0.747   1.930  0.00  0.00     0.078 C 
ATOM      2  C1' OXE d   1       0.085   1.619   2.895  0.00  0.00     0.078 C 
ATOM      3  C1  OXE d   1       0.633   0.308   3.400  0.00  0.00    -0.078 A 
ATOM      4  C2  OXE d   1       0.027  -0.844   2.959  0.00  0.00    -0.078 A 
ATOM      5  C3  OXE d   1       0.528  -2.081   3.352  0.00  0.00     0.003 A 
ATOM      6  C4  OXE d   1       1.545  -2.162   4.311  0.00  0.00    -0.002 A 
ATOM      7  C5  OXE d   1       2.150  -1.001   4.804  0.00  0.00    -0.002 A 
ATOM      8  C6  OXE d   1       1.735   0.238   4.328  0.00  0.00     0.003 A 
ENDROOT
TORSDOF 0
ENDMDL
