MODEL 1
REMARK minimizedAffinity 16.6159821
REMARK minimizedRMSD -1
REMARK  0 active torsions:
REMARK  status: ('A' for Active; 'I' for Inactive)
ROOT
ATOM      1  C2' OXE d   1       2.035  -2.593   4.165  0.00  0.00     0.078 C 
ATOM      2  C1' OXE d   1       2.421   0.177   3.925  0.00  0.00     0.078 C 
ATOM      3  C1  OXE d   1       1.115  -0.396   3.435  0.00  0.00    -0.078 A 
ATOM      4  C2  OXE d   1       0.954  -1.758   3.513  0.00  0.00    -0.078 A 
ATOM      5  C3  OXE d   1      -0.254  -2.332   3.125  0.00  0.00     0.003 A 
ATOM      6  C4  OXE d   1      -1.245  -1.554   2.515  0.00  0.00    -0.002 A 
ATOM      7  C5  OXE d   1      -1.084  -0.170   2.389  0.00  0.00    -0.002 A 
ATOM      8  C6  OXE d   1       0.070   0.429   2.881  0.00  0.00     0.003 A 
ENDROOT
TORSDOF 0
ENDMDL
