MODEL 1
REMARK minimizedAffinity -3.96992064
REMARK minimizedRMSD -1
REMARK  0 active torsions:
REMARK  status: ('A' for Active; 'I' for Inactive)
ROOT
ATOM      1  C2' OXE d   1      -0.141  -1.121  -0.021  0.00  0.00     0.078 C 
ATOM      2  C1' OXE d   1      -2.374   0.559   0.247  0.00  0.00     0.078 C 
ATOM      3  C1  OXE d   1      -1.015   1.206   0.148  0.00  0.00    -0.078 A 
ATOM      4  C2  OXE d   1       0.076   0.374   0.064  0.00  0.00    -0.078 A 
ATOM      5  C3  OXE d   1       1.348   0.919  -0.084  0.00  0.00     0.003 A 
ATOM      6  C4  OXE d   1       1.542   2.303   0.006  0.00  0.00    -0.002 A 
ATOM      7  C5  OXE d   1       0.448   3.166   0.131  0.00  0.00    -0.002 A 
ATOM      8  C6  OXE d   1      -0.838   2.637   0.161  0.00  0.00     0.003 A 
ENDROOT
TORSDOF 0
ENDMDL
