MODEL 1
REMARK minimizedAffinity -1.7759757
REMARK minimizedRMSD -1
REMARK  0 active torsions:
REMARK  status: ('A' for Active; 'I' for Inactive)
ROOT
ATOM      1  C2' OXE d   1      -0.348  -0.076  -0.506  0.00  0.00     0.078 C 
ATOM      2  C1' OXE d   1       2.418  -0.120  -0.029  0.00  0.00     0.078 C 
ATOM      3  C1  OXE d   1       1.667   1.146   0.299  0.00  0.00    -0.078 A 
ATOM      4  C2  OXE d   1       0.322   1.175   0.019  0.00  0.00    -0.078 A 
ATOM      5  C3  OXE d   1      -0.427   2.299   0.353  0.00  0.00     0.003 A 
ATOM      6  C4  OXE d   1       0.202   3.456   0.828  0.00  0.00    -0.002 A 
ATOM      7  C5  OXE d   1       1.578   3.461   1.084  0.00  0.00    -0.002 A 
ATOM      8  C6  OXE d   1       2.316   2.303   0.865  0.00  0.00     0.003 A 
ENDROOT
TORSDOF 0
ENDMDL
