MODEL 1
REMARK minimizedAffinity -4.79651213
REMARK minimizedRMSD -1
REMARK  0 active torsions:
REMARK  status: ('A' for Active; 'I' for Inactive)
ROOT
ATOM      1  C2' OXE d   1       0.989  -2.049   0.721  0.00  0.00     0.078 C 
ATOM      2  C1' OXE d   1      -0.568  -2.377  -1.591  0.00  0.00     0.078 C 
ATOM      3  C1  OXE d   1      -0.622  -1.042  -0.890  0.00  0.00    -0.078 A 
ATOM      4  C2  OXE d   1       0.107  -0.906   0.267  0.00  0.00    -0.078 A 
ATOM      5  C3  OXE d   1       0.136   0.321   0.923  0.00  0.00     0.003 A 
ATOM      6  C4  OXE d   1      -0.691   1.370   0.502  0.00  0.00    -0.002 A 
ATOM      7  C5  OXE d   1      -1.472   1.239  -0.651  0.00  0.00    -0.002 A 
ATOM      8  C6  OXE d   1      -1.417   0.056  -1.381  0.00  0.00     0.003 A 
ENDROOT
TORSDOF 0
ENDMDL
