MODEL 1
REMARK minimizedAffinity 3.40473509
REMARK minimizedRMSD -1
REMARK  0 active torsions:
REMARK  status: ('A' for Active; 'I' for Inactive)
ROOT
ATOM      1  C2' OXE d   1      -1.600  -1.622  -0.027  0.00  0.00     0.078 C 
ATOM      2  C1' OXE d   1      -3.152   0.600  -0.755  0.00  0.00     0.078 C 
ATOM      3  C1  OXE d   1      -1.890   0.851   0.032  0.00  0.00    -0.078 A 
ATOM      4  C2  OXE d   1      -1.161  -0.246   0.424  0.00  0.00    -0.078 A 
ATOM      5  C3  OXE d   1       0.040  -0.068   1.105  0.00  0.00     0.003 A 
ATOM      6  C4  OXE d   1       0.433   1.208   1.527  0.00  0.00    -0.002 A 
ATOM      7  C5  OXE d   1      -0.316   2.335   1.172  0.00  0.00    -0.002 A 
ATOM      8  C6  OXE d   1      -1.455   2.178   0.390  0.00  0.00     0.003 A 
ENDROOT
TORSDOF 0
ENDMDL
