MODEL 1
REMARK minimizedAffinity -2.99172878
REMARK minimizedRMSD -1
REMARK  0 active torsions:
REMARK  status: ('A' for Active; 'I' for Inactive)
ROOT
ATOM      1  C2' OXE d   1       1.409   4.342   0.450  0.00  0.00     0.078 C 
ATOM      2  C1' OXE d   1      -0.406   3.567   2.447  0.00  0.00     0.078 C 
ATOM      3  C1  OXE d   1      -0.218   2.643   1.270  0.00  0.00    -0.078 A 
ATOM      4  C2  OXE d   1       0.637   3.052   0.275  0.00  0.00    -0.078 A 
ATOM      5  C3  OXE d   1       0.889   2.212  -0.806  0.00  0.00     0.003 A 
ATOM      6  C4  OXE d   1       0.164   1.025  -0.966  0.00  0.00    -0.002 A 
ATOM      7  C5  OXE d   1      -0.742   0.609   0.016  0.00  0.00    -0.002 A 
ATOM      8  C6  OXE d   1      -0.912   1.383   1.158  0.00  0.00     0.003 A 
ENDROOT
TORSDOF 0
ENDMDL
