MODEL 1
REMARK minimizedAffinity -5.36449194
REMARK minimizedRMSD -1
REMARK  0 active torsions:
REMARK  status: ('A' for Active; 'I' for Inactive)
ROOT
ATOM      1  C2' OXE d   1       0.354  -0.876   0.058  0.00  0.00     0.078 C 
ATOM      2  C1' OXE d   1       2.807   0.457   0.348  0.00  0.00     0.078 C 
ATOM      3  C1  OXE d   1       1.554   1.294   0.290  0.00  0.00    -0.078 A 
ATOM      4  C2  OXE d   1       0.362   0.637   0.101  0.00  0.00    -0.078 A 
ATOM      5  C3  OXE d   1      -0.829   1.357   0.096  0.00  0.00     0.003 A 
ATOM      6  C4  OXE d   1      -0.811   2.756   0.126  0.00  0.00    -0.002 A 
ATOM      7  C5  OXE d   1       0.395   3.448   0.278  0.00  0.00    -0.002 A 
ATOM      8  C6  OXE d   1       1.580   2.732   0.404  0.00  0.00     0.003 A 
ENDROOT
TORSDOF 0
ENDMDL
