MODEL 1
REMARK minimizedAffinity -5.20143461
REMARK minimizedRMSD -1
REMARK  0 active torsions:
REMARK  status: ('A' for Active; 'I' for Inactive)
ROOT
ATOM      1  C2' OXE d   1       0.402  -1.091   0.136  0.00  0.00     0.078 C 
ATOM      2  C1' OXE d   1      -1.879   0.472   0.624  0.00  0.00     0.078 C 
ATOM      3  C1  OXE d   1      -0.562   1.185   0.447  0.00  0.00    -0.078 A 
ATOM      4  C2  OXE d   1       0.556   0.410   0.255  0.00  0.00    -0.078 A 
ATOM      5  C3  OXE d   1       1.788   1.020   0.032  0.00  0.00     0.003 A 
ATOM      6  C4  OXE d   1       1.924   2.408   0.154  0.00  0.00    -0.002 A 
ATOM      7  C5  OXE d   1       0.804   3.213   0.388  0.00  0.00    -0.002 A 
ATOM      8  C6  OXE d   1      -0.450   2.622   0.495  0.00  0.00     0.003 A 
ENDROOT
TORSDOF 0
ENDMDL
