MODEL 1
REMARK minimizedAffinity 0.350231141
REMARK minimizedRMSD -1
REMARK  0 active torsions:
REMARK  status: ('A' for Active; 'I' for Inactive)
ROOT
ATOM      1  C2' OXE d   1      -0.086  -1.380  -0.413  0.00  0.00     0.078 C 
ATOM      2  C1' OXE d   1       2.389  -0.350   0.419  0.00  0.00     0.078 C 
ATOM      3  C1  OXE d   1       1.156   0.473   0.697  0.00  0.00    -0.078 A 
ATOM      4  C2  OXE d   1      -0.046  -0.017   0.245  0.00  0.00    -0.078 A 
ATOM      5  C3  OXE d   1      -1.221   0.675   0.523  0.00  0.00     0.003 A 
ATOM      6  C4  OXE d   1      -1.174   1.939   1.123  0.00  0.00    -0.002 A 
ATOM      7  C5  OXE d   1       0.044   2.475   1.555  0.00  0.00    -0.002 A 
ATOM      8  C6  OXE d   1       1.211   1.737   1.388  0.00  0.00     0.003 A 
ENDROOT
TORSDOF 0
ENDMDL
