MODEL 1
REMARK minimizedAffinity -6.04940128
REMARK minimizedRMSD -1
REMARK  0 active torsions:
REMARK  status: ('A' for Active; 'I' for Inactive)
ROOT
ATOM      1  C2' OXE d   1      -0.326  -0.965   0.176  0.00  0.00     0.078 C 
ATOM      2  C1' OXE d   1       2.422  -0.537   0.562  0.00  0.00     0.078 C 
ATOM      3  C1  OXE d   1       1.535   0.674   0.414  0.00  0.00    -0.078 A 
ATOM      4  C2  OXE d   1       0.199   0.455   0.179  0.00  0.00    -0.078 A 
ATOM      5  C3  OXE d   1      -0.672   1.536   0.090  0.00  0.00     0.003 A 
ATOM      6  C4  OXE d   1      -0.178   2.846   0.083  0.00  0.00    -0.002 A 
ATOM      7  C5  OXE d   1       1.185   3.091   0.281  0.00  0.00    -0.002 A 
ATOM      8  C6  OXE d   1       2.047   2.020   0.491  0.00  0.00     0.003 A 
ENDROOT
TORSDOF 0
ENDMDL
