MODEL 1
REMARK minimizedAffinity 0.58463037
REMARK minimizedRMSD -1
REMARK  0 active torsions:
REMARK  status: ('A' for Active; 'I' for Inactive)
ROOT
ATOM      1  C2' OXE d   1       1.503  -0.804  -1.924  0.00  0.00     0.078 C 
ATOM      2  C1' OXE d   1      -0.033  -0.525   0.409  0.00  0.00     0.078 C 
ATOM      3  C1  OXE d   1      -0.306  -1.716  -0.474  0.00  0.00    -0.078 A 
ATOM      4  C2  OXE d   1       0.418  -1.820  -1.637  0.00  0.00    -0.078 A 
ATOM      5  C3  OXE d   1       0.244  -2.929  -2.461  0.00  0.00     0.003 A 
ATOM      6  C4  OXE d   1      -0.768  -3.859  -2.194  0.00  0.00    -0.002 A 
ATOM      7  C5  OXE d   1      -1.544  -3.750  -1.035  0.00  0.00    -0.002 A 
ATOM      8  C6  OXE d   1      -1.298  -2.711  -0.145  0.00  0.00     0.003 A 
ENDROOT
TORSDOF 0
ENDMDL
