MODEL 1
REMARK minimizedAffinity -3.28976774
REMARK minimizedRMSD -1
REMARK  0 active torsions:
REMARK  status: ('A' for Active; 'I' for Inactive)
ROOT
ATOM      1  C2' OXE d   1       2.118   1.204   1.110  0.00  0.00     0.078 C 
ATOM      2  C1' OXE d   1      -0.271   2.638   1.452  0.00  0.00     0.078 C 
ATOM      3  C1  OXE d   1      -0.342   1.313   0.734  0.00  0.00    -0.078 A 
ATOM      4  C2  OXE d   1       0.838   0.640   0.531  0.00  0.00    -0.078 A 
ATOM      5  C3  OXE d   1       0.822  -0.612  -0.077  0.00  0.00     0.003 A 
ATOM      6  C4  OXE d   1      -0.364  -1.122  -0.619  0.00  0.00    -0.002 A 
ATOM      7  C5  OXE d   1      -1.571  -0.434  -0.457  0.00  0.00    -0.002 A 
ATOM      8  C6  OXE d   1      -1.585   0.762   0.252  0.00  0.00     0.003 A 
ENDROOT
TORSDOF 0
ENDMDL
