MODEL 1
REMARK minimizedAffinity -3.74661303
REMARK minimizedRMSD -1
REMARK  0 active torsions:
REMARK  status: ('A' for Active; 'I' for Inactive)
ROOT
ATOM      1  C2' OXE d   1      -1.127   0.385   0.753  0.00  0.00     0.078 C 
ATOM      2  C1' OXE d   1      -1.083   2.784   2.209  0.00  0.00     0.078 C 
ATOM      3  C1  OXE d   1       0.057   2.518   1.258  0.00  0.00    -0.078 A 
ATOM      4  C2  OXE d   1       0.051   1.320   0.585  0.00  0.00    -0.078 A 
ATOM      5  C3  OXE d   1       1.050   1.047  -0.345  0.00  0.00     0.003 A 
ATOM      6  C4  OXE d   1       2.141   1.913  -0.488  0.00  0.00    -0.002 A 
ATOM      7  C5  OXE d   1       2.187   3.120   0.218  0.00  0.00    -0.002 A 
ATOM      8  C6  OXE d   1       1.134   3.456   1.061  0.00  0.00     0.003 A 
ENDROOT
TORSDOF 0
ENDMDL
