MODEL 1
REMARK minimizedAffinity -6.22557354
REMARK minimizedRMSD -1
REMARK  0 active torsions:
REMARK  status: ('A' for Active; 'I' for Inactive)
ROOT
ATOM      1  C2' OXE d   1      -2.122   1.093   0.217  0.00  0.00     0.078 C 
ATOM      2  C1' OXE d   1      -0.123  -0.773  -0.418  0.00  0.00     0.078 C 
ATOM      3  C1  OXE d   1       0.300   0.653  -0.166  0.00  0.00    -0.078 A 
ATOM      4  C2  OXE d   1      -0.690   1.568   0.098  0.00  0.00    -0.078 A 
ATOM      5  C3  OXE d   1      -0.350   2.886   0.392  0.00  0.00     0.003 A 
ATOM      6  C4  OXE d   1       0.976   3.320   0.270  0.00  0.00    -0.002 A 
ATOM      7  C5  OXE d   1       1.995   2.411  -0.037  0.00  0.00    -0.002 A 
ATOM      8  C6  OXE d   1       1.680   1.069  -0.215  0.00  0.00     0.003 A 
ENDROOT
TORSDOF 0
ENDMDL
