MODEL 1
REMARK minimizedAffinity -3.0554359
REMARK minimizedRMSD -1
REMARK  0 active torsions:
REMARK  status: ('A' for Active; 'I' for Inactive)
ROOT
ATOM      1  C2' OXE d   1       1.539   3.684   0.705  0.00  0.00     0.078 C 
ATOM      2  C1' OXE d   1       3.095   1.386   0.282  0.00  0.00     0.078 C 
ATOM      3  C1  OXE d   1       1.595   1.229   0.286  0.00  0.00    -0.078 A 
ATOM      4  C2  OXE d   1       0.842   2.351   0.540  0.00  0.00    -0.078 A 
ATOM      5  C3  OXE d   1      -0.547   2.273   0.501  0.00  0.00     0.003 A 
ATOM      6  C4  OXE d   1      -1.183   1.034   0.358  0.00  0.00    -0.002 A 
ATOM      7  C5  OXE d   1      -0.435  -0.127   0.137  0.00  0.00    -0.002 A 
ATOM      8  C6  OXE d   1       0.950  -0.040   0.056  0.00  0.00     0.003 A 
ENDROOT
TORSDOF 0
ENDMDL
