MODEL 1
REMARK minimizedAffinity -3.9521594
REMARK minimizedRMSD -1
REMARK  0 active torsions:
REMARK  status: ('A' for Active; 'I' for Inactive)
ROOT
ATOM      1  C2' OXE d   1       2.345  -0.767   0.946  0.00  0.00     0.078 C 
ATOM      2  C1' OXE d   1       2.458   2.038   0.958  0.00  0.00     0.078 C 
ATOM      3  C1  OXE d   1       1.097   1.389   0.917  0.00  0.00    -0.078 A 
ATOM      4  C2  OXE d   1       1.053   0.017   0.864  0.00  0.00    -0.078 A 
ATOM      5  C3  OXE d   1      -0.177  -0.634   0.880  0.00  0.00     0.003 A 
ATOM      6  C4  OXE d   1      -1.368   0.098   0.795  0.00  0.00    -0.002 A 
ATOM      7  C5  OXE d   1      -1.344   1.496   0.807  0.00  0.00    -0.002 A 
ATOM      8  C6  OXE d   1      -0.124   2.156   0.911  0.00  0.00     0.003 A 
ENDROOT
TORSDOF 0
ENDMDL
