MODEL 1
REMARK minimizedAffinity 1.1468395
REMARK minimizedRMSD -1
REMARK  0 active torsions:
REMARK  status: ('A' for Active; 'I' for Inactive)
ROOT
ATOM      1  C2' OXE d   1      -0.849  -1.944  -0.547  0.00  0.00     0.078 C 
ATOM      2  C1' OXE d   1       1.254  -0.494   0.617  0.00  0.00     0.078 C 
ATOM      3  C1  OXE d   1      -0.111   0.148   0.586  0.00  0.00    -0.078 A 
ATOM      4  C2  OXE d   1      -1.124  -0.549  -0.028  0.00  0.00    -0.078 A 
ATOM      5  C3  OXE d   1      -2.414  -0.026  -0.036  0.00  0.00     0.003 A 
ATOM      6  C4  OXE d   1      -2.657   1.269   0.437  0.00  0.00    -0.002 A 
ATOM      7  C5  OXE d   1      -1.631   2.012   1.030  0.00  0.00    -0.002 A 
ATOM      8  C6  OXE d   1      -0.364   1.451   1.150  0.00  0.00     0.003 A 
ENDROOT
TORSDOF 0
ENDMDL
