MODEL 1
REMARK minimizedAffinity -6.21538496
REMARK minimizedRMSD -1
REMARK  0 active torsions:
REMARK  status: ('A' for Active; 'I' for Inactive)
ROOT
ATOM      1  C2' OXE d   1       0.390  -0.923   0.443  0.00  0.00     0.078 C 
ATOM      2  C1' OXE d   1      -1.802   0.829   0.514  0.00  0.00     0.078 C 
ATOM      3  C1  OXE d   1      -0.421   1.432   0.454  0.00  0.00    -0.078 A 
ATOM      4  C2  OXE d   1       0.647   0.568   0.466  0.00  0.00    -0.078 A 
ATOM      5  C3  OXE d   1       1.941   1.070   0.357  0.00  0.00     0.003 A 
ATOM      6  C4  OXE d   1       2.170   2.451   0.389  0.00  0.00    -0.002 A 
ATOM      7  C5  OXE d   1       1.098   3.349   0.416  0.00  0.00    -0.002 A 
ATOM      8  C6  OXE d   1      -0.203   2.857   0.406  0.00  0.00     0.003 A 
ENDROOT
TORSDOF 0
ENDMDL
