MODEL 1
REMARK minimizedAffinity 0.0540104471
REMARK minimizedRMSD -1
REMARK  0 active torsions:
REMARK  status: ('A' for Active; 'I' for Inactive)
ROOT
ATOM      1  C1  BNZ d   1      -4.498  -0.758   4.871  0.00  0.00     0.000 A 
ATOM      2  C2  BNZ d   1      -4.393   0.010   6.000  0.00  0.00     0.000 A 
ATOM      3  C3  BNZ d   1      -3.651   1.157   6.000  0.00  0.00     0.000 A 
ATOM      4  C4  BNZ d   1      -2.983   1.515   4.884  0.00  0.00     0.000 A 
ATOM      5  C5  BNZ d   1      -3.071   0.747   3.740  0.00  0.00     0.000 A 
ATOM      6  C6  BNZ d   1      -3.851  -0.387   3.733  0.00  0.00     0.000 A 
ENDROOT
TORSDOF 0
ENDMDL
