MODEL 1
REMARK minimizedAffinity 3.3173697
REMARK minimizedRMSD -1
REMARK  0 active torsions:
REMARK  status: ('A' for Active; 'I' for Inactive)
ROOT
ATOM      1  C1  BNZ d   1      -2.792  -0.100   3.337  0.00  0.00     0.000 A 
ATOM      2  C2  BNZ d   1      -3.098  -1.062   2.411  0.00  0.00     0.000 A 
ATOM      3  C3  BNZ d   1      -2.132  -1.576   1.591  0.00  0.00     0.000 A 
ATOM      4  C4  BNZ d   1      -0.873  -1.101   1.671  0.00  0.00     0.000 A 
ATOM      5  C5  BNZ d   1      -0.551  -0.125   2.593  0.00  0.00     0.000 A 
ATOM      6  C6  BNZ d   1      -1.517   0.363   3.443  0.00  0.00     0.000 A 
ENDROOT
TORSDOF 0
ENDMDL
