MODEL 1
REMARK minimizedAffinity 0.392087787
REMARK minimizedRMSD -1
REMARK  0 active torsions:
REMARK  status: ('A' for Active; 'I' for Inactive)
ROOT
ATOM      1  C1  BNZ d   1      -2.113   5.620  -6.000  0.00  0.00     0.000 A 
ATOM      2  C2  BNZ d   1      -3.428   6.000  -5.999  0.00  0.00     0.000 A 
ATOM      3  C3  BNZ d   1      -4.181   5.912  -4.861  0.00  0.00     0.000 A 
ATOM      4  C4  BNZ d   1      -3.630   5.407  -3.739  0.00  0.00     0.000 A 
ATOM      5  C5  BNZ d   1      -2.307   5.011  -3.726  0.00  0.00     0.000 A 
ATOM      6  C6  BNZ d   1      -1.542   5.138  -4.863  0.00  0.00     0.000 A 
ENDROOT
TORSDOF 0
ENDMDL
