MODEL 1
REMARK minimizedAffinity 2.91842413
REMARK minimizedRMSD -1
REMARK  0 active torsions:
REMARK  status: ('A' for Active; 'I' for Inactive)
ROOT
ATOM      1  C1  BNZ d   1       4.416   1.877  -0.045  0.00  0.00     0.000 A 
ATOM      2  C2  BNZ d   1       5.495   2.713  -0.151  0.00  0.00     0.000 A 
ATOM      3  C3  BNZ d   1       5.625   3.795   0.674  0.00  0.00     0.000 A 
ATOM      4  C4  BNZ d   1       4.658   4.063   1.574  0.00  0.00     0.000 A 
ATOM      5  C5  BNZ d   1       3.559   3.235   1.687  0.00  0.00     0.000 A 
ATOM      6  C6  BNZ d   1       3.451   2.124   0.882  0.00  0.00     0.000 A 
ENDROOT
TORSDOF 0
ENDMDL
