MODEL 1
REMARK minimizedAffinity 0.875775635
REMARK minimizedRMSD -1
REMARK  0 active torsions:
REMARK  status: ('A' for Active; 'I' for Inactive)
ROOT
ATOM      1  C1  BNZ d   1      -0.552   3.009   1.316  0.00  0.00     0.000 A 
ATOM      2  C2  BNZ d   1      -1.807   2.477   1.188  0.00  0.00     0.000 A 
ATOM      3  C3  BNZ d   1      -2.754   3.094   0.419  0.00  0.00     0.000 A 
ATOM      4  C4  BNZ d   1      -2.458   4.262  -0.187  0.00  0.00     0.000 A 
ATOM      5  C5  BNZ d   1      -1.200   4.817  -0.060  0.00  0.00     0.000 A 
ATOM      6  C6  BNZ d   1      -0.238   4.172   0.683  0.00  0.00     0.000 A 
ENDROOT
TORSDOF 0
ENDMDL
