MODEL 1
REMARK minimizedAffinity 7.41374922
REMARK minimizedRMSD -1
REMARK  0 active torsions:
REMARK  status: ('A' for Active; 'I' for Inactive)
ROOT
ATOM      1  C1  BNZ d   1       4.059   1.694  -1.595  0.00  0.00     0.000 A 
ATOM      2  C2  BNZ d   1       4.096   0.445  -2.155  0.00  0.00     0.000 A 
ATOM      3  C3  BNZ d   1       3.234   0.102  -3.158  0.00  0.00     0.000 A 
ATOM      4  C4  BNZ d   1       2.310   0.993  -3.572  0.00  0.00     0.000 A 
ATOM      5  C5  BNZ d   1       2.253   2.253  -3.010  0.00  0.00     0.000 A 
ATOM      6  C6  BNZ d   1       3.149   2.608  -2.028  0.00  0.00     0.000 A 
ENDROOT
TORSDOF 0
ENDMDL
