MODEL 1
REMARK minimizedAffinity 2.44744921
REMARK minimizedRMSD -1
REMARK  0 active torsions:
REMARK  status: ('A' for Active; 'I' for Inactive)
ROOT
ATOM      1  C1  BNZ d   1       2.314  -2.972   0.585  0.00  0.00     0.000 A 
ATOM      2  C2  BNZ d   1       2.704  -4.227   0.198  0.00  0.00     0.000 A 
ATOM      3  C3  BNZ d   1       4.001  -4.481  -0.151  0.00  0.00     0.000 A 
ATOM      4  C4  BNZ d   1       4.897  -3.472  -0.151  0.00  0.00     0.000 A 
ATOM      5  C5  BNZ d   1       4.517  -2.200   0.227  0.00  0.00     0.000 A 
ATOM      6  C6  BNZ d   1       3.220  -1.957   0.615  0.00  0.00     0.000 A 
ENDROOT
TORSDOF 0
ENDMDL
