MODEL 1
REMARK minimizedAffinity 2.4080658
REMARK minimizedRMSD -1
REMARK  0 active torsions:
REMARK  status: ('A' for Active; 'I' for Inactive)
ROOT
ATOM      1  C1  BNZ d   1       6.000  -4.865   0.062  0.00  0.00     0.000 A 
ATOM      2  C2  BNZ d   1       5.308  -3.727  -0.258  0.00  0.00     0.000 A 
ATOM      3  C3  BNZ d   1       3.942  -3.710  -0.238  0.00  0.00     0.000 A 
ATOM      4  C4  BNZ d   1       3.269  -4.839   0.063  0.00  0.00     0.000 A 
ATOM      5  C5  BNZ d   1       3.952  -5.997   0.378  0.00  0.00     0.000 A 
ATOM      6  C6  BNZ d   1       5.328  -6.000   0.395  0.00  0.00     0.000 A 
ENDROOT
TORSDOF 0
ENDMDL
