MODEL 1
REMARK minimizedAffinity 0.725180209
REMARK minimizedRMSD -1
REMARK  0 active torsions:
REMARK  status: ('A' for Active; 'I' for Inactive)
ROOT
ATOM      1  C1  BNZ d   1      -0.355   3.801   0.896  0.00  0.00     0.000 A 
ATOM      2  C2  BNZ d   1       0.194   4.779   0.110  0.00  0.00     0.000 A 
ATOM      3  C3  BNZ d   1      -0.569   5.458  -0.798  0.00  0.00     0.000 A 
ATOM      4  C4  BNZ d   1      -1.869   5.131  -0.948  0.00  0.00     0.000 A 
ATOM      5  C5  BNZ d   1      -2.435   4.141  -0.170  0.00  0.00     0.000 A 
ATOM      6  C6  BNZ d   1      -1.673   3.487   0.770  0.00  0.00     0.000 A 
ENDROOT
TORSDOF 0
ENDMDL
