MODEL 1
REMARK minimizedAffinity 5.36954832
REMARK minimizedRMSD -1
REMARK  0 active torsions:
REMARK  status: ('A' for Active; 'I' for Inactive)
ROOT
ATOM      1  C1  BNZ d   1       2.019  -2.264  -0.017  0.00  0.00     0.000 A 
ATOM      2  C2  BNZ d   1       3.088  -1.492   0.351  0.00  0.00     0.000 A 
ATOM      3  C3  BNZ d   1       4.367  -1.954   0.212  0.00  0.00     0.000 A 
ATOM      4  C4  BNZ d   1       4.573  -3.202  -0.257  0.00  0.00     0.000 A 
ATOM      5  C5  BNZ d   1       3.505  -3.996  -0.624  0.00  0.00     0.000 A 
ATOM      6  C6  BNZ d   1       2.221  -3.513  -0.519  0.00  0.00     0.000 A 
ENDROOT
TORSDOF 0
ENDMDL
