MODEL 1
REMARK minimizedAffinity 2.21819544
REMARK minimizedRMSD -1
REMARK  0 active torsions:
REMARK  status: ('A' for Active; 'I' for Inactive)
ROOT
ATOM      1  C1  BNZ d   1       2.397  -3.687   0.353  0.00  0.00     0.000 A 
ATOM      2  C2  BNZ d   1       3.060  -4.882   0.267  0.00  0.00     0.000 A 
ATOM      3  C3  BNZ d   1       4.415  -4.919   0.086  0.00  0.00     0.000 A 
ATOM      4  C4  BNZ d   1       5.097  -3.764  -0.049  0.00  0.00     0.000 A 
ATOM      5  C5  BNZ d   1       4.441  -2.551   0.026  0.00  0.00     0.000 A 
ATOM      6  C6  BNZ d   1       3.084  -2.517   0.248  0.00  0.00     0.000 A 
ENDROOT
TORSDOF 0
ENDMDL
