MODEL 1
REMARK minimizedAffinity -1.53811324
REMARK minimizedRMSD -1
REMARK  0 active torsions:
REMARK  status: ('A' for Active; 'I' for Inactive)
ROOT
ATOM      1  C1  BNZ d   1      -0.568  -4.325  -0.929  0.00  0.00     0.000 A 
ATOM      2  C2  BNZ d   1      -1.411  -3.708  -0.044  0.00  0.00     0.000 A 
ATOM      3  C3  BNZ d   1      -0.915  -2.970   0.995  0.00  0.00     0.000 A 
ATOM      4  C4  BNZ d   1       0.419  -2.884   1.170  0.00  0.00     0.000 A 
ATOM      5  C5  BNZ d   1       1.281  -3.508   0.291  0.00  0.00     0.000 A 
ATOM      6  C6  BNZ d   1       0.780  -4.218  -0.776  0.00  0.00     0.000 A 
ENDROOT
TORSDOF 0
ENDMDL
