MODEL 1
REMARK minimizedAffinity -2.08992362
REMARK minimizedRMSD -1
REMARK  0 active torsions:
REMARK  status: ('A' for Active; 'I' for Inactive)
ROOT
ATOM      1  C1  BNZ d   1      -5.624  -4.047   3.621  0.00  0.00     0.000 A 
ATOM      2  C2  BNZ d   1      -5.858  -3.414   4.812  0.00  0.00     0.000 A 
ATOM      3  C3  BNZ d   1      -5.649  -4.058   6.000  0.00  0.00     0.000 A 
ATOM      4  C4  BNZ d   1      -5.246  -5.345   5.994  0.00  0.00     0.000 A 
ATOM      5  C5  BNZ d   1      -5.014  -5.999   4.801  0.00  0.00     0.000 A 
ATOM      6  C6  BNZ d   1      -5.188  -5.336   3.608  0.00  0.00     0.000 A 
ENDROOT
TORSDOF 0
ENDMDL
