MODEL 1
REMARK minimizedAffinity -5.39163017
REMARK minimizedRMSD -1
REMARK  1 active torsions:
REMARK  status: ('A' for Active; 'I' for Inactive)
REMARK    1  A    between atoms: C1_2  and  C2_3 
ROOT
ATOM      1  C2  UNL d   1      -0.129  -0.229  -0.399  0.00  0.00    -0.073 A 
ATOM      2  C3  UNL d   1      -0.988   0.098   0.656  0.00  0.00    -0.002 A 
ATOM      3  C4  UNL d   1      -0.764  -0.417   1.933  0.00  0.00     0.004 A 
ATOM      4  C5  UNL d   1       0.323  -1.258   2.171  0.00  0.00    -0.004 A 
ATOM      5  C6  UNL d   1       1.200  -1.587   1.132  0.00  0.00    -0.075 A 
ATOM      6  C7  UNL d   1       2.373  -2.491   1.370  0.00  0.00     0.076 C 
ATOM      7  C8  UNL d   1       0.967  -1.067  -0.148  0.00  0.00     0.001 A 
ENDROOT
BRANCH   1   8
ATOM      8  C1  UNL d   1      -0.363   0.331  -1.778  0.00  0.00     0.053 C 
ATOM      9  C   UNL d   1      -1.420   1.423  -1.779  0.00  0.00     0.018 C 
ENDBRANCH   1   8
TORSDOF 1
ENDMDL
