MODEL 1
REMARK minimizedAffinity -1.11021197
REMARK minimizedRMSD -1
REMARK  1 active torsions:
REMARK  status: ('A' for Active; 'I' for Inactive)
REMARK    1  A    between atoms: C1_2  and  C2_3 
ROOT
ATOM      1  C2  UNL d   1      -1.113   1.050  -1.388  0.00  0.00    -0.073 A 
ATOM      2  C3  UNL d   1       0.005   1.588  -2.036  0.00  0.00    -0.002 A 
ATOM      3  C4  UNL d   1      -0.109   2.764  -2.778  0.00  0.00     0.004 A 
ATOM      4  C5  UNL d   1      -1.337   3.417  -2.875  0.00  0.00    -0.004 A 
ATOM      5  C6  UNL d   1      -2.463   2.902  -2.225  0.00  0.00    -0.075 A 
ATOM      6  C7  UNL d   1      -3.792   3.591  -2.321  0.00  0.00     0.076 C 
ATOM      7  C8  UNL d   1      -2.342   1.719  -1.484  0.00  0.00     0.001 A 
ENDROOT
BRANCH   1   8
ATOM      8  C1  UNL d   1      -0.994  -0.216  -0.580  0.00  0.00     0.053 C 
ATOM      9  C   UNL d   1      -0.130  -0.024   0.657  0.00  0.00     0.018 C 
ENDBRANCH   1   8
TORSDOF 1
ENDMDL
