MODEL 1
REMARK minimizedAffinity -2.65883279
REMARK minimizedRMSD -1
REMARK  1 active torsions:
REMARK  status: ('A' for Active; 'I' for Inactive)
REMARK    1  A    between atoms: C1_2  and  C2_3 
ROOT
ATOM      1  C2  UNL d   1      -4.097   2.474  -2.896  0.00  0.00    -0.073 A 
ATOM      2  C3  UNL d   1      -3.679   3.790  -3.125  0.00  0.00    -0.002 A 
ATOM      3  C4  UNL d   1      -2.324   4.119  -3.066  0.00  0.00     0.004 A 
ATOM      4  C5  UNL d   1      -1.374   3.137  -2.785  0.00  0.00    -0.004 A 
ATOM      5  C6  UNL d   1      -1.771   1.814  -2.565  0.00  0.00    -0.075 A 
ATOM      6  C7  UNL d   1      -0.762   0.747  -2.260  0.00  0.00     0.076 C 
ATOM      7  C8  UNL d   1      -3.134   1.492  -2.624  0.00  0.00     0.001 A 
ENDROOT
BRANCH   1   8
ATOM      8  C1  UNL d   1      -5.558   2.111  -2.965  0.00  0.00     0.053 C 
ATOM      9  C   UNL d   1      -5.999   1.789  -4.384  0.00  0.00     0.018 C 
ENDBRANCH   1   8
TORSDOF 1
ENDMDL
