MODEL 1
REMARK minimizedAffinity 0.862360835
REMARK minimizedRMSD -1
REMARK  0 active torsions:
REMARK  status: ('A' for Active; 'I' for Inactive)
ROOT
ATOM      1  C   UNL d   1      -5.153  -0.602  -0.128  0.00  0.00     0.077 C 
ATOM      2  C1  UNL d   1      -3.907   0.063   0.377  0.00  0.00    -0.074 A 
ATOM      3  C2  UNL d   1      -3.909   0.776   1.580  0.00  0.00    -0.005 A 
ATOM      4  C3  UNL d   1      -2.741   1.381   2.042  0.00  0.00     0.006 A 
ATOM      5  C4  UNL d   1      -1.559   1.279   1.307  0.00  0.00    -0.005 A 
ATOM      6  C5  UNL d   1      -1.537   0.569   0.102  0.00  0.00    -0.074 A 
ATOM      7  C6  UNL d   1      -0.273   0.442  -0.696  0.00  0.00     0.077 C 
ATOM      8  C7  UNL d   1      -2.714  -0.042  -0.352  0.00  0.00    -0.001 A 
ENDROOT
TORSDOF 0
ENDMDL
