MODEL 1
REMARK minimizedAffinity 2.06973863
REMARK minimizedRMSD -1
REMARK  0 active torsions:
REMARK  status: ('A' for Active; 'I' for Inactive)
ROOT
ATOM      1  C   UNL d   1       0.640  -2.278  -1.109  0.00  0.00     0.077 C 
ATOM      2  C1  UNL d   1       1.372  -1.312  -0.225  0.00  0.00    -0.074 A 
ATOM      3  C2  UNL d   1       2.374  -1.753   0.646  0.00  0.00    -0.005 A 
ATOM      4  C3  UNL d   1       3.053  -0.842   1.455  0.00  0.00     0.006 A 
ATOM      5  C4  UNL d   1       2.738   0.517   1.401  0.00  0.00    -0.005 A 
ATOM      6  C5  UNL d   1       1.740   0.976   0.535  0.00  0.00    -0.074 A 
ATOM      7  C6  UNL d   1       1.397   2.434   0.458  0.00  0.00     0.077 C 
ATOM      8  C7  UNL d   1       1.067   0.055  -0.279  0.00  0.00    -0.001 A 
ENDROOT
TORSDOF 0
ENDMDL
