MODEL 1
REMARK minimizedAffinity 1.39940429
REMARK minimizedRMSD -1
REMARK  0 active torsions:
REMARK  status: ('A' for Active; 'I' for Inactive)
ROOT
ATOM      1  C   UNL d   1       1.792   1.350   0.130  0.00  0.00     0.077 C 
ATOM      2  C1  UNL d   1       1.898  -0.138  -0.022  0.00  0.00    -0.074 A 
ATOM      3  C2  UNL d   1       3.053  -0.820   0.375  0.00  0.00    -0.005 A 
ATOM      4  C3  UNL d   1       3.133  -2.206   0.237  0.00  0.00     0.006 A 
ATOM      5  C4  UNL d   1       2.062  -2.922  -0.299  0.00  0.00    -0.005 A 
ATOM      6  C5  UNL d   1       0.899  -2.257  -0.700  0.00  0.00    -0.074 A 
ATOM      7  C6  UNL d   1      -0.265  -3.013  -1.269  0.00  0.00     0.077 C 
ATOM      8  C7  UNL d   1       0.823  -0.865  -0.551  0.00  0.00    -0.001 A 
ENDROOT
TORSDOF 0
ENDMDL
