MODEL 1
REMARK minimizedAffinity 3.6131506
REMARK minimizedRMSD -1
REMARK  0 active torsions:
REMARK  status: ('A' for Active; 'I' for Inactive)
ROOT
ATOM      1  C   UNL d   1      -0.005   0.491   4.142  0.00  0.00     0.077 C 
ATOM      2  C1  UNL d   1      -0.544   1.159   2.911  0.00  0.00    -0.074 A 
ATOM      3  C2  UNL d   1       0.315   1.603   1.900  0.00  0.00    -0.005 A 
ATOM      4  C3  UNL d   1      -0.201   2.214   0.757  0.00  0.00     0.006 A 
ATOM      5  C4  UNL d   1      -1.579   2.387   0.614  0.00  0.00    -0.005 A 
ATOM      6  C5  UNL d   1      -2.452   1.949   1.615  0.00  0.00    -0.074 A 
ATOM      7  C6  UNL d   1      -3.936   2.119   1.472  0.00  0.00     0.077 C 
ATOM      8  C7  UNL d   1      -1.927   1.330   2.757  0.00  0.00    -0.001 A 
ENDROOT
TORSDOF 0
ENDMDL
