MODEL 1
REMARK minimizedAffinity 4.63301229
REMARK minimizedRMSD -1
REMARK  0 active torsions:
REMARK  status: ('A' for Active; 'I' for Inactive)
ROOT
ATOM      1  C   UNL d   1       1.043   1.741  -0.019  0.00  0.00     0.077 C 
ATOM      2  C1  UNL d   1       1.865   0.530   0.310  0.00  0.00    -0.074 A 
ATOM      3  C2  UNL d   1       2.605   0.463   1.494  0.00  0.00    -0.005 A 
ATOM      4  C3  UNL d   1       3.357  -0.673   1.791  0.00  0.00     0.006 A 
ATOM      5  C4  UNL d   1       3.376  -1.754   0.908  0.00  0.00    -0.005 A 
ATOM      6  C5  UNL d   1       2.641  -1.706  -0.281  0.00  0.00    -0.074 A 
ATOM      7  C6  UNL d   1       2.642  -2.862  -1.236  0.00  0.00     0.077 C 
ATOM      8  C7  UNL d   1       1.882  -0.563  -0.568  0.00  0.00    -0.001 A 
ENDROOT
TORSDOF 0
ENDMDL
