MODEL 1
REMARK minimizedAffinity -1.07606697
REMARK minimizedRMSD -1
REMARK  0 active torsions:
REMARK  status: ('A' for Active; 'I' for Inactive)
ROOT
ATOM      1  C   UNL d   1      -1.527  -3.381  -1.575  0.00  0.00     0.077 C 
ATOM      2  C1  UNL d   1      -0.324  -2.980  -0.774  0.00  0.00    -0.074 A 
ATOM      3  C2  UNL d   1       0.326  -3.900   0.055  0.00  0.00    -0.005 A 
ATOM      4  C3  UNL d   1       1.450  -3.515   0.787  0.00  0.00     0.006 A 
ATOM      5  C4  UNL d   1       1.933  -2.209   0.697  0.00  0.00    -0.005 A 
ATOM      6  C5  UNL d   1       1.297  -1.276  -0.127  0.00  0.00    -0.074 A 
ATOM      7  C6  UNL d   1       1.809   0.128  -0.243  0.00  0.00     0.077 C 
ATOM      8  C7  UNL d   1       0.173  -1.672  -0.865  0.00  0.00    -0.001 A 
ENDROOT
TORSDOF 0
ENDMDL
