MODEL 1
REMARK minimizedAffinity 1.81440723
REMARK minimizedRMSD -1
REMARK  0 active torsions:
REMARK  status: ('A' for Active; 'I' for Inactive)
ROOT
ATOM      1  C   UNL d   1       4.556   1.181  -1.663  0.00  0.00     0.077 C 
ATOM      2  C1  UNL d   1       5.052   2.366  -0.889  0.00  0.00    -0.074 A 
ATOM      3  C2  UNL d   1       5.314   2.270   0.482  0.00  0.00    -0.005 A 
ATOM      4  C3  UNL d   1       5.784   3.378   1.187  0.00  0.00     0.006 A 
ATOM      5  C4  UNL d   1       5.997   4.591   0.530  0.00  0.00    -0.005 A 
ATOM      6  C5  UNL d   1       5.741   4.705  -0.840  0.00  0.00    -0.074 A 
ATOM      7  C6  UNL d   1       5.974   5.998  -1.563  0.00  0.00     0.077 C 
ATOM      8  C7  UNL d   1       5.276   3.585  -1.543  0.00  0.00    -0.001 A 
ENDROOT
TORSDOF 0
ENDMDL
