MODEL 1
REMARK minimizedAffinity 1.79602396
REMARK minimizedRMSD -1
REMARK  0 active torsions:
REMARK  status: ('A' for Active; 'I' for Inactive)
ROOT
ATOM      1  C   UNL d   1       3.503  -3.488  -3.034  0.00  0.00     0.077 C 
ATOM      2  C1  UNL d   1       2.777  -2.519  -2.149  0.00  0.00    -0.074 A 
ATOM      3  C2  UNL d   1       3.467  -1.508  -1.471  0.00  0.00    -0.005 A 
ATOM      4  C3  UNL d   1       2.776  -0.608  -0.659  0.00  0.00     0.006 A 
ATOM      5  C4  UNL d   1       1.392  -0.711  -0.516  0.00  0.00    -0.005 A 
ATOM      6  C5  UNL d   1       0.686  -1.714  -1.186  0.00  0.00    -0.074 A 
ATOM      7  C6  UNL d   1      -0.804  -1.832  -1.051  0.00  0.00     0.077 C 
ATOM      8  C7  UNL d   1       1.385  -2.610  -2.006  0.00  0.00    -0.001 A 
ENDROOT
TORSDOF 0
ENDMDL
