MODEL 1
REMARK minimizedAffinity 0.592636049
REMARK minimizedRMSD -1
REMARK  0 active torsions:
REMARK  status: ('A' for Active; 'I' for Inactive)
ROOT
ATOM      1  C   UNL d   1       2.731  -2.374  -1.786  0.00  0.00     0.077 C 
ATOM      2  C1  UNL d   1       1.897  -1.319  -1.123  0.00  0.00    -0.074 A 
ATOM      3  C2  UNL d   1       2.408  -0.038  -0.893  0.00  0.00    -0.005 A 
ATOM      4  C3  UNL d   1       1.616   0.936  -0.284  0.00  0.00     0.006 A 
ATOM      5  C4  UNL d   1       0.309   0.639   0.102  0.00  0.00    -0.005 A 
ATOM      6  C5  UNL d   1      -0.220  -0.637  -0.120  0.00  0.00    -0.074 A 
ATOM      7  C6  UNL d   1      -1.626  -0.970   0.279  0.00  0.00     0.077 C 
ATOM      8  C7  UNL d   1       0.579  -1.608  -0.740  0.00  0.00    -0.001 A 
ENDROOT
TORSDOF 0
ENDMDL
