MODEL 1
REMARK minimizedAffinity -0.662237406
REMARK minimizedRMSD -1
REMARK  0 active torsions:
REMARK  status: ('A' for Active; 'I' for Inactive)
ROOT
ATOM      1  C   UNL d   1      -0.903  -2.677  -2.474  0.00  0.00     0.077 C 
ATOM      2  C1  UNL d   1       0.086  -1.922  -1.636  0.00  0.00    -0.074 A 
ATOM      3  C2  UNL d   1       1.339  -2.466  -1.339  0.00  0.00    -0.005 A 
ATOM      4  C3  UNL d   1       2.252  -1.747  -0.566  0.00  0.00     0.006 A 
ATOM      5  C4  UNL d   1       1.921  -0.480  -0.084  0.00  0.00    -0.005 A 
ATOM      6  C5  UNL d   1       0.673   0.080  -0.372  0.00  0.00    -0.074 A 
ATOM      7  C6  UNL d   1       0.305   1.445   0.130  0.00  0.00     0.077 C 
ATOM      8  C7  UNL d   1      -0.236  -0.645  -1.155  0.00  0.00    -0.001 A 
ENDROOT
TORSDOF 0
ENDMDL
