MODEL 1
REMARK minimizedAffinity -1.13632834
REMARK minimizedRMSD -1
REMARK  2 active torsions:
REMARK  status: ('A' for Active; 'I' for Inactive)
REMARK    1  A    between atoms: C2'_3  and  C1'_4 
REMARK    2  A    between atoms: C1'_4  and  C1_5 
ROOT
ATOM      1  C1  I4B d   1       3.050  -1.928   2.784  0.00  0.00    -0.075 A 
ATOM      2  C2  I4B d   1       3.352  -1.942   4.123  0.00  0.00     0.003 A 
ATOM      3  C3  I4B d   1       4.478  -1.234   4.608  0.00  0.00     0.002 A 
ATOM      4  C4  I4B d   1       5.299  -0.572   3.718  0.00  0.00    -0.004 A 
ATOM      5  C5  I4B d   1       4.979  -0.540   2.364  0.00  0.00     0.002 A 
ATOM      6  C6  I4B d   1       3.840  -1.212   1.895  0.00  0.00     0.003 A 
ENDROOT
BRANCH   1   7
ATOM      7  C1' I4B d   1       1.872  -2.714   2.303  0.00  0.00     0.060 C 
BRANCH   7   8
ATOM      8  C2' I4B d   1       0.655  -1.812   2.359  0.00  0.00    -0.013 C 
ATOM      9  C4' I4B d   1       0.498  -1.192   3.722  0.00  0.00     0.013 C 
ATOM     10  C3' I4B d   1       0.809  -0.761   1.300  0.00  0.00     0.013 C 
ENDBRANCH   7   8
ENDBRANCH   1   7
TORSDOF 2
ENDMDL
