MODEL 1
REMARK minimizedAffinity 2.53923488
REMARK minimizedRMSD -1
REMARK  2 active torsions:
REMARK  status: ('A' for Active; 'I' for Inactive)
REMARK    1  A    between atoms: C2'_3  and  C1'_4 
REMARK    2  A    between atoms: C1'_4  and  C1_5 
ROOT
ATOM      1  C1  I4B d   1       2.968  -1.505   2.396  0.00  0.00    -0.075 A 
ATOM      2  C2  I4B d   1       4.283  -1.116   2.465  0.00  0.00     0.003 A 
ATOM      3  C3  I4B d   1       4.799  -0.557   3.660  0.00  0.00     0.002 A 
ATOM      4  C4  I4B d   1       3.959  -0.360   4.736  0.00  0.00    -0.004 A 
ATOM      5  C5  I4B d   1       2.632  -0.776   4.672  0.00  0.00     0.002 A 
ATOM      6  C6  I4B d   1       2.136  -1.364   3.499  0.00  0.00     0.003 A 
ENDROOT
BRANCH   1   7
ATOM      7  C1' I4B d   1       2.448  -2.062   1.109  0.00  0.00     0.060 C 
BRANCH   7   8
ATOM      8  C2' I4B d   1       1.807  -0.927   0.336  0.00  0.00    -0.013 C 
ATOM      9  C4' I4B d   1       0.987  -0.046   1.240  0.00  0.00     0.013 C 
ATOM     10  C3' I4B d   1       2.899  -0.149  -0.335  0.00  0.00     0.013 C 
ENDBRANCH   7   8
ENDBRANCH   1   7
TORSDOF 2
ENDMDL
