MODEL 1
REMARK minimizedAffinity -1.48519516
REMARK minimizedRMSD -1
REMARK  2 active torsions:
REMARK  status: ('A' for Active; 'I' for Inactive)
REMARK    1  A    between atoms: C2'_3  and  C1'_4 
REMARK    2  A    between atoms: C1'_4  and  C1_5 
ROOT
ATOM      1  C1  I4B d   1      -2.137  -5.695  -4.578  0.00  0.00    -0.075 A 
ATOM      2  C2  I4B d   1      -1.838  -5.732  -3.239  0.00  0.00     0.003 A 
ATOM      3  C3  I4B d   1      -2.868  -5.911  -2.284  0.00  0.00     0.002 A 
ATOM      4  C4  I4B d   1      -4.179  -5.996  -2.706  0.00  0.00    -0.004 A 
ATOM      5  C5  I4B d   1      -4.478  -5.981  -4.065  0.00  0.00     0.002 A 
ATOM      6  C6  I4B d   1      -3.449  -5.842  -5.009  0.00  0.00     0.003 A 
ENDROOT
BRANCH   1   7
ATOM      7  C1' I4B d   1      -1.029  -5.471  -5.558  0.00  0.00     0.060 C 
BRANCH   7   8
ATOM      8  C2' I4B d   1       0.281  -5.762  -4.855  0.00  0.00    -0.013 C 
ATOM      9  C4' I4B d   1       1.430  -5.783  -5.828  0.00  0.00     0.013 C 
ATOM     10  C3' I4B d   1       0.484  -4.714  -3.801  0.00  0.00     0.013 C 
ENDBRANCH   7   8
ENDBRANCH   1   7
TORSDOF 2
ENDMDL
