MODEL 1
REMARK minimizedAffinity 4.61280727
REMARK minimizedRMSD -1
REMARK  2 active torsions:
REMARK  status: ('A' for Active; 'I' for Inactive)
REMARK    1  A    between atoms: C2'_3  and  C1'_4 
REMARK    2  A    between atoms: C1'_4  and  C1_5 
ROOT
ATOM      1  C1  I4B d   1       2.799   1.888  -0.431  0.00  0.00    -0.075 A 
ATOM      2  C2  I4B d   1       4.122   2.230  -0.563  0.00  0.00     0.003 A 
ATOM      3  C3  I4B d   1       4.542   3.559  -0.313  0.00  0.00     0.002 A 
ATOM      4  C4  I4B d   1       3.606   4.518   0.015  0.00  0.00    -0.004 A 
ATOM      5  C5  I4B d   1       2.269   4.164   0.171  0.00  0.00     0.002 A 
ATOM      6  C6  I4B d   1       1.864   2.838  -0.041  0.00  0.00     0.003 A 
ENDROOT
BRANCH   1   7
ATOM      7  C1' I4B d   1       2.384   0.483  -0.734  0.00  0.00     0.060 C 
BRANCH   7   8
ATOM      8  C2' I4B d   1       2.165  -0.234   0.583  0.00  0.00    -0.013 C 
ATOM      9  C4' I4B d   1       0.907  -1.062   0.550  0.00  0.00     0.013 C 
ATOM     10  C3' I4B d   1       3.368  -1.088   0.851  0.00  0.00     0.013 C 
ENDBRANCH   7   8
ENDBRANCH   1   7
TORSDOF 2
ENDMDL
