MODEL 1
REMARK minimizedAffinity 6.05205774
REMARK minimizedRMSD -1
REMARK  2 active torsions:
REMARK  status: ('A' for Active; 'I' for Inactive)
REMARK    1  A    between atoms: C2'_3  and  C1'_4 
REMARK    2  A    between atoms: C1'_4  and  C1_5 
ROOT
ATOM      1  C1  I4B d   1       2.161  -0.545   0.782  0.00  0.00    -0.075 A 
ATOM      2  C2  I4B d   1       1.004  -0.831   1.464  0.00  0.00     0.003 A 
ATOM      3  C3  I4B d   1      -0.204  -0.177   1.121  0.00  0.00     0.002 A 
ATOM      4  C4  I4B d   1      -0.200   0.784   0.132  0.00  0.00    -0.004 A 
ATOM      5  C5  I4B d   1       0.968   1.056  -0.574  0.00  0.00     0.002 A 
ATOM      6  C6  I4B d   1       2.154   0.378  -0.255  0.00  0.00     0.003 A 
ENDROOT
BRANCH   1   7
ATOM      7  C1' I4B d   1       3.426  -1.230   1.192  0.00  0.00     0.060 C 
BRANCH   7   8
ATOM      8  C2' I4B d   1       3.649  -0.957   2.666  0.00  0.00    -0.013 C 
ATOM      9  C4' I4B d   1       3.234  -2.135   3.507  0.00  0.00     0.013 C 
ATOM     10  C3' I4B d   1       5.100  -0.634   2.863  0.00  0.00     0.013 C 
ENDBRANCH   7   8
ENDBRANCH   1   7
TORSDOF 2
ENDMDL
