MODEL 1
REMARK minimizedAffinity 5.25967312
REMARK minimizedRMSD -1
REMARK  2 active torsions:
REMARK  status: ('A' for Active; 'I' for Inactive)
REMARK    1  A    between atoms: C2'_3  and  C1'_4 
REMARK    2  A    between atoms: C1'_4  and  C1_5 
ROOT
ATOM      1  C1  I4B d   1       0.165  -5.419  -4.209  0.00  0.00    -0.075 A 
ATOM      2  C2  I4B d   1      -1.114  -5.811  -3.899  0.00  0.00     0.003 A 
ATOM      3  C3  I4B d   1      -1.732  -5.352  -2.710  0.00  0.00     0.002 A 
ATOM      4  C4  I4B d   1      -1.022  -4.547  -1.842  0.00  0.00    -0.004 A 
ATOM      5  C5  I4B d   1       0.266  -4.132  -2.170  0.00  0.00     0.002 A 
ATOM      6  C6  I4B d   1       0.859  -4.560  -3.366  0.00  0.00     0.003 A 
ENDROOT
BRANCH   1   7
ATOM      7  C1' I4B d   1       0.799  -5.950  -5.456  0.00  0.00     0.060 C 
BRANCH   7   8
ATOM      8  C2' I4B d   1       2.296  -6.000  -5.232  0.00  0.00    -0.013 C 
ATOM      9  C4' I4B d   1       2.986  -4.840  -5.901  0.00  0.00     0.013 C 
ATOM     10  C3' I4B d   1       2.545  -5.998  -3.753  0.00  0.00     0.013 C 
ENDBRANCH   7   8
ENDBRANCH   1   7
TORSDOF 2
ENDMDL
