MODEL 1
REMARK minimizedAffinity 6.70862913
REMARK minimizedRMSD -1
REMARK  2 active torsions:
REMARK  status: ('A' for Active; 'I' for Inactive)
REMARK    1  A    between atoms: C2'_3  and  C1'_4 
REMARK    2  A    between atoms: C1'_4  and  C1_5 
ROOT
ATOM      1  C1  I4B d   1      -0.927  -1.551   0.562  0.00  0.00    -0.075 A 
ATOM      2  C2  I4B d   1      -0.600  -2.879   0.677  0.00  0.00     0.003 A 
ATOM      3  C3  I4B d   1      -1.572  -3.877   0.422  0.00  0.00     0.002 A 
ATOM      4  C4  I4B d   1      -2.863  -3.504   0.108  0.00  0.00    -0.004 A 
ATOM      5  C5  I4B d   1      -3.187  -2.157  -0.030  0.00  0.00     0.002 A 
ATOM      6  C6  I4B d   1      -2.210  -1.174   0.186  0.00  0.00     0.003 A 
ENDROOT
BRANCH   1   7
ATOM      7  C1' I4B d   1       0.115  -0.523   0.870  0.00  0.00     0.060 C 
BRANCH   7   8
ATOM      8  C2' I4B d   1       1.312  -0.791  -0.019  0.00  0.00    -0.013 C 
ATOM      9  C4' I4B d   1       1.546   0.347  -0.977  0.00  0.00     0.013 C 
ATOM     10  C3' I4B d   1       2.505  -1.009   0.864  0.00  0.00     0.013 C 
ENDBRANCH   7   8
ENDBRANCH   1   7
TORSDOF 2
ENDMDL
