MODEL 1
REMARK minimizedAffinity 6.62907362
REMARK minimizedRMSD -1
REMARK  2 active torsions:
REMARK  status: ('A' for Active; 'I' for Inactive)
REMARK    1  A    between atoms: C2'_3  and  C1'_4 
REMARK    2  A    between atoms: C1'_4  and  C1_5 
ROOT
ATOM      1  C1  I4B d   1       2.761  -1.273   1.464  0.00  0.00    -0.075 A 
ATOM      2  C2  I4B d   1       3.889  -0.860   0.799  0.00  0.00     0.003 A 
ATOM      3  C3  I4B d   1       5.070  -0.560   1.519  0.00  0.00     0.002 A 
ATOM      4  C4  I4B d   1       5.065  -0.637   2.896  0.00  0.00    -0.004 A 
ATOM      5  C5  I4B d   1       3.928  -1.078   3.567  0.00  0.00     0.002 A 
ATOM      6  C6  I4B d   1       2.772  -1.410   2.846  0.00  0.00     0.003 A 
ENDROOT
BRANCH   1   7
ATOM      7  C1' I4B d   1       1.520  -1.550   0.675  0.00  0.00     0.060 C 
BRANCH   7   8
ATOM      8  C2' I4B d   1       1.011  -0.232   0.129  0.00  0.00    -0.013 C 
ATOM      9  C4' I4B d   1       0.903  -0.270  -1.373  0.00  0.00     0.013 C 
ATOM     10  C3' I4B d   1      -0.321   0.047   0.760  0.00  0.00     0.013 C 
ENDBRANCH   7   8
ENDBRANCH   1   7
TORSDOF 2
ENDMDL
