MODEL 1
REMARK minimizedAffinity 7.71707201
REMARK minimizedRMSD -1
REMARK  2 active torsions:
REMARK  status: ('A' for Active; 'I' for Inactive)
REMARK    1  A    between atoms: C2'_3  and  C1'_4 
REMARK    2  A    between atoms: C1'_4  and  C1_5 
ROOT
ATOM      1  C1  I4B d   1       0.142  -4.627  -4.847  0.00  0.00    -0.075 A 
ATOM      2  C2  I4B d   1       0.524  -5.392  -5.922  0.00  0.00     0.003 A 
ATOM      3  C3  I4B d   1       1.840  -5.907  -5.997  0.00  0.00     0.002 A 
ATOM      4  C4  I4B d   1       2.751  -5.594  -5.009  0.00  0.00    -0.004 A 
ATOM      5  C5  I4B d   1       2.355  -4.838  -3.910  0.00  0.00     0.002 A 
ATOM      6  C6  I4B d   1       1.039  -4.361  -3.822  0.00  0.00     0.003 A 
ENDROOT
BRANCH   1   7
ATOM      7  C1' I4B d   1      -1.247  -4.072  -4.816  0.00  0.00     0.060 C 
BRANCH   7   8
ATOM      8  C2' I4B d   1      -2.185  -5.184  -4.393  0.00  0.00    -0.013 C 
ATOM      9  C4' I4B d   1      -3.414  -4.633  -3.718  0.00  0.00     0.013 C 
ATOM     10  C3' I4B d   1      -2.546  -5.974  -5.615  0.00  0.00     0.013 C 
ENDBRANCH   7   8
ENDBRANCH   1   7
TORSDOF 2
ENDMDL
