MODEL 1
REMARK minimizedAffinity 5.64461088
REMARK minimizedRMSD -1
REMARK  2 active torsions:
REMARK  status: ('A' for Active; 'I' for Inactive)
REMARK    1  A    between atoms: C2'_3  and  C1'_4 
REMARK    2  A    between atoms: C1'_4  and  C1_5 
ROOT
ATOM      1  C1  I4B d   1      -0.803   1.248  -2.911  0.00  0.00    -0.075 A 
ATOM      2  C2  I4B d   1      -0.509   2.420  -3.561  0.00  0.00     0.003 A 
ATOM      3  C3  I4B d   1      -1.551   3.235  -4.067  0.00  0.00     0.002 A 
ATOM      4  C4  I4B d   1      -2.860   2.817  -3.947  0.00  0.00    -0.004 A 
ATOM      5  C5  I4B d   1      -3.157   1.639  -3.267  0.00  0.00     0.002 A 
ATOM      6  C6  I4B d   1      -2.123   0.855  -2.735  0.00  0.00     0.003 A 
ENDROOT
BRANCH   1   7
ATOM      7  C1' I4B d   1       0.323   0.395  -2.417  0.00  0.00     0.060 C 
BRANCH   7   8
ATOM      8  C2' I4B d   1       0.355   0.493  -0.906  0.00  0.00    -0.013 C 
ATOM      9  C4' I4B d   1       0.254  -0.868  -0.269  0.00  0.00     0.013 C 
ATOM     10  C3' I4B d   1       1.628   1.181  -0.513  0.00  0.00     0.013 C 
ENDBRANCH   7   8
ENDBRANCH   1   7
TORSDOF 2
ENDMDL
