MODEL 1
REMARK minimizedAffinity 4.17972803
REMARK minimizedRMSD -1
REMARK  0 active torsions:
REMARK  status: ('A' for Active; 'I' for Inactive)
ROOT
ATOM      1  C1  BNZ d   1       1.785   0.700   1.821  0.00  0.00     0.000 A 
ATOM      2  C2  BNZ d   1       0.811   1.608   2.142  0.00  0.00     0.000 A 
ATOM      3  C3  BNZ d   1       0.783   2.842   1.555  0.00  0.00     0.000 A 
ATOM      4  C4  BNZ d   1       1.750   3.181   0.679  0.00  0.00     0.000 A 
ATOM      5  C5  BNZ d   1       2.744   2.281   0.351  0.00  0.00     0.000 A 
ATOM      6  C6  BNZ d   1       2.747   1.026   0.915  0.00  0.00     0.000 A 
ENDROOT
TORSDOF 0
ENDMDL
