MODEL 1
REMARK minimizedAffinity 1.88483131
REMARK minimizedRMSD -1
REMARK  0 active torsions:
REMARK  status: ('A' for Active; 'I' for Inactive)
ROOT
ATOM      1  C1  BNZ d   1       1.416  -3.369  -5.987  0.00  0.00     0.000 A 
ATOM      2  C2  BNZ d   1       0.219  -2.703  -5.997  0.00  0.00     0.000 A 
ATOM      3  C3  BNZ d   1      -0.964  -3.388  -5.983  0.00  0.00     0.000 A 
ATOM      4  C4  BNZ d   1      -0.949  -4.737  -6.000  0.00  0.00     0.000 A 
ATOM      5  C5  BNZ d   1       0.249  -5.423  -6.000  0.00  0.00     0.000 A 
ATOM      6  C6  BNZ d   1       1.438  -4.730  -5.974  0.00  0.00     0.000 A 
ENDROOT
TORSDOF 0
ENDMDL
