MODEL 1
REMARK minimizedAffinity 4.67864323
REMARK minimizedRMSD -1
REMARK  0 active torsions:
REMARK  status: ('A' for Active; 'I' for Inactive)
ROOT
ATOM      1  C1  BNZ d   1       3.620  -0.594  -5.992  0.00  0.00     0.000 A 
ATOM      2  C2  BNZ d   1       4.810   0.084  -5.996  0.00  0.00     0.000 A 
ATOM      3  C3  BNZ d   1       5.999  -0.589  -5.998  0.00  0.00     0.000 A 
ATOM      4  C4  BNZ d   1       5.998  -1.937  -5.956  0.00  0.00     0.000 A 
ATOM      5  C5  BNZ d   1       4.807  -2.635  -5.942  0.00  0.00     0.000 A 
ATOM      6  C6  BNZ d   1       3.611  -1.955  -5.980  0.00  0.00     0.000 A 
ENDROOT
TORSDOF 0
ENDMDL
