MODEL 1
REMARK minimizedAffinity 2.43579531
REMARK minimizedRMSD -1
REMARK  0 active torsions:
REMARK  status: ('A' for Active; 'I' for Inactive)
ROOT
ATOM      1  C1  BNZ d   1      -2.966  -2.641  -2.628  0.00  0.00     0.000 A 
ATOM      2  C2  BNZ d   1      -1.985  -2.137  -1.815  0.00  0.00     0.000 A 
ATOM      3  C3  BNZ d   1      -2.071  -2.261  -0.457  0.00  0.00     0.000 A 
ATOM      4  C4  BNZ d   1      -3.154  -2.852   0.089  0.00  0.00     0.000 A 
ATOM      5  C5  BNZ d   1      -4.155  -3.356  -0.717  0.00  0.00     0.000 A 
ATOM      6  C6  BNZ d   1      -4.047  -3.265  -2.086  0.00  0.00     0.000 A 
ENDROOT
TORSDOF 0
ENDMDL
