MODEL 1
REMARK minimizedAffinity -1.79905164
REMARK minimizedRMSD -1
REMARK  0 active torsions:
REMARK  status: ('A' for Active; 'I' for Inactive)
ROOT
ATOM      1  C1  BNZ d   1       2.632   0.828   1.114  0.00  0.00     0.000 A 
ATOM      2  C2  BNZ d   1       2.647   2.108   0.627  0.00  0.00     0.000 A 
ATOM      3  C3  BNZ d   1       3.818   2.697   0.241  0.00  0.00     0.000 A 
ATOM      4  C4  BNZ d   1       4.977   2.020   0.379  0.00  0.00     0.000 A 
ATOM      5  C5  BNZ d   1       4.979   0.732   0.877  0.00  0.00     0.000 A 
ATOM      6  C6  BNZ d   1       3.794   0.129   1.228  0.00  0.00     0.000 A 
ENDROOT
TORSDOF 0
ENDMDL
