MODEL 1
REMARK minimizedAffinity 2.63040829
REMARK minimizedRMSD -1
REMARK  0 active torsions:
REMARK  status: ('A' for Active; 'I' for Inactive)
ROOT
ATOM      1  C1  BNZ d   1      -1.900  -4.817  -2.660  0.00  0.00     0.000 A 
ATOM      2  C2  BNZ d   1      -1.754  -3.456  -2.689  0.00  0.00     0.000 A 
ATOM      3  C3  BNZ d   1      -2.734  -2.636  -2.204  0.00  0.00     0.000 A 
ATOM      4  C4  BNZ d   1      -3.875  -3.176  -1.729  0.00  0.00     0.000 A 
ATOM      5  C5  BNZ d   1      -4.042  -4.546  -1.702  0.00  0.00     0.000 A 
ATOM      6  C6  BNZ d   1      -3.037  -5.370  -2.154  0.00  0.00     0.000 A 
ENDROOT
TORSDOF 0
ENDMDL
