MODEL 1
REMARK minimizedAffinity 0.461095035
REMARK minimizedRMSD -1
REMARK  0 active torsions:
REMARK  status: ('A' for Active; 'I' for Inactive)
ROOT
ATOM      1  C1  BNZ d   1       2.351   0.754   1.082  0.00  0.00     0.000 A 
ATOM      2  C2  BNZ d   1       3.294  -0.047   1.669  0.00  0.00     0.000 A 
ATOM      3  C3  BNZ d   1       4.610   0.042   1.309  0.00  0.00     0.000 A 
ATOM      4  C4  BNZ d   1       4.974   0.902   0.335  0.00  0.00     0.000 A 
ATOM      5  C5  BNZ d   1       4.033   1.709  -0.272  0.00  0.00     0.000 A 
ATOM      6  C6  BNZ d   1       2.715   1.644   0.120  0.00  0.00     0.000 A 
ENDROOT
TORSDOF 0
ENDMDL
