MODEL 1
REMARK minimizedAffinity -1.82867134
REMARK minimizedRMSD -1
REMARK  0 active torsions:
REMARK  status: ('A' for Active; 'I' for Inactive)
ROOT
ATOM      1  C1  BNZ d   1       4.063   5.999   4.899  0.00  0.00     0.000 A 
ATOM      2  C2  BNZ d   1       4.082   5.722   3.558  0.00  0.00     0.000 A 
ATOM      3  C3  BNZ d   1       5.039   4.904   3.025  0.00  0.00     0.000 A 
ATOM      4  C4  BNZ d   1       5.999   4.398   3.826  0.00  0.00     0.000 A 
ATOM      5  C5  BNZ d   1       6.000   4.677   5.179  0.00  0.00     0.000 A 
ATOM      6  C6  BNZ d   1       5.012   5.469   5.717  0.00  0.00     0.000 A 
ENDROOT
TORSDOF 0
ENDMDL
