MODEL 1
REMARK minimizedAffinity 5.3977232
REMARK minimizedRMSD -1
REMARK  0 active torsions:
REMARK  status: ('A' for Active; 'I' for Inactive)
ROOT
ATOM      1  C1  BNZ d   1       1.114   5.118  -5.950  0.00  0.00     0.000 A 
ATOM      2  C2  BNZ d   1       2.162   5.999  -5.993  0.00  0.00     0.000 A 
ATOM      3  C3  BNZ d   1       3.117   5.999  -5.016  0.00  0.00     0.000 A 
ATOM      4  C4  BNZ d   1       3.002   5.147  -3.977  0.00  0.00     0.000 A 
ATOM      5  C5  BNZ d   1       1.947   4.260  -3.913  0.00  0.00     0.000 A 
ATOM      6  C6  BNZ d   1       1.008   4.236  -4.919  0.00  0.00     0.000 A 
ENDROOT
TORSDOF 0
ENDMDL
