MODEL 1
REMARK minimizedAffinity 8.99040794
REMARK minimizedRMSD -1
REMARK  0 active torsions:
REMARK  status: ('A' for Active; 'I' for Inactive)
ROOT
ATOM      1  C1  BNZ d   1       2.445   3.703  -3.902  0.00  0.00     0.000 A 
ATOM      2  C2  BNZ d   1       1.877   3.722  -5.148  0.00  0.00     0.000 A 
ATOM      3  C3  BNZ d   1       1.866   4.867  -5.895  0.00  0.00     0.000 A 
ATOM      4  C4  BNZ d   1       2.386   6.000  -5.379  0.00  0.00     0.000 A 
ATOM      5  C5  BNZ d   1       2.953   5.999  -4.121  0.00  0.00     0.000 A 
ATOM      6  C6  BNZ d   1       2.997   4.835  -3.388  0.00  0.00     0.000 A 
ENDROOT
TORSDOF 0
ENDMDL
