MODEL 1
REMARK minimizedAffinity 5.49352312
REMARK minimizedRMSD -1
REMARK  0 active torsions:
REMARK  status: ('A' for Active; 'I' for Inactive)
ROOT
ATOM      1  C1  BNZ d   1       2.148  -3.646  -3.804  0.00  0.00     0.000 A 
ATOM      2  C2  BNZ d   1       1.611  -3.091  -4.935  0.00  0.00     0.000 A 
ATOM      3  C3  BNZ d   1       0.324  -3.365  -5.305  0.00  0.00     0.000 A 
ATOM      4  C4  BNZ d   1      -0.410  -4.224  -4.568  0.00  0.00     0.000 A 
ATOM      5  C5  BNZ d   1       0.121  -4.798  -3.430  0.00  0.00     0.000 A 
ATOM      6  C6  BNZ d   1       1.404  -4.490  -3.039  0.00  0.00     0.000 A 
ENDROOT
TORSDOF 0
ENDMDL
