MODEL 1
REMARK minimizedAffinity -3.36021018
REMARK minimizedRMSD -1
REMARK  0 active torsions:
REMARK  status: ('A' for Active; 'I' for Inactive)
ROOT
ATOM      1  C1  BNZ d   1       0.060   1.511   2.129  0.00  0.00     0.000 A 
ATOM      2  C2  BNZ d   1      -1.044   2.239   2.488  0.00  0.00     0.000 A 
ATOM      3  C3  BNZ d   1      -2.253   1.630   2.676  0.00  0.00     0.000 A 
ATOM      4  C4  BNZ d   1      -2.366   0.303   2.468  0.00  0.00     0.000 A 
ATOM      5  C5  BNZ d   1      -1.265  -0.443   2.097  0.00  0.00     0.000 A 
ATOM      6  C6  BNZ d   1      -0.041   0.167   1.946  0.00  0.00     0.000 A 
ENDROOT
TORSDOF 0
ENDMDL
