MODEL 1
REMARK minimizedAffinity 2.75824594
REMARK minimizedRMSD -1
REMARK  0 active torsions:
REMARK  status: ('A' for Active; 'I' for Inactive)
ROOT
ATOM      1  C1  BNZ d   1      -4.096  -3.667   0.445  0.00  0.00     0.000 A 
ATOM      2  C2  BNZ d   1      -4.543  -2.560  -0.225  0.00  0.00     0.000 A 
ATOM      3  C3  BNZ d   1      -4.025  -2.223  -1.445  0.00  0.00     0.000 A 
ATOM      4  C4  BNZ d   1      -3.034  -2.970  -1.973  0.00  0.00     0.000 A 
ATOM      5  C5  BNZ d   1      -2.566  -4.084  -1.305  0.00  0.00     0.000 A 
ATOM      6  C6  BNZ d   1      -3.117  -4.442  -0.096  0.00  0.00     0.000 A 
ENDROOT
TORSDOF 0
ENDMDL
