MODEL 1
REMARK minimizedAffinity 4.19744587
REMARK minimizedRMSD -1
REMARK  0 active torsions:
REMARK  status: ('A' for Active; 'I' for Inactive)
ROOT
ATOM      1  C1  BNZ d   1      -5.203  -3.406  -1.302  0.00  0.00     0.000 A 
ATOM      2  C2  BNZ d   1      -4.892  -4.385  -0.396  0.00  0.00     0.000 A 
ATOM      3  C3  BNZ d   1      -3.595  -4.615  -0.031  0.00  0.00     0.000 A 
ATOM      4  C4  BNZ d   1      -2.608  -3.894  -0.601  0.00  0.00     0.000 A 
ATOM      5  C5  BNZ d   1      -2.905  -2.909  -1.523  0.00  0.00     0.000 A 
ATOM      6  C6  BNZ d   1      -4.215  -2.654  -1.858  0.00  0.00     0.000 A 
ENDROOT
TORSDOF 0
ENDMDL
