MODEL 1
REMARK minimizedAffinity -1.48364151
REMARK minimizedRMSD -1
REMARK  0 active torsions:
REMARK  status: ('A' for Active; 'I' for Inactive)
ROOT
ATOM      1  C1  BNZ d   1      -5.492  -3.458  -4.529  0.00  0.00     0.000 A 
ATOM      2  C2  BNZ d   1      -5.327  -3.019  -3.242  0.00  0.00     0.000 A 
ATOM      3  C3  BNZ d   1      -4.093  -2.656  -2.780  0.00  0.00     0.000 A 
ATOM      4  C4  BNZ d   1      -3.021  -2.770  -3.590  0.00  0.00     0.000 A 
ATOM      5  C5  BNZ d   1      -3.170  -3.220  -4.887  0.00  0.00     0.000 A 
ATOM      6  C6  BNZ d   1      -4.420  -3.548  -5.361  0.00  0.00     0.000 A 
ENDROOT
TORSDOF 0
ENDMDL
