MODEL 1
REMARK minimizedAffinity 19.039917
REMARK minimizedRMSD -1
REMARK  0 active torsions:
REMARK  status: ('A' for Active; 'I' for Inactive)
ROOT
ATOM      1  C   UNL d   1      -1.084   4.024   1.554  0.00  0.00     0.124 A 
ATOM      2  C1  UNL d   1       0.098   3.457   2.010  0.00  0.00     0.062 A 
ATOM      3  C2  UNL d   1       1.125   3.166   1.116  0.00  0.00     0.162 A 
ATOM      4  C3  UNL d   1       0.974   3.442  -0.243  0.00  0.00    -0.034 A 
ATOM      5  C4  UNL d   1      -0.218   4.011  -0.694  0.00  0.00     0.162 A 
ATOM      6  C5  UNL d   1      -1.241   4.300   0.204  0.00  0.00     0.062 A 
ATOM      7  F   UNL d   1      -2.383   4.847  -0.239  0.00  0.00    -0.097 F 
ATOM      8  F1  UNL d   1      -0.396   4.290  -1.994  0.00  0.00    -0.096 F 
ATOM      9  I   UNL d   1       2.507   3.009  -1.582  0.00  0.00    -0.060 I 
ATOM     10  F2  UNL d   1       2.256   2.619   1.585  0.00  0.00    -0.096 F 
ATOM     11  F3  UNL d   1       0.252   3.189   3.315  0.00  0.00    -0.097 F 
ATOM     12  F4  UNL d   1      -2.071   4.302   2.416  0.00  0.00    -0.092 F 
ENDROOT
TORSDOF 0
ENDMDL
