MODEL 1
REMARK minimizedAffinity 2.63580251
REMARK minimizedRMSD -1
REMARK  0 active torsions:
REMARK  status: ('A' for Active; 'I' for Inactive)
ROOT
ATOM      1  C   UNL d   1      -0.812  -2.567  -0.477  0.00  0.00     0.124 A 
ATOM      2  C1  UNL d   1      -0.347  -3.712  -1.110  0.00  0.00     0.062 A 
ATOM      3  C2  UNL d   1      -0.649  -3.943  -2.449  0.00  0.00     0.162 A 
ATOM      4  C3  UNL d   1      -1.419  -3.026  -3.165  0.00  0.00    -0.034 A 
ATOM      5  C4  UNL d   1      -1.883  -1.878  -2.521  0.00  0.00     0.162 A 
ATOM      6  C5  UNL d   1      -1.579  -1.652  -1.183  0.00  0.00     0.062 A 
ATOM      7  F   UNL d   1      -2.028  -0.545  -0.573  0.00  0.00    -0.097 F 
ATOM      8  F1  UNL d   1      -2.626  -0.976  -3.180  0.00  0.00    -0.096 F 
ATOM      9  I   UNL d   1      -1.873  -3.368  -5.167  0.00  0.00    -0.060 I 
ATOM     10  F2  UNL d   1      -0.187  -5.058  -3.035  0.00  0.00    -0.096 F 
ATOM     11  F3  UNL d   1       0.393  -4.599  -0.430  0.00  0.00    -0.097 F 
ATOM     12  F4  UNL d   1      -0.520  -2.348   0.812  0.00  0.00    -0.092 F 
ENDROOT
TORSDOF 0
ENDMDL
