MODEL 1
REMARK minimizedAffinity 16.7264977
REMARK minimizedRMSD -1
REMARK  0 active torsions:
REMARK  status: ('A' for Active; 'I' for Inactive)
ROOT
ATOM      1  C   UNL d   1       3.749  -2.483  -4.821  0.00  0.00     0.124 A 
ATOM      2  C1  UNL d   1       4.889  -1.728  -4.581  0.00  0.00     0.062 A 
ATOM      3  C2  UNL d   1       4.882  -0.356  -4.818  0.00  0.00     0.162 A 
ATOM      4  C3  UNL d   1       3.732   0.270  -5.296  0.00  0.00    -0.034 A 
ATOM      5  C4  UNL d   1       2.590  -0.496  -5.536  0.00  0.00     0.162 A 
ATOM      6  C5  UNL d   1       2.601  -1.866  -5.298  0.00  0.00     0.062 A 
ATOM      7  F   UNL d   1       1.499  -2.594  -5.530  0.00  0.00    -0.097 F 
ATOM      8  F1  UNL d   1       1.466   0.074  -5.996  0.00  0.00    -0.096 F 
ATOM      9  I   UNL d   1       3.718   2.321  -5.651  0.00  0.00    -0.060 I 
ATOM     10  F2  UNL d   1       5.998   0.349  -4.577  0.00  0.00    -0.096 F 
ATOM     11  F3  UNL d   1       6.000  -2.321  -4.121  0.00  0.00    -0.097 F 
ATOM     12  F4  UNL d   1       3.758  -3.802  -4.593  0.00  0.00    -0.092 F 
ENDROOT
TORSDOF 0
ENDMDL
