MODEL 1
REMARK minimizedAffinity 19.6346779
REMARK minimizedRMSD -1
REMARK  0 active torsions:
REMARK  status: ('A' for Active; 'I' for Inactive)
ROOT
ATOM      1  C   UNL d   1       1.861   2.732  -2.359  0.00  0.00     0.124 A 
ATOM      2  C1  UNL d   1       2.512   3.935  -2.125  0.00  0.00     0.062 A 
ATOM      3  C2  UNL d   1       2.700   4.844  -3.162  0.00  0.00     0.162 A 
ATOM      4  C3  UNL d   1       2.234   4.553  -4.445  0.00  0.00    -0.034 A 
ATOM      5  C4  UNL d   1       1.580   3.341  -4.673  0.00  0.00     0.162 A 
ATOM      6  C5  UNL d   1       1.395   2.436  -3.633  0.00  0.00     0.062 A 
ATOM      7  F   UNL d   1       0.766   1.274  -3.861  0.00  0.00    -0.097 F 
ATOM      8  F1  UNL d   1       1.119   3.030  -5.894  0.00  0.00    -0.096 F 
ATOM      9  I   UNL d   1       2.511   5.909  -5.999  0.00  0.00    -0.060 I 
ATOM     10  F2  UNL d   1       3.333   5.998  -2.907  0.00  0.00    -0.096 F 
ATOM     11  F3  UNL d   1       2.964   4.223  -0.895  0.00  0.00    -0.097 F 
ATOM     12  F4  UNL d   1       1.683   1.859  -1.359  0.00  0.00    -0.092 F 
ENDROOT
TORSDOF 0
ENDMDL
