MODEL 1
REMARK minimizedAffinity 17.1494026
REMARK minimizedRMSD -1
REMARK  0 active torsions:
REMARK  status: ('A' for Active; 'I' for Inactive)
ROOT
ATOM      1  C   UNL d   1      -1.375  -2.996   1.510  0.00  0.00     0.124 A 
ATOM      2  C1  UNL d   1      -2.413  -2.141   1.165  0.00  0.00     0.062 A 
ATOM      3  C2  UNL d   1      -2.683  -1.873  -0.174  0.00  0.00     0.162 A 
ATOM      4  C3  UNL d   1      -1.916  -2.463  -1.178  0.00  0.00    -0.034 A 
ATOM      5  C4  UNL d   1      -0.874  -3.321  -0.823  0.00  0.00     0.162 A 
ATOM      6  C5  UNL d   1      -0.607  -3.585   0.516  0.00  0.00     0.062 A 
ATOM      7  F   UNL d   1       0.396  -4.411   0.848  0.00  0.00    -0.097 F 
ATOM      8  F1  UNL d   1      -0.116  -3.905  -1.764  0.00  0.00    -0.096 F 
ATOM      9  I   UNL d   1      -2.317  -2.066  -3.181  0.00  0.00    -0.060 I 
ATOM     10  F2  UNL d   1      -3.692  -1.043  -0.478  0.00  0.00    -0.096 F 
ATOM     11  F3  UNL d   1      -3.156  -1.569   2.124  0.00  0.00    -0.097 F 
ATOM     12  F4  UNL d   1      -1.117  -3.250   2.799  0.00  0.00    -0.092 F 
ENDROOT
TORSDOF 0
ENDMDL
