MODEL 1
REMARK minimizedAffinity 23.4635506
REMARK minimizedRMSD -1
REMARK  0 active torsions:
REMARK  status: ('A' for Active; 'I' for Inactive)
ROOT
ATOM      1  C   UNL d   1      -4.196  -3.091  -2.633  0.00  0.00     0.124 A 
ATOM      2  C1  UNL d   1      -2.958  -2.523  -2.367  0.00  0.00     0.062 A 
ATOM      3  C2  UNL d   1      -1.950  -2.559  -3.326  0.00  0.00     0.162 A 
ATOM      4  C3  UNL d   1      -2.176  -3.166  -4.562  0.00  0.00    -0.034 A 
ATOM      5  C4  UNL d   1      -3.424  -3.736  -4.822  0.00  0.00     0.162 A 
ATOM      6  C5  UNL d   1      -4.428  -3.697  -3.860  0.00  0.00     0.062 A 
ATOM      7  F   UNL d   1      -5.623  -4.246  -4.119  0.00  0.00    -0.097 F 
ATOM      8  F1  UNL d   1      -3.675  -4.326  -6.000  0.00  0.00    -0.096 F 
ATOM      9  I   UNL d   1      -0.672  -3.222  -5.999  0.00  0.00    -0.060 I 
ATOM     10  F2  UNL d   1      -0.763  -2.003  -3.042  0.00  0.00    -0.096 F 
ATOM     11  F3  UNL d   1      -2.731  -1.938  -1.182  0.00  0.00    -0.097 F 
ATOM     12  F4  UNL d   1      -5.163  -3.056  -1.708  0.00  0.00    -0.092 F 
ENDROOT
TORSDOF 0
ENDMDL
