MODEL 1
REMARK minimizedAffinity 20.123085
REMARK minimizedRMSD -1
REMARK  0 active torsions:
REMARK  status: ('A' for Active; 'I' for Inactive)
ROOT
ATOM      1  C   UNL d   1       1.975   2.107   1.291  0.00  0.00     0.124 A 
ATOM      2  C1  UNL d   1       2.692   0.919   1.325  0.00  0.00     0.062 A 
ATOM      3  C2  UNL d   1       3.709   0.688   0.403  0.00  0.00     0.162 A 
ATOM      4  C3  UNL d   1       4.015   1.648  -0.562  0.00  0.00    -0.034 A 
ATOM      5  C4  UNL d   1       3.288   2.840  -0.591  0.00  0.00     0.162 A 
ATOM      6  C5  UNL d   1       2.274   3.066   0.333  0.00  0.00     0.062 A 
ATOM      7  F   UNL d   1       1.582   4.214   0.299  0.00  0.00    -0.097 F 
ATOM      8  F1  UNL d   1       3.557   3.784  -1.505  0.00  0.00    -0.096 F 
ATOM      9  I   UNL d   1       5.534   1.306  -1.943  0.00  0.00    -0.060 I 
ATOM     10  F2  UNL d   1       4.385  -0.469   0.459  0.00  0.00    -0.096 F 
ATOM     11  F3  UNL d   1       2.405  -0.010   2.249  0.00  0.00    -0.097 F 
ATOM     12  F4  UNL d   1       0.997   2.326   2.179  0.00  0.00    -0.092 F 
ENDROOT
TORSDOF 0
ENDMDL
