MODEL 1
REMARK minimizedAffinity 17.3264542
REMARK minimizedRMSD -1
REMARK  0 active torsions:
REMARK  status: ('A' for Active; 'I' for Inactive)
ROOT
ATOM      1  C   UNL d   1      -2.069  -2.697   3.627  0.00  0.00     0.124 A 
ATOM      2  C1  UNL d   1      -1.754  -4.048   3.584  0.00  0.00     0.062 A 
ATOM      3  C2  UNL d   1      -0.978  -4.554   2.545  0.00  0.00     0.162 A 
ATOM      4  C3  UNL d   1      -0.510  -3.707   1.540  0.00  0.00    -0.034 A 
ATOM      5  C4  UNL d   1      -0.832  -2.350   1.589  0.00  0.00     0.162 A 
ATOM      6  C5  UNL d   1      -1.608  -1.849   2.629  0.00  0.00     0.062 A 
ATOM      7  F   UNL d   1      -1.911  -0.544   2.668  0.00  0.00    -0.097 F 
ATOM      8  F1  UNL d   1      -0.398  -1.508   0.639  0.00  0.00    -0.096 F 
ATOM      9  I   UNL d   1       0.651  -4.459  -0.015  0.00  0.00    -0.060 I 
ATOM     10  F2  UNL d   1      -0.688  -5.863   2.530  0.00  0.00    -0.096 F 
ATOM     11  F3  UNL d   1      -2.199  -4.869   4.546  0.00  0.00    -0.097 F 
ATOM     12  F4  UNL d   1      -2.817  -2.214   4.627  0.00  0.00    -0.092 F 
ENDROOT
TORSDOF 0
ENDMDL
