MODEL 1
REMARK minimizedAffinity 13.0406437
REMARK minimizedRMSD -1
REMARK  0 active torsions:
REMARK  status: ('A' for Active; 'I' for Inactive)
ROOT
ATOM      1  C   UNL d   1      -4.077  -2.811  -0.883  0.00  0.00     0.124 A 
ATOM      2  C1  UNL d   1      -4.573  -3.788  -1.735  0.00  0.00     0.062 A 
ATOM      3  C2  UNL d   1      -4.137  -3.853  -3.055  0.00  0.00     0.162 A 
ATOM      4  C3  UNL d   1      -3.199  -2.937  -3.532  0.00  0.00    -0.034 A 
ATOM      5  C4  UNL d   1      -2.706  -1.956  -2.670  0.00  0.00     0.162 A 
ATOM      6  C5  UNL d   1      -3.144  -1.896  -1.351  0.00  0.00     0.062 A 
ATOM      7  F   UNL d   1      -2.664  -0.951  -0.530  0.00  0.00    -0.097 F 
ATOM      8  F1  UNL d   1      -1.803  -1.060  -3.096  0.00  0.00    -0.096 F 
ATOM      9  I   UNL d   1      -2.546  -3.030  -5.506  0.00  0.00    -0.060 I 
ATOM     10  F2  UNL d   1      -4.633  -4.808  -3.856  0.00  0.00    -0.096 F 
ATOM     11  F3  UNL d   1      -5.475  -4.673  -1.285  0.00  0.00    -0.097 F 
ATOM     12  F4  UNL d   1      -4.499  -2.751   0.387  0.00  0.00    -0.092 F 
ENDROOT
TORSDOF 0
ENDMDL
