MODEL 1
REMARK minimizedAffinity 15.3358479
REMARK minimizedRMSD -1
REMARK  0 active torsions:
REMARK  status: ('A' for Active; 'I' for Inactive)
ROOT
ATOM      1  C   UNL d   1       3.338  -0.777   0.023  0.00  0.00     0.124 A 
ATOM      2  C1  UNL d   1       2.728  -1.970  -0.339  0.00  0.00     0.062 A 
ATOM      3  C2  UNL d   1       1.474  -2.297   0.168  0.00  0.00     0.162 A 
ATOM      4  C3  UNL d   1       0.821  -1.430   1.045  0.00  0.00    -0.034 A 
ATOM      5  C4  UNL d   1       1.441  -0.233   1.406  0.00  0.00     0.162 A 
ATOM      6  C5  UNL d   1       2.695   0.090   0.895  0.00  0.00     0.062 A 
ATOM      7  F   UNL d   1       3.283   1.243   1.247  0.00  0.00    -0.097 F 
ATOM      8  F1  UNL d   1       0.842   0.624   2.246  0.00  0.00    -0.096 F 
ATOM      9  I   UNL d   1      -1.054  -1.916   1.806  0.00  0.00    -0.060 I 
ATOM     10  F2  UNL d   1       0.908  -3.456  -0.199  0.00  0.00    -0.096 F 
ATOM     11  F3  UNL d   1       3.347  -2.809  -1.181  0.00  0.00    -0.097 F 
ATOM     12  F4  UNL d   1       4.545  -0.465  -0.466  0.00  0.00    -0.092 F 
ENDROOT
TORSDOF 0
ENDMDL
