MODEL 1
REMARK minimizedAffinity 21.3364239
REMARK minimizedRMSD -1
REMARK  0 active torsions:
REMARK  status: ('A' for Active; 'I' for Inactive)
ROOT
ATOM      1  C   UNL d   1      -3.217  -2.170  -1.301  0.00  0.00     0.124 A 
ATOM      2  C1  UNL d   1      -4.224  -2.867  -1.955  0.00  0.00     0.062 A 
ATOM      3  C2  UNL d   1      -4.030  -3.317  -3.258  0.00  0.00     0.162 A 
ATOM      4  C3  UNL d   1      -2.824  -3.074  -3.915  0.00  0.00    -0.034 A 
ATOM      5  C4  UNL d   1      -1.816  -2.372  -3.250  0.00  0.00     0.162 A 
ATOM      6  C5  UNL d   1      -2.015  -1.924  -1.949  0.00  0.00     0.062 A 
ATOM      7  F   UNL d   1      -1.041  -1.251  -1.318  0.00  0.00    -0.097 F 
ATOM      8  F1  UNL d   1      -0.645  -2.121  -3.852  0.00  0.00    -0.096 F 
ATOM      9  I   UNL d   1      -2.531  -3.746  -5.863  0.00  0.00    -0.060 I 
ATOM     10  F2  UNL d   1      -5.020  -3.987  -3.866  0.00  0.00    -0.096 F 
ATOM     11  F3  UNL d   1      -5.387  -3.105  -1.332  0.00  0.00    -0.097 F 
ATOM     12  F4  UNL d   1      -3.406  -1.737  -0.048  0.00  0.00    -0.092 F 
ENDROOT
TORSDOF 0
ENDMDL
