MODEL 1
REMARK minimizedAffinity 19.7277737
REMARK minimizedRMSD -1
REMARK  0 active torsions:
REMARK  status: ('A' for Active; 'I' for Inactive)
ROOT
ATOM      1  C   UNL d   1      -1.324  -2.262   0.968  0.00  0.00     0.124 A 
ATOM      2  C1  UNL d   1      -2.404  -1.637   0.360  0.00  0.00     0.062 A 
ATOM      3  C2  UNL d   1      -2.648  -1.824  -0.997  0.00  0.00     0.162 A 
ATOM      4  C3  UNL d   1      -1.812  -2.642  -1.757  0.00  0.00    -0.034 A 
ATOM      5  C4  UNL d   1      -0.727  -3.267  -1.139  0.00  0.00     0.162 A 
ATOM      6  C5  UNL d   1      -0.487  -3.076   0.218  0.00  0.00     0.062 A 
ATOM      7  F   UNL d   1       0.557  -3.682   0.803  0.00  0.00    -0.097 F 
ATOM      8  F1  UNL d   1       0.097  -4.060  -1.840  0.00  0.00    -0.096 F 
ATOM      9  I   UNL d   1      -2.174  -2.924  -3.787  0.00  0.00    -0.060 I 
ATOM     10  F2  UNL d   1      -3.699  -1.207  -1.558  0.00  0.00    -0.096 F 
ATOM     11  F3  UNL d   1      -3.214  -0.849   1.082  0.00  0.00    -0.097 F 
ATOM     12  F4  UNL d   1      -1.091  -2.080   2.274  0.00  0.00    -0.092 F 
ENDROOT
TORSDOF 0
ENDMDL
