MODEL 1
REMARK minimizedAffinity 18.5278378
REMARK minimizedRMSD -1
REMARK  0 active torsions:
REMARK  status: ('A' for Active; 'I' for Inactive)
ROOT
ATOM      1  C   UNL d   1       1.416   3.287   0.740  0.00  0.00     0.124 A 
ATOM      2  C1  UNL d   1       2.072   2.074   0.899  0.00  0.00     0.062 A 
ATOM      3  C2  UNL d   1       1.706   1.210   1.927  0.00  0.00     0.162 A 
ATOM      4  C3  UNL d   1       0.677   1.554   2.803  0.00  0.00    -0.034 A 
ATOM      5  C4  UNL d   1       0.022   2.776   2.637  0.00  0.00     0.162 A 
ATOM      6  C5  UNL d   1       0.392   3.636   1.608  0.00  0.00     0.062 A 
ATOM      7  F   UNL d   1      -0.243   4.807   1.456  0.00  0.00    -0.097 F 
ATOM      8  F1  UNL d   1      -0.972   3.139   3.461  0.00  0.00    -0.096 F 
ATOM      9  I   UNL d   1       0.126   0.264   4.341  0.00  0.00    -0.060 I 
ATOM     10  F2  UNL d   1       2.357   0.044   2.057  0.00  0.00    -0.096 F 
ATOM     11  F3  UNL d   1       3.063   1.734   0.062  0.00  0.00    -0.097 F 
ATOM     12  F4  UNL d   1       1.771   4.117  -0.249  0.00  0.00    -0.092 F 
ENDROOT
TORSDOF 0
ENDMDL
