MODEL 1
REMARK minimizedAffinity 13.1562309
REMARK minimizedRMSD -1
REMARK  0 active torsions:
REMARK  status: ('A' for Active; 'I' for Inactive)
ROOT
ATOM      1  C   UNL d   1      -1.083  -3.165   0.552  0.00  0.00     0.124 A 
ATOM      2  C1  UNL d   1      -0.685  -4.306  -0.131  0.00  0.00     0.062 A 
ATOM      3  C2  UNL d   1      -0.980  -4.452  -1.483  0.00  0.00     0.162 A 
ATOM      4  C3  UNL d   1      -1.675  -3.452  -2.163  0.00  0.00    -0.034 A 
ATOM      5  C4  UNL d   1      -2.073  -2.307  -1.470  0.00  0.00     0.162 A 
ATOM      6  C5  UNL d   1      -1.776  -2.167  -0.119  0.00  0.00     0.062 A 
ATOM      7  F   UNL d   1      -2.161  -1.063   0.539  0.00  0.00    -0.097 F 
ATOM      8  F1  UNL d   1      -2.743  -1.327  -2.094  0.00  0.00    -0.096 F 
ATOM      9  I   UNL d   1      -2.118  -3.666  -4.186  0.00  0.00    -0.060 I 
ATOM     10  F2  UNL d   1      -0.583  -5.565  -2.117  0.00  0.00    -0.096 F 
ATOM     11  F3  UNL d   1      -0.016  -5.272   0.515  0.00  0.00    -0.097 F 
ATOM     12  F4  UNL d   1      -0.799  -3.028   1.853  0.00  0.00    -0.092 F 
ENDROOT
TORSDOF 0
ENDMDL
