MODEL 1
REMARK minimizedAffinity 20.458971
REMARK minimizedRMSD -1
REMARK  0 active torsions:
REMARK  status: ('A' for Active; 'I' for Inactive)
ROOT
ATOM      1  C   UNL d   1       3.860  -2.732  -4.658  0.00  0.00     0.124 A 
ATOM      2  C1  UNL d   1       2.657  -2.314  -5.211  0.00  0.00     0.062 A 
ATOM      3  C2  UNL d   1       2.430  -0.962  -5.453  0.00  0.00     0.162 A 
ATOM      4  C3  UNL d   1       3.409  -0.018  -5.143  0.00  0.00    -0.034 A 
ATOM      5  C4  UNL d   1       4.615  -0.446  -4.586  0.00  0.00     0.162 A 
ATOM      6  C5  UNL d   1       4.837  -1.798  -4.346  0.00  0.00     0.062 A 
ATOM      7  F   UNL d   1       5.999  -2.200  -3.811  0.00  0.00    -0.097 F 
ATOM      8  F1  UNL d   1       5.578   0.436  -4.275  0.00  0.00    -0.096 F 
ATOM      9  I   UNL d   1       3.073   2.005  -5.503  0.00  0.00    -0.060 I 
ATOM     10  F2  UNL d   1       1.259  -0.587  -5.988  0.00  0.00    -0.096 F 
ATOM     11  F3  UNL d   1       1.711  -3.214  -5.513  0.00  0.00    -0.097 F 
ATOM     12  F4  UNL d   1       4.075  -4.033  -4.426  0.00  0.00    -0.092 F 
ENDROOT
TORSDOF 0
ENDMDL
