MODEL 1
REMARK minimizedAffinity 20.1540966
REMARK minimizedRMSD -1
REMARK  0 active torsions:
REMARK  status: ('A' for Active; 'I' for Inactive)
ROOT
ATOM      1  C   UNL d   1       0.046   0.531   2.791  0.00  0.00     0.124 A 
ATOM      2  C1  UNL d   1      -0.440   0.269   4.064  0.00  0.00     0.062 A 
ATOM      3  C2  UNL d   1      -1.241  -0.846   4.291  0.00  0.00     0.162 A 
ATOM      4  C3  UNL d   1      -1.560  -1.709   3.242  0.00  0.00    -0.034 A 
ATOM      5  C4  UNL d   1      -1.068  -1.438   1.964  0.00  0.00     0.162 A 
ATOM      6  C5  UNL d   1      -0.268  -0.322   1.743  0.00  0.00     0.062 A 
ATOM      7  F   UNL d   1       0.202  -0.070   0.512  0.00  0.00    -0.097 F 
ATOM      8  F1  UNL d   1      -1.355  -2.246   0.933  0.00  0.00    -0.096 F 
ATOM      9  I   UNL d   1      -2.758  -3.378   3.578  0.00  0.00    -0.060 I 
ATOM     10  F2  UNL d   1      -1.698  -1.075   5.531  0.00  0.00    -0.096 F 
ATOM     11  F3  UNL d   1      -0.139   1.092   5.078  0.00  0.00    -0.097 F 
ATOM     12  F4  UNL d   1       0.816   1.606   2.575  0.00  0.00    -0.092 F 
ENDROOT
TORSDOF 0
ENDMDL
