MODEL 1
REMARK minimizedAffinity 15.767972
REMARK minimizedRMSD -1
REMARK  0 active torsions:
REMARK  status: ('A' for Active; 'I' for Inactive)
ROOT
ATOM      1  N1  IND d   1      -2.140  -4.554  -4.580  0.00  0.00    -0.196 N 
ATOM      2  C2  IND d   1      -2.340  -5.345  -5.677  0.00  0.00     0.054 A 
ATOM      3  C3  IND d   1      -1.201  -5.999  -5.999  0.00  0.00    -0.031 A 
ATOM      4  C4  IND d   1       1.079  -5.999  -4.802  0.00  0.00     0.051 A 
ATOM      5  C5  IND d   1       1.756  -5.404  -3.776  0.00  0.00    -0.031 A 
ATOM      6  C6  IND d   1       1.157  -4.478  -2.947  0.00  0.00     0.015 A 
ATOM      7  C7  IND d   1      -0.152  -4.120  -3.107  0.00  0.00    -0.016 A 
ATOM      8  C8  IND d   1      -0.841  -4.717  -4.152  0.00  0.00    -0.047 A 
ATOM      9  C9  IND d   1      -0.226  -5.626  -5.023  0.00  0.00    -0.096 A 
ATOM     10  HN1 IND d   1      -2.728  -4.041  -4.218  0.00  0.00     0.298 HD
ENDROOT
TORSDOF 0
ENDMDL
