MODEL 1
REMARK minimizedAffinity 17.0203609
REMARK minimizedRMSD -1
REMARK  0 active torsions:
REMARK  status: ('A' for Active; 'I' for Inactive)
ROOT
ATOM      1  N1  IND d   1      -2.943   5.746  -2.825  0.00  0.00    -0.196 N 
ATOM      2  C2  IND d   1      -3.256   5.530  -1.512  0.00  0.00     0.054 A 
ATOM      3  C3  IND d   1      -2.130   5.428  -0.771  0.00  0.00    -0.031 A 
ATOM      4  C4  IND d   1       0.329   5.686  -1.487  0.00  0.00     0.051 A 
ATOM      5  C5  IND d   1       1.118   5.854  -2.591  0.00  0.00    -0.031 A 
ATOM      6  C6  IND d   1       0.582   6.000  -3.854  0.00  0.00     0.015 A 
ATOM      7  C7  IND d   1      -0.768   5.995  -4.060  0.00  0.00    -0.016 A 
ATOM      8  C8  IND d   1      -1.572   5.818  -2.943  0.00  0.00    -0.047 A 
ATOM      9  C9  IND d   1      -1.033   5.627  -1.664  0.00  0.00    -0.096 A 
ATOM     10  HN1 IND d   1      -3.507   5.824  -3.469  0.00  0.00     0.298 HD
ENDROOT
TORSDOF 0
ENDMDL
