MODEL 1
REMARK minimizedAffinity 21.0577831
REMARK minimizedRMSD -1
REMARK  0 active torsions:
REMARK  status: ('A' for Active; 'I' for Inactive)
ROOT
ATOM      1  N1  IND d   1      -1.868  -5.731  -4.709  0.00  0.00    -0.196 N 
ATOM      2  C2  IND d   1      -1.396  -5.796  -5.990  0.00  0.00     0.054 A 
ATOM      3  C3  IND d   1      -0.046  -5.731  -5.997  0.00  0.00    -0.031 A 
ATOM      4  C4  IND d   1       1.597  -5.618  -4.018  0.00  0.00     0.051 A 
ATOM      5  C5  IND d   1       1.637  -5.500  -2.657  0.00  0.00    -0.031 A 
ATOM      6  C6  IND d   1       0.488  -5.455  -1.895  0.00  0.00     0.015 A 
ATOM      7  C7  IND d   1      -0.750  -5.538  -2.467  0.00  0.00    -0.016 A 
ATOM      8  C8  IND d   1      -0.795  -5.650  -3.849  0.00  0.00    -0.047 A 
ATOM      9  C9  IND d   1       0.367  -5.654  -4.632  0.00  0.00    -0.096 A 
ATOM     10  HN1 IND d   1      -2.697  -5.738  -4.479  0.00  0.00     0.298 HD
ENDROOT
TORSDOF 0
ENDMDL
