MODEL 1
REMARK minimizedAffinity 19.5766964
REMARK minimizedRMSD -1
REMARK  0 active torsions:
REMARK  status: ('A' for Active; 'I' for Inactive)
ROOT
ATOM      1  N1  IND d   1       0.939   4.456  -0.596  0.00  0.00    -0.196 N 
ATOM      2  C2  IND d   1      -0.025   5.309  -1.057  0.00  0.00     0.054 A 
ATOM      3  C3  IND d   1      -1.164   5.161  -0.345  0.00  0.00    -0.031 A 
ATOM      4  C4  IND d   1      -1.639   3.651   1.686  0.00  0.00     0.051 A 
ATOM      5  C5  IND d   1      -1.078   2.667   2.451  0.00  0.00    -0.031 A 
ATOM      6  C6  IND d   1       0.210   2.221   2.236  0.00  0.00     0.015 A 
ATOM      7  C7  IND d   1       0.994   2.754   1.252  0.00  0.00    -0.016 A 
ATOM      8  C8  IND d   1       0.425   3.749   0.469  0.00  0.00    -0.047 A 
ATOM      9  C9  IND d   1      -0.896   4.175   0.654  0.00  0.00    -0.096 A 
ATOM     10  HN1 IND d   1       1.732   4.375  -0.918  0.00  0.00     0.298 HD
ENDROOT
TORSDOF 0
ENDMDL
