MODEL 1
REMARK minimizedAffinity 11.1575012
REMARK minimizedRMSD -1
REMARK  0 active torsions:
REMARK  status: ('A' for Active; 'I' for Inactive)
ROOT
ATOM      1  N1  IND d   1       2.999   4.928   2.309  0.00  0.00    -0.196 N 
ATOM      2  C2  IND d   1       3.133   3.791   3.056  0.00  0.00     0.054 A 
ATOM      3  C3  IND d   1       2.181   2.892   2.718  0.00  0.00    -0.031 A 
ATOM      4  C4  IND d   1       0.367   3.036   0.897  0.00  0.00     0.051 A 
ATOM      5  C5  IND d   1      -0.172   3.893  -0.020  0.00  0.00    -0.031 A 
ATOM      6  C6  IND d   1       0.329   5.164  -0.214  0.00  0.00     0.015 A 
ATOM      7  C7  IND d   1       1.401   5.623   0.498  0.00  0.00    -0.016 A 
ATOM      8  C8  IND d   1       1.947   4.757   1.435  0.00  0.00    -0.047 A 
ATOM      9  C9  IND d   1       1.416   3.482   1.666  0.00  0.00    -0.096 A 
ATOM     10  HN1 IND d   1       3.489   5.632   2.373  0.00  0.00     0.298 HD
ENDROOT
TORSDOF 0
ENDMDL
