MODEL 1
REMARK minimizedAffinity 22.0058899
REMARK minimizedRMSD -1
REMARK  0 active torsions:
REMARK  status: ('A' for Active; 'I' for Inactive)
ROOT
ATOM      1  N1  IND d   1       1.444   4.682  -0.049  0.00  0.00    -0.196 N 
ATOM      2  C2  IND d   1       0.640   5.628  -0.622  0.00  0.00     0.054 A 
ATOM      3  C3  IND d   1      -0.658   5.365  -0.354  0.00  0.00    -0.031 A 
ATOM      4  C4  IND d   1      -1.686   3.497   1.089  0.00  0.00     0.051 A 
ATOM      5  C5  IND d   1      -1.355   2.371   1.789  0.00  0.00    -0.031 A 
ATOM      6  C6  IND d   1      -0.047   1.951   1.917  0.00  0.00     0.015 A 
ATOM      7  C7  IND d   1       0.984   2.650   1.357  0.00  0.00    -0.016 A 
ATOM      8  C8  IND d   1       0.651   3.790   0.639  0.00  0.00    -0.047 A 
ATOM      9  C9  IND d   1      -0.678   4.198   0.470  0.00  0.00    -0.096 A 
ATOM     10  HN1 IND d   1       2.302   4.649  -0.109  0.00  0.00     0.298 HD
ENDROOT
TORSDOF 0
ENDMDL
