MODEL 1
REMARK minimizedAffinity 18.0813313
REMARK minimizedRMSD -1
REMARK  0 active torsions:
REMARK  status: ('A' for Active; 'I' for Inactive)
ROOT
ATOM      1  N1  IND d   1       3.978   0.520   3.561  0.00  0.00    -0.196 N 
ATOM      2  C2  IND d   1       3.819   1.738   4.161  0.00  0.00     0.054 A 
ATOM      3  C3  IND d   1       2.650   1.780   4.840  0.00  0.00    -0.031 A 
ATOM      4  C4  IND d   1       0.893  -0.070   5.185  0.00  0.00     0.051 A 
ATOM      5  C5  IND d   1       0.580  -1.344   4.802  0.00  0.00    -0.031 A 
ATOM      6  C6  IND d   1       1.402  -2.077   3.971  0.00  0.00     0.015 A 
ATOM      7  C7  IND d   1       2.578  -1.566   3.499  0.00  0.00    -0.016 A 
ATOM      8  C8  IND d   1       2.895  -0.270   3.881  0.00  0.00    -0.047 A 
ATOM      9  C9  IND d   1       2.045   0.495   4.689  0.00  0.00    -0.096 A 
ATOM     10  HN1 IND d   1       4.642   0.287   3.067  0.00  0.00     0.298 HD
ENDROOT
TORSDOF 0
ENDMDL
