MODEL 1
REMARK minimizedAffinity -2.45153117
REMARK minimizedRMSD -1
REMARK  0 active torsions:
REMARK  status: ('A' for Active; 'I' for Inactive)
ROOT
ATOM      1  C   UNL d   1       5.993  -0.510   4.715  0.00  0.00     0.023 A 
ATOM      2  C1  UNL d   1       5.990   0.488   5.690  0.00  0.00     0.003 A 
ATOM      3  C2  UNL d   1       5.992   1.833   5.314  0.00  0.00     0.048 A 
ATOM      4  C3  UNL d   1       5.996   2.173   3.962  0.00  0.00     0.023 A 
ATOM      5  C4  UNL d   1       5.999   1.178   2.983  0.00  0.00     0.048 A 
ATOM      6  C5  UNL d   1       5.997  -0.166   3.363  0.00  0.00     0.003 A 
ATOM      7  I   UNL d   1       6.000   4.174   3.400  0.00  0.00    -0.146 I 
ENDROOT
TORSDOF 0
ENDMDL
