MODEL 1
REMARK minimizedAffinity -2.83245325
REMARK minimizedRMSD -1
REMARK  0 active torsions:
REMARK  status: ('A' for Active; 'I' for Inactive)
ROOT
ATOM      1  C   UNL d   1       5.963   3.607   4.206  0.00  0.00     0.023 A 
ATOM      2  C1  UNL d   1       5.998   3.276   5.561  0.00  0.00     0.003 A 
ATOM      3  C2  UNL d   1       6.000   1.936   5.953  0.00  0.00     0.048 A 
ATOM      4  C3  UNL d   1       5.968   0.932   4.986  0.00  0.00     0.023 A 
ATOM      5  C4  UNL d   1       5.934   1.259   3.629  0.00  0.00     0.048 A 
ATOM      6  C5  UNL d   1       5.931   2.600   3.242  0.00  0.00     0.003 A 
ATOM      7  I   UNL d   1       5.971  -1.063   5.568  0.00  0.00    -0.146 I 
ENDROOT
TORSDOF 0
ENDMDL
