MODEL 1
REMARK minimizedAffinity -2.95367408
REMARK minimizedRMSD -1
REMARK  0 active torsions:
REMARK  status: ('A' for Active; 'I' for Inactive)
ROOT
ATOM      1  C   UNL d   1       5.399  -0.851   4.887  0.00  0.00     0.023 A 
ATOM      2  C1  UNL d   1       5.251  -0.328   3.602  0.00  0.00     0.003 A 
ATOM      3  C2  UNL d   1       5.423   1.040   3.379  0.00  0.00     0.048 A 
ATOM      4  C3  UNL d   1       5.743   1.879   4.446  0.00  0.00     0.023 A 
ATOM      5  C4  UNL d   1       5.893   1.361   5.733  0.00  0.00     0.048 A 
ATOM      6  C5  UNL d   1       5.719  -0.007   5.951  0.00  0.00     0.003 A 
ATOM      7  I   UNL d   1       6.000   3.915   4.117  0.00  0.00    -0.146 I 
ENDROOT
TORSDOF 0
ENDMDL
