MODEL 1
REMARK minimizedAffinity 7.4844594
REMARK minimizedRMSD -1
REMARK  0 active torsions:
REMARK  status: ('A' for Active; 'I' for Inactive)
ROOT
ATOM      1  C   UNL d   1       5.992   5.976   1.927  0.00  0.00     0.023 A 
ATOM      2  C1  UNL d   1       5.999   4.928   1.006  0.00  0.00     0.003 A 
ATOM      3  C2  UNL d   1       5.999   3.605   1.452  0.00  0.00     0.048 A 
ATOM      4  C3  UNL d   1       5.990   3.337   2.821  0.00  0.00     0.023 A 
ATOM      5  C4  UNL d   1       5.982   4.382   3.746  0.00  0.00     0.048 A 
ATOM      6  C5  UNL d   1       5.984   5.703   3.295  0.00  0.00     0.003 A 
ATOM      7  I   UNL d   1       5.990   1.368   3.487  0.00  0.00    -0.146 I 
ENDROOT
TORSDOF 0
ENDMDL
