MODEL 1
REMARK minimizedAffinity -1.40739107
REMARK minimizedRMSD -1
REMARK  0 active torsions:
REMARK  status: ('A' for Active; 'I' for Inactive)
ROOT
ATOM      1  C   UNL d   1       5.998  -1.333   5.282  0.00  0.00     0.023 A 
ATOM      2  C1  UNL d   1       5.999  -1.357   3.887  0.00  0.00     0.003 A 
ATOM      3  C2  UNL d   1       5.999  -0.161   3.167  0.00  0.00     0.048 A 
ATOM      4  C3  UNL d   1       5.999   1.056   3.847  0.00  0.00     0.023 A 
ATOM      5  C4  UNL d   1       5.998   1.085   5.243  0.00  0.00     0.048 A 
ATOM      6  C5  UNL d   1       5.998  -0.113   5.959  0.00  0.00     0.003 A 
ATOM      7  I   UNL d   1       5.999   2.837   2.777  0.00  0.00    -0.146 I 
ENDROOT
TORSDOF 0
ENDMDL
