MODEL 1
REMARK minimizedAffinity 9.85618401
REMARK minimizedRMSD -1
REMARK  0 active torsions:
REMARK  status: ('A' for Active; 'I' for Inactive)
ROOT
ATOM      1  C   UNL d   1       4.893   0.749   2.554  0.00  0.00     0.023 A 
ATOM      2  C1  UNL d   1       4.425   1.229   3.777  0.00  0.00     0.003 A 
ATOM      3  C2  UNL d   1       4.742   2.525   4.188  0.00  0.00     0.048 A 
ATOM      4  C3  UNL d   1       5.527   3.337   3.370  0.00  0.00     0.023 A 
ATOM      5  C4  UNL d   1       5.997   2.862   2.145  0.00  0.00     0.048 A 
ATOM      6  C5  UNL d   1       5.678   1.565   1.739  0.00  0.00     0.003 A 
ATOM      7  I   UNL d   1       6.000   5.267   3.979  0.00  0.00    -0.146 I 
ENDROOT
TORSDOF 0
ENDMDL
