MODEL 1
REMARK minimizedAffinity -1.92460239
REMARK minimizedRMSD -1
REMARK  0 active torsions:
REMARK  status: ('A' for Active; 'I' for Inactive)
ROOT
ATOM      1  C   UNL d   1       5.988  -1.013   5.104  0.00  0.00     0.023 A 
ATOM      2  C1  UNL d   1       5.993   0.134   5.898  0.00  0.00     0.003 A 
ATOM      3  C2  UNL d   1       5.997   1.397   5.302  0.00  0.00     0.048 A 
ATOM      4  C3  UNL d   1       5.995   1.505   3.912  0.00  0.00     0.023 A 
ATOM      5  C4  UNL d   1       5.989   0.360   3.114  0.00  0.00     0.048 A 
ATOM      6  C5  UNL d   1       5.986  -0.900   3.714  0.00  0.00     0.003 A 
ATOM      7  I   UNL d   1       6.000   3.384   3.022  0.00  0.00    -0.146 I 
ENDROOT
TORSDOF 0
ENDMDL
