MODEL 1
REMARK minimizedAffinity -1.06102693
REMARK minimizedRMSD -1
REMARK  0 active torsions:
REMARK  status: ('A' for Active; 'I' for Inactive)
ROOT
ATOM      1  C   UNL d   1       5.997  -2.012   5.361  0.00  0.00     0.023 A 
ATOM      2  C1  UNL d   1       6.000  -2.080   3.968  0.00  0.00     0.003 A 
ATOM      3  C2  UNL d   1       6.000  -0.907   3.211  0.00  0.00     0.048 A 
ATOM      4  C3  UNL d   1       5.999   0.331   3.853  0.00  0.00     0.023 A 
ATOM      5  C4  UNL d   1       5.997   0.404   5.247  0.00  0.00     0.048 A 
ATOM      6  C5  UNL d   1       5.996  -0.772   6.000  0.00  0.00     0.003 A 
ATOM      7  I   UNL d   1       6.000   2.078   2.728  0.00  0.00    -0.146 I 
ENDROOT
TORSDOF 0
ENDMDL
