MODEL 1
REMARK minimizedAffinity -0.439268678
REMARK minimizedRMSD -1
REMARK  0 active torsions:
REMARK  status: ('A' for Active; 'I' for Inactive)
ROOT
ATOM      1  C   UNL d   1       5.999  -0.554   4.885  0.00  0.00     0.023 A 
ATOM      2  C1  UNL d   1       5.997   0.617   5.643  0.00  0.00     0.003 A 
ATOM      3  C2  UNL d   1       5.996   1.861   5.009  0.00  0.00     0.048 A 
ATOM      4  C3  UNL d   1       5.995   1.927   3.616  0.00  0.00     0.023 A 
ATOM      5  C4  UNL d   1       5.996   0.758   2.853  0.00  0.00     0.048 A 
ATOM      6  C5  UNL d   1       5.998  -0.484   3.492  0.00  0.00     0.003 A 
ATOM      7  I   UNL d   1       5.993   3.777   2.669  0.00  0.00    -0.146 I 
ENDROOT
TORSDOF 0
ENDMDL
