MODEL 1
REMARK minimizedAffinity -3.29625583
REMARK minimizedRMSD -1
REMARK  0 active torsions:
REMARK  status: ('A' for Active; 'I' for Inactive)
ROOT
ATOM      1  C   UNL d   1       5.944   2.805   3.719  0.00  0.00     0.023 A 
ATOM      2  C1  UNL d   1       5.947   1.629   2.969  0.00  0.00     0.003 A 
ATOM      3  C2  UNL d   1       5.964   0.390   3.612  0.00  0.00     0.048 A 
ATOM      4  C3  UNL d   1       5.976   0.333   5.005  0.00  0.00     0.023 A 
ATOM      5  C4  UNL d   1       5.972   1.508   5.760  0.00  0.00     0.048 A 
ATOM      6  C5  UNL d   1       5.957   2.745   5.113  0.00  0.00     0.003 A 
ATOM      7  I   UNL d   1       6.000  -1.510   5.964  0.00  0.00    -0.146 I 
ENDROOT
TORSDOF 0
ENDMDL
