MODEL 1
REMARK minimizedAffinity 0.0675347373
REMARK minimizedRMSD -1
REMARK  0 active torsions:
REMARK  status: ('A' for Active; 'I' for Inactive)
ROOT
ATOM      1  C   UNL d   1       5.974   5.999   3.227  0.00  0.00     0.023 A 
ATOM      2  C1  UNL d   1       5.995   5.218   2.071  0.00  0.00     0.003 A 
ATOM      3  C2  UNL d   1       6.000   3.825   2.168  0.00  0.00     0.048 A 
ATOM      4  C3  UNL d   1       5.981   3.219   3.424  0.00  0.00     0.023 A 
ATOM      5  C4  UNL d   1       5.959   3.996   4.583  0.00  0.00     0.048 A 
ATOM      6  C5  UNL d   1       5.956   5.389   4.481  0.00  0.00     0.003 A 
ATOM      7  I   UNL d   1       5.987   1.146   3.571  0.00  0.00    -0.146 I 
ENDROOT
TORSDOF 0
ENDMDL
