MODEL 1
REMARK minimizedAffinity -2.0909605
REMARK minimizedRMSD -1
REMARK  0 active torsions:
REMARK  status: ('A' for Active; 'I' for Inactive)
ROOT
ATOM      1  C   UNL d   1       5.998   3.002   3.270  0.00  0.00     0.023 A 
ATOM      2  C1  UNL d   1       5.996   1.892   2.425  0.00  0.00     0.003 A 
ATOM      3  C2  UNL d   1       5.997   0.603   2.962  0.00  0.00     0.048 A 
ATOM      4  C3  UNL d   1       5.998   0.432   4.346  0.00  0.00     0.023 A 
ATOM      5  C4  UNL d   1       5.999   1.539   5.196  0.00  0.00     0.048 A 
ATOM      6  C5  UNL d   1       5.999   2.826   4.653  0.00  0.00     0.003 A 
ATOM      7  I   UNL d   1       5.999  -1.485   5.149  0.00  0.00    -0.146 I 
ENDROOT
TORSDOF 0
ENDMDL
