MODEL 1
REMARK minimizedAffinity -1.77332902
REMARK minimizedRMSD -1
REMARK  0 active torsions:
REMARK  status: ('A' for Active; 'I' for Inactive)
ROOT
ATOM      1  C   UNL d   1       5.754   4.038   4.436  0.00  0.00     0.023 A 
ATOM      2  C1  UNL d   1       5.647   5.420   4.277  0.00  0.00     0.003 A 
ATOM      3  C2  UNL d   1       5.717   5.985   3.002  0.00  0.00     0.048 A 
ATOM      4  C3  UNL d   1       5.893   5.161   1.890  0.00  0.00     0.023 A 
ATOM      5  C4  UNL d   1       6.000   3.778   2.044  0.00  0.00     0.048 A 
ATOM      6  C5  UNL d   1       5.930   3.219   3.321  0.00  0.00     0.003 A 
ATOM      7  I   UNL d   1       5.997   5.999  -0.009  0.00  0.00    -0.146 I 
ENDROOT
TORSDOF 0
ENDMDL
