MODEL 1
REMARK minimizedAffinity -0.621805191
REMARK minimizedRMSD -1
REMARK  0 active torsions:
REMARK  status: ('A' for Active; 'I' for Inactive)
ROOT
ATOM      1  C   UNL d   1      -1.315   0.829   0.137  0.00  0.00     0.020 A 
ATOM      2  C1  UNL d   1      -0.769   0.306   1.308  0.00  0.00     0.020 A 
ATOM      3  C2  UNL d   1       0.389  -0.472   1.251  0.00  0.00     0.034 A 
ATOM      4  C3  UNL d   1       1.004  -0.730   0.020  0.00  0.00     0.017 A 
ATOM      5  C4  UNL d   1       0.454  -0.204  -1.155  0.00  0.00     0.017 A 
ATOM      6  C5  UNL d   1      -0.705   0.575  -1.091  0.00  0.00     0.034 A 
ATOM      7 Cl   UNL d   1       1.156  -0.479  -2.710  0.00  0.00    -0.070 Cl
ATOM      8 Cl1  UNL d   1       2.434  -1.700   0.024  0.00  0.00    -0.070 Cl
ENDROOT
TORSDOF 0
ENDMDL
