MODEL 1
REMARK minimizedAffinity -0.794350386
REMARK minimizedRMSD -1
REMARK  0 active torsions:
REMARK  status: ('A' for Active; 'I' for Inactive)
ROOT
ATOM      1  C   UNL d   1       0.250   1.784   0.720  0.00  0.00     0.020 A 
ATOM      2  C1  UNL d   1       0.382   0.613   1.465  0.00  0.00     0.020 A 
ATOM      3  C2  UNL d   1       0.613  -0.603   0.819  0.00  0.00     0.034 A 
ATOM      4  C3  UNL d   1       0.713  -0.652  -0.576  0.00  0.00     0.017 A 
ATOM      5  C4  UNL d   1       0.581   0.524  -1.323  0.00  0.00     0.017 A 
ATOM      6  C5  UNL d   1       0.350   1.740  -0.671  0.00  0.00     0.034 A 
ATOM      7 Cl   UNL d   1       0.693   0.544  -3.048  0.00  0.00    -0.070 Cl
ATOM      8 Cl1  UNL d   1       1.001  -2.190  -1.308  0.00  0.00    -0.070 Cl
ENDROOT
TORSDOF 0
ENDMDL
