MODEL 1
REMARK minimizedAffinity -3.99723911
REMARK minimizedRMSD -1
REMARK  0 active torsions:
REMARK  status: ('A' for Active; 'I' for Inactive)
ROOT
ATOM      1  C   UNL d   1       1.285  -0.012  -4.055  0.00  0.00     0.020 A 
ATOM      2  C1  UNL d   1       1.474   1.350  -3.826  0.00  0.00     0.020 A 
ATOM      3  C2  UNL d   1       1.235   1.884  -2.558  0.00  0.00     0.034 A 
ATOM      4  C3  UNL d   1       0.806   1.056  -1.515  0.00  0.00     0.017 A 
ATOM      5  C4  UNL d   1       0.617  -0.311  -1.746  0.00  0.00     0.017 A 
ATOM      6  C5  UNL d   1       0.857  -0.841  -3.017  0.00  0.00     0.034 A 
ATOM      7 Cl   UNL d   1       0.088  -1.396  -0.508  0.00  0.00    -0.070 Cl
ATOM      8 Cl1  UNL d   1       0.530   1.785   0.028  0.00  0.00    -0.070 Cl
ENDROOT
TORSDOF 0
ENDMDL
