MODEL 1
REMARK minimizedAffinity -1.06306529
REMARK minimizedRMSD -1
REMARK  0 active torsions:
REMARK  status: ('A' for Active; 'I' for Inactive)
ROOT
ATOM      1  C   UNL d   1      -1.511   0.574   2.281  0.00  0.00     0.020 A 
ATOM      2  C1  UNL d   1      -2.044   0.858   1.024  0.00  0.00     0.020 A 
ATOM      3  C2  UNL d   1      -1.291   0.609  -0.126  0.00  0.00     0.034 A 
ATOM      4  C3  UNL d   1      -0.002   0.076  -0.021  0.00  0.00     0.017 A 
ATOM      5  C4  UNL d   1       0.532  -0.209   1.241  0.00  0.00     0.017 A 
ATOM      6  C5  UNL d   1      -0.226   0.042   2.389  0.00  0.00     0.034 A 
ATOM      7 Cl   UNL d   1       2.116  -0.869   1.450  0.00  0.00    -0.070 Cl
ATOM      8 Cl1  UNL d   1       0.872  -0.207  -1.485  0.00  0.00    -0.070 Cl
ENDROOT
TORSDOF 0
ENDMDL
