MODEL 1
REMARK minimizedAffinity -2.29438972
REMARK minimizedRMSD -1
REMARK  0 active torsions:
REMARK  status: ('A' for Active; 'I' for Inactive)
ROOT
ATOM      1  C   UNL d   1       0.160  -0.072  -1.782  0.00  0.00     0.020 A 
ATOM      2  C1  UNL d   1      -1.150   0.320  -1.506  0.00  0.00     0.020 A 
ATOM      3  C2  UNL d   1      -1.604   0.355  -0.186  0.00  0.00     0.034 A 
ATOM      4  C3  UNL d   1      -0.748  -0.000   0.863  0.00  0.00     0.017 A 
ATOM      5  C4  UNL d   1       0.567  -0.393   0.585  0.00  0.00     0.017 A 
ATOM      6  C5  UNL d   1       1.016  -0.427  -0.739  0.00  0.00     0.034 A 
ATOM      7 Cl   UNL d   1       1.681  -0.846   1.825  0.00  0.00    -0.070 Cl
ATOM      8 Cl1  UNL d   1      -1.376   0.067   2.471  0.00  0.00    -0.070 Cl
ENDROOT
TORSDOF 0
ENDMDL
