MODEL 1
REMARK minimizedAffinity 0.296259642
REMARK minimizedRMSD -1
REMARK  0 active torsions:
REMARK  status: ('A' for Active; 'I' for Inactive)
ROOT
ATOM      1  C   UNL d   1       4.862   0.612   2.629  0.00  0.00     0.020 A 
ATOM      2  C1  UNL d   1       5.821   0.567   3.641  0.00  0.00     0.020 A 
ATOM      3  C2  UNL d   1       5.998   1.666   4.484  0.00  0.00     0.034 A 
ATOM      4  C3  UNL d   1       5.215   2.814   4.318  0.00  0.00     0.017 A 
ATOM      5  C4  UNL d   1       4.253   2.858   3.302  0.00  0.00     0.017 A 
ATOM      6  C5  UNL d   1       4.080   1.755   2.460  0.00  0.00     0.034 A 
ATOM      7 Cl   UNL d   1       3.249   4.240   3.035  0.00  0.00    -0.070 Cl
ATOM      8 Cl1  UNL d   1       5.487   4.136   5.397  0.00  0.00    -0.070 Cl
ENDROOT
TORSDOF 0
ENDMDL
