MODEL 1
REMARK minimizedAffinity -4.13083982
REMARK minimizedRMSD -1
REMARK  0 active torsions:
REMARK  status: ('A' for Active; 'I' for Inactive)
ROOT
ATOM      1  C   UNL d   1      -1.457   1.311   1.825  0.00  0.00     0.020 A 
ATOM      2  C1  UNL d   1      -2.036   0.548   0.812  0.00  0.00     0.020 A 
ATOM      3  C2  UNL d   1      -1.267  -0.389   0.118  0.00  0.00     0.034 A 
ATOM      4  C3  UNL d   1       0.084  -0.565   0.436  0.00  0.00     0.017 A 
ATOM      5  C4  UNL d   1       0.665   0.202   1.453  0.00  0.00     0.017 A 
ATOM      6  C5  UNL d   1      -0.109   1.138   2.145  0.00  0.00     0.034 A 
ATOM      7 Cl   UNL d   1       2.326   0.041   1.902  0.00  0.00    -0.070 Cl
ATOM      8 Cl1  UNL d   1       0.975  -1.742  -0.464  0.00  0.00    -0.070 Cl
ENDROOT
TORSDOF 0
ENDMDL
