MODEL 1
REMARK minimizedAffinity -4.07580662
REMARK minimizedRMSD -1
REMARK  0 active torsions:
REMARK  status: ('A' for Active; 'I' for Inactive)
ROOT
ATOM      1  C   UNL d   1       0.603   1.530   2.496  0.00  0.00     0.020 A 
ATOM      2  C1  UNL d   1      -0.660   1.236   3.008  0.00  0.00     0.020 A 
ATOM      3  C2  UNL d   1      -1.591   0.555   2.221  0.00  0.00     0.034 A 
ATOM      4  C3  UNL d   1      -1.260   0.166   0.918  0.00  0.00     0.017 A 
ATOM      5  C4  UNL d   1       0.008   0.462   0.405  0.00  0.00     0.017 A 
ATOM      6  C5  UNL d   1       0.936   1.144   1.198  0.00  0.00     0.034 A 
ATOM      7 Cl   UNL d   1       0.489   0.014  -1.194  0.00  0.00    -0.070 Cl
ATOM      8 Cl1  UNL d   1      -2.460  -0.673   0.001  0.00  0.00    -0.070 Cl
ENDROOT
TORSDOF 0
ENDMDL
