MODEL 1
REMARK minimizedAffinity -0.434450477
REMARK minimizedRMSD -1
REMARK  2 active torsions:
REMARK  status: ('A' for Active; 'I' for Inactive)
REMARK    1  A    between atoms: C2'_3  and  C1'_4 
REMARK    2  A    between atoms: C1'_4  and  C1_5 
ROOT
ATOM      1  C1  I4B d   1       0.864   2.109  -0.530  0.00  0.00    -0.075 A 
ATOM      2  C2  I4B d   1       1.206   3.073  -1.445  0.00  0.00     0.003 A 
ATOM      3  C3  I4B d   1       1.570   4.371  -1.012  0.00  0.00     0.002 A 
ATOM      4  C4  I4B d   1       1.530   4.673   0.334  0.00  0.00    -0.004 A 
ATOM      5  C5  I4B d   1       1.205   3.688   1.262  0.00  0.00     0.002 A 
ATOM      6  C6  I4B d   1       0.882   2.394   0.829  0.00  0.00     0.003 A 
ENDROOT
BRANCH   1   7
ATOM      7  C1' I4B d   1       0.452   0.759  -1.025  0.00  0.00     0.060 C 
BRANCH   7   8
ATOM      8  C2' I4B d   1       1.687   0.062  -1.561  0.00  0.00    -0.013 C 
ATOM      9  C4' I4B d   1       2.546  -0.462  -0.440  0.00  0.00     0.013 C 
ATOM     10  C3' I4B d   1       1.237  -1.048  -2.463  0.00  0.00     0.013 C 
ENDBRANCH   7   8
ENDBRANCH   1   7
TORSDOF 2
ENDMDL
