MODEL 1
REMARK minimizedAffinity -1.26028931
REMARK minimizedRMSD -1
REMARK  2 active torsions:
REMARK  status: ('A' for Active; 'I' for Inactive)
REMARK    1  A    between atoms: C2'_3  and  C1'_4 
REMARK    2  A    between atoms: C1'_4  and  C1_5 
ROOT
ATOM      1  C1  I4B d   1       1.102   1.924   0.673  0.00  0.00    -0.075 A 
ATOM      2  C2  I4B d   1       1.243   0.714   0.041  0.00  0.00     0.003 A 
ATOM      3  C3  I4B d   1       1.492   0.663  -1.352  0.00  0.00     0.002 A 
ATOM      4  C4  I4B d   1       1.541   1.836  -2.078  0.00  0.00    -0.004 A 
ATOM      5  C5  I4B d   1       1.419   3.062  -1.431  0.00  0.00     0.002 A 
ATOM      6  C6  I4B d   1       1.211   3.108  -0.045  0.00  0.00     0.003 A 
ENDROOT
BRANCH   1   7
ATOM      7  C1' I4B d   1       0.807   1.941   2.139  0.00  0.00     0.060 C 
BRANCH   7   8
ATOM      8  C2' I4B d   1       2.127   2.002   2.880  0.00  0.00    -0.013 C 
ATOM      9  C4' I4B d   1       2.265   3.292   3.644  0.00  0.00     0.013 C 
ATOM     10  C3' I4B d   1       2.197   0.819   3.799  0.00  0.00     0.013 C 
ENDBRANCH   7   8
ENDBRANCH   1   7
TORSDOF 2
ENDMDL
