MODEL 1
REMARK minimizedAffinity -1.73927402
REMARK minimizedRMSD -1
REMARK  2 active torsions:
REMARK  status: ('A' for Active; 'I' for Inactive)
REMARK    1  A    between atoms: C2'_3  and  C1'_4 
REMARK    2  A    between atoms: C1'_4  and  C1_5 
ROOT
ATOM      1  C1  I4B d   1       1.015   2.360  -0.888  0.00  0.00    -0.075 A 
ATOM      2  C2  I4B d   1       0.739   1.912   0.380  0.00  0.00     0.003 A 
ATOM      3  C3  I4B d   1       0.922   0.548   0.710  0.00  0.00     0.002 A 
ATOM      4  C4  I4B d   1       1.331  -0.338  -0.266  0.00  0.00    -0.004 A 
ATOM      5  C5  I4B d   1       1.633   0.121  -1.544  0.00  0.00     0.002 A 
ATOM      6  C6  I4B d   1       1.486   1.481  -1.855  0.00  0.00     0.003 A 
ENDROOT
BRANCH   1   7
ATOM      7  C1' I4B d   1       0.780   3.801  -1.211  0.00  0.00     0.060 C 
BRANCH   7   8
ATOM      8  C2' I4B d   1       1.761   4.627  -0.404  0.00  0.00    -0.013 C 
ATOM      9  C4' I4B d   1       1.935   6.000  -0.998  0.00  0.00     0.013 C 
ATOM     10  C3' I4B d   1       1.251   4.706   1.004  0.00  0.00     0.013 C 
ENDBRANCH   7   8
ENDBRANCH   1   7
TORSDOF 2
ENDMDL
