MODEL 1
REMARK minimizedAffinity 3.40681815
REMARK minimizedRMSD -1
REMARK  2 active torsions:
REMARK  status: ('A' for Active; 'I' for Inactive)
REMARK    1  A    between atoms: C2'_3  and  C1'_4 
REMARK    2  A    between atoms: C1'_4  and  C1_5 
ROOT
ATOM      1  C1  I4B d   1       0.893   2.726  -0.848  0.00  0.00    -0.075 A 
ATOM      2  C2  I4B d   1       1.411   3.709  -1.654  0.00  0.00     0.003 A 
ATOM      3  C3  I4B d   1       1.828   4.943  -1.096  0.00  0.00     0.002 A 
ATOM      4  C4  I4B d   1       1.662   5.168   0.255  0.00  0.00    -0.004 A 
ATOM      5  C5  I4B d   1       1.158   4.162   1.074  0.00  0.00     0.002 A 
ATOM      6  C6  I4B d   1       0.783   2.928   0.522  0.00  0.00     0.003 A 
ENDROOT
BRANCH   1   7
ATOM      7  C1' I4B d   1       0.433   1.449  -1.475  0.00  0.00     0.060 C 
BRANCH   7   8
ATOM      8  C2' I4B d   1       1.427   0.365  -1.110  0.00  0.00    -0.013 C 
ATOM      9  C4' I4B d   1       1.898   0.513   0.313  0.00  0.00     0.013 C 
ATOM     10  C3' I4B d   1       0.765  -0.963  -1.325  0.00  0.00     0.013 C 
ENDBRANCH   7   8
ENDBRANCH   1   7
TORSDOF 2
ENDMDL
