MODEL 1
REMARK minimizedAffinity -1.1267103
REMARK minimizedRMSD -1
REMARK  2 active torsions:
REMARK  status: ('A' for Active; 'I' for Inactive)
REMARK    1  A    between atoms: C2'_3  and  C1'_4 
REMARK    2  A    between atoms: C1'_4  and  C1_5 
ROOT
ATOM      1  C1  I4B d   1       0.696   1.273  -0.409  0.00  0.00    -0.075 A 
ATOM      2  C2  I4B d   1       0.423   1.764   0.843  0.00  0.00     0.003 A 
ATOM      3  C3  I4B d   1       0.538   3.151   1.106  0.00  0.00     0.002 A 
ATOM      4  C4  I4B d   1       0.975   3.997   0.107  0.00  0.00    -0.004 A 
ATOM      5  C5  I4B d   1       1.230   3.501  -1.168  0.00  0.00     0.002 A 
ATOM      6  C6  I4B d   1       1.077   2.132  -1.431  0.00  0.00     0.003 A 
ENDROOT
BRANCH   1   7
ATOM      7  C1' I4B d   1       0.596  -0.201  -0.642  0.00  0.00     0.060 C 
BRANCH   7   8
ATOM      8  C2' I4B d   1       1.423  -0.899   0.418  0.00  0.00    -0.013 C 
ATOM      9  C4' I4B d   1       0.920  -2.296   0.670  0.00  0.00     0.013 C 
ATOM     10  C3' I4B d   1       2.850  -0.913  -0.043  0.00  0.00     0.013 C 
ENDBRANCH   7   8
ENDBRANCH   1   7
TORSDOF 2
ENDMDL
