MODEL 1
REMARK minimizedAffinity 9.66585636
REMARK minimizedRMSD -1
REMARK  2 active torsions:
REMARK  status: ('A' for Active; 'I' for Inactive)
REMARK    1  A    between atoms: C2'_3  and  C1'_4 
REMARK    2  A    between atoms: C1'_4  and  C1_5 
ROOT
ATOM      1  C1  I4B d   1       1.551   2.693  -0.743  0.00  0.00    -0.075 A 
ATOM      2  C2  I4B d   1       1.567   3.401   0.432  0.00  0.00     0.003 A 
ATOM      3  C3  I4B d   1       1.846   4.789   0.424  0.00  0.00     0.002 A 
ATOM      4  C4  I4B d   1       2.151   5.414  -0.768  0.00  0.00    -0.004 A 
ATOM      5  C5  I4B d   1       2.112   4.699  -1.961  0.00  0.00     0.002 A 
ATOM      6  C6  I4B d   1       1.798   3.333  -1.951  0.00  0.00     0.003 A 
ENDROOT
BRANCH   1   7
ATOM      7  C1' I4B d   1       1.285   1.222  -0.694  0.00  0.00     0.060 C 
BRANCH   7   8
ATOM      8  C2' I4B d   1       0.575   0.833  -1.976  0.00  0.00    -0.013 C 
ATOM      9  C4' I4B d   1       0.622  -0.656  -2.194  0.00  0.00     0.013 C 
ATOM     10  C3' I4B d   1      -0.839   1.323  -1.889  0.00  0.00     0.013 C 
ENDBRANCH   7   8
ENDBRANCH   1   7
TORSDOF 2
ENDMDL
