MODEL 1
REMARK minimizedAffinity -2.47490001
REMARK minimizedRMSD -1
REMARK  2 active torsions:
REMARK  status: ('A' for Active; 'I' for Inactive)
REMARK    1  A    between atoms: C2'_3  and  C1'_4 
REMARK    2  A    between atoms: C1'_4  and  C1_5 
ROOT
ATOM      1  C1  I4B d   1       1.485   2.467  -1.414  0.00  0.00    -0.075 A 
ATOM      2  C2  I4B d   1       1.014   1.558  -2.328  0.00  0.00     0.003 A 
ATOM      3  C3  I4B d   1       1.136   0.169  -2.081  0.00  0.00     0.002 A 
ATOM      4  C4  I4B d   1       1.776  -0.264  -0.938  0.00  0.00    -0.004 A 
ATOM      5  C5  I4B d   1       2.232   0.659  -0.001  0.00  0.00     0.002 A 
ATOM      6  C6  I4B d   1       2.075   2.033  -0.234  0.00  0.00     0.003 A 
ENDROOT
BRANCH   1   7
ATOM      7  C1' I4B d   1       1.369   3.926  -1.722  0.00  0.00     0.060 C 
BRANCH   7   8
ATOM      8  C2' I4B d   1       2.230   4.682  -0.731  0.00  0.00    -0.013 C 
ATOM      9  C4' I4B d   1       2.687   5.999  -1.299  0.00  0.00     0.013 C 
ATOM     10  C3' I4B d   1       1.427   4.882   0.521  0.00  0.00     0.013 C 
ENDBRANCH   7   8
ENDBRANCH   1   7
TORSDOF 2
ENDMDL
