MODEL 1
REMARK minimizedAffinity 3.51156139
REMARK minimizedRMSD -1
REMARK  2 active torsions:
REMARK  status: ('A' for Active; 'I' for Inactive)
REMARK    1  A    between atoms: C2'_3  and  C1'_4 
REMARK    2  A    between atoms: C1'_4  and  C1_5 
ROOT
ATOM      1  C1  I4B d   1       0.956   2.529  -0.145  0.00  0.00    -0.075 A 
ATOM      2  C2  I4B d   1       0.597   1.872  -1.296  0.00  0.00     0.003 A 
ATOM      3  C3  I4B d   1       0.666   2.535  -2.545  0.00  0.00     0.002 A 
ATOM      4  C4  I4B d   1       1.048   3.860  -2.592  0.00  0.00    -0.004 A 
ATOM      5  C5  I4B d   1       1.433   4.517  -1.428  0.00  0.00     0.002 A 
ATOM      6  C6  I4B d   1       1.399   3.844  -0.197  0.00  0.00     0.003 A 
ENDROOT
BRANCH   1   7
ATOM      7  C1' I4B d   1       0.840   1.810   1.161  0.00  0.00     0.060 C 
BRANCH   7   8
ATOM      8  C2' I4B d   1       1.939   0.769   1.220  0.00  0.00    -0.013 C 
ATOM      9  C4' I4B d   1       2.254   0.387   2.643  0.00  0.00     0.013 C 
ATOM     10  C3' I4B d   1       1.491  -0.423   0.427  0.00  0.00     0.013 C 
ENDBRANCH   7   8
ENDBRANCH   1   7
TORSDOF 2
ENDMDL
