MODEL 1
REMARK minimizedAffinity -0.905897856
REMARK minimizedRMSD -1
REMARK  2 active torsions:
REMARK  status: ('A' for Active; 'I' for Inactive)
REMARK    1  A    between atoms: C2'_3  and  C1'_4 
REMARK    2  A    between atoms: C1'_4  and  C1_5 
ROOT
ATOM      1  C1  I4B d   1       1.122   2.108  -1.391  0.00  0.00    -0.075 A 
ATOM      2  C2  I4B d   1       1.985   1.702  -0.404  0.00  0.00     0.003 A 
ATOM      3  C3  I4B d   1       2.270   0.326  -0.227  0.00  0.00     0.002 A 
ATOM      4  C4  I4B d   1       1.635  -0.607  -1.022  0.00  0.00    -0.004 A 
ATOM      5  C5  I4B d   1       0.777  -0.192  -2.037  0.00  0.00     0.002 A 
ATOM      6  C6  I4B d   1       0.529   1.175  -2.231  0.00  0.00     0.003 A 
ENDROOT
BRANCH   1   7
ATOM      7  C1' I4B d   1       0.819   3.566  -1.528  0.00  0.00     0.060 C 
BRANCH   7   8
ATOM      8  C2' I4B d   1       1.722   4.322  -0.575  0.00  0.00    -0.013 C 
ATOM      9  C4' I4B d   1       1.956   5.732  -1.050  0.00  0.00     0.013 C 
ATOM     10  C3' I4B d   1       1.082   4.306   0.781  0.00  0.00     0.013 C 
ENDBRANCH   7   8
ENDBRANCH   1   7
TORSDOF 2
ENDMDL
