MODEL 1
REMARK minimizedAffinity 8.1899786
REMARK minimizedRMSD -1
REMARK  2 active torsions:
REMARK  status: ('A' for Active; 'I' for Inactive)
REMARK    1  A    between atoms: C2'_3  and  C1'_4 
REMARK    2  A    between atoms: C1'_4  and  C1_5 
ROOT
ATOM      1  C1  I4B d   1       1.445   2.410  -0.853  0.00  0.00    -0.075 A 
ATOM      2  C2  I4B d   1       1.275   2.482   0.507  0.00  0.00     0.003 A 
ATOM      3  C3  I4B d   1       1.270   3.739   1.159  0.00  0.00     0.002 A 
ATOM      4  C4  I4B d   1       1.486   4.887   0.423  0.00  0.00    -0.004 A 
ATOM      5  C5  I4B d   1       1.636   4.813  -0.958  0.00  0.00     0.002 A 
ATOM      6  C6  I4B d   1       1.603   3.568  -1.603  0.00  0.00     0.003 A 
ENDROOT
BRANCH   1   7
ATOM      7  C1' I4B d   1       1.479   1.064  -1.505  0.00  0.00     0.060 C 
BRANCH   7   8
ATOM      8  C2' I4B d   1       1.500   0.016  -0.411  0.00  0.00    -0.013 C 
ATOM      9  C4' I4B d   1       1.139  -1.343  -0.950  0.00  0.00     0.013 C 
ATOM     10  C3' I4B d   1       2.870   0.011   0.199  0.00  0.00     0.013 C 
ENDBRANCH   7   8
ENDBRANCH   1   7
TORSDOF 2
ENDMDL
