MODEL 1
REMARK minimizedAffinity 2.23884726
REMARK minimizedRMSD -1
REMARK  2 active torsions:
REMARK  status: ('A' for Active; 'I' for Inactive)
REMARK    1  A    between atoms: C2'_3  and  C1'_4 
REMARK    2  A    between atoms: C1'_4  and  C1_5 
ROOT
ATOM      1  C1  I4B d   1       1.991   1.414  -0.532  0.00  0.00    -0.075 A 
ATOM      2  C2  I4B d   1       1.433   1.992   0.581  0.00  0.00     0.003 A 
ATOM      3  C3  I4B d   1       2.125   1.974   1.817  0.00  0.00     0.002 A 
ATOM      4  C4  I4B d   1       3.341   1.328   1.905  0.00  0.00    -0.004 A 
ATOM      5  C5  I4B d   1       3.916   0.763   0.770  0.00  0.00     0.002 A 
ATOM      6  C6  I4B d   1       3.242   0.816  -0.459  0.00  0.00     0.003 A 
ENDROOT
BRANCH   1   7
ATOM      7  C1' I4B d   1       1.218   1.422  -1.812  0.00  0.00     0.060 C 
BRANCH   7   8
ATOM      8  C2' I4B d   1       0.805  -0.004  -2.117  0.00  0.00    -0.013 C 
ATOM      9  C4' I4B d   1       1.367  -0.464  -3.436  0.00  0.00     0.013 C 
ATOM     10  C3' I4B d   1       1.280  -0.874  -0.992  0.00  0.00     0.013 C 
ENDBRANCH   7   8
ENDBRANCH   1   7
TORSDOF 2
ENDMDL
