MODEL 1
REMARK minimizedAffinity 5.66121244
REMARK minimizedRMSD -1
REMARK  2 active torsions:
REMARK  status: ('A' for Active; 'I' for Inactive)
REMARK    1  A    between atoms: C2'_3  and  C1'_4 
REMARK    2  A    between atoms: C1'_4  and  C1_5 
ROOT
ATOM      1  C1  I4B d   1       1.521   2.946  -1.585  0.00  0.00    -0.075 A 
ATOM      2  C2  I4B d   1       1.017   2.012  -2.456  0.00  0.00     0.003 A 
ATOM      3  C3  I4B d   1       1.102   0.632  -2.150  0.00  0.00     0.002 A 
ATOM      4  C4  I4B d   1       1.740   0.231  -0.994  0.00  0.00    -0.004 A 
ATOM      5  C5  I4B d   1       2.229   1.180  -0.101  0.00  0.00     0.002 A 
ATOM      6  C6  I4B d   1       2.108   2.546  -0.392  0.00  0.00     0.003 A 
ENDROOT
BRANCH   1   7
ATOM      7  C1' I4B d   1       1.443   4.393  -1.955  0.00  0.00     0.060 C 
BRANCH   7   8
ATOM      8  C2' I4B d   1       2.406   5.154  -1.067  0.00  0.00    -0.013 C 
ATOM      9  C4' I4B d   1       3.348   6.000  -1.883  0.00  0.00     0.013 C 
ATOM     10  C3' I4B d   1       1.600   5.997  -0.125  0.00  0.00     0.013 C 
ENDBRANCH   7   8
ENDBRANCH   1   7
TORSDOF 2
ENDMDL
