MODEL 1
REMARK minimizedAffinity 1.93583441
REMARK minimizedRMSD -1
REMARK  0 active torsions:
REMARK  status: ('A' for Active; 'I' for Inactive)
ROOT
ATOM      1  O1  BZF d   1      -4.088  -0.483  -0.582  0.00  0.00    -0.204 OA
ATOM      2  C2  BZF d   1      -4.121  -0.370   0.794  0.00  0.00     0.174 A 
ATOM      3  C3  BZF d   1      -2.876  -0.430   1.309  0.00  0.00    -0.012 A 
ATOM      4  C3A BZF d   1      -2.003  -0.497   0.177  0.00  0.00    -0.107 A 
ATOM      5  C4  BZF d   1      -0.646  -0.560   0.040  0.00  0.00     0.055 A 
ATOM      6  C5  BZF d   1      -0.113  -0.690  -1.203  0.00  0.00    -0.016 A 
ATOM      7  C6  BZF d   1      -0.906  -0.766  -2.329  0.00  0.00     0.022 A 
ATOM      8  C7  BZF d   1      -2.257  -0.703  -2.244  0.00  0.00     0.029 A 
ATOM      9  C7A BZF d   1      -2.798  -0.539  -0.992  0.00  0.00     0.058 A 
ENDROOT
TORSDOF 0
ENDMDL
