MODEL 1
REMARK minimizedAffinity -1.64829636
REMARK minimizedRMSD -1
REMARK  0 active torsions:
REMARK  status: ('A' for Active; 'I' for Inactive)
ROOT
ATOM      1  O1  BZF d   1      -5.236   3.747   1.942  0.00  0.00    -0.204 OA
ATOM      2  C2  BZF d   1      -5.179   4.924   1.220  0.00  0.00     0.174 A 
ATOM      3  C3  BZF d   1      -5.444   5.983   2.012  0.00  0.00    -0.012 A 
ATOM      4  C3A BZF d   1      -5.590   5.442   3.328  0.00  0.00    -0.107 A 
ATOM      5  C4  BZF d   1      -5.846   5.999   4.549  0.00  0.00     0.055 A 
ATOM      6  C5  BZF d   1      -6.000   5.185   5.627  0.00  0.00    -0.016 A 
ATOM      7  C6  BZF d   1      -5.910   3.813   5.519  0.00  0.00     0.022 A 
ATOM      8  C7  BZF d   1      -5.653   3.215   4.330  0.00  0.00     0.029 A 
ATOM      9  C7A BZF d   1      -5.464   4.036   3.245  0.00  0.00     0.058 A 
ENDROOT
TORSDOF 0
ENDMDL
