MODEL 1
REMARK minimizedAffinity 14.1340151
REMARK minimizedRMSD -1
REMARK  0 active torsions:
REMARK  status: ('A' for Active; 'I' for Inactive)
ROOT
ATOM      1  O1  BZF d   1       0.931  -0.792  -1.194  0.00  0.00    -0.204 OA
ATOM      2  C2  BZF d   1      -0.445  -0.800  -1.074  0.00  0.00     0.174 A 
ATOM      3  C3  BZF d   1      -1.030  -0.552  -2.264  0.00  0.00    -0.012 A 
ATOM      4  C3A BZF d   1       0.047  -0.470  -3.203  0.00  0.00    -0.107 A 
ATOM      5  C4  BZF d   1       0.103  -0.257  -4.551  0.00  0.00     0.055 A 
ATOM      6  C5  BZF d   1       1.317  -0.162  -5.154  0.00  0.00    -0.016 A 
ATOM      7  C6  BZF d   1       2.493  -0.269  -4.441  0.00  0.00     0.022 A 
ATOM      8  C7  BZF d   1       2.488  -0.485  -3.103  0.00  0.00     0.029 A 
ATOM      9  C7A BZF d   1       1.262  -0.615  -2.495  0.00  0.00     0.058 A 
ENDROOT
TORSDOF 0
ENDMDL
