MODEL 1
REMARK minimizedAffinity -0.523580134
REMARK minimizedRMSD -1
REMARK  0 active torsions:
REMARK  status: ('A' for Active; 'I' for Inactive)
ROOT
ATOM      1  O1  BZF d   1      -3.472   2.847   3.656  0.00  0.00    -0.204 OA
ATOM      2  C2  BZF d   1      -4.212   3.668   2.827  0.00  0.00     0.174 A 
ATOM      3  C3  BZF d   1      -4.650   2.988   1.748  0.00  0.00    -0.012 A 
ATOM      4  C3A BZF d   1      -4.230   1.637   1.959  0.00  0.00    -0.107 A 
ATOM      5  C4  BZF d   1      -4.380   0.484   1.241  0.00  0.00     0.055 A 
ATOM      6  C5  BZF d   1      -3.787  -0.654   1.688  0.00  0.00    -0.016 A 
ATOM      7  C6  BZF d   1      -3.033  -0.674   2.843  0.00  0.00     0.022 A 
ATOM      8  C7  BZF d   1      -2.860   0.443   3.591  0.00  0.00     0.029 A 
ATOM      9  C7A BZF d   1      -3.485   1.587   3.160  0.00  0.00     0.058 A 
ENDROOT
TORSDOF 0
ENDMDL
