MODEL 1
REMARK minimizedAffinity -2.09950209
REMARK minimizedRMSD -1
REMARK  0 active torsions:
REMARK  status: ('A' for Active; 'I' for Inactive)
ROOT
ATOM      1  O1  BZF d   1      -3.872   4.630   2.436  0.00  0.00    -0.204 OA
ATOM      2  C2  BZF d   1      -4.978   5.322   1.983  0.00  0.00     0.174 A 
ATOM      3  C3  BZF d   1      -6.000   5.215   2.857  0.00  0.00    -0.012 A 
ATOM      4  C3A BZF d   1      -5.471   4.482   3.966  0.00  0.00    -0.107 A 
ATOM      5  C4  BZF d   1      -5.998   4.071   5.157  0.00  0.00     0.055 A 
ATOM      6  C5  BZF d   1      -5.239   3.310   5.988  0.00  0.00    -0.016 A 
ATOM      7  C6  BZF d   1      -3.952   2.938   5.658  0.00  0.00     0.022 A 
ATOM      8  C7  BZF d   1      -3.384   3.326   4.491  0.00  0.00     0.029 A 
ATOM      9  C7A BZF d   1      -4.137   4.122   3.664  0.00  0.00     0.058 A 
ENDROOT
TORSDOF 0
ENDMDL
