MODEL 1
REMARK minimizedAffinity -3.21052504
REMARK minimizedRMSD -1
REMARK  0 active torsions:
REMARK  status: ('A' for Active; 'I' for Inactive)
ROOT
ATOM      1  O1  BZF d   1      -5.986   2.670   4.711  0.00  0.00    -0.204 OA
ATOM      2  C2  BZF d   1      -5.997   3.177   5.996  0.00  0.00     0.174 A 
ATOM      3  C3  BZF d   1      -5.661   4.483   5.998  0.00  0.00    -0.012 A 
ATOM      4  C3A BZF d   1      -5.516   4.836   4.619  0.00  0.00    -0.107 A 
ATOM      5  C4  BZF d   1      -5.206   6.000   3.976  0.00  0.00     0.055 A 
ATOM      6  C5  BZF d   1      -5.072   5.992   2.624  0.00  0.00    -0.016 A 
ATOM      7  C6  BZF d   1      -5.235   4.838   1.885  0.00  0.00     0.022 A 
ATOM      8  C7  BZF d   1      -5.548   3.660   2.478  0.00  0.00     0.029 A 
ATOM      9  C7A BZF d   1      -5.716   3.672   3.841  0.00  0.00     0.058 A 
ENDROOT
TORSDOF 0
ENDMDL
