MODEL 1
REMARK minimizedAffinity 9.77998924
REMARK minimizedRMSD -1
REMARK  0 active torsions:
REMARK  status: ('A' for Active; 'I' for Inactive)
ROOT
ATOM      1  O1  BZF d   1       3.000   1.449   1.839  0.00  0.00    -0.204 OA
ATOM      2  C2  BZF d   1       3.091   2.756   2.276  0.00  0.00     0.174 A 
ATOM      3  C3  BZF d   1       2.675   2.863   3.555  0.00  0.00    -0.012 A 
ATOM      4  C3A BZF d   1       2.389   1.524   3.970  0.00  0.00    -0.107 A 
ATOM      5  C4  BZF d   1       1.952   0.978   5.143  0.00  0.00     0.055 A 
ATOM      6  C5  BZF d   1       1.702  -0.357   5.197  0.00  0.00    -0.016 A 
ATOM      7  C6  BZF d   1       1.872  -1.173   4.098  0.00  0.00     0.022 A 
ATOM      8  C7  BZF d   1       2.309  -0.678   2.915  0.00  0.00     0.029 A 
ATOM      9  C7A BZF d   1       2.594   0.665   2.866  0.00  0.00     0.058 A 
ENDROOT
TORSDOF 0
ENDMDL
