MODEL 1
REMARK minimizedAffinity 6.07509661
REMARK minimizedRMSD -1
REMARK  0 active torsions:
REMARK  status: ('A' for Active; 'I' for Inactive)
ROOT
ATOM      1  O1  BZF d   1       1.819  -0.483  -2.346  0.00  0.00    -0.204 OA
ATOM      2  C2  BZF d   1       3.110  -0.896  -2.613  0.00  0.00     0.174 A 
ATOM      3  C3  BZF d   1       3.397  -0.753  -3.923  0.00  0.00    -0.012 A 
ATOM      4  C3A BZF d   1       2.242  -0.132  -4.495  0.00  0.00    -0.107 A 
ATOM      5  C4  BZF d   1       1.927   0.280  -5.758  0.00  0.00     0.055 A 
ATOM      6  C5  BZF d   1       0.687   0.782  -5.999  0.00  0.00    -0.016 A 
ATOM      7  C6  BZF d   1      -0.262   0.881  -5.003  0.00  0.00     0.022 A 
ATOM      8  C7  BZF d   1       0.006   0.490  -3.733  0.00  0.00     0.029 A 
ATOM      9  C7A BZF d   1       1.269   0.013  -3.480  0.00  0.00     0.058 A 
ENDROOT
TORSDOF 0
ENDMDL
