MODEL 1
REMARK minimizedAffinity 2.45273972
REMARK minimizedRMSD -1
REMARK  0 active torsions:
REMARK  status: ('A' for Active; 'I' for Inactive)
ROOT
ATOM      1  O1  BZF d   1      -5.837   3.840   1.941  0.00  0.00    -0.204 OA
ATOM      2  C2  BZF d   1      -5.852   5.152   1.508  0.00  0.00     0.174 A 
ATOM      3  C3  BZF d   1      -5.963   5.999   2.551  0.00  0.00    -0.012 A 
ATOM      4  C3A BZF d   1      -5.929   5.168   3.716  0.00  0.00    -0.107 A 
ATOM      5  C4  BZF d   1      -5.983   5.427   5.056  0.00  0.00     0.055 A 
ATOM      6  C5  BZF d   1      -5.999   4.386   5.929  0.00  0.00    -0.016 A 
ATOM      7  C6  BZF d   1      -5.969   3.076   5.498  0.00  0.00     0.022 A 
ATOM      8  C7  BZF d   1      -5.910   2.769   4.179  0.00  0.00     0.029 A 
ATOM      9  C7A BZF d   1      -5.859   3.820   3.295  0.00  0.00     0.058 A 
ENDROOT
TORSDOF 0
ENDMDL
