MODEL 1
REMARK minimizedAffinity -2.73054123
REMARK minimizedRMSD -1
REMARK  0 active torsions:
REMARK  status: ('A' for Active; 'I' for Inactive)
ROOT
ATOM      1  O1  BZF d   1      -5.323   3.882   2.109  0.00  0.00    -0.204 OA
ATOM      2  C2  BZF d   1      -5.636   5.086   1.509  0.00  0.00     0.174 A 
ATOM      3  C3  BZF d   1      -6.000   6.000   2.432  0.00  0.00    -0.012 A 
ATOM      4  C3A BZF d   1      -5.819   5.352   3.695  0.00  0.00    -0.107 A 
ATOM      5  C4  BZF d   1      -5.998   5.751   4.988  0.00  0.00     0.055 A 
ATOM      6  C5  BZF d   1      -5.802   4.853   5.989  0.00  0.00    -0.016 A 
ATOM      7  C6  BZF d   1      -5.433   3.549   5.733  0.00  0.00     0.022 A 
ATOM      8  C7  BZF d   1      -5.238   3.108   4.466  0.00  0.00     0.029 A 
ATOM      9  C7A BZF d   1      -5.403   4.022   3.454  0.00  0.00     0.058 A 
ENDROOT
TORSDOF 0
ENDMDL
