MODEL 1
REMARK minimizedAffinity -4.00479412
REMARK minimizedRMSD -1
REMARK  0 active torsions:
REMARK  status: ('A' for Active; 'I' for Inactive)
ROOT
ATOM      1  O1  BZF d   1      -6.000   2.628   4.610  0.00  0.00    -0.204 OA
ATOM      2  C2  BZF d   1      -5.832   3.021   5.924  0.00  0.00     0.174 A 
ATOM      3  C3  BZF d   1      -5.339   4.275   5.989  0.00  0.00    -0.012 A 
ATOM      4  C3A BZF d   1      -5.276   4.725   4.633  0.00  0.00    -0.107 A 
ATOM      5  C4  BZF d   1      -4.885   5.897   4.050  0.00  0.00     0.055 A 
ATOM      6  C5  BZF d   1      -4.875   5.989   2.694  0.00  0.00    -0.016 A 
ATOM      7  C6  BZF d   1      -5.245   4.929   1.892  0.00  0.00     0.022 A 
ATOM      8  C7  BZF d   1      -5.646   3.749   2.424  0.00  0.00     0.029 A 
ATOM      9  C7A BZF d   1      -5.688   3.664   3.794  0.00  0.00     0.058 A 
ENDROOT
TORSDOF 0
ENDMDL
