MODEL 1
REMARK minimizedAffinity -2.42199397
REMARK minimizedRMSD -1
REMARK  0 active torsions:
REMARK  status: ('A' for Active; 'I' for Inactive)
ROOT
ATOM      1  O1  BZF d   1      -5.303   5.909   2.439  0.00  0.00    -0.204 OA
ATOM      2  C2  BZF d   1      -4.872   4.919   1.578  0.00  0.00     0.174 A 
ATOM      3  C3  BZF d   1      -4.592   3.786   2.253  0.00  0.00    -0.012 A 
ATOM      4  C3A BZF d   1      -4.953   4.058   3.611  0.00  0.00    -0.107 A 
ATOM      5  C4  BZF d   1      -4.921   3.316   4.757  0.00  0.00     0.055 A 
ATOM      6  C5  BZF d   1      -5.274   3.901   5.932  0.00  0.00    -0.016 A 
ATOM      7  C6  BZF d   1      -5.658   5.225   5.997  0.00  0.00     0.022 A 
ATOM      8  C7  BZF d   1      -5.709   5.999   4.886  0.00  0.00     0.029 A 
ATOM      9  C7A BZF d   1      -5.385   5.402   3.693  0.00  0.00     0.058 A 
ENDROOT
TORSDOF 0
ENDMDL
