MODEL 1
REMARK minimizedAffinity -3.11489511
REMARK minimizedRMSD -1
REMARK  0 active torsions:
REMARK  status: ('A' for Active; 'I' for Inactive)
ROOT
ATOM      1  O1  BZF d   1      -6.000   6.000   3.172  0.00  0.00    -0.204 OA
ATOM      2  C2  BZF d   1      -5.940   5.537   1.872  0.00  0.00     0.174 A 
ATOM      3  C3  BZF d   1      -5.596   4.233   1.844  0.00  0.00    -0.012 A 
ATOM      4  C3A BZF d   1      -5.522   3.834   3.216  0.00  0.00    -0.107 A 
ATOM      5  C4  BZF d   1      -5.239   2.650   3.836  0.00  0.00     0.055 A 
ATOM      6  C5  BZF d   1      -5.177   2.613   5.193  0.00  0.00    -0.016 A 
ATOM      7  C6  BZF d   1      -5.387   3.740   5.960  0.00  0.00     0.022 A 
ATOM      8  C7  BZF d   1      -5.675   4.936   5.391  0.00  0.00     0.029 A 
ATOM      9  C7A BZF d   1      -5.771   4.970   4.021  0.00  0.00     0.058 A 
ENDROOT
TORSDOF 0
ENDMDL
