MODEL 1
REMARK minimizedAffinity -1.19159901
REMARK minimizedRMSD -1
REMARK  0 active torsions:
REMARK  status: ('A' for Active; 'I' for Inactive)
ROOT
ATOM      1  O1  BZF d   1      -5.809   3.256   2.443  0.00  0.00    -0.204 OA
ATOM      2  C2  BZF d   1      -5.830   4.273   1.508  0.00  0.00     0.174 A 
ATOM      3  C3  BZF d   1      -5.953   5.474   2.110  0.00  0.00    -0.012 A 
ATOM      4  C3A BZF d   1      -5.920   5.197   3.513  0.00  0.00    -0.107 A 
ATOM      5  C4  BZF d   1      -5.984   5.983   4.627  0.00  0.00     0.055 A 
ATOM      6  C5  BZF d   1      -6.000   5.394   5.852  0.00  0.00    -0.016 A 
ATOM      7  C6  BZF d   1      -5.957   4.023   5.999  0.00  0.00     0.022 A 
ATOM      8  C7  BZF d   1      -5.888   3.202   4.923  0.00  0.00     0.029 A 
ATOM      9  C7A BZF d   1      -5.839   3.795   3.685  0.00  0.00     0.058 A 
ENDROOT
TORSDOF 0
ENDMDL
