MODEL 1
REMARK minimizedAffinity -3.47913671
REMARK minimizedRMSD -1
REMARK  0 active torsions:
REMARK  status: ('A' for Active; 'I' for Inactive)
ROOT
ATOM      1  O1  BZF d   1      -5.180   4.169   6.000  0.00  0.00    -0.204 OA
ATOM      2  C2  BZF d   1      -4.986   2.801   5.993  0.00  0.00     0.174 A 
ATOM      3  C3  BZF d   1      -4.984   2.325   4.731  0.00  0.00    -0.012 A 
ATOM      4  C3A BZF d   1      -5.097   3.479   3.893  0.00  0.00    -0.107 A 
ATOM      5  C4  BZF d   1      -5.133   3.657   2.539  0.00  0.00     0.055 A 
ATOM      6  C5  BZF d   1      -5.323   4.907   2.042  0.00  0.00    -0.016 A 
ATOM      7  C6  BZF d   1      -5.486   6.000   2.868  0.00  0.00     0.022 A 
ATOM      8  C7  BZF d   1      -5.452   5.874   4.217  0.00  0.00     0.029 A 
ATOM      9  C7A BZF d   1      -5.227   4.617   4.722  0.00  0.00     0.058 A 
ENDROOT
TORSDOF 0
ENDMDL
