MODEL 1
REMARK minimizedAffinity -3.8599205
REMARK minimizedRMSD -1
REMARK  0 active torsions:
REMARK  status: ('A' for Active; 'I' for Inactive)
ROOT
ATOM      1  O1  BZF d   1      -4.806   3.972   2.147  0.00  0.00    -0.204 OA
ATOM      2  C2  BZF d   1      -5.041   5.313   1.909  0.00  0.00     0.174 A 
ATOM      3  C3  BZF d   1      -5.574   5.905   2.996  0.00  0.00    -0.012 A 
ATOM      4  C3A BZF d   1      -5.595   4.892   4.006  0.00  0.00    -0.107 A 
ATOM      5  C4  BZF d   1      -5.998   4.874   5.310  0.00  0.00     0.055 A 
ATOM      6  C5  BZF d   1      -5.953   3.703   5.999  0.00  0.00    -0.016 A 
ATOM      7  C6  BZF d   1      -5.517   2.533   5.414  0.00  0.00     0.022 A 
ATOM      8  C7  BZF d   1      -5.103   2.502   4.124  0.00  0.00     0.029 A 
ATOM      9  C7A BZF d   1      -5.115   3.690   3.435  0.00  0.00     0.058 A 
ENDROOT
TORSDOF 0
ENDMDL
