MODEL 1
REMARK minimizedAffinity -3.23400259
REMARK minimizedRMSD -1
REMARK  0 active torsions:
REMARK  status: ('A' for Active; 'I' for Inactive)
ROOT
ATOM      1  O1  BZF d   1      -5.992   4.122   2.083  0.00  0.00    -0.204 OA
ATOM      2  C2  BZF d   1      -5.622   5.439   1.891  0.00  0.00     0.174 A 
ATOM      3  C3  BZF d   1      -5.208   5.994   3.048  0.00  0.00    -0.012 A 
ATOM      4  C3A BZF d   1      -5.240   4.932   4.007  0.00  0.00    -0.107 A 
ATOM      5  C4  BZF d   1      -4.925   4.855   5.333  0.00  0.00     0.055 A 
ATOM      6  C5  BZF d   1      -5.137   3.688   5.996  0.00  0.00    -0.016 A 
ATOM      7  C6  BZF d   1      -5.667   2.581   5.365  0.00  0.00     0.022 A 
ATOM      8  C7  BZF d   1      -5.990   2.608   4.049  0.00  0.00     0.029 A 
ATOM      9  C7A BZF d   1      -5.746   3.776   3.369  0.00  0.00     0.058 A 
ENDROOT
TORSDOF 0
ENDMDL
