MODEL 1
REMARK minimizedAffinity -3.9939189
REMARK minimizedRMSD -1
REMARK  0 active torsions:
REMARK  status: ('A' for Active; 'I' for Inactive)
ROOT
ATOM      1  O1  BZF d   1      -3.378   4.227   2.739  0.00  0.00    -0.204 OA
ATOM      2  C2  BZF d   1      -4.380   4.886   2.053  0.00  0.00     0.174 A 
ATOM      3  C3  BZF d   1      -5.553   4.793   2.713  0.00  0.00    -0.012 A 
ATOM      4  C3A BZF d   1      -5.246   4.106   3.930  0.00  0.00    -0.107 A 
ATOM      5  C4  BZF d   1      -5.993   3.728   5.009  0.00  0.00     0.055 A 
ATOM      6  C5  BZF d   1      -5.405   3.008   6.000  0.00  0.00    -0.016 A 
ATOM      7  C6  BZF d   1      -4.075   2.645   5.943  0.00  0.00     0.022 A 
ATOM      8  C7  BZF d   1      -3.292   3.002   4.896  0.00  0.00     0.029 A 
ATOM      9  C7A BZF d   1      -3.875   3.758   3.908  0.00  0.00     0.058 A 
ENDROOT
TORSDOF 0
ENDMDL
