MODEL 1
REMARK minimizedAffinity -3.67243195
REMARK minimizedRMSD -1
REMARK  0 active torsions:
REMARK  status: ('A' for Active; 'I' for Inactive)
ROOT
ATOM      1  O1  BZF d   1      -6.000   5.996   2.373  0.00  0.00    -0.204 OA
ATOM      2  C2  BZF d   1      -5.854   5.325   3.572  0.00  0.00     0.174 A 
ATOM      3  C3  BZF d   1      -5.620   4.014   3.361  0.00  0.00    -0.012 A 
ATOM      4  C3A BZF d   1      -5.528   3.872   1.940  0.00  0.00    -0.107 A 
ATOM      5  C4  BZF d   1      -5.292   2.809   1.116  0.00  0.00     0.055 A 
ATOM      6  C5  BZF d   1      -5.340   2.993  -0.230  0.00  0.00    -0.016 A 
ATOM      7  C6  BZF d   1      -5.625   4.223  -0.785  0.00  0.00     0.022 A 
ATOM      8  C7  BZF d   1      -5.861   5.308  -0.008  0.00  0.00     0.029 A 
ATOM      9  C7A BZF d   1      -5.781   5.133   1.352  0.00  0.00     0.058 A 
ENDROOT
TORSDOF 0
ENDMDL
