MODEL 1
REMARK minimizedAffinity 10.8894358
REMARK minimizedRMSD -1
REMARK  0 active torsions:
REMARK  status: ('A' for Active; 'I' for Inactive)
ROOT
ATOM      1  C   UNL d   1      -2.975  -1.531  -1.291  0.00  0.00     0.023 A 
ATOM      2  C1  UNL d   1      -2.321  -0.569  -2.061  0.00  0.00     0.003 A 
ATOM      3  C2  UNL d   1      -1.188   0.076  -1.561  0.00  0.00     0.048 A 
ATOM      4  C3  UNL d   1      -0.714  -0.246  -0.289  0.00  0.00     0.023 A 
ATOM      5  C4  UNL d   1      -1.365  -1.208   0.484  0.00  0.00     0.048 A 
ATOM      6  C5  UNL d   1      -2.498  -1.850  -0.020  0.00  0.00     0.003 A 
ATOM      7  I   UNL d   1       0.972   0.713   0.458  0.00  0.00    -0.146 I 
ENDROOT
TORSDOF 0
ENDMDL
