MODEL 1
REMARK minimizedAffinity 3.58300781
REMARK minimizedRMSD -1
REMARK  0 active torsions:
REMARK  status: ('A' for Active; 'I' for Inactive)
ROOT
ATOM      1  C   UNL d   1       0.380  -5.980   1.275  0.00  0.00     0.023 A 
ATOM      2  C1  UNL d   1      -0.623  -5.992   2.245  0.00  0.00     0.003 A 
ATOM      3  C2  UNL d   1      -0.286  -5.998   3.600  0.00  0.00     0.048 A 
ATOM      4  C3  UNL d   1       1.056  -5.990   3.978  0.00  0.00     0.023 A 
ATOM      5  C4  UNL d   1       2.063  -5.977   3.012  0.00  0.00     0.048 A 
ATOM      6  C5  UNL d   1       1.721  -5.973   1.658  0.00  0.00     0.003 A 
ATOM      7  I   UNL d   1       1.560  -5.999   5.994  0.00  0.00    -0.146 I 
ENDROOT
TORSDOF 0
ENDMDL
