MODEL 1
REMARK minimizedAffinity 7.65169668
REMARK minimizedRMSD -1
REMARK  0 active torsions:
REMARK  status: ('A' for Active; 'I' for Inactive)
ROOT
ATOM      1  C   UNL d   1       0.169  -5.984   0.822  0.00  0.00     0.023 A 
ATOM      2  C1  UNL d   1      -0.831  -5.990   1.794  0.00  0.00     0.003 A 
ATOM      3  C2  UNL d   1      -0.491  -5.994   3.148  0.00  0.00     0.048 A 
ATOM      4  C3  UNL d   1       0.852  -5.992   3.524  0.00  0.00     0.023 A 
ATOM      5  C4  UNL d   1       1.857  -5.985   2.554  0.00  0.00     0.048 A 
ATOM      6  C5  UNL d   1       1.511  -5.982   1.202  0.00  0.00     0.003 A 
ATOM      7  I   UNL d   1       1.362  -5.997   5.538  0.00  0.00    -0.146 I 
ENDROOT
TORSDOF 0
ENDMDL
