MODEL 1
REMARK minimizedAffinity 2.34934211
REMARK minimizedRMSD -1
REMARK  0 active torsions:
REMARK  status: ('A' for Active; 'I' for Inactive)
ROOT
ATOM      1  C   UNL d   1       0.428  -5.994   1.324  0.00  0.00     0.023 A 
ATOM      2  C1  UNL d   1       1.801  -6.000   1.572  0.00  0.00     0.003 A 
ATOM      3  C2  UNL d   1       2.275  -6.000   2.885  0.00  0.00     0.048 A 
ATOM      4  C3  UNL d   1       1.370  -5.995   3.947  0.00  0.00     0.023 A 
ATOM      5  C4  UNL d   1      -0.005  -5.990   3.703  0.00  0.00     0.048 A 
ATOM      6  C5  UNL d   1      -0.473  -5.989   2.388  0.00  0.00     0.003 A 
ATOM      7  I   UNL d   1       2.073  -5.995   5.903  0.00  0.00    -0.146 I 
ENDROOT
TORSDOF 0
ENDMDL
