MODEL 1
REMARK minimizedAffinity 7.25295067
REMARK minimizedRMSD -1
REMARK  0 active torsions:
REMARK  status: ('A' for Active; 'I' for Inactive)
ROOT
ATOM      1  C   UNL d   1       3.012  -5.994   4.938  0.00  0.00     0.023 A 
ATOM      2  C1  UNL d   1       3.039  -5.990   3.543  0.00  0.00     0.003 A 
ATOM      3  C2  UNL d   1       1.844  -5.990   2.820  0.00  0.00     0.048 A 
ATOM      4  C3  UNL d   1       0.626  -5.994   3.499  0.00  0.00     0.023 A 
ATOM      5  C4  UNL d   1       0.593  -5.997   4.894  0.00  0.00     0.048 A 
ATOM      6  C5  UNL d   1       1.791  -5.998   5.613  0.00  0.00     0.003 A 
ATOM      7  I   UNL d   1      -1.154  -5.994   2.425  0.00  0.00    -0.146 I 
ENDROOT
TORSDOF 0
ENDMDL
