MODEL 1
REMARK minimizedAffinity 9.66961861
REMARK minimizedRMSD -1
REMARK  0 active torsions:
REMARK  status: ('A' for Active; 'I' for Inactive)
ROOT
ATOM      1  C   UNL d   1       5.420   2.545  -5.613  0.00  0.00     0.023 A 
ATOM      2  C1  UNL d   1       4.108   2.267  -5.996  0.00  0.00     0.003 A 
ATOM      3  C2  UNL d   1       3.373   1.293  -5.317  0.00  0.00     0.048 A 
ATOM      4  C3  UNL d   1       3.955   0.602  -4.255  0.00  0.00     0.023 A 
ATOM      5  C4  UNL d   1       5.268   0.877  -3.868  0.00  0.00     0.048 A 
ATOM      6  C5  UNL d   1       5.999   1.851  -4.550  0.00  0.00     0.003 A 
ATOM      7  I   UNL d   1       2.862  -0.848  -3.243  0.00  0.00    -0.146 I 
ENDROOT
TORSDOF 0
ENDMDL
