MODEL 1
REMARK minimizedAffinity 2.6846137
REMARK minimizedRMSD -1
REMARK  0 active torsions:
REMARK  status: ('A' for Active; 'I' for Inactive)
ROOT
ATOM      1  C   UNL d   1       0.234  -5.998   1.310  0.00  0.00     0.023 A 
ATOM      2  C1  UNL d   1      -0.729  -5.996   2.319  0.00  0.00     0.003 A 
ATOM      3  C2  UNL d   1      -0.339  -5.995   3.659  0.00  0.00     0.048 A 
ATOM      4  C3  UNL d   1       1.017  -5.997   3.984  0.00  0.00     0.023 A 
ATOM      5  C4  UNL d   1       1.985  -5.998   2.979  0.00  0.00     0.048 A 
ATOM      6  C5  UNL d   1       1.590  -5.999   1.640  0.00  0.00     0.003 A 
ATOM      7  I   UNL d   1       1.601  -5.996   5.979  0.00  0.00    -0.146 I 
ENDROOT
TORSDOF 0
ENDMDL
