MODEL 1
REMARK minimizedAffinity 1.66778326
REMARK minimizedRMSD -1
REMARK  0 active torsions:
REMARK  status: ('A' for Active; 'I' for Inactive)
ROOT
ATOM      1  C   UNL d   1      -4.853  -5.988   1.025  0.00  0.00     0.023 A 
ATOM      2  C1  UNL d   1      -4.700  -5.998   2.412  0.00  0.00     0.003 A 
ATOM      3  C2  UNL d   1      -3.422  -6.000   2.974  0.00  0.00     0.048 A 
ATOM      4  C3  UNL d   1      -2.301  -5.990   2.145  0.00  0.00     0.023 A 
ATOM      5  C4  UNL d   1      -2.450  -5.979   0.757  0.00  0.00     0.048 A 
ATOM      6  C5  UNL d   1      -3.729  -5.978   0.199  0.00  0.00     0.003 A 
ATOM      7  I   UNL d   1      -0.398  -5.993   2.980  0.00  0.00    -0.146 I 
ENDROOT
TORSDOF 0
ENDMDL
