MODEL 1
REMARK minimizedAffinity 8.36031628
REMARK minimizedRMSD -1
REMARK  0 active torsions:
REMARK  status: ('A' for Active; 'I' for Inactive)
ROOT
ATOM      1  C   UNL d   1       1.476  -5.534   4.397  0.00  0.00     0.023 A 
ATOM      2  C1  UNL d   1       1.728  -5.864   3.065  0.00  0.00     0.003 A 
ATOM      3  C2  UNL d   1       0.669  -5.998   2.165  0.00  0.00     0.048 A 
ATOM      4  C3  UNL d   1      -0.640  -5.799   2.604  0.00  0.00     0.023 A 
ATOM      5  C4  UNL d   1      -0.897  -5.468   3.935  0.00  0.00     0.048 A 
ATOM      6  C5  UNL d   1       0.165  -5.337   4.831  0.00  0.00     0.003 A 
ATOM      7  I   UNL d   1      -2.219  -5.998   1.266  0.00  0.00    -0.146 I 
ENDROOT
TORSDOF 0
ENDMDL
