MODEL 1
REMARK minimizedAffinity 3.18468571
REMARK minimizedRMSD -1
REMARK  0 active torsions:
REMARK  status: ('A' for Active; 'I' for Inactive)
ROOT
ATOM      1  C   UNL d   1       0.972  -5.648   3.656  0.00  0.00     0.023 A 
ATOM      2  C1  UNL d   1       1.393  -4.458   3.062  0.00  0.00     0.003 A 
ATOM      3  C2  UNL d   1       0.464  -3.616   2.448  0.00  0.00     0.048 A 
ATOM      4  C3  UNL d   1      -0.885  -3.970   2.432  0.00  0.00     0.023 A 
ATOM      5  C4  UNL d   1      -1.311  -5.159   3.026  0.00  0.00     0.048 A 
ATOM      6  C5  UNL d   1      -0.378  -5.998   3.638  0.00  0.00     0.003 A 
ATOM      7  I   UNL d   1      -2.270  -2.718   1.519  0.00  0.00    -0.146 I 
ENDROOT
TORSDOF 0
ENDMDL
