MODEL 1
REMARK minimizedAffinity 5.70818233
REMARK minimizedRMSD -1
REMARK  0 active torsions:
REMARK  status: ('A' for Active; 'I' for Inactive)
ROOT
ATOM      1  C   UNL d   1      -5.846   1.062   5.197  0.00  0.00     0.023 A 
ATOM      2  C1  UNL d   1      -5.299   1.571   4.019  0.00  0.00     0.003 A 
ATOM      3  C2  UNL d   1      -4.268   0.886   3.373  0.00  0.00     0.048 A 
ATOM      4  C3  UNL d   1      -3.788  -0.308   3.910  0.00  0.00     0.023 A 
ATOM      5  C4  UNL d   1      -4.333  -0.822   5.088  0.00  0.00     0.048 A 
ATOM      6  C5  UNL d   1      -5.363  -0.133   5.731  0.00  0.00     0.003 A 
ATOM      7  I   UNL d   1      -2.253  -1.329   2.951  0.00  0.00    -0.146 I 
ENDROOT
TORSDOF 0
ENDMDL
