MODEL 1
REMARK minimizedAffinity 1.12589717
REMARK minimizedRMSD -1
REMARK  0 active torsions:
REMARK  status: ('A' for Active; 'I' for Inactive)
ROOT
ATOM      1  C   UNL d   1       1.454  -5.996   3.325  0.00  0.00     0.023 A 
ATOM      2  C1  UNL d   1       0.394  -5.997   4.232  0.00  0.00     0.003 A 
ATOM      3  C2  UNL d   1      -0.923  -5.997   3.769  0.00  0.00     0.048 A 
ATOM      4  C3  UNL d   1      -1.173  -5.998   2.397  0.00  0.00     0.023 A 
ATOM      5  C4  UNL d   1      -0.116  -5.998   1.485  0.00  0.00     0.048 A 
ATOM      6  C5  UNL d   1       1.199  -5.996   1.954  0.00  0.00     0.003 A 
ATOM      7  I   UNL d   1      -3.133  -5.998   1.705  0.00  0.00    -0.146 I 
ENDROOT
TORSDOF 0
ENDMDL
