MODEL 1
REMARK minimizedAffinity 4.63288498
REMARK minimizedRMSD -1
REMARK  0 active torsions:
REMARK  status: ('A' for Active; 'I' for Inactive)
ROOT
ATOM      1  C   UNL d   1       1.404  -5.989   4.584  0.00  0.00     0.023 A 
ATOM      2  C1  UNL d   1       1.508  -5.988   3.193  0.00  0.00     0.003 A 
ATOM      3  C2  UNL d   1       0.355  -5.992   2.405  0.00  0.00     0.048 A 
ATOM      4  C3  UNL d   1      -0.899  -5.995   3.015  0.00  0.00     0.023 A 
ATOM      5  C4  UNL d   1      -1.008  -5.994   4.407  0.00  0.00     0.048 A 
ATOM      6  C5  UNL d   1       0.147  -5.992   5.190  0.00  0.00     0.003 A 
ATOM      7  I   UNL d   1      -2.617  -5.999   1.845  0.00  0.00    -0.146 I 
ENDROOT
TORSDOF 0
ENDMDL
