MODEL 1
REMARK minimizedAffinity 12.12008
REMARK minimizedRMSD -1
REMARK  0 active torsions:
REMARK  status: ('A' for Active; 'I' for Inactive)
ROOT
ATOM      1  C   UNL d   1      -0.818  -0.037   2.574  0.00  0.00     0.023 A 
ATOM      2  C1  UNL d   1      -1.138  -1.239   1.944  0.00  0.00     0.003 A 
ATOM      3  C2  UNL d   1      -0.568  -1.555   0.709  0.00  0.00     0.048 A 
ATOM      4  C3  UNL d   1       0.322  -0.663   0.110  0.00  0.00     0.023 A 
ATOM      5  C4  UNL d   1       0.645   0.541   0.738  0.00  0.00     0.048 A 
ATOM      6  C5  UNL d   1       0.072   0.852   1.972  0.00  0.00     0.003 A 
ATOM      7  I   UNL d   1       1.172  -1.131  -1.728  0.00  0.00    -0.146 I 
ENDROOT
TORSDOF 0
ENDMDL
