MODEL 1
REMARK minimizedAffinity 1.97151029
REMARK minimizedRMSD -1
REMARK  0 active torsions:
REMARK  status: ('A' for Active; 'I' for Inactive)
ROOT
ATOM      1  C   UNL d   1      -0.843  -5.989   1.542  0.00  0.00     0.023 A 
ATOM      2  C1  UNL d   1      -1.552  -5.993   2.743  0.00  0.00     0.003 A 
ATOM      3  C2  UNL d   1      -0.867  -5.996   3.960  0.00  0.00     0.048 A 
ATOM      4  C3  UNL d   1       0.527  -5.995   3.969  0.00  0.00     0.023 A 
ATOM      5  C4  UNL d   1       1.241  -5.990   2.769  0.00  0.00     0.048 A 
ATOM      6  C5  UNL d   1       0.552  -5.988   1.555  0.00  0.00     0.003 A 
ATOM      7  I   UNL d   1       1.549  -5.999   5.779  0.00  0.00    -0.146 I 
ENDROOT
TORSDOF 0
ENDMDL
