MODEL 1
REMARK minimizedAffinity 8.52215672
REMARK minimizedRMSD -1
REMARK  0 active torsions:
REMARK  status: ('A' for Active; 'I' for Inactive)
ROOT
ATOM      1  C   UNL d   1      -2.408  -2.410  -3.873  0.00  0.00     0.023 A 
ATOM      2  C1  UNL d   1      -2.205  -1.362  -2.976  0.00  0.00     0.003 A 
ATOM      3  C2  UNL d   1      -0.914  -0.892  -2.728  0.00  0.00     0.048 A 
ATOM      4  C3  UNL d   1       0.171  -1.475  -3.383  0.00  0.00     0.023 A 
ATOM      5  C4  UNL d   1      -0.027  -2.524  -4.283  0.00  0.00     0.048 A 
ATOM      6  C5  UNL d   1      -1.320  -2.990  -4.526  0.00  0.00     0.003 A 
ATOM      7  I   UNL d   1       2.094  -0.778  -3.017  0.00  0.00    -0.146 I 
ENDROOT
TORSDOF 0
ENDMDL
