MODEL 1
REMARK minimizedAffinity 8.47838306
REMARK minimizedRMSD -1
REMARK  2 active torsions:
REMARK  status: ('A' for Active; 'I' for Inactive)
REMARK    1  A    between atoms: C2'_3  and  C1'_4 
REMARK    2  A    between atoms: C1'_4  and  C1_5 
ROOT
ATOM      1  C1  I4B d   1      -4.647  -3.539  -4.709  0.00  0.00    -0.075 A 
ATOM      2  C2  I4B d   1      -5.201  -4.216  -5.766  0.00  0.00     0.003 A 
ATOM      3  C3  I4B d   1      -5.855  -5.454  -5.556  0.00  0.00     0.002 A 
ATOM      4  C4  I4B d   1      -5.887  -6.000  -4.289  0.00  0.00    -0.004 A 
ATOM      5  C5  I4B d   1      -5.344  -5.301  -3.214  0.00  0.00     0.002 A 
ATOM      6  C6  I4B d   1      -4.731  -4.057  -3.423  0.00  0.00     0.003 A 
ENDROOT
BRANCH   1   7
ATOM      7  C1' I4B d   1      -3.935  -2.250  -4.972  0.00  0.00     0.060 C 
BRANCH   7   8
ATOM      8  C2' I4B d   1      -4.910  -1.118  -4.715  0.00  0.00    -0.013 C 
ATOM      9  C4' I4B d   1      -4.201   0.104  -4.194  0.00  0.00     0.013 C 
ATOM     10  C3' I4B d   1      -5.624  -0.823  -6.000  0.00  0.00     0.013 C 
ENDBRANCH   7   8
ENDBRANCH   1   7
TORSDOF 2
ENDMDL
