MODEL 1
REMARK minimizedAffinity 6.88687992
REMARK minimizedRMSD -1
REMARK  2 active torsions:
REMARK  status: ('A' for Active; 'I' for Inactive)
REMARK    1  A    between atoms: C2'_3  and  C1'_4 
REMARK    2  A    between atoms: C1'_4  and  C1_5 
ROOT
ATOM      1  C1  I4B d   1      -5.409  -4.669  -3.472  0.00  0.00    -0.075 A 
ATOM      2  C2  I4B d   1      -4.398  -5.591  -3.578  0.00  0.00     0.003 A 
ATOM      3  C3  I4B d   1      -3.929  -5.991  -4.853  0.00  0.00     0.002 A 
ATOM      4  C4  I4B d   1      -4.531  -5.487  -5.987  0.00  0.00    -0.004 A 
ATOM      5  C5  I4B d   1      -5.541  -4.535  -5.878  0.00  0.00     0.002 A 
ATOM      6  C6  I4B d   1      -5.975  -4.114  -4.613  0.00  0.00     0.003 A 
ENDROOT
BRANCH   1   7
ATOM      7  C1' I4B d   1      -5.902  -4.293  -2.111  0.00  0.00     0.060 C 
BRANCH   7   8
ATOM      8  C2' I4B d   1      -5.130  -3.071  -1.656  0.00  0.00    -0.013 C 
ATOM      9  C4' I4B d   1      -5.990  -1.836  -1.699  0.00  0.00     0.013 C 
ATOM     10  C3' I4B d   1      -4.626  -3.332  -0.268  0.00  0.00     0.013 C 
ENDBRANCH   7   8
ENDBRANCH   1   7
TORSDOF 2
ENDMDL
