MODEL 1
REMARK minimizedAffinity 7.17941093
REMARK minimizedRMSD -1
REMARK  2 active torsions:
REMARK  status: ('A' for Active; 'I' for Inactive)
REMARK    1  A    between atoms: C2'_3  and  C1'_4 
REMARK    2  A    between atoms: C1'_4  and  C1_5 
ROOT
ATOM      1  C1  I4B d   1       3.588  -3.392   2.948  0.00  0.00    -0.075 A 
ATOM      2  C2  I4B d   1       3.585  -3.312   4.319  0.00  0.00     0.003 A 
ATOM      3  C3  I4B d   1       4.806  -3.217   5.029  0.00  0.00     0.002 A 
ATOM      4  C4  I4B d   1       6.000  -3.255   4.338  0.00  0.00    -0.004 A 
ATOM      5  C5  I4B d   1       6.000  -3.313   2.947  0.00  0.00     0.002 A 
ATOM      6  C6  I4B d   1       4.786  -3.369   2.247  0.00  0.00     0.003 A 
ENDROOT
BRANCH   1   7
ATOM      7  C1' I4B d   1       2.282  -3.525   2.232  0.00  0.00     0.060 C 
BRANCH   7   8
ATOM      8  C2' I4B d   1       1.306  -2.546   2.854  0.00  0.00    -0.013 C 
ATOM      9  C4' I4B d   1       0.817  -1.546   1.841  0.00  0.00     0.013 C 
ATOM     10  C3' I4B d   1       0.167  -3.333   3.432  0.00  0.00     0.013 C 
ENDBRANCH   7   8
ENDBRANCH   1   7
TORSDOF 2
ENDMDL
