MODEL 1
REMARK minimizedAffinity 4.65851068
REMARK minimizedRMSD -1
REMARK  2 active torsions:
REMARK  status: ('A' for Active; 'I' for Inactive)
REMARK    1  A    between atoms: C2'_3  and  C1'_4 
REMARK    2  A    between atoms: C1'_4  and  C1_5 
ROOT
ATOM      1  C1  I4B d   1      -5.591  -4.422  -4.045  0.00  0.00    -0.075 A 
ATOM      2  C2  I4B d   1      -5.696  -5.232  -2.942  0.00  0.00     0.003 A 
ATOM      3  C3  I4B d   1      -5.680  -4.671  -1.642  0.00  0.00     0.002 A 
ATOM      4  C4  I4B d   1      -5.507  -3.310  -1.491  0.00  0.00    -0.004 A 
ATOM      5  C5  I4B d   1      -5.423  -2.489  -2.611  0.00  0.00     0.002 A 
ATOM      6  C6  I4B d   1      -5.477  -3.046  -3.897  0.00  0.00     0.003 A 
ENDROOT
BRANCH   1   7
ATOM      7  C1' I4B d   1      -5.578  -5.051  -5.402  0.00  0.00     0.060 C 
BRANCH   7   8
ATOM      8  C2' I4B d   1      -4.136  -5.157  -5.855  0.00  0.00    -0.013 C 
ATOM      9  C4' I4B d   1      -3.508  -3.796  -5.999  0.00  0.00     0.013 C 
ATOM     10  C3' I4B d   1      -3.396  -5.991  -4.851  0.00  0.00     0.013 C 
ENDBRANCH   7   8
ENDBRANCH   1   7
TORSDOF 2
ENDMDL
