MODEL 1
REMARK minimizedAffinity 4.92361259
REMARK minimizedRMSD -1
REMARK  2 active torsions:
REMARK  status: ('A' for Active; 'I' for Inactive)
REMARK    1  A    between atoms: C2'_3  and  C1'_4 
REMARK    2  A    between atoms: C1'_4  and  C1_5 
ROOT
ATOM      1  C1  I4B d   1      -5.158  -4.646  -3.522  0.00  0.00    -0.075 A 
ATOM      2  C2  I4B d   1      -4.044  -5.431  -3.680  0.00  0.00     0.003 A 
ATOM      3  C3  I4B d   1      -3.745  -5.999  -4.942  0.00  0.00     0.002 A 
ATOM      4  C4  I4B d   1      -4.608  -5.798  -5.999  0.00  0.00    -0.004 A 
ATOM      5  C5  I4B d   1      -5.725  -4.982  -5.844  0.00  0.00     0.002 A 
ATOM      6  C6  I4B d   1      -5.996  -4.392  -4.600  0.00  0.00     0.003 A 
ENDROOT
BRANCH   1   7
ATOM      7  C1' I4B d   1      -5.462  -4.089  -2.167  0.00  0.00     0.060 C 
BRANCH   7   8
ATOM      8  C2' I4B d   1      -4.838  -2.711  -2.078  0.00  0.00    -0.013 C 
ATOM      9  C4' I4B d   1      -4.300  -2.269  -3.413  0.00  0.00     0.013 C 
ATOM     10  C3' I4B d   1      -5.883  -1.761  -1.573  0.00  0.00     0.013 C 
ENDBRANCH   7   8
ENDBRANCH   1   7
TORSDOF 2
ENDMDL
