MODEL 1
REMARK minimizedAffinity 5.39481115
REMARK minimizedRMSD -1
REMARK  2 active torsions:
REMARK  status: ('A' for Active; 'I' for Inactive)
REMARK    1  A    between atoms: C2'_3  and  C1'_4 
REMARK    2  A    between atoms: C1'_4  and  C1_5 
ROOT
ATOM      1  C1  I4B d   1      -5.063  -2.079  -2.922  0.00  0.00    -0.075 A 
ATOM      2  C2  I4B d   1      -5.207  -3.177  -2.110  0.00  0.00     0.003 A 
ATOM      3  C3  I4B d   1      -5.143  -4.481  -2.657  0.00  0.00     0.002 A 
ATOM      4  C4  I4B d   1      -4.985  -4.641  -4.019  0.00  0.00    -0.004 A 
ATOM      5  C5  I4B d   1      -4.816  -3.527  -4.837  0.00  0.00     0.002 A 
ATOM      6  C6  I4B d   1      -4.843  -2.239  -4.284  0.00  0.00     0.003 A 
ENDROOT
BRANCH   1   7
ATOM      7  C1' I4B d   1      -5.169  -0.716  -2.317  0.00  0.00     0.060 C 
BRANCH   7   8
ATOM      8  C2' I4B d   1      -4.523   0.270  -3.269  0.00  0.00    -0.013 C 
ATOM      9  C4' I4B d   1      -5.501   1.329  -3.704  0.00  0.00     0.013 C 
ATOM     10  C3' I4B d   1      -3.340   0.877  -2.575  0.00  0.00     0.013 C 
ENDBRANCH   7   8
ENDBRANCH   1   7
TORSDOF 2
ENDMDL
