MODEL 1
REMARK minimizedAffinity 12.0349121
REMARK minimizedRMSD -1
REMARK  2 active torsions:
REMARK  status: ('A' for Active; 'I' for Inactive)
REMARK    1  A    between atoms: C2'_3  and  C1'_4 
REMARK    2  A    between atoms: C1'_4  and  C1_5 
ROOT
ATOM      1  C1  I4B d   1       4.404  -6.000  -3.235  0.00  0.00    -0.075 A 
ATOM      2  C2  I4B d   1       3.129  -5.991  -3.743  0.00  0.00     0.003 A 
ATOM      3  C3  I4B d   1       2.920  -5.969  -5.143  0.00  0.00     0.002 A 
ATOM      4  C4  I4B d   1       4.006  -5.906  -5.992  0.00  0.00    -0.004 A 
ATOM      5  C5  I4B d   1       5.298  -5.938  -5.476  0.00  0.00     0.002 A 
ATOM      6  C6  I4B d   1       5.499  -5.998  -4.089  0.00  0.00     0.003 A 
ENDROOT
BRANCH   1   7
ATOM      7  C1' I4B d   1       4.589  -5.989  -1.751  0.00  0.00     0.060 C 
BRANCH   7   8
ATOM      8  C2' I4B d   1       4.430  -4.561  -1.270  0.00  0.00    -0.013 C 
ATOM      9  C4' I4B d   1       3.611  -3.748  -2.238  0.00  0.00     0.013 C 
ATOM     10  C3' I4B d   1       3.788  -4.597   0.084  0.00  0.00     0.013 C 
ENDBRANCH   7   8
ENDBRANCH   1   7
TORSDOF 2
ENDMDL
