MODEL 1
REMARK minimizedAffinity 6.05799484
REMARK minimizedRMSD -1
REMARK  0 active torsions:
REMARK  status: ('A' for Active; 'I' for Inactive)
ROOT
ATOM      1  C   UNL d   1       0.342   0.348  -1.515  0.00  0.00     0.020 A 
ATOM      2  C1  UNL d   1       1.535   0.759  -2.109  0.00  0.00     0.020 A 
ATOM      3  C2  UNL d   1       1.546   1.865  -2.960  0.00  0.00     0.034 A 
ATOM      4  C3  UNL d   1       0.362   2.565  -3.221  0.00  0.00     0.017 A 
ATOM      5  C4  UNL d   1      -0.835   2.152  -2.624  0.00  0.00     0.017 A 
ATOM      6  C5  UNL d   1      -0.840   1.043  -1.773  0.00  0.00     0.034 A 
ATOM      7 Cl   UNL d   1      -2.335   2.965  -2.897  0.00  0.00    -0.070 Cl
ATOM      8 Cl1  UNL d   1       0.450   3.925  -4.283  0.00  0.00    -0.070 Cl
ENDROOT
TORSDOF 0
ENDMDL
