MODEL 1
REMARK minimizedAffinity 7.70368338
REMARK minimizedRMSD -1
REMARK  0 active torsions:
REMARK  status: ('A' for Active; 'I' for Inactive)
ROOT
ATOM      1  C   UNL d   1       2.638  -4.404   1.481  0.00  0.00     0.020 A 
ATOM      2  C1  UNL d   1       3.124  -4.012   2.728  0.00  0.00     0.020 A 
ATOM      3  C2  UNL d   1       2.662  -2.833   3.317  0.00  0.00     0.034 A 
ATOM      4  C3  UNL d   1       1.713  -2.042   2.660  0.00  0.00     0.017 A 
ATOM      5  C4  UNL d   1       1.226  -2.437   1.409  0.00  0.00     0.017 A 
ATOM      6  C5  UNL d   1       1.691  -3.618   0.823  0.00  0.00     0.034 A 
ATOM      7 Cl   UNL d   1       0.053  -1.513   0.537  0.00  0.00    -0.070 Cl
ATOM      8 Cl1  UNL d   1       1.186  -0.598   3.449  0.00  0.00    -0.070 Cl
ENDROOT
TORSDOF 0
ENDMDL
