MODEL 1
REMARK minimizedAffinity 2.51774454
REMARK minimizedRMSD -1
REMARK  0 active torsions:
REMARK  status: ('A' for Active; 'I' for Inactive)
ROOT
ATOM      1  C   UNL d   1      -2.185   1.637  -2.093  0.00  0.00     0.020 A 
ATOM      2  C1  UNL d   1      -0.833   1.323  -1.958  0.00  0.00     0.020 A 
ATOM      3  C2  UNL d   1       0.140   2.247  -2.344  0.00  0.00     0.034 A 
ATOM      4  C3  UNL d   1      -0.237   3.489  -2.868  0.00  0.00     0.017 A 
ATOM      5  C4  UNL d   1      -1.594   3.803  -3.004  0.00  0.00     0.017 A 
ATOM      6  C5  UNL d   1      -2.564   2.874  -2.615  0.00  0.00     0.034 A 
ATOM      7 Cl   UNL d   1      -2.136   5.314  -3.642  0.00  0.00    -0.070 Cl
ATOM      8 Cl1  UNL d   1       1.020   4.583  -3.326  0.00  0.00    -0.070 Cl
ENDROOT
TORSDOF 0
ENDMDL
