MODEL 1
REMARK minimizedAffinity 11.232605
REMARK minimizedRMSD -1
REMARK  0 active torsions:
REMARK  status: ('A' for Active; 'I' for Inactive)
ROOT
ATOM      1  C   UNL d   1      -2.418   2.287  -2.418  0.00  0.00     0.020 A 
ATOM      2  C1  UNL d   1      -1.113   1.821  -2.265  0.00  0.00     0.020 A 
ATOM      3  C2  UNL d   1      -0.034   2.647  -2.586  0.00  0.00     0.034 A 
ATOM      4  C3  UNL d   1      -0.258   3.944  -3.061  0.00  0.00     0.017 A 
ATOM      5  C4  UNL d   1      -1.568   4.411  -3.214  0.00  0.00     0.017 A 
ATOM      6  C5  UNL d   1      -2.645   3.580  -2.891  0.00  0.00     0.034 A 
ATOM      7 Cl   UNL d   1      -1.924   6.000  -3.795  0.00  0.00    -0.070 Cl
ATOM      8 Cl1  UNL d   1       1.123   4.911  -3.438  0.00  0.00    -0.070 Cl
ENDROOT
TORSDOF 0
ENDMDL
