MODEL 1
REMARK minimizedAffinity 12.2366581
REMARK minimizedRMSD -1
REMARK  0 active torsions:
REMARK  status: ('A' for Active; 'I' for Inactive)
ROOT
ATOM      1  C   UNL d   1       2.126  -1.409   0.155  0.00  0.00     0.020 A 
ATOM      2  C1  UNL d   1       0.836  -1.749  -0.251  0.00  0.00     0.020 A 
ATOM      3  C2  UNL d   1      -0.187  -1.858   0.694  0.00  0.00     0.034 A 
ATOM      4  C3  UNL d   1       0.078  -1.627   2.048  0.00  0.00     0.017 A 
ATOM      5  C4  UNL d   1       1.373  -1.285   2.455  0.00  0.00     0.017 A 
ATOM      6  C5  UNL d   1       2.394  -1.177   1.505  0.00  0.00     0.034 A 
ATOM      7 Cl   UNL d   1       1.777  -0.984   4.108  0.00  0.00    -0.070 Cl
ATOM      8 Cl1  UNL d   1      -1.234  -1.779   3.161  0.00  0.00    -0.070 Cl
ENDROOT
TORSDOF 0
ENDMDL
