MODEL 1
REMARK minimizedAffinity 9.17214584
REMARK minimizedRMSD -1
REMARK  0 active torsions:
REMARK  status: ('A' for Active; 'I' for Inactive)
ROOT
ATOM      1  C   UNL d   1       0.481  -2.312   1.347  0.00  0.00     0.020 A 
ATOM      2  C1  UNL d   1       1.117  -2.082   0.128  0.00  0.00     0.020 A 
ATOM      3  C2  UNL d   1       2.511  -2.083   0.057  0.00  0.00     0.034 A 
ATOM      4  C3  UNL d   1       3.274  -2.314   1.207  0.00  0.00     0.017 A 
ATOM      5  C4  UNL d   1       2.635  -2.545   2.431  0.00  0.00     0.017 A 
ATOM      6  C5  UNL d   1       1.238  -2.543   2.496  0.00  0.00     0.034 A 
ATOM      7 Cl   UNL d   1       3.509  -2.838   3.892  0.00  0.00    -0.070 Cl
ATOM      8 Cl1  UNL d   1       4.995  -2.302   1.046  0.00  0.00    -0.070 Cl
ENDROOT
TORSDOF 0
ENDMDL
