MODEL 1
REMARK minimizedAffinity 8.02053452
REMARK minimizedRMSD -1
REMARK  0 active torsions:
REMARK  status: ('A' for Active; 'I' for Inactive)
ROOT
ATOM      1  C   UNL d   1      -5.884   4.220  -4.717  0.00  0.00     0.020 A 
ATOM      2  C1  UNL d   1      -4.927   4.958  -5.412  0.00  0.00     0.020 A 
ATOM      3  C2  UNL d   1      -3.568   4.713  -5.203  0.00  0.00     0.034 A 
ATOM      4  C3  UNL d   1      -3.163   3.728  -4.295  0.00  0.00     0.017 A 
ATOM      5  C4  UNL d   1      -4.124   2.988  -3.597  0.00  0.00     0.017 A 
ATOM      6  C5  UNL d   1      -5.483   3.237  -3.811  0.00  0.00     0.034 A 
ATOM      7 Cl   UNL d   1      -3.700   1.756  -2.462  0.00  0.00    -0.070 Cl
ATOM      8 Cl1  UNL d   1      -1.466   3.478  -4.086  0.00  0.00    -0.070 Cl
ENDROOT
TORSDOF 0
ENDMDL
