MODEL 1
REMARK minimizedAffinity 0.987258017
REMARK minimizedRMSD -1
REMARK  0 active torsions:
REMARK  status: ('A' for Active; 'I' for Inactive)
ROOT
ATOM      1  C   UNL d   1       1.143   0.533  -0.602  0.00  0.00     0.124 A 
ATOM      2  C1  UNL d   1       0.890   1.403   0.450  0.00  0.00     0.062 A 
ATOM      3  C2  UNL d   1       1.048   2.775   0.278  0.00  0.00     0.162 A 
ATOM      4  C3  UNL d   1       1.461   3.287  -0.952  0.00  0.00    -0.034 A 
ATOM      5  C4  UNL d   1       1.715   2.406  -2.005  0.00  0.00     0.162 A 
ATOM      6  C5  UNL d   1       1.555   1.036  -1.828  0.00  0.00     0.062 A 
ATOM      7  F   UNL d   1       1.800   0.197  -2.846  0.00  0.00    -0.097 F 
ATOM      8  F1  UNL d   1       2.113   2.865  -3.201  0.00  0.00    -0.096 F 
ATOM      9  I   UNL d   1       1.699   5.338  -1.213  0.00  0.00    -0.060 I 
ATOM     10  F2  UNL d   1       0.796   3.591   1.312  0.00  0.00    -0.096 F 
ATOM     11  F3  UNL d   1       0.492   0.920   1.636  0.00  0.00    -0.097 F 
ATOM     12  F4  UNL d   1       0.991  -0.787  -0.434  0.00  0.00    -0.092 F 
ENDROOT
TORSDOF 0
ENDMDL
