MODEL 1
REMARK minimizedAffinity 0.692373335
REMARK minimizedRMSD -1
REMARK  0 active torsions:
REMARK  status: ('A' for Active; 'I' for Inactive)
ROOT
ATOM      1  C   UNL d   1       1.139   0.555   0.011  0.00  0.00     0.124 A 
ATOM      2  C1  UNL d   1       1.242   0.903  -1.329  0.00  0.00     0.062 A 
ATOM      3  C2  UNL d   1       1.545   2.213  -1.690  0.00  0.00     0.162 A 
ATOM      4  C3  UNL d   1       1.748   3.185  -0.710  0.00  0.00    -0.034 A 
ATOM      5  C4  UNL d   1       1.642   2.827   0.635  0.00  0.00     0.162 A 
ATOM      6  C5  UNL d   1       1.339   1.517   0.991  0.00  0.00     0.062 A 
ATOM      7  F   UNL d   1       1.240   1.183   2.286  0.00  0.00    -0.097 F 
ATOM      8  F1  UNL d   1       1.831   3.736   1.603  0.00  0.00    -0.096 F 
ATOM      9  I   UNL d   1       2.201   5.144  -1.247  0.00  0.00    -0.060 I 
ATOM     10  F2  UNL d   1       1.638   2.521  -2.992  0.00  0.00    -0.096 F 
ATOM     11  F3  UNL d   1       1.048  -0.024  -2.277  0.00  0.00    -0.097 F 
ATOM     12  F4  UNL d   1       0.847  -0.705   0.356  0.00  0.00    -0.092 F 
ENDROOT
TORSDOF 0
ENDMDL
