MODEL 1
REMARK minimizedAffinity 0.624780416
REMARK minimizedRMSD -1
REMARK  0 active torsions:
REMARK  status: ('A' for Active; 'I' for Inactive)
ROOT
ATOM      1  C   UNL d   1       1.340   1.604  -2.554  0.00  0.00     0.124 A 
ATOM      2  C1  UNL d   1       0.941   0.364  -2.074  0.00  0.00     0.062 A 
ATOM      3  C2  UNL d   1       0.894   0.126  -0.703  0.00  0.00     0.162 A 
ATOM      4  C3  UNL d   1       1.245   1.131   0.198  0.00  0.00    -0.034 A 
ATOM      5  C4  UNL d   1       1.646   2.375  -0.292  0.00  0.00     0.162 A 
ATOM      6  C5  UNL d   1       1.692   2.608  -1.663  0.00  0.00     0.062 A 
ATOM      7  F   UNL d   1       2.078   3.806  -2.125  0.00  0.00    -0.097 F 
ATOM      8  F1  UNL d   1       1.991   3.364   0.546  0.00  0.00    -0.096 F 
ATOM      9  I   UNL d   1       1.175   0.780   2.248  0.00  0.00    -0.060 I 
ATOM     10  F2  UNL d   1       0.504  -1.081  -0.268  0.00  0.00    -0.096 F 
ATOM     11  F3  UNL d   1       0.602  -0.608  -2.933  0.00  0.00    -0.097 F 
ATOM     12  F4  UNL d   1       1.386   1.830  -3.873  0.00  0.00    -0.092 F 
ENDROOT
TORSDOF 0
ENDMDL
