MODEL 1
REMARK minimizedAffinity -0.202788055
REMARK minimizedRMSD -1
REMARK  0 active torsions:
REMARK  status: ('A' for Active; 'I' for Inactive)
ROOT
ATOM      1  C   UNL d   1       1.258   0.750   0.038  0.00  0.00     0.124 A 
ATOM      2  C1  UNL d   1       1.465   1.673   1.054  0.00  0.00     0.062 A 
ATOM      3  C2  UNL d   1       1.614   3.024   0.753  0.00  0.00     0.162 A 
ATOM      4  C3  UNL d   1       1.555   3.461  -0.570  0.00  0.00    -0.034 A 
ATOM      5  C4  UNL d   1       1.348   2.527  -1.587  0.00  0.00     0.162 A 
ATOM      6  C5  UNL d   1       1.199   1.178  -1.281  0.00  0.00     0.062 A 
ATOM      7  F   UNL d   1       0.999   0.288  -2.264  0.00  0.00    -0.097 F 
ATOM      8  F1  UNL d   1       1.286   2.913  -2.870  0.00  0.00    -0.096 F 
ATOM      9  I   UNL d   1       1.778   5.480  -1.024  0.00  0.00    -0.060 I 
ATOM     10  F2  UNL d   1       1.813   3.893   1.755  0.00  0.00    -0.096 F 
ATOM     11  F3  UNL d   1       1.522   1.262   2.329  0.00  0.00    -0.097 F 
ATOM     12  F4  UNL d   1       1.115  -0.549   0.330  0.00  0.00    -0.092 F 
ENDROOT
TORSDOF 0
ENDMDL
