MODEL 1
REMARK minimizedAffinity 23.2181492
REMARK minimizedRMSD -1
REMARK  0 active torsions:
REMARK  status: ('A' for Active; 'I' for Inactive)
ROOT
ATOM      1  C   UNL d   1      -4.243   1.865   2.973  0.00  0.00     0.124 A 
ATOM      2  C1  UNL d   1      -4.087   2.617   1.817  0.00  0.00     0.062 A 
ATOM      3  C2  UNL d   1      -3.350   3.798   1.844  0.00  0.00     0.162 A 
ATOM      4  C3  UNL d   1      -2.763   4.233   3.032  0.00  0.00    -0.034 A 
ATOM      5  C4  UNL d   1      -2.925   3.472   4.191  0.00  0.00     0.162 A 
ATOM      6  C5  UNL d   1      -3.662   2.293   4.158  0.00  0.00     0.062 A 
ATOM      7  F   UNL d   1      -3.812   1.567   5.276  0.00  0.00    -0.097 F 
ATOM      8  F1  UNL d   1      -2.374   3.862   5.350  0.00  0.00    -0.096 F 
ATOM      9  I   UNL d   1      -1.661   5.998   3.077  0.00  0.00    -0.060 I 
ATOM     10  F2  UNL d   1      -3.216   4.504   0.712  0.00  0.00    -0.096 F 
ATOM     11  F3  UNL d   1      -4.648   2.206   0.670  0.00  0.00    -0.097 F 
ATOM     12  F4  UNL d   1      -4.953   0.730   2.944  0.00  0.00    -0.092 F 
ENDROOT
TORSDOF 0
ENDMDL
