MODEL 1
REMARK minimizedAffinity 9.98705864
REMARK minimizedRMSD -1
REMARK  0 active torsions:
REMARK  status: ('A' for Active; 'I' for Inactive)
ROOT
ATOM      1  C   UNL d   1       2.821  -0.200  -0.317  0.00  0.00     0.124 A 
ATOM      2  C1  UNL d   1       3.001  -1.502   0.129  0.00  0.00     0.062 A 
ATOM      3  C2  UNL d   1       2.073  -2.488  -0.197  0.00  0.00     0.162 A 
ATOM      4  C3  UNL d   1       0.958  -2.176  -0.974  0.00  0.00    -0.034 A 
ATOM      5  C4  UNL d   1       0.784  -0.864  -1.419  0.00  0.00     0.162 A 
ATOM      6  C5  UNL d   1       1.713   0.118  -1.090  0.00  0.00     0.062 A 
ATOM      7  F   UNL d   1       1.538   1.375  -1.522  0.00  0.00    -0.097 F 
ATOM      8  F1  UNL d   1      -0.277  -0.529  -2.168  0.00  0.00    -0.096 F 
ATOM      9  I   UNL d   1      -0.431  -3.646  -1.464  0.00  0.00    -0.060 I 
ATOM     10  F2  UNL d   1       2.272  -3.738   0.248  0.00  0.00    -0.096 F 
ATOM     11  F3  UNL d   1       4.070  -1.812   0.876  0.00  0.00    -0.097 F 
ATOM     12  F4  UNL d   1       3.714   0.746  -0.002  0.00  0.00    -0.092 F 
ENDROOT
TORSDOF 0
ENDMDL
