MODEL 1
REMARK minimizedAffinity -4.60179377
REMARK minimizedRMSD -1
REMARK  0 active torsions:
REMARK  status: ('A' for Active; 'I' for Inactive)
ROOT
ATOM      1  C   UNL d   1       0.879   0.712   0.177  0.00  0.00     0.124 A 
ATOM      2  C1  UNL d   1       0.985   1.655   1.190  0.00  0.00     0.062 A 
ATOM      3  C2  UNL d   1       1.333   2.968   0.890  0.00  0.00     0.162 A 
ATOM      4  C3  UNL d   1       1.577   3.348  -0.429  0.00  0.00    -0.034 A 
ATOM      5  C4  UNL d   1       1.470   2.394  -1.443  0.00  0.00     0.162 A 
ATOM      6  C5  UNL d   1       1.121   1.083  -1.138  0.00  0.00     0.062 A 
ATOM      7  F   UNL d   1       1.020   0.173  -2.119  0.00  0.00    -0.097 F 
ATOM      8  F1  UNL d   1       1.698   2.725  -2.723  0.00  0.00    -0.096 F 
ATOM      9  I   UNL d   1       2.098   5.312  -0.882  0.00  0.00    -0.060 I 
ATOM     10  F2  UNL d   1       1.428   3.858   1.890  0.00  0.00    -0.096 F 
ATOM     11  F3  UNL d   1       0.752   1.299   2.462  0.00  0.00    -0.097 F 
ATOM     12  F4  UNL d   1       0.544  -0.552   0.468  0.00  0.00    -0.092 F 
ENDROOT
TORSDOF 0
ENDMDL
