MODEL 1
REMARK minimizedAffinity 1.26863909
REMARK minimizedRMSD -1
REMARK  0 active torsions:
REMARK  status: ('A' for Active; 'I' for Inactive)
ROOT
ATOM      1  C   UNL d   1       1.621   0.718  -0.142  0.00  0.00     0.124 A 
ATOM      2  C1  UNL d   1       1.382   1.182  -1.428  0.00  0.00     0.062 A 
ATOM      3  C2  UNL d   1       1.335   2.550  -1.681  0.00  0.00     0.162 A 
ATOM      4  C3  UNL d   1       1.529   3.464  -0.645  0.00  0.00    -0.034 A 
ATOM      5  C4  UNL d   1       1.768   2.989   0.646  0.00  0.00     0.162 A 
ATOM      6  C5  UNL d   1       1.814   1.621   0.893  0.00  0.00     0.062 A 
ATOM      7  F   UNL d   1       2.045   1.174   2.136  0.00  0.00    -0.097 F 
ATOM      8  F1  UNL d   1       1.959   3.840   1.665  0.00  0.00    -0.096 F 
ATOM      9  I   UNL d   1       1.459   5.510  -1.018  0.00  0.00    -0.060 I 
ATOM     10  F2  UNL d   1       1.102   2.971  -2.933  0.00  0.00    -0.096 F 
ATOM     11  F3  UNL d   1       1.195   0.311  -2.430  0.00  0.00    -0.097 F 
ATOM     12  F4  UNL d   1       1.665  -0.599   0.098  0.00  0.00    -0.092 F 
ENDROOT
TORSDOF 0
ENDMDL
