MODEL 1
REMARK minimizedAffinity 15.2776117
REMARK minimizedRMSD -1
REMARK  0 active torsions:
REMARK  status: ('A' for Active; 'I' for Inactive)
ROOT
ATOM      1  C   UNL d   1       1.114  -0.490   0.073  0.00  0.00     0.124 A 
ATOM      2  C1  UNL d   1       1.088  -0.222  -1.289  0.00  0.00     0.062 A 
ATOM      3  C2  UNL d   1       1.371   1.059  -1.755  0.00  0.00     0.162 A 
ATOM      4  C3  UNL d   1       1.683   2.081  -0.860  0.00  0.00    -0.034 A 
ATOM      5  C4  UNL d   1       1.706   1.804   0.508  0.00  0.00     0.162 A 
ATOM      6  C5  UNL d   1       1.423   0.523   0.970  0.00  0.00     0.062 A 
ATOM      7  F   UNL d   1       1.449   0.266   2.286  0.00  0.00    -0.097 F 
ATOM      8  F1  UNL d   1       2.002   2.764   1.397  0.00  0.00    -0.096 F 
ATOM      9  I   UNL d   1       2.106   3.997  -1.554  0.00  0.00    -0.060 I 
ATOM     10  F2  UNL d   1       1.338   1.289  -3.076  0.00  0.00    -0.096 F 
ATOM     11  F3  UNL d   1       0.789  -1.198  -2.157  0.00  0.00    -0.097 F 
ATOM     12  F4  UNL d   1       0.841  -1.722   0.520  0.00  0.00    -0.092 F 
ENDROOT
TORSDOF 0
ENDMDL
