MODEL 1
REMARK minimizedAffinity 2.83139777
REMARK minimizedRMSD -1
REMARK  0 active torsions:
REMARK  status: ('A' for Active; 'I' for Inactive)
ROOT
ATOM      1  C   UNL d   1       1.232   2.410   0.227  0.00  0.00     0.124 A 
ATOM      2  C1  UNL d   1       1.179   2.688  -1.132  0.00  0.00     0.062 A 
ATOM      3  C2  UNL d   1       1.126   1.649  -2.057  0.00  0.00     0.162 A 
ATOM      4  C3  UNL d   1       1.124   0.323  -1.627  0.00  0.00    -0.034 A 
ATOM      5  C4  UNL d   1       1.179   0.051  -0.259  0.00  0.00     0.162 A 
ATOM      6  C5  UNL d   1       1.232   1.092   0.662  0.00  0.00     0.062 A 
ATOM      7  F   UNL d   1       1.283   0.822   1.975  0.00  0.00    -0.097 F 
ATOM      8  F1  UNL d   1       1.179  -1.213   0.190  0.00  0.00    -0.096 F 
ATOM      9  I   UNL d   1       1.044  -1.233  -3.007  0.00  0.00    -0.060 I 
ATOM     10  F2  UNL d   1       1.075   1.947  -3.364  0.00  0.00    -0.096 F 
ATOM     11  F3  UNL d   1       1.180   3.960  -1.555  0.00  0.00    -0.097 F 
ATOM     12  F4  UNL d   1       1.285   3.411   1.115  0.00  0.00    -0.092 F 
ENDROOT
TORSDOF 0
ENDMDL
