MODEL 1
REMARK minimizedAffinity 1.68332231
REMARK minimizedRMSD -1
REMARK  0 active torsions:
REMARK  status: ('A' for Active; 'I' for Inactive)
ROOT
ATOM      1  C   UNL d   1       1.072   0.080  -0.210  0.00  0.00     0.124 A 
ATOM      2  C1  UNL d   1       0.927   1.019   0.802  0.00  0.00     0.062 A 
ATOM      3  C2  UNL d   1       1.094   2.374   0.530  0.00  0.00     0.162 A 
ATOM      4  C3  UNL d   1       1.405   2.799  -0.762  0.00  0.00    -0.034 A 
ATOM      5  C4  UNL d   1       1.550   1.849  -1.775  0.00  0.00     0.162 A 
ATOM      6  C5  UNL d   1       1.383   0.496  -1.497  0.00  0.00     0.062 A 
ATOM      7  F   UNL d   1       1.523  -0.409  -2.477  0.00  0.00    -0.097 F 
ATOM      8  F1  UNL d   1       1.850   2.223  -3.027  0.00  0.00    -0.096 F 
ATOM      9  I   UNL d   1       1.654   4.824  -1.173  0.00  0.00    -0.060 I 
ATOM     10  F2  UNL d   1       0.948   3.258   1.527  0.00  0.00    -0.096 F 
ATOM     11  F3  UNL d   1       0.628   0.620   2.046  0.00  0.00    -0.097 F 
ATOM     12  F4  UNL d   1       0.913  -1.223   0.055  0.00  0.00    -0.092 F 
ENDROOT
TORSDOF 0
ENDMDL
