MODEL 1
REMARK minimizedAffinity 1.2984581
REMARK minimizedRMSD -1
REMARK  0 active torsions:
REMARK  status: ('A' for Active; 'I' for Inactive)
ROOT
ATOM      1  C   UNL d   1       1.160   0.841  -1.275  0.00  0.00     0.124 A 
ATOM      2  C1  UNL d   1       0.969   0.458   0.045  0.00  0.00     0.062 A 
ATOM      3  C2  UNL d   1       1.062   1.398   1.067  0.00  0.00     0.162 A 
ATOM      4  C3  UNL d   1       1.347   2.731   0.773  0.00  0.00    -0.034 A 
ATOM      5  C4  UNL d   1       1.539   3.109  -0.557  0.00  0.00     0.162 A 
ATOM      6  C5  UNL d   1       1.445   2.166  -1.575  0.00  0.00     0.062 A 
ATOM      7  F   UNL d   1       1.630   2.538  -2.850  0.00  0.00    -0.097 F 
ATOM      8  F1  UNL d   1       1.815   4.383  -0.875  0.00  0.00    -0.096 F 
ATOM      9  I   UNL d   1       1.487   4.140   2.299  0.00  0.00    -0.060 I 
ATOM     10  F2  UNL d   1       0.872   1.000   2.334  0.00  0.00    -0.096 F 
ATOM     11  F3  UNL d   1       0.694  -0.822   0.337  0.00  0.00    -0.097 F 
ATOM     12  F4  UNL d   1       1.071  -0.066  -2.257  0.00  0.00    -0.092 F 
ENDROOT
TORSDOF 0
ENDMDL
