MODEL 1
REMARK minimizedAffinity 6.9287715
REMARK minimizedRMSD -1
REMARK  0 active torsions:
REMARK  status: ('A' for Active; 'I' for Inactive)
ROOT
ATOM      1  C   UNL d   1      -4.900   1.516   3.929  0.00  0.00     0.124 A 
ATOM      2  C1  UNL d   1      -4.929   0.262   3.336  0.00  0.00     0.062 A 
ATOM      3  C2  UNL d   1      -3.849  -0.605   3.479  0.00  0.00     0.162 A 
ATOM      4  C3  UNL d   1      -2.731  -0.221   4.219  0.00  0.00    -0.034 A 
ATOM      5  C4  UNL d   1      -2.709   1.043   4.811  0.00  0.00     0.162 A 
ATOM      6  C5  UNL d   1      -3.790   1.906   4.666  0.00  0.00     0.062 A 
ATOM      7  F   UNL d   1      -3.760   3.118   5.239  0.00  0.00    -0.097 F 
ATOM      8  F1  UNL d   1      -1.649   1.445   5.530  0.00  0.00    -0.096 F 
ATOM      9  I   UNL d   1      -1.115  -1.514   4.435  0.00  0.00    -0.060 I 
ATOM     10  F2  UNL d   1      -3.905  -1.812   2.895  0.00  0.00    -0.096 F 
ATOM     11  F3  UNL d   1      -5.999  -0.117   2.623  0.00  0.00    -0.097 F 
ATOM     12  F4  UNL d   1      -5.939   2.349   3.789  0.00  0.00    -0.092 F 
ENDROOT
TORSDOF 0
ENDMDL
