MODEL 1
REMARK minimizedAffinity 1.28850853
REMARK minimizedRMSD -1
REMARK  0 active torsions:
REMARK  status: ('A' for Active; 'I' for Inactive)
ROOT
ATOM      1  C   UNL d   1       1.186  -0.101  -0.033  0.00  0.00     0.124 A 
ATOM      2  C1  UNL d   1       1.090   0.852   0.971  0.00  0.00     0.062 A 
ATOM      3  C2  UNL d   1       1.188   2.206   0.663  0.00  0.00     0.162 A 
ATOM      4  C3  UNL d   1       1.382   2.616  -0.656  0.00  0.00    -0.034 A 
ATOM      5  C4  UNL d   1       1.479   1.651  -1.661  0.00  0.00     0.162 A 
ATOM      6  C5  UNL d   1       1.380   0.299  -1.348  0.00  0.00     0.062 A 
ATOM      7  F   UNL d   1       1.473  -0.620  -2.320  0.00  0.00    -0.097 F 
ATOM      8  F1  UNL d   1       1.665   2.010  -2.940  0.00  0.00    -0.096 F 
ATOM      9  I   UNL d   1       1.529   4.639  -1.121  0.00  0.00    -0.060 I 
ATOM     10  F2  UNL d   1       1.091   3.105   1.654  0.00  0.00    -0.096 F 
ATOM     11  F3  UNL d   1       0.903   0.468   2.242  0.00  0.00    -0.097 F 
ATOM     12  F4  UNL d   1       1.093  -1.403   0.266  0.00  0.00    -0.092 F 
ENDROOT
TORSDOF 0
ENDMDL
