MODEL 1
REMARK minimizedAffinity 1.60819006
REMARK minimizedRMSD -1
REMARK  0 active torsions:
REMARK  status: ('A' for Active; 'I' for Inactive)
ROOT
ATOM      1  C   UNL d   1       1.172   0.606  -0.201  0.00  0.00     0.124 A 
ATOM      2  C1  UNL d   1       1.627   1.471   0.785  0.00  0.00     0.062 A 
ATOM      3  C2  UNL d   1       1.722   2.836   0.529  0.00  0.00     0.162 A 
ATOM      4  C3  UNL d   1       1.361   3.345  -0.718  0.00  0.00    -0.034 A 
ATOM      5  C4  UNL d   1       0.905   2.469  -1.705  0.00  0.00     0.162 A 
ATOM      6  C5  UNL d   1       0.812   1.106  -1.445  0.00  0.00     0.062 A 
ATOM      7  F   UNL d   1       0.372   0.272  -2.398  0.00  0.00    -0.097 F 
ATOM      8  F1  UNL d   1       0.549   2.925  -2.915  0.00  0.00    -0.096 F 
ATOM      9  I   UNL d   1       1.502   5.386  -1.104  0.00  0.00    -0.060 I 
ATOM     10  F2  UNL d   1       2.165   3.648   1.500  0.00  0.00    -0.096 F 
ATOM     11  F3  UNL d   1       1.977   0.991   1.987  0.00  0.00    -0.097 F 
ATOM     12  F4  UNL d   1       1.083  -0.707   0.047  0.00  0.00    -0.092 F 
ENDROOT
TORSDOF 0
ENDMDL
