MODEL 1
REMARK minimizedAffinity 0.944123209
REMARK minimizedRMSD -1
REMARK  0 active torsions:
REMARK  status: ('A' for Active; 'I' for Inactive)
ROOT
ATOM      1  C   UNL d   1      -1.644   1.461   1.576  0.00  0.00     0.078 C 
ATOM      2  C1  UNL d   1      -0.979   2.393   0.608  0.00  0.00    -0.077 A 
ATOM      3  C2  UNL d   1      -0.130   1.907  -0.394  0.00  0.00    -0.001 A 
ATOM      4  C3  UNL d   1       0.491   2.787  -1.282  0.00  0.00     0.003 A 
ATOM      5  C4  UNL d   1       0.270   4.159  -1.176  0.00  0.00    -0.005 A 
ATOM      6  C5  UNL d   1      -0.571   4.653  -0.181  0.00  0.00     0.003 A 
ATOM      7  C6  UNL d   1      -1.193   3.774   0.708  0.00  0.00    -0.001 A 
ENDROOT
TORSDOF 0
ENDMDL
