MODEL 1
REMARK minimizedAffinity 2.14651108
REMARK minimizedRMSD -1
REMARK  0 active torsions:
REMARK  status: ('A' for Active; 'I' for Inactive)
ROOT
ATOM      1  C   UNL d   1      -3.052   1.239   2.548  0.00  0.00     0.078 C 
ATOM      2  C1  UNL d   1      -1.936   2.169   2.173  0.00  0.00    -0.077 A 
ATOM      3  C2  UNL d   1      -0.725   2.163   2.875  0.00  0.00    -0.001 A 
ATOM      4  C3  UNL d   1       0.301   3.041   2.520  0.00  0.00     0.003 A 
ATOM      5  C4  UNL d   1       0.125   3.931   1.463  0.00  0.00    -0.005 A 
ATOM      6  C5  UNL d   1      -1.077   3.946   0.759  0.00  0.00     0.003 A 
ATOM      7  C6  UNL d   1      -2.104   3.069   1.113  0.00  0.00    -0.001 A 
ENDROOT
TORSDOF 0
ENDMDL
