MODEL 1
REMARK minimizedAffinity 5.21597958
REMARK minimizedRMSD -1
REMARK  0 active torsions:
REMARK  status: ('A' for Active; 'I' for Inactive)
ROOT
ATOM      1  C   UNL d   1      -2.034   2.055   1.568  0.00  0.00     0.078 C 
ATOM      2  C1  UNL d   1      -1.042   2.444   0.513  0.00  0.00    -0.077 A 
ATOM      3  C2  UNL d   1      -0.862   3.784   0.151  0.00  0.00    -0.001 A 
ATOM      4  C3  UNL d   1       0.057   4.130  -0.840  0.00  0.00     0.003 A 
ATOM      5  C4  UNL d   1       0.804   3.142  -1.479  0.00  0.00    -0.005 A 
ATOM      6  C5  UNL d   1       0.630   1.805  -1.127  0.00  0.00     0.003 A 
ATOM      7  C6  UNL d   1      -0.289   1.457  -0.136  0.00  0.00    -0.001 A 
ENDROOT
TORSDOF 0
ENDMDL
