MODEL 1
REMARK minimizedAffinity -0.775707245
REMARK minimizedRMSD -1
REMARK  0 active torsions:
REMARK  status: ('A' for Active; 'I' for Inactive)
ROOT
ATOM      1  C   UNL d   1       0.086   3.304  -0.756  0.00  0.00     0.078 C 
ATOM      2  C1  UNL d   1      -0.735   2.743   0.367  0.00  0.00    -0.077 A 
ATOM      3  C2  UNL d   1      -0.207   1.777   1.232  0.00  0.00    -0.001 A 
ATOM      4  C3  UNL d   1      -0.986   1.256   2.267  0.00  0.00     0.003 A 
ATOM      5  C4  UNL d   1      -2.296   1.694   2.446  0.00  0.00    -0.005 A 
ATOM      6  C5  UNL d   1      -2.831   2.654   1.588  0.00  0.00     0.003 A 
ATOM      7  C6  UNL d   1      -2.054   3.176   0.553  0.00  0.00    -0.001 A 
ENDROOT
TORSDOF 0
ENDMDL
