MODEL 1
REMARK minimizedAffinity 3.61947703
REMARK minimizedRMSD -1
REMARK  0 active torsions:
REMARK  status: ('A' for Active; 'I' for Inactive)
ROOT
ATOM      1  C   UNL d   1      -0.345   3.214   0.070  0.00  0.00     0.078 C 
ATOM      2  C1  UNL d   1      -0.726   2.075   0.967  0.00  0.00    -0.077 A 
ATOM      3  C2  UNL d   1       0.213   1.106   1.341  0.00  0.00    -0.001 A 
ATOM      4  C3  UNL d   1      -0.158   0.045   2.169  0.00  0.00     0.003 A 
ATOM      5  C4  UNL d   1      -1.469  -0.058   2.629  0.00  0.00    -0.005 A 
ATOM      6  C5  UNL d   1      -2.412   0.900   2.260  0.00  0.00     0.003 A 
ATOM      7  C6  UNL d   1      -2.042   1.961   1.432  0.00  0.00    -0.001 A 
ENDROOT
TORSDOF 0
ENDMDL
