MODEL 1
REMARK minimizedAffinity -0.0396097936
REMARK minimizedRMSD -1
REMARK  0 active torsions:
REMARK  status: ('A' for Active; 'I' for Inactive)
ROOT
ATOM      1  C   UNL d   1      -1.953  -3.000   3.754  0.00  0.00     0.078 C 
ATOM      2  C1  UNL d   1      -3.363  -3.188   4.228  0.00  0.00    -0.077 A 
ATOM      3  C2  UNL d   1      -4.341  -3.731   3.386  0.00  0.00    -0.001 A 
ATOM      4  C3  UNL d   1      -5.652  -3.891   3.838  0.00  0.00     0.003 A 
ATOM      5  C4  UNL d   1      -5.997  -3.510   5.133  0.00  0.00    -0.005 A 
ATOM      6  C5  UNL d   1      -5.031  -2.967   5.977  0.00  0.00     0.003 A 
ATOM      7  C6  UNL d   1      -3.720  -2.806   5.527  0.00  0.00    -0.001 A 
ENDROOT
TORSDOF 0
ENDMDL
