MODEL 1
REMARK minimizedAffinity 0.969277918
REMARK minimizedRMSD -1
REMARK  0 active torsions:
REMARK  status: ('A' for Active; 'I' for Inactive)
ROOT
ATOM      1  C   UNL d   1      -2.032   1.012   2.167  0.00  0.00     0.078 C 
ATOM      2  C1  UNL d   1      -1.430   1.881   1.104  0.00  0.00    -0.077 A 
ATOM      3  C2  UNL d   1      -0.527   1.358   0.170  0.00  0.00    -0.001 A 
ATOM      4  C3  UNL d   1       0.033   2.181  -0.808  0.00  0.00     0.003 A 
ATOM      5  C4  UNL d   1      -0.303   3.532  -0.862  0.00  0.00    -0.005 A 
ATOM      6  C5  UNL d   1      -1.199   4.062   0.063  0.00  0.00     0.003 A 
ATOM      7  C6  UNL d   1      -1.760   3.241   1.043  0.00  0.00    -0.001 A 
ENDROOT
TORSDOF 0
ENDMDL
