MODEL 1
REMARK minimizedAffinity 0.481311649
REMARK minimizedRMSD -1
REMARK  0 active torsions:
REMARK  status: ('A' for Active; 'I' for Inactive)
ROOT
ATOM      1  C   UNL d   1      -1.162   1.984   1.499  0.00  0.00     0.078 C 
ATOM      2  C1  UNL d   1      -0.902   0.591   1.988  0.00  0.00    -0.077 A 
ATOM      3  C2  UNL d   1       0.347  -0.017   1.805  0.00  0.00    -0.001 A 
ATOM      4  C3  UNL d   1       0.571  -1.318   2.257  0.00  0.00     0.003 A 
ATOM      5  C4  UNL d   1      -0.448  -2.023   2.893  0.00  0.00    -0.005 A 
ATOM      6  C5  UNL d   1      -1.694  -1.428   3.078  0.00  0.00     0.003 A 
ATOM      7  C6  UNL d   1      -1.921  -0.127   2.627  0.00  0.00    -0.001 A 
ENDROOT
TORSDOF 0
ENDMDL
