MODEL 1
REMARK minimizedAffinity 7.5695405
REMARK minimizedRMSD -1
REMARK  0 active torsions:
REMARK  status: ('A' for Active; 'I' for Inactive)
ROOT
ATOM      1  C   UNL d   1       0.056   2.813  -1.872  0.00  0.00     0.078 C 
ATOM      2  C1  UNL d   1      -0.488   1.461  -2.224  0.00  0.00    -0.077 A 
ATOM      3  C2  UNL d   1      -1.729   1.326  -2.859  0.00  0.00    -0.001 A 
ATOM      4  C3  UNL d   1      -2.228   0.061  -3.173  0.00  0.00     0.003 A 
ATOM      5  C4  UNL d   1      -1.493  -1.080  -2.854  0.00  0.00    -0.005 A 
ATOM      6  C5  UNL d   1      -0.258  -0.955  -2.220  0.00  0.00     0.003 A 
ATOM      7  C6  UNL d   1       0.242   0.309  -1.906  0.00  0.00    -0.001 A 
ENDROOT
TORSDOF 0
ENDMDL
