MODEL 1
REMARK minimizedAffinity 2.49096179
REMARK minimizedRMSD -1
REMARK  0 active torsions:
REMARK  status: ('A' for Active; 'I' for Inactive)
ROOT
ATOM      1  C   UNL d   1       0.055   2.755  -1.390  0.00  0.00     0.078 C 
ATOM      2  C1  UNL d   1      -0.371   1.533  -2.148  0.00  0.00    -0.077 A 
ATOM      3  C2  UNL d   1      -1.645   0.980  -1.969  0.00  0.00    -0.001 A 
ATOM      4  C3  UNL d   1      -2.024  -0.163  -2.674  0.00  0.00     0.003 A 
ATOM      5  C4  UNL d   1      -1.135  -0.763  -3.563  0.00  0.00    -0.005 A 
ATOM      6  C5  UNL d   1       0.136  -0.222  -3.747  0.00  0.00     0.003 A 
ATOM      7  C6  UNL d   1       0.517   0.921  -3.042  0.00  0.00    -0.001 A 
ENDROOT
TORSDOF 0
ENDMDL
