MODEL 1
REMARK minimizedAffinity 4.80876732
REMARK minimizedRMSD -1
REMARK  0 active torsions:
REMARK  status: ('A' for Active; 'I' for Inactive)
ROOT
ATOM      1  C   UNL d   1      -1.258   2.262   0.838  0.00  0.00     0.078 C 
ATOM      2  C1  UNL d   1      -0.957   1.621  -0.484  0.00  0.00    -0.077 A 
ATOM      3  C2  UNL d   1      -1.859   0.726  -1.073  0.00  0.00    -0.001 A 
ATOM      4  C3  UNL d   1      -1.562   0.129  -2.299  0.00  0.00     0.003 A 
ATOM      5  C4  UNL d   1      -0.363   0.420  -2.947  0.00  0.00    -0.005 A 
ATOM      6  C5  UNL d   1       0.542   1.307  -2.367  0.00  0.00     0.003 A 
ATOM      7  C6  UNL d   1       0.246   1.905  -1.141  0.00  0.00    -0.001 A 
ENDROOT
TORSDOF 0
ENDMDL
