MODEL 1
REMARK minimizedAffinity 2.2082212
REMARK minimizedRMSD -1
REMARK  0 active torsions:
REMARK  status: ('A' for Active; 'I' for Inactive)
ROOT
ATOM      1  C   UNL d   1       0.333   0.187  -2.240  0.00  0.00     0.078 C 
ATOM      2  C1  UNL d   1       0.181   1.600  -1.762  0.00  0.00    -0.077 A 
ATOM      3  C2  UNL d   1       0.399   2.681  -2.625  0.00  0.00    -0.001 A 
ATOM      4  C3  UNL d   1       0.263   3.991  -2.163  0.00  0.00     0.003 A 
ATOM      5  C4  UNL d   1      -0.091   4.233  -0.837  0.00  0.00    -0.005 A 
ATOM      6  C5  UNL d   1      -0.308   3.164   0.029  0.00  0.00     0.003 A 
ATOM      7  C6  UNL d   1      -0.172   1.853  -0.430  0.00  0.00    -0.001 A 
ENDROOT
TORSDOF 0
ENDMDL
