MODEL 1
REMARK minimizedAffinity 1.25796235
REMARK minimizedRMSD -1
REMARK  0 active torsions:
REMARK  status: ('A' for Active; 'I' for Inactive)
ROOT
ATOM      1  C   UNL d   1      -0.523   2.927   3.306  0.00  0.00     0.078 C 
ATOM      2  C1  UNL d   1      -0.229   2.178   2.040  0.00  0.00    -0.077 A 
ATOM      3  C2  UNL d   1       0.623   1.067   2.042  0.00  0.00    -0.001 A 
ATOM      4  C3  UNL d   1       0.896   0.385   0.855  0.00  0.00     0.003 A 
ATOM      5  C4  UNL d   1       0.322   0.807  -0.342  0.00  0.00    -0.005 A 
ATOM      6  C5  UNL d   1      -0.526   1.913  -0.354  0.00  0.00     0.003 A 
ATOM      7  C6  UNL d   1      -0.799   2.596   0.832  0.00  0.00    -0.001 A 
ENDROOT
TORSDOF 0
ENDMDL
