MODEL 1
REMARK minimizedAffinity 3.95517278
REMARK minimizedRMSD -1
REMARK  0 active torsions:
REMARK  status: ('A' for Active; 'I' for Inactive)
ROOT
ATOM      1  C   UNL d   1       0.050   4.935   0.326  0.00  0.00     0.078 C 
ATOM      2  C1  UNL d   1       0.047   3.501  -0.112  0.00  0.00    -0.077 A 
ATOM      3  C2  UNL d   1      -0.249   2.472   0.791  0.00  0.00    -0.001 A 
ATOM      4  C3  UNL d   1      -0.238   1.140   0.372  0.00  0.00     0.003 A 
ATOM      5  C4  UNL d   1       0.069   0.826  -0.951  0.00  0.00    -0.005 A 
ATOM      6  C5  UNL d   1       0.367   1.842  -1.855  0.00  0.00     0.003 A 
ATOM      7  C6  UNL d   1       0.357   3.174  -1.438  0.00  0.00    -0.001 A 
ENDROOT
TORSDOF 0
ENDMDL
