MODEL 1
REMARK minimizedAffinity -1.36790538
REMARK minimizedRMSD -1
REMARK  1 active torsions:
REMARK  status: ('A' for Active; 'I' for Inactive)
REMARK    1  A    between atoms: C1_2  and  C2_3 
ROOT
ATOM      1  C2  UNL d   1       0.196  -0.576  -0.428  0.00  0.00    -0.081 A 
ATOM      2  C3  UNL d   1      -0.365  -0.664  -1.708  0.00  0.00     0.006 A 
ATOM      3  C4  UNL d   1      -0.238  -1.835  -2.458  0.00  0.00     0.002 A 
ATOM      4  C5  UNL d   1       0.444  -2.940  -1.938  0.00  0.00    -0.080 A 
ATOM      5  C6  UNL d   1       0.561  -4.214  -2.721  0.00  0.00     0.076 C 
ATOM      6  C7  UNL d   1       1.019  -2.847  -0.666  0.00  0.00     0.002 A 
ATOM      7  C8  UNL d   1       0.893  -1.676   0.084  0.00  0.00     0.006 A 
ENDROOT
BRANCH   1   8
ATOM      8  C1  UNL d   1       0.005   0.663   0.410  0.00  0.00     0.054 C 
ATOM      9  C   UNL d   1      -0.640   0.333   1.748  0.00  0.00     0.018 C 
ENDBRANCH   1   8
TORSDOF 1
ENDMDL
