MODEL 1
REMARK minimizedAffinity -4.66510105
REMARK minimizedRMSD -1
REMARK  1 active torsions:
REMARK  status: ('A' for Active; 'I' for Inactive)
REMARK    1  A    between atoms: C1_2  and  C2_3 
ROOT
ATOM      1  C2  UNL d   1       0.701  -1.079  -0.661  0.00  0.00    -0.081 A 
ATOM      2  C3  UNL d   1       0.346  -1.470   0.636  0.00  0.00     0.006 A 
ATOM      3  C4  UNL d   1      -0.269  -0.567   1.505  0.00  0.00     0.002 A 
ATOM      4  C5  UNL d   1      -0.546   0.740   1.091  0.00  0.00    -0.080 A 
ATOM      5  C6  UNL d   1      -1.234   1.712   2.004  0.00  0.00     0.076 C 
ATOM      6  C7  UNL d   1      -0.176   1.137  -0.199  0.00  0.00     0.002 A 
ATOM      7  C8  UNL d   1       0.439   0.234  -1.069  0.00  0.00     0.006 A 
ENDROOT
BRANCH   1   8
ATOM      8  C1  UNL d   1       1.306  -2.070  -1.623  0.00  0.00     0.054 C 
ATOM      9  C   UNL d   1       0.624  -2.007  -2.982  0.00  0.00     0.018 C 
ENDBRANCH   1   8
TORSDOF 1
ENDMDL
