MODEL 1
REMARK minimizedAffinity -2.85898328
REMARK minimizedRMSD -1
REMARK  1 active torsions:
REMARK  status: ('A' for Active; 'I' for Inactive)
REMARK    1  A    between atoms: C1_2  and  C2_3 
ROOT
ATOM      1  C2  UNL d   1       0.486  -1.287  -0.657  0.00  0.00    -0.081 A 
ATOM      2  C3  UNL d   1       0.742  -1.590   0.686  0.00  0.00     0.006 A 
ATOM      3  C4  UNL d   1       0.187  -0.813   1.705  0.00  0.00     0.002 A 
ATOM      4  C5  UNL d   1      -0.639   0.275   1.399  0.00  0.00    -0.080 A 
ATOM      5  C6  UNL d   1      -1.266   1.099   2.484  0.00  0.00     0.076 C 
ATOM      6  C7  UNL d   1      -0.880   0.588   0.057  0.00  0.00     0.002 A 
ATOM      7  C8  UNL d   1      -0.325  -0.188  -0.962  0.00  0.00     0.006 A 
ENDROOT
BRANCH   1   8
ATOM      8  C1  UNL d   1       1.030  -2.162  -1.757  0.00  0.00     0.054 C 
ATOM      9  C   UNL d   1      -0.083  -2.927  -2.458  0.00  0.00     0.018 C 
ENDBRANCH   1   8
TORSDOF 1
ENDMDL
