MODEL 1
REMARK minimizedAffinity -2.61933112
REMARK minimizedRMSD -1
REMARK  1 active torsions:
REMARK  status: ('A' for Active; 'I' for Inactive)
REMARK    1  A    between atoms: C1_2  and  C2_3 
ROOT
ATOM      1  C2  UNL d   1       1.185  -0.771  -0.921  0.00  0.00    -0.081 A 
ATOM      2  C3  UNL d   1       0.185  -0.360  -0.031  0.00  0.00     0.006 A 
ATOM      3  C4  UNL d   1      -0.152   0.991   0.080  0.00  0.00     0.002 A 
ATOM      4  C5  UNL d   1       0.499   1.952  -0.702  0.00  0.00    -0.080 A 
ATOM      5  C6  UNL d   1       0.125   3.402  -0.615  0.00  0.00     0.076 C 
ATOM      6  C7  UNL d   1       1.510   1.543  -1.578  0.00  0.00     0.002 A 
ATOM      7  C8  UNL d   1       1.848   0.192  -1.689  0.00  0.00     0.006 A 
ENDROOT
BRANCH   1   8
ATOM      8  C1  UNL d   1       1.506  -2.234  -1.090  0.00  0.00     0.054 C 
ATOM      9  C   UNL d   1       0.754  -2.833  -2.270  0.00  0.00     0.018 C 
ENDBRANCH   1   8
TORSDOF 1
ENDMDL
