MODEL 1
REMARK minimizedAffinity -2.83573079
REMARK minimizedRMSD -1
REMARK  1 active torsions:
REMARK  status: ('A' for Active; 'I' for Inactive)
REMARK    1  A    between atoms: C1_2  and  C2_3 
ROOT
ATOM      1  C2  UNL d   1       0.059   1.690  -0.002  0.00  0.00    -0.081 A 
ATOM      2  C3  UNL d   1      -0.754   1.826   1.131  0.00  0.00     0.006 A 
ATOM      3  C4  UNL d   1      -1.063   0.714   1.918  0.00  0.00     0.002 A 
ATOM      4  C5  UNL d   1      -0.558  -0.550   1.591  0.00  0.00    -0.080 A 
ATOM      5  C6  UNL d   1      -0.858  -1.746   2.445  0.00  0.00     0.076 C 
ATOM      6  C7  UNL d   1       0.239  -0.688   0.450  0.00  0.00     0.002 A 
ATOM      7  C8  UNL d   1       0.548   0.423  -0.338  0.00  0.00     0.006 A 
ENDROOT
BRANCH   1   8
ATOM      8  C1  UNL d   1       0.447   2.898  -0.816  0.00  0.00     0.054 C 
ATOM      9  C   UNL d   1       0.230   4.185  -0.033  0.00  0.00     0.018 C 
ENDBRANCH   1   8
TORSDOF 1
ENDMDL
