MODEL 1
REMARK minimizedAffinity -3.01797867
REMARK minimizedRMSD -1
REMARK  1 active torsions:
REMARK  status: ('A' for Active; 'I' for Inactive)
REMARK    1  A    between atoms: C1_2  and  C2_3 
ROOT
ATOM      1  C2  UNL d   1      -0.128   1.010   1.105  0.00  0.00    -0.081 A 
ATOM      2  C3  UNL d   1       0.636   1.296  -0.033  0.00  0.00     0.006 A 
ATOM      3  C4  UNL d   1       1.109   0.264  -0.846  0.00  0.00     0.002 A 
ATOM      4  C5  UNL d   1       0.819  -1.070  -0.540  0.00  0.00    -0.080 A 
ATOM      5  C6  UNL d   1       1.295  -2.186  -1.422  0.00  0.00     0.076 C 
ATOM      6  C7  UNL d   1       0.071  -1.357   0.606  0.00  0.00     0.002 A 
ATOM      7  C8  UNL d   1      -0.402  -0.325   1.420  0.00  0.00     0.006 A 
ENDROOT
BRANCH   1   8
ATOM      8  C1  UNL d   1      -0.694   2.124   1.948  0.00  0.00     0.054 C 
ATOM      9  C   UNL d   1      -0.566   3.469   1.247  0.00  0.00     0.018 C 
ENDBRANCH   1   8
TORSDOF 1
ENDMDL
