MODEL 1
REMARK minimizedAffinity -4.58085155
REMARK minimizedRMSD -1
REMARK  1 active torsions:
REMARK  status: ('A' for Active; 'I' for Inactive)
REMARK    1  A    between atoms: C1_2  and  C2_3 
ROOT
ATOM      1  C2  UNL d   1      -0.493  -0.933   0.692  0.00  0.00    -0.081 A 
ATOM      2  C3  UNL d   1      -1.336  -1.408  -0.320  0.00  0.00     0.006 A 
ATOM      3  C4  UNL d   1      -0.804  -2.029  -1.452  0.00  0.00     0.002 A 
ATOM      4  C5  UNL d   1       0.579  -2.194  -1.587  0.00  0.00    -0.080 A 
ATOM      5  C6  UNL d   1       1.162  -2.887  -2.782  0.00  0.00     0.076 C 
ATOM      6  C7  UNL d   1       1.423  -1.705  -0.584  0.00  0.00     0.002 A 
ATOM      7  C8  UNL d   1       0.891  -1.083   0.548  0.00  0.00     0.006 A 
ENDROOT
BRANCH   1   8
ATOM      8  C1  UNL d   1      -1.067  -0.320   1.944  0.00  0.00     0.054 C 
ATOM      9  C   UNL d   1      -0.738   1.163   2.035  0.00  0.00     0.018 C 
ENDBRANCH   1   8
TORSDOF 1
ENDMDL
