MODEL 1
REMARK minimizedAffinity -3.69017363
REMARK minimizedRMSD -1
REMARK  1 active torsions:
REMARK  status: ('A' for Active; 'I' for Inactive)
REMARK    1  A    between atoms: C1_2  and  C2_3 
ROOT
ATOM      1  C2  UNL d   1       0.899  -1.529  -0.881  0.00  0.00    -0.081 A 
ATOM      2  C3  UNL d   1       0.391  -1.993   0.339  0.00  0.00     0.006 A 
ATOM      3  C4  UNL d   1      -0.006  -1.092   1.330  0.00  0.00     0.002 A 
ATOM      4  C5  UNL d   1       0.090   0.287   1.114  0.00  0.00    -0.080 A 
ATOM      5  C6  UNL d   1      -0.362   1.266   2.157  0.00  0.00     0.076 C 
ATOM      6  C7  UNL d   1       0.613   0.751  -0.098  0.00  0.00     0.002 A 
ATOM      7  C8  UNL d   1       1.011  -0.150  -1.088  0.00  0.00     0.006 A 
ENDROOT
BRANCH   1   8
ATOM      8  C1  UNL d   1       1.267  -2.498  -1.975  0.00  0.00     0.054 C 
ATOM      9  C   UNL d   1       0.312  -2.390  -3.155  0.00  0.00     0.018 C 
ENDBRANCH   1   8
TORSDOF 1
ENDMDL
