MODEL 1
REMARK minimizedAffinity -2.3136065
REMARK minimizedRMSD -1
REMARK  1 active torsions:
REMARK  status: ('A' for Active; 'I' for Inactive)
REMARK    1  A    between atoms: C1_2  and  C2_3 
ROOT
ATOM      1  C2  UNL d   1       0.769  -1.337  -0.625  0.00  0.00    -0.081 A 
ATOM      2  C3  UNL d   1      -0.144  -1.661   0.385  0.00  0.00     0.006 A 
ATOM      3  C4  UNL d   1      -0.634  -0.672   1.242  0.00  0.00     0.002 A 
ATOM      4  C5  UNL d   1      -0.224   0.658   1.098  0.00  0.00    -0.080 A 
ATOM      5  C6  UNL d   1      -0.765   1.734   1.991  0.00  0.00     0.076 C 
ATOM      6  C7  UNL d   1       0.702   0.979   0.100  0.00  0.00     0.002 A 
ATOM      7  C8  UNL d   1       1.192  -0.009  -0.756  0.00  0.00     0.006 A 
ENDROOT
BRANCH   1   8
ATOM      8  C1  UNL d   1       1.250  -2.389  -1.591  0.00  0.00     0.054 C 
ATOM      9  C   UNL d   1       0.133  -3.358  -1.954  0.00  0.00     0.018 C 
ENDBRANCH   1   8
TORSDOF 1
ENDMDL
