MODEL 1
REMARK minimizedAffinity -4.64269447
REMARK minimizedRMSD -1
REMARK  0 active torsions:
REMARK  status: ('A' for Active; 'I' for Inactive)
ROOT
ATOM      1  C1  BNZ d   1      -0.883  -1.867   1.295  0.00  0.00     0.000 A 
ATOM      2  C2  BNZ d   1      -1.041  -0.542   1.603  0.00  0.00     0.000 A 
ATOM      3  C3  BNZ d   1      -0.688   0.430   0.710  0.00  0.00     0.000 A 
ATOM      4  C4  BNZ d   1      -0.141   0.079  -0.472  0.00  0.00     0.000 A 
ATOM      5  C5  BNZ d   1       0.034  -1.253  -0.793  0.00  0.00     0.000 A 
ATOM      6  C6  BNZ d   1      -0.359  -2.230   0.093  0.00  0.00     0.000 A 
ENDROOT
TORSDOF 0
ENDMDL
