MODEL 1
REMARK minimizedAffinity -5.00530815
REMARK minimizedRMSD -1
REMARK  0 active torsions:
REMARK  status: ('A' for Active; 'I' for Inactive)
ROOT
ATOM      1  C1  BNZ d   1      -1.013  -2.359   0.799  0.00  0.00     0.000 A 
ATOM      2  C2  BNZ d   1      -0.732  -3.119  -0.305  0.00  0.00     0.000 A 
ATOM      3  C3  BNZ d   1      -0.086  -2.578  -1.381  0.00  0.00     0.000 A 
ATOM      4  C4  BNZ d   1       0.244  -1.270  -1.368  0.00  0.00     0.000 A 
ATOM      5  C5  BNZ d   1      -0.041  -0.489  -0.266  0.00  0.00     0.000 A 
ATOM      6  C6  BNZ d   1      -0.657  -1.046   0.831  0.00  0.00     0.000 A 
ENDROOT
TORSDOF 0
ENDMDL
