MODEL 1
REMARK minimizedAffinity -4.06282711
REMARK minimizedRMSD -1
REMARK  0 active torsions:
REMARK  status: ('A' for Active; 'I' for Inactive)
ROOT
ATOM      1  C1  BNZ d   1      -1.354  -0.623   1.326  0.00  0.00     0.000 A 
ATOM      2  C2  BNZ d   1      -0.962  -1.926   1.169  0.00  0.00     0.000 A 
ATOM      3  C3  BNZ d   1       0.002  -2.262   0.260  0.00  0.00     0.000 A 
ATOM      4  C4  BNZ d   1       0.544  -1.303  -0.517  0.00  0.00     0.000 A 
ATOM      5  C5  BNZ d   1       0.153   0.014  -0.378  0.00  0.00     0.000 A 
ATOM      6  C6  BNZ d   1      -0.790   0.354   0.565  0.00  0.00     0.000 A 
ENDROOT
TORSDOF 0
ENDMDL
