MODEL 1
REMARK minimizedAffinity -4.35644102
REMARK minimizedRMSD -1
REMARK  0 active torsions:
REMARK  status: ('A' for Active; 'I' for Inactive)
ROOT
ATOM      1  C1  BNZ d   1       0.481  -0.667  -1.265  0.00  0.00     0.000 A 
ATOM      2  C2  BNZ d   1       0.137  -1.559  -0.283  0.00  0.00     0.000 A 
ATOM      3  C3  BNZ d   1      -0.597  -1.160   0.799  0.00  0.00     0.000 A 
ATOM      4  C4  BNZ d   1      -0.951   0.136   0.918  0.00  0.00     0.000 A 
ATOM      5  C5  BNZ d   1      -0.604   1.049  -0.058  0.00  0.00     0.000 A 
ATOM      6  C6  BNZ d   1       0.101   0.636  -1.165  0.00  0.00     0.000 A 
ENDROOT
TORSDOF 0
ENDMDL
