MODEL 1
REMARK minimizedAffinity -2.52901363
REMARK minimizedRMSD -1
REMARK  0 active torsions:
REMARK  status: ('A' for Active; 'I' for Inactive)
ROOT
ATOM      1  C1  BNZ d   1      -0.654   0.248   0.759  0.00  0.00     0.000 A 
ATOM      2  C2  BNZ d   1      -1.281  -0.747   1.461  0.00  0.00     0.000 A 
ATOM      3  C3  BNZ d   1      -1.238  -2.043   1.028  0.00  0.00     0.000 A 
ATOM      4  C4  BNZ d   1      -0.605  -2.336  -0.126  0.00  0.00     0.000 A 
ATOM      5  C5  BNZ d   1       0.024  -1.343  -0.850  0.00  0.00     0.000 A 
ATOM      6  C6  BNZ d   1       0.013  -0.046  -0.391  0.00  0.00     0.000 A 
ENDROOT
TORSDOF 0
ENDMDL
