MODEL 1
REMARK minimizedAffinity -4.24167204
REMARK minimizedRMSD -1
REMARK  0 active torsions:
REMARK  status: ('A' for Active; 'I' for Inactive)
ROOT
ATOM      1  C1  BNZ d   1       0.885  -0.939  -0.254  0.00  0.00     0.000 A 
ATOM      2  C2  BNZ d   1       0.773  -2.303  -0.312  0.00  0.00     0.000 A 
ATOM      3  C3  BNZ d   1      -0.380  -2.927   0.073  0.00  0.00     0.000 A 
ATOM      4  C4  BNZ d   1      -1.404  -2.192   0.553  0.00  0.00     0.000 A 
ATOM      5  C5  BNZ d   1      -1.303  -0.817   0.626  0.00  0.00     0.000 A 
ATOM      6  C6  BNZ d   1      -0.156  -0.189   0.201  0.00  0.00     0.000 A 
ENDROOT
TORSDOF 0
ENDMDL
