MODEL 1
REMARK minimizedAffinity -3.11876655
REMARK minimizedRMSD -1
REMARK  0 active torsions:
REMARK  status: ('A' for Active; 'I' for Inactive)
ROOT
ATOM      1  C1  BNZ d   1      -0.282   1.374   0.430  0.00  0.00     0.000 A 
ATOM      2  C2  BNZ d   1      -0.853   0.571   1.382  0.00  0.00     0.000 A 
ATOM      3  C3  BNZ d   1      -0.741  -0.789   1.308  0.00  0.00     0.000 A 
ATOM      4  C4  BNZ d   1      -0.094  -1.346   0.264  0.00  0.00     0.000 A 
ATOM      5  C5  BNZ d   1       0.479  -0.550  -0.708  0.00  0.00     0.000 A 
ATOM      6  C6  BNZ d   1       0.398   0.820  -0.610  0.00  0.00     0.000 A 
ENDROOT
TORSDOF 0
ENDMDL
