MODEL 1
REMARK minimizedAffinity -3.2471211
REMARK minimizedRMSD -1
REMARK  0 active torsions:
REMARK  status: ('A' for Active; 'I' for Inactive)
ROOT
ATOM      1  C1  BNZ d   1       0.332   1.779   0.900  0.00  0.00     0.000 A 
ATOM      2  C2  BNZ d   1       0.418   2.890   1.696  0.00  0.00     0.000 A 
ATOM      3  C3  BNZ d   1       0.993   4.040   1.234  0.00  0.00     0.000 A 
ATOM      4  C4  BNZ d   1       1.518   4.067  -0.008  0.00  0.00     0.000 A 
ATOM      5  C5  BNZ d   1       1.448   2.952  -0.820  0.00  0.00     0.000 A 
ATOM      6  C6  BNZ d   1       0.833   1.808  -0.365  0.00  0.00     0.000 A 
ENDROOT
TORSDOF 0
ENDMDL
