MODEL 1
REMARK minimizedAffinity -2.7116673
REMARK minimizedRMSD -1
REMARK  0 active torsions:
REMARK  status: ('A' for Active; 'I' for Inactive)
ROOT
ATOM      1  C1  BNZ d   1       0.590  -1.889  -0.420  0.00  0.00     0.000 A 
ATOM      2  C2  BNZ d   1       0.626  -0.565  -0.769  0.00  0.00     0.000 A 
ATOM      3  C3  BNZ d   1      -0.151   0.351  -0.118  0.00  0.00     0.000 A 
ATOM      4  C4  BNZ d   1      -0.993  -0.062   0.851  0.00  0.00     0.000 A 
ATOM      5  C5  BNZ d   1      -1.048  -1.395   1.207  0.00  0.00     0.000 A 
ATOM      6  C6  BNZ d   1      -0.236  -2.309   0.577  0.00  0.00     0.000 A 
ENDROOT
TORSDOF 0
ENDMDL
