MODEL 1
REMARK minimizedAffinity -2.42633796
REMARK minimizedRMSD -1
REMARK  0 active torsions:
REMARK  status: ('A' for Active; 'I' for Inactive)
ROOT
ATOM      1  C1  BNZ d   1      -0.566  -1.144   2.190  0.00  0.00     0.000 A 
ATOM      2  C2  BNZ d   1      -0.603  -2.252   1.387  0.00  0.00     0.000 A 
ATOM      3  C3  BNZ d   1      -0.757  -2.131   0.034  0.00  0.00     0.000 A 
ATOM      4  C4  BNZ d   1      -0.913  -0.906  -0.509  0.00  0.00     0.000 A 
ATOM      5  C5  BNZ d   1      -0.886   0.220   0.289  0.00  0.00     0.000 A 
ATOM      6  C6  BNZ d   1      -0.693   0.097   1.645  0.00  0.00     0.000 A 
ENDROOT
TORSDOF 0
ENDMDL
