MODEL 1
REMARK minimizedAffinity -4.49206161
REMARK minimizedRMSD -1
REMARK  0 active torsions:
REMARK  status: ('A' for Active; 'I' for Inactive)
ROOT
ATOM      1  C1  BNZ d   1      -0.370  -0.379   0.549  0.00  0.00     0.000 A 
ATOM      2  C2  BNZ d   1       0.392  -1.106  -0.327  0.00  0.00     0.000 A 
ATOM      3  C3  BNZ d   1       0.399  -2.472  -0.281  0.00  0.00     0.000 A 
ATOM      4  C4  BNZ d   1      -0.322  -3.107   0.665  0.00  0.00     0.000 A 
ATOM      5  C5  BNZ d   1      -1.088  -2.388   1.561  0.00  0.00     0.000 A 
ATOM      6  C6  BNZ d   1      -1.123  -1.015   1.487  0.00  0.00     0.000 A 
ENDROOT
TORSDOF 0
ENDMDL
