MODEL 1
REMARK minimizedAffinity -1.65644014
REMARK minimizedRMSD -1
REMARK  0 active torsions:
REMARK  status: ('A' for Active; 'I' for Inactive)
ROOT
ATOM      1  C1  BNZ d   1       2.178   3.272  -0.092  0.00  0.00     0.000 A 
ATOM      2  C2  BNZ d   1       2.072   4.381   0.705  0.00  0.00     0.000 A 
ATOM      3  C3  BNZ d   1       0.929   4.627   1.413  0.00  0.00     0.000 A 
ATOM      4  C4  BNZ d   1      -0.119   3.788   1.293  0.00  0.00     0.000 A 
ATOM      5  C5  BNZ d   1      -0.032   2.671   0.487  0.00  0.00     0.000 A 
ATOM      6  C6  BNZ d   1       1.134   2.405  -0.194  0.00  0.00     0.000 A 
ENDROOT
TORSDOF 0
ENDMDL
