MODEL 1
REMARK minimizedAffinity -5.05307913
REMARK minimizedRMSD -1
REMARK  0 active torsions:
REMARK  status: ('A' for Active; 'I' for Inactive)
ROOT
ATOM      1  C1  BNZ d   1      -0.409  -0.851   0.388  0.00  0.00     0.000 A 
ATOM      2  C2  BNZ d   1      -0.674  -2.176   0.610  0.00  0.00     0.000 A 
ATOM      3  C3  BNZ d   1      -0.190  -3.137  -0.233  0.00  0.00     0.000 A 
ATOM      4  C4  BNZ d   1       0.523  -2.770  -1.317  0.00  0.00     0.000 A 
ATOM      5  C5  BNZ d   1       0.790  -1.437  -1.560  0.00  0.00     0.000 A 
ATOM      6  C6  BNZ d   1       0.334  -0.475  -0.688  0.00  0.00     0.000 A 
ENDROOT
TORSDOF 0
ENDMDL
