MODEL 1
REMARK minimizedAffinity -3.19057798
REMARK minimizedRMSD -1
REMARK  0 active torsions:
REMARK  status: ('A' for Active; 'I' for Inactive)
ROOT
ATOM      1  C1  BNZ d   1      -0.022  -0.076  -0.066  0.00  0.00     0.000 A 
ATOM      2  C2  BNZ d   1       0.589  -1.290  -0.241  0.00  0.00     0.000 A 
ATOM      3  C3  BNZ d   1       0.094  -2.415   0.358  0.00  0.00     0.000 A 
ATOM      4  C4  BNZ d   1      -0.985  -2.318   1.161  0.00  0.00     0.000 A 
ATOM      5  C5  BNZ d   1      -1.606  -1.101   1.354  0.00  0.00     0.000 A 
ATOM      6  C6  BNZ d   1      -1.129   0.023   0.719  0.00  0.00     0.000 A 
ENDROOT
TORSDOF 0
ENDMDL
