MODEL 1
REMARK minimizedAffinity -4.63743544
REMARK minimizedRMSD -1
REMARK  0 active torsions:
REMARK  status: ('A' for Active; 'I' for Inactive)
ROOT
ATOM      1  C1  BNZ d   1       0.369  -3.365  -1.274  0.00  0.00     0.000 A 
ATOM      2  C2  BNZ d   1       0.701  -2.049  -1.456  0.00  0.00     0.000 A 
ATOM      3  C3  BNZ d   1       0.448  -1.122  -0.484  0.00  0.00     0.000 A 
ATOM      4  C4  BNZ d   1      -0.171  -1.505   0.652  0.00  0.00     0.000 A 
ATOM      5  C5  BNZ d   1      -0.520  -2.826   0.846  0.00  0.00     0.000 A 
ATOM      6  C6  BNZ d   1      -0.229  -3.763  -0.119  0.00  0.00     0.000 A 
ENDROOT
TORSDOF 0
ENDMDL
