MODEL 1
REMARK minimizedAffinity -3.82714272
REMARK minimizedRMSD -1
REMARK  0 active torsions:
REMARK  status: ('A' for Active; 'I' for Inactive)
ROOT
ATOM      1  C1  BNZ d   1      -0.359   0.817   0.487  0.00  0.00     0.000 A 
ATOM      2  C2  BNZ d   1      -0.997  -0.096   1.284  0.00  0.00     0.000 A 
ATOM      3  C3  BNZ d   1      -0.778  -1.436   1.127  0.00  0.00     0.000 A 
ATOM      4  C4  BNZ d   1       0.045  -1.863   0.148  0.00  0.00     0.000 A 
ATOM      5  C5  BNZ d   1       0.688  -0.955  -0.670  0.00  0.00     0.000 A 
ATOM      6  C6  BNZ d   1       0.496   0.395  -0.484  0.00  0.00     0.000 A 
ENDROOT
TORSDOF 0
ENDMDL
