MODEL 1
REMARK minimizedAffinity -1.12275577
REMARK minimizedRMSD -1
REMARK  0 active torsions:
REMARK  status: ('A' for Active; 'I' for Inactive)
ROOT
ATOM      1  C   UNL d   1      -2.891  -0.001  -4.050  0.00  0.00     0.023 A 
ATOM      2  C1  UNL d   1      -2.079  -1.062  -3.647  0.00  0.00     0.003 A 
ATOM      3  C2  UNL d   1      -1.460  -1.032  -2.395  0.00  0.00     0.048 A 
ATOM      4  C3  UNL d   1      -1.658   0.060  -1.552  0.00  0.00     0.023 A 
ATOM      5  C4  UNL d   1      -2.470   1.123  -1.951  0.00  0.00     0.048 A 
ATOM      6  C5  UNL d   1      -3.086   1.090  -3.203  0.00  0.00     0.003 A 
ATOM      7  I   UNL d   1      -0.738   0.106   0.311  0.00  0.00    -0.146 I 
ENDROOT
TORSDOF 0
ENDMDL
