MODEL 1
REMARK minimizedAffinity 3.68299031
REMARK minimizedRMSD -1
REMARK  0 active torsions:
REMARK  status: ('A' for Active; 'I' for Inactive)
ROOT
ATOM      1  C   UNL d   1       5.002  -1.646  -5.998  0.00  0.00     0.023 A 
ATOM      2  C1  UNL d   1       4.586  -0.315  -6.000  0.00  0.00     0.003 A 
ATOM      3  C2  UNL d   1       4.867   0.507  -4.906  0.00  0.00     0.048 A 
ATOM      4  C3  UNL d   1       5.565  -0.010  -3.815  0.00  0.00     0.023 A 
ATOM      5  C4  UNL d   1       5.984  -1.341  -3.810  0.00  0.00     0.048 A 
ATOM      6  C5  UNL d   1       5.700  -2.159  -4.905  0.00  0.00     0.003 A 
ATOM      7  I   UNL d   1       5.985   1.211  -2.186  0.00  0.00    -0.146 I 
ENDROOT
TORSDOF 0
ENDMDL
