MODEL 1
REMARK minimizedAffinity 3.93444037
REMARK minimizedRMSD -1
REMARK  0 active torsions:
REMARK  status: ('A' for Active; 'I' for Inactive)
ROOT
ATOM      1  C   UNL d   1       5.939  -1.457  -5.676  0.00  0.00     0.023 A 
ATOM      2  C1  UNL d   1       5.989  -1.886  -4.350  0.00  0.00     0.003 A 
ATOM      3  C2  UNL d   1       6.000  -0.951  -3.312  0.00  0.00     0.048 A 
ATOM      4  C3  UNL d   1       5.960   0.411  -3.608  0.00  0.00     0.023 A 
ATOM      5  C4  UNL d   1       5.909   0.844  -4.934  0.00  0.00     0.048 A 
ATOM      6  C5  UNL d   1       5.899  -0.094  -5.968  0.00  0.00     0.003 A 
ATOM      7  I   UNL d   1       5.976   1.804  -2.066  0.00  0.00    -0.146 I 
ENDROOT
TORSDOF 0
ENDMDL
