MODEL 1
REMARK minimizedAffinity 5.26613903
REMARK minimizedRMSD -1
REMARK  0 active torsions:
REMARK  status: ('A' for Active; 'I' for Inactive)
ROOT
ATOM      1  C   UNL d   1       0.194  -1.737  -0.274  0.00  0.00     0.023 A 
ATOM      2  C1  UNL d   1       1.507  -2.069   0.062  0.00  0.00     0.003 A 
ATOM      3  C2  UNL d   1       1.783  -3.292   0.677  0.00  0.00     0.048 A 
ATOM      4  C3  UNL d   1       0.742  -4.178   0.952  0.00  0.00     0.023 A 
ATOM      5  C4  UNL d   1      -0.573  -3.850   0.618  0.00  0.00     0.048 A 
ATOM      6  C5  UNL d   1      -0.844  -2.626   0.004  0.00  0.00     0.003 A 
ATOM      7  I   UNL d   1       1.150  -5.999   1.867  0.00  0.00    -0.146 I 
ENDROOT
TORSDOF 0
ENDMDL
