MODEL 1
REMARK minimizedAffinity 5.64077187
REMARK minimizedRMSD -1
REMARK  0 active torsions:
REMARK  status: ('A' for Active; 'I' for Inactive)
ROOT
ATOM      1  C   UNL d   1       1.588  -2.110  -4.052  0.00  0.00     0.023 A 
ATOM      2  C1  UNL d   1       1.674  -0.806  -4.541  0.00  0.00     0.003 A 
ATOM      3  C2  UNL d   1       1.460   0.277  -3.686  0.00  0.00     0.048 A 
ATOM      4  C3  UNL d   1       1.160   0.050  -2.344  0.00  0.00     0.023 A 
ATOM      5  C4  UNL d   1       1.074  -1.253  -1.850  0.00  0.00     0.048 A 
ATOM      6  C5  UNL d   1       1.288  -2.333  -2.708  0.00  0.00     0.003 A 
ATOM      7  I   UNL d   1       0.841   1.661  -1.070  0.00  0.00    -0.146 I 
ENDROOT
TORSDOF 0
ENDMDL
