MODEL 1
REMARK minimizedAffinity 5.87746668
REMARK minimizedRMSD -1
REMARK  0 active torsions:
REMARK  status: ('A' for Active; 'I' for Inactive)
ROOT
ATOM      1  C   UNL d   1      -3.259  -1.091   3.319  0.00  0.00     0.023 A 
ATOM      2  C1  UNL d   1      -4.555  -0.578   3.369  0.00  0.00     0.003 A 
ATOM      3  C2  UNL d   1      -4.829   0.555   4.138  0.00  0.00     0.048 A 
ATOM      4  C3  UNL d   1      -3.802   1.170   4.854  0.00  0.00     0.023 A 
ATOM      5  C4  UNL d   1      -2.504   0.660   4.807  0.00  0.00     0.048 A 
ATOM      6  C5  UNL d   1      -2.234  -0.474   4.037  0.00  0.00     0.003 A 
ATOM      7  I   UNL d   1      -4.208   2.856   6.000  0.00  0.00    -0.146 I 
ENDROOT
TORSDOF 0
ENDMDL
