MODEL 1
REMARK minimizedAffinity 7.94795704
REMARK minimizedRMSD -1
REMARK  0 active torsions:
REMARK  status: ('A' for Active; 'I' for Inactive)
ROOT
ATOM      1  C   UNL d   1       1.580  -2.712  -3.965  0.00  0.00     0.023 A 
ATOM      2  C1  UNL d   1       1.471  -1.444  -4.537  0.00  0.00     0.003 A 
ATOM      3  C2  UNL d   1       1.213  -0.333  -3.731  0.00  0.00     0.048 A 
ATOM      4  C3  UNL d   1       1.066  -0.496  -2.354  0.00  0.00     0.023 A 
ATOM      5  C4  UNL d   1       1.176  -1.763  -1.777  0.00  0.00     0.048 A 
ATOM      6  C5  UNL d   1       1.432  -2.871  -2.587  0.00  0.00     0.003 A 
ATOM      7  I   UNL d   1       0.683   1.156  -1.153  0.00  0.00    -0.146 I 
ENDROOT
TORSDOF 0
ENDMDL
