MODEL 1
REMARK minimizedAffinity 1.8668052
REMARK minimizedRMSD -1
REMARK  0 active torsions:
REMARK  status: ('A' for Active; 'I' for Inactive)
ROOT
ATOM      1  C   UNL d   1       1.180   1.369  -3.725  0.00  0.00     0.023 A 
ATOM      2  C1  UNL d   1       0.640   1.909  -2.558  0.00  0.00     0.003 A 
ATOM      3  C2  UNL d   1       0.468   1.106  -1.429  0.00  0.00     0.048 A 
ATOM      4  C3  UNL d   1       0.840  -0.238  -1.474  0.00  0.00     0.023 A 
ATOM      5  C4  UNL d   1       1.382  -0.782  -2.639  0.00  0.00     0.048 A 
ATOM      6  C5  UNL d   1       1.550   0.025  -3.766  0.00  0.00     0.003 A 
ATOM      7  I   UNL d   1       0.586  -1.436   0.205  0.00  0.00    -0.146 I 
ENDROOT
TORSDOF 0
ENDMDL
