MODEL 1
REMARK minimizedAffinity 2.64469123
REMARK minimizedRMSD -1
REMARK  0 active torsions:
REMARK  status: ('A' for Active; 'I' for Inactive)
ROOT
ATOM      1  C   UNL d   1       0.803   1.393  -1.514  0.00  0.00     0.023 A 
ATOM      2  C1  UNL d   1       0.883   0.185  -0.822  0.00  0.00     0.003 A 
ATOM      3  C2  UNL d   1       0.888  -1.023  -1.523  0.00  0.00     0.048 A 
ATOM      4  C3  UNL d   1       0.815  -1.016  -2.915  0.00  0.00     0.023 A 
ATOM      5  C4  UNL d   1       0.736   0.191  -3.612  0.00  0.00     0.048 A 
ATOM      6  C5  UNL d   1       0.730   1.397  -2.907  0.00  0.00     0.003 A 
ATOM      7  I   UNL d   1       0.823  -2.812  -3.960  0.00  0.00    -0.146 I 
ENDROOT
TORSDOF 0
ENDMDL
