MODEL 1
REMARK minimizedAffinity 3.19440961
REMARK minimizedRMSD -1
REMARK  0 active torsions:
REMARK  status: ('A' for Active; 'I' for Inactive)
ROOT
ATOM      1  C   UNL d   1       1.560  -2.708  -3.808  0.00  0.00     0.023 A 
ATOM      2  C1  UNL d   1       1.639  -1.485  -4.474  0.00  0.00     0.003 A 
ATOM      3  C2  UNL d   1       1.371  -0.297  -3.790  0.00  0.00     0.048 A 
ATOM      4  C3  UNL d   1       1.025  -0.340  -2.439  0.00  0.00     0.023 A 
ATOM      5  C4  UNL d   1       0.946  -1.562  -1.769  0.00  0.00     0.048 A 
ATOM      6  C5  UNL d   1       1.214  -2.746  -2.457  0.00  0.00     0.003 A 
ATOM      7  I   UNL d   1       0.626   1.426  -1.419  0.00  0.00    -0.146 I 
ENDROOT
TORSDOF 0
ENDMDL
