MODEL 1
REMARK minimizedAffinity 7.13546038
REMARK minimizedRMSD -1
REMARK  0 active torsions:
REMARK  status: ('A' for Active; 'I' for Inactive)
ROOT
ATOM      1  C   UNL d   1       4.119   4.159  -4.795  0.00  0.00     0.023 A 
ATOM      2  C1  UNL d   1       3.339   3.225  -5.478  0.00  0.00     0.003 A 
ATOM      3  C2  UNL d   1       3.877   1.984  -5.825  0.00  0.00     0.048 A 
ATOM      4  C3  UNL d   1       5.196   1.683  -5.485  0.00  0.00     0.023 A 
ATOM      5  C4  UNL d   1       5.979   2.614  -4.801  0.00  0.00     0.048 A 
ATOM      6  C5  UNL d   1       5.437   3.854  -4.457  0.00  0.00     0.003 A 
ATOM      7  I   UNL d   1       5.999  -0.164  -6.000  0.00  0.00    -0.146 I 
ENDROOT
TORSDOF 0
ENDMDL
