MODEL 1
REMARK minimizedAffinity 4.43805599
REMARK minimizedRMSD -1
REMARK  0 active torsions:
REMARK  status: ('A' for Active; 'I' for Inactive)
ROOT
ATOM      1  C   UNL d   1      -3.324  -1.492   4.934  0.00  0.00     0.023 A 
ATOM      2  C1  UNL d   1      -2.362  -0.585   4.489  0.00  0.00     0.003 A 
ATOM      3  C2  UNL d   1      -2.487   0.772   4.793  0.00  0.00     0.048 A 
ATOM      4  C3  UNL d   1      -3.576   1.215   5.544  0.00  0.00     0.023 A 
ATOM      5  C4  UNL d   1      -4.540   0.311   5.992  0.00  0.00     0.048 A 
ATOM      6  C5  UNL d   1      -4.412  -1.045   5.685  0.00  0.00     0.003 A 
ATOM      7  I   UNL d   1      -3.764   3.234   5.998  0.00  0.00    -0.146 I 
ENDROOT
TORSDOF 0
ENDMDL
