MODEL 1
REMARK minimizedAffinity 2.49467993
REMARK minimizedRMSD -1
REMARK  0 active torsions:
REMARK  status: ('A' for Active; 'I' for Inactive)
ROOT
ATOM      1  C   UNL d   1       2.053  -2.147  -4.249  0.00  0.00     0.023 A 
ATOM      2  C1  UNL d   1       2.241  -0.802  -4.566  0.00  0.00     0.003 A 
ATOM      3  C2  UNL d   1       1.788   0.191  -3.695  0.00  0.00     0.048 A 
ATOM      4  C3  UNL d   1       1.148  -0.167  -2.510  0.00  0.00     0.023 A 
ATOM      5  C4  UNL d   1       0.958  -1.512  -2.188  0.00  0.00     0.048 A 
ATOM      6  C5  UNL d   1       1.413  -2.502  -3.062  0.00  0.00     0.003 A 
ATOM      7  I   UNL d   1       0.473   1.310  -1.213  0.00  0.00    -0.146 I 
ENDROOT
TORSDOF 0
ENDMDL
