MODEL 1
REMARK minimizedAffinity 6.39021349
REMARK minimizedRMSD -1
REMARK  0 active torsions:
REMARK  status: ('A' for Active; 'I' for Inactive)
ROOT
ATOM      1  C   UNL d   1       1.275  -0.241  -3.333  0.00  0.00     0.023 A 
ATOM      2  C1  UNL d   1       0.776   0.638  -2.372  0.00  0.00     0.003 A 
ATOM      3  C2  UNL d   1       0.330   0.150  -1.142  0.00  0.00     0.048 A 
ATOM      4  C3  UNL d   1       0.387  -1.218  -0.880  0.00  0.00     0.023 A 
ATOM      5  C4  UNL d   1       0.886  -2.102  -1.838  0.00  0.00     0.048 A 
ATOM      6  C5  UNL d   1       1.330  -1.609  -3.067  0.00  0.00     0.003 A 
ATOM      7  I   UNL d   1      -0.276  -1.948   0.950  0.00  0.00    -0.146 I 
ENDROOT
TORSDOF 0
ENDMDL
