MODEL 1
REMARK minimizedAffinity 0.510681689
REMARK minimizedRMSD -1
REMARK  0 active torsions:
REMARK  status: ('A' for Active; 'I' for Inactive)
ROOT
ATOM      1  C   UNL d   1       0.485   0.323  -1.568  0.00  0.00     0.023 A 
ATOM      2  C1  UNL d   1       0.480   1.475  -2.354  0.00  0.00     0.003 A 
ATOM      3  C2  UNL d   1       1.499   1.692  -3.284  0.00  0.00     0.048 A 
ATOM      4  C3  UNL d   1       2.518   0.751  -3.424  0.00  0.00     0.023 A 
ATOM      5  C4  UNL d   1       2.527  -0.404  -2.641  0.00  0.00     0.048 A 
ATOM      6  C5  UNL d   1       1.506  -0.616  -1.712  0.00  0.00     0.003 A 
ATOM      7  I   UNL d   1       4.036   1.071  -4.808  0.00  0.00    -0.146 I 
ENDROOT
TORSDOF 0
ENDMDL
