MODEL 1
REMARK minimizedAffinity -1.20442605
REMARK minimizedRMSD -1
REMARK  0 active torsions:
REMARK  status: ('A' for Active; 'I' for Inactive)
ROOT
ATOM      1  C   UNL d   1      -1.917   0.262   2.913  0.00  0.00     0.023 A 
ATOM      2  C1  UNL d   1      -2.785   0.436   1.835  0.00  0.00     0.003 A 
ATOM      3  C2  UNL d   1      -2.287   0.441   0.530  0.00  0.00     0.048 A 
ATOM      4  C3  UNL d   1      -0.921   0.271   0.310  0.00  0.00     0.023 A 
ATOM      5  C4  UNL d   1      -0.049   0.095   1.386  0.00  0.00     0.048 A 
ATOM      6  C5  UNL d   1      -0.551   0.091   2.689  0.00  0.00     0.003 A 
ATOM      7  I   UNL d   1      -0.178   0.278  -1.631  0.00  0.00    -0.146 I 
ENDROOT
TORSDOF 0
ENDMDL
