MODEL 1
REMARK minimizedAffinity 0.416718245
REMARK minimizedRMSD -1
REMARK  0 active torsions:
REMARK  status: ('A' for Active; 'I' for Inactive)
ROOT
ATOM      1  C   UNL d   1      -0.002   0.209  -1.408  0.00  0.00     0.023 A 
ATOM      2  C1  UNL d   1      -1.303  -0.028  -0.964  0.00  0.00     0.003 A 
ATOM      3  C2  UNL d   1      -1.578  -0.074   0.404  0.00  0.00     0.048 A 
ATOM      4  C3  UNL d   1      -0.547   0.120   1.323  0.00  0.00     0.023 A 
ATOM      5  C4  UNL d   1       0.756   0.359   0.884  0.00  0.00     0.048 A 
ATOM      6  C5  UNL d   1       1.026   0.402  -0.485  0.00  0.00     0.003 A 
ATOM      7  I   UNL d   1      -0.954   0.054   3.360  0.00  0.00    -0.146 I 
ENDROOT
TORSDOF 0
ENDMDL
