MODEL 1
REMARK minimizedAffinity -2.68670416
REMARK minimizedRMSD -1
REMARK  0 active torsions:
REMARK  status: ('A' for Active; 'I' for Inactive)
ROOT
ATOM      1  C   UNL d   1      -1.855  -0.082   3.013  0.00  0.00     0.023 A 
ATOM      2  C1  UNL d   1      -0.476   0.122   2.968  0.00  0.00     0.003 A 
ATOM      3  C2  UNL d   1       0.182   0.190   1.738  0.00  0.00     0.048 A 
ATOM      4  C3  UNL d   1      -0.546   0.054   0.556  0.00  0.00     0.023 A 
ATOM      5  C4  UNL d   1      -1.926  -0.149   0.596  0.00  0.00     0.048 A 
ATOM      6  C5  UNL d   1      -2.579  -0.218   1.828  0.00  0.00     0.003 A 
ATOM      7  I   UNL d   1       0.430   0.155  -1.276  0.00  0.00    -0.146 I 
ENDROOT
TORSDOF 0
ENDMDL
