MODEL 1
REMARK minimizedAffinity -2.28343177
REMARK minimizedRMSD -1
REMARK  0 active torsions:
REMARK  status: ('A' for Active; 'I' for Inactive)
ROOT
ATOM      1  C   UNL d   1       1.529  -1.225  -4.236  0.00  0.00     0.023 A 
ATOM      2  C1  UNL d   1       0.515  -1.833  -3.495  0.00  0.00     0.003 A 
ATOM      3  C2  UNL d   1       0.201  -1.359  -2.220  0.00  0.00     0.048 A 
ATOM      4  C3  UNL d   1       0.903  -0.275  -1.692  0.00  0.00     0.023 A 
ATOM      5  C4  UNL d   1       1.917   0.336  -2.431  0.00  0.00     0.048 A 
ATOM      6  C5  UNL d   1       2.229  -0.142  -3.705  0.00  0.00     0.003 A 
ATOM      7  I   UNL d   1       0.436   0.433   0.205  0.00  0.00    -0.146 I 
ENDROOT
TORSDOF 0
ENDMDL
