MODEL 1
REMARK minimizedAffinity -1.07304597
REMARK minimizedRMSD -1
REMARK  0 active torsions:
REMARK  status: ('A' for Active; 'I' for Inactive)
ROOT
ATOM      1  C   UNL d   1       0.766  -1.173  -4.225  0.00  0.00     0.023 A 
ATOM      2  C1  UNL d   1       1.873  -0.939  -3.410  0.00  0.00     0.003 A 
ATOM      3  C2  UNL d   1       1.694  -0.581  -2.072  0.00  0.00     0.048 A 
ATOM      4  C3  UNL d   1       0.404  -0.461  -1.556  0.00  0.00     0.023 A 
ATOM      5  C4  UNL d   1      -0.707  -0.696  -2.367  0.00  0.00     0.048 A 
ATOM      6  C5  UNL d   1      -0.523  -1.052  -3.704  0.00  0.00     0.003 A 
ATOM      7  I   UNL d   1       0.135   0.072   0.435  0.00  0.00    -0.146 I 
ENDROOT
TORSDOF 0
ENDMDL
