MODEL 1
REMARK minimizedAffinity -2.54405618
REMARK minimizedRMSD -1
REMARK  0 active torsions:
REMARK  status: ('A' for Active; 'I' for Inactive)
ROOT
ATOM      1  C   UNL d   1       0.051   0.118   3.071  0.00  0.00     0.023 A 
ATOM      2  C1  UNL d   1      -1.188   0.152   2.431  0.00  0.00     0.003 A 
ATOM      3  C2  UNL d   1      -1.257   0.123   1.037  0.00  0.00     0.048 A 
ATOM      4  C3  UNL d   1      -0.083   0.058   0.288  0.00  0.00     0.023 A 
ATOM      5  C4  UNL d   1       1.160   0.023   0.923  0.00  0.00     0.048 A 
ATOM      6  C5  UNL d   1       1.223   0.053   2.318  0.00  0.00     0.003 A 
ATOM      7  I   UNL d   1      -0.182   0.014  -1.788  0.00  0.00    -0.146 I 
ENDROOT
TORSDOF 0
ENDMDL
