MODEL 1
REMARK minimizedAffinity -1.5516752
REMARK minimizedRMSD -1
REMARK  0 active torsions:
REMARK  status: ('A' for Active; 'I' for Inactive)
ROOT
ATOM      1  C   UNL d   1       1.119  -0.715  -3.983  0.00  0.00     0.023 A 
ATOM      2  C1  UNL d   1      -0.098  -0.916  -3.332  0.00  0.00     0.003 A 
ATOM      3  C2  UNL d   1      -0.251  -0.526  -2.000  0.00  0.00     0.048 A 
ATOM      4  C3  UNL d   1       0.817   0.065  -1.325  0.00  0.00     0.023 A 
ATOM      5  C4  UNL d   1       2.036   0.269  -1.973  0.00  0.00     0.048 A 
ATOM      6  C5  UNL d   1       2.185  -0.123  -3.305  0.00  0.00     0.003 A 
ATOM      7  I   UNL d   1       0.591   0.646   0.657  0.00  0.00    -0.146 I 
ENDROOT
TORSDOF 0
ENDMDL
