MODEL 1
REMARK minimizedAffinity -2.48079562
REMARK minimizedRMSD -1
REMARK  0 active torsions:
REMARK  status: ('A' for Active; 'I' for Inactive)
ROOT
ATOM      1  C   UNL d   1      -1.356   0.429   3.071  0.00  0.00     0.023 A 
ATOM      2  C1  UNL d   1      -0.008   0.272   2.750  0.00  0.00     0.003 A 
ATOM      3  C2  UNL d   1       0.400   0.288   1.414  0.00  0.00     0.048 A 
ATOM      4  C3  UNL d   1      -0.546   0.463   0.405  0.00  0.00     0.023 A 
ATOM      5  C4  UNL d   1      -1.896   0.622   0.722  0.00  0.00     0.048 A 
ATOM      6  C5  UNL d   1      -2.299   0.604   2.058  0.00  0.00     0.003 A 
ATOM      7  I   UNL d   1       0.058   0.488  -1.584  0.00  0.00    -0.146 I 
ENDROOT
TORSDOF 0
ENDMDL
