MODEL 1
REMARK minimizedAffinity -2.26281309
REMARK minimizedRMSD -1
REMARK  0 active torsions:
REMARK  status: ('A' for Active; 'I' for Inactive)
ROOT
ATOM      1  C   UNL d   1       0.661  -0.783  -3.829  0.00  0.00     0.023 A 
ATOM      2  C1  UNL d   1       1.662   0.072  -3.367  0.00  0.00     0.003 A 
ATOM      3  C2  UNL d   1       1.708   0.431  -2.018  0.00  0.00     0.048 A 
ATOM      4  C3  UNL d   1       0.751  -0.070  -1.137  0.00  0.00     0.023 A 
ATOM      5  C4  UNL d   1      -0.252  -0.927  -1.594  0.00  0.00     0.048 A 
ATOM      6  C5  UNL d   1      -0.295  -1.282  -2.943  0.00  0.00     0.003 A 
ATOM      7  I   UNL d   1       0.818   0.463   0.871  0.00  0.00    -0.146 I 
ENDROOT
TORSDOF 0
ENDMDL
