MODEL 1
REMARK minimizedAffinity -3.35065341
REMARK minimizedRMSD -1
REMARK  0 active torsions:
REMARK  status: ('A' for Active; 'I' for Inactive)
ROOT
ATOM      1  C   UNL d   1      -1.554   0.884   2.076  0.00  0.00     0.023 A 
ATOM      2  C1  UNL d   1      -2.209   0.946   0.846  0.00  0.00     0.003 A 
ATOM      3  C2  UNL d   1      -1.491   0.769  -0.338  0.00  0.00     0.048 A 
ATOM      4  C3  UNL d   1      -0.118   0.529  -0.285  0.00  0.00     0.023 A 
ATOM      5  C4  UNL d   1       0.541   0.465   0.943  0.00  0.00     0.048 A 
ATOM      6  C5  UNL d   1      -0.181   0.644   2.125  0.00  0.00     0.003 A 
ATOM      7  I   UNL d   1       0.953   0.265  -2.047  0.00  0.00    -0.146 I 
ENDROOT
TORSDOF 0
ENDMDL
