MODEL 1
REMARK minimizedAffinity -1.45381284
REMARK minimizedRMSD -1
REMARK  0 active torsions:
REMARK  status: ('A' for Active; 'I' for Inactive)
ROOT
ATOM      1  C   UNL d   1      -0.600   0.519   1.873  0.00  0.00     0.023 A 
ATOM      2  C1  UNL d   1      -1.509   0.277   0.842  0.00  0.00     0.003 A 
ATOM      3  C2  UNL d   1      -1.050   0.040  -0.455  0.00  0.00     0.048 A 
ATOM      4  C3  UNL d   1       0.320   0.044  -0.714  0.00  0.00     0.023 A 
ATOM      5  C4  UNL d   1       1.234   0.285   0.313  0.00  0.00     0.048 A 
ATOM      6  C5  UNL d   1       0.770   0.523   1.608  0.00  0.00     0.003 A 
ATOM      7  I   UNL d   1       1.006  -0.310  -2.644  0.00  0.00    -0.146 I 
ENDROOT
TORSDOF 0
ENDMDL
