MODEL 1
REMARK minimizedAffinity -0.223067045
REMARK minimizedRMSD -1
REMARK  0 active torsions:
REMARK  status: ('A' for Active; 'I' for Inactive)
ROOT
ATOM      1  C   UNL d   1      -2.826   1.167   3.040  0.00  0.00     0.023 A 
ATOM      2  C1  UNL d   1      -1.444   1.147   3.226  0.00  0.00     0.003 A 
ATOM      3  C2  UNL d   1      -0.602   0.778   2.176  0.00  0.00     0.048 A 
ATOM      4  C3  UNL d   1      -1.148   0.430   0.941  0.00  0.00     0.023 A 
ATOM      5  C4  UNL d   1      -2.531   0.449   0.749  0.00  0.00     0.048 A 
ATOM      6  C5  UNL d   1      -3.369   0.818   1.803  0.00  0.00     0.003 A 
ATOM      7  I   UNL d   1       0.104  -0.120  -0.624  0.00  0.00    -0.146 I 
ENDROOT
TORSDOF 0
ENDMDL
