MODEL 1
REMARK minimizedAffinity 0.634391487
REMARK minimizedRMSD -1
REMARK  0 active torsions:
REMARK  status: ('A' for Active; 'I' for Inactive)
ROOT
ATOM      1  C   UNL d   1       1.316  -1.236  -4.137  0.00  0.00     0.023 A 
ATOM      2  C1  UNL d   1       2.225  -0.431  -3.450  0.00  0.00     0.003 A 
ATOM      3  C2  UNL d   1       1.927   0.022  -2.164  0.00  0.00     0.048 A 
ATOM      4  C3  UNL d   1       0.717  -0.336  -1.568  0.00  0.00     0.023 A 
ATOM      5  C4  UNL d   1      -0.195  -1.142  -2.251  0.00  0.00     0.048 A 
ATOM      6  C5  UNL d   1       0.107  -1.591  -3.538  0.00  0.00     0.003 A 
ATOM      7  I   UNL d   1       0.271   0.336   0.347  0.00  0.00    -0.146 I 
ENDROOT
TORSDOF 0
ENDMDL
