MODEL 1
REMARK minimizedAffinity -0.533266246
REMARK minimizedRMSD -1
REMARK  0 active torsions:
REMARK  status: ('A' for Active; 'I' for Inactive)
ROOT
ATOM      1  C   UNL d   1       1.057  -1.393  -4.136  0.00  0.00     0.023 A 
ATOM      2  C1  UNL d   1      -0.092  -1.692  -3.404  0.00  0.00     0.003 A 
ATOM      3  C2  UNL d   1      -0.279  -1.134  -2.138  0.00  0.00     0.048 A 
ATOM      4  C3  UNL d   1       0.686  -0.277  -1.610  0.00  0.00     0.023 A 
ATOM      5  C4  UNL d   1       1.837   0.025  -2.340  0.00  0.00     0.048 A 
ATOM      6  C5  UNL d   1       2.020  -0.536  -3.605  0.00  0.00     0.003 A 
ATOM      7  I   UNL d   1       0.410   0.555   0.274  0.00  0.00    -0.146 I 
ENDROOT
TORSDOF 0
ENDMDL
