MODEL 1
REMARK minimizedAffinity -1.27290821
REMARK minimizedRMSD -1
REMARK  0 active torsions:
REMARK  status: ('A' for Active; 'I' for Inactive)
ROOT
ATOM      1  C   UNL d   1      -0.234   0.337   2.347  0.00  0.00     0.023 A 
ATOM      2  C1  UNL d   1       1.053  -0.115   2.054  0.00  0.00     0.003 A 
ATOM      3  C2  UNL d   1       1.434  -0.327   0.727  0.00  0.00     0.048 A 
ATOM      4  C3  UNL d   1       0.525  -0.083  -0.301  0.00  0.00     0.023 A 
ATOM      5  C4  UNL d   1      -0.763   0.371  -0.012  0.00  0.00     0.048 A 
ATOM      6  C5  UNL d   1      -1.141   0.580   1.315  0.00  0.00     0.003 A 
ATOM      7  I   UNL d   1       1.090  -0.397  -2.276  0.00  0.00    -0.146 I 
ENDROOT
TORSDOF 0
ENDMDL
