MODEL 1
REMARK minimizedAffinity -3.48514748
REMARK minimizedRMSD -1
REMARK  0 active torsions:
REMARK  status: ('A' for Active; 'I' for Inactive)
ROOT
ATOM      1  C   UNL d   1      -0.373   0.235   2.862  0.00  0.00     0.023 A 
ATOM      2  C1  UNL d   1      -1.483   0.383   2.031  0.00  0.00     0.003 A 
ATOM      3  C2  UNL d   1      -1.345   0.243   0.648  0.00  0.00     0.048 A 
ATOM      4  C3  UNL d   1      -0.094  -0.047   0.104  0.00  0.00     0.023 A 
ATOM      5  C4  UNL d   1       1.019  -0.197   0.933  0.00  0.00     0.048 A 
ATOM      6  C5  UNL d   1       0.876  -0.055   2.314  0.00  0.00     0.003 A 
ATOM      7  I   UNL d   1       0.114  -0.256  -1.953  0.00  0.00    -0.146 I 
ENDROOT
TORSDOF 0
ENDMDL
