MODEL 1
REMARK minimizedAffinity 3.51450944
REMARK minimizedRMSD -1
REMARK  0 active torsions:
REMARK  status: ('A' for Active; 'I' for Inactive)
ROOT
ATOM      1  O1  BZF d   1      -1.284  -0.751   1.429  0.00  0.00    -0.204 OA
ATOM      2  C2  BZF d   1      -1.686   0.495   1.869  0.00  0.00     0.174 A 
ATOM      3  C3  BZF d   1      -2.414   0.391   3.000  0.00  0.00    -0.012 A 
ATOM      4  C3A BZF d   1      -2.392  -1.000   3.335  0.00  0.00    -0.107 A 
ATOM      5  C4  BZF d   1      -2.924  -1.727   4.361  0.00  0.00     0.055 A 
ATOM      6  C5  BZF d   1      -2.782  -3.078   4.356  0.00  0.00    -0.016 A 
ATOM      7  C6  BZF d   1      -2.119  -3.735   3.340  0.00  0.00     0.022 A 
ATOM      8  C7  BZF d   1      -1.570  -3.056   2.304  0.00  0.00     0.029 A 
ATOM      9  C7A BZF d   1      -1.683  -1.687   2.323  0.00  0.00     0.058 A 
ENDROOT
TORSDOF 0
ENDMDL
