MODEL 1
REMARK minimizedAffinity 6.61283302
REMARK minimizedRMSD -1
REMARK  0 active torsions:
REMARK  status: ('A' for Active; 'I' for Inactive)
ROOT
ATOM      1  O1  BZF d   1       0.988   4.372  -2.062  0.00  0.00    -0.204 OA
ATOM      2  C2  BZF d   1       0.021   5.197  -1.521  0.00  0.00     0.174 A 
ATOM      3  C3  BZF d   1      -0.509   5.999  -2.467  0.00  0.00    -0.012 A 
ATOM      4  C3A BZF d   1       0.104   5.589  -3.693  0.00  0.00    -0.107 A 
ATOM      5  C4  BZF d   1      -0.025   5.999  -4.990  0.00  0.00     0.055 A 
ATOM      6  C5  BZF d   1       0.772   5.443  -5.940  0.00  0.00    -0.016 A 
ATOM      7  C6  BZF d   1       1.710   4.480  -5.629  0.00  0.00     0.022 A 
ATOM      8  C7  BZF d   1       1.870   4.038  -4.358  0.00  0.00     0.029 A 
ATOM      9  C7A BZF d   1       1.044   4.574  -3.401  0.00  0.00     0.058 A 
ENDROOT
TORSDOF 0
ENDMDL
