MODEL 1
REMARK minimizedAffinity 6.13330221
REMARK minimizedRMSD -1
REMARK  0 active torsions:
REMARK  status: ('A' for Active; 'I' for Inactive)
ROOT
ATOM      1  O1  BZF d   1       0.788   3.908  -5.200  0.00  0.00    -0.204 OA
ATOM      2  C2  BZF d   1       0.189   4.984  -5.827  0.00  0.00     0.174 A 
ATOM      3  C3  BZF d   1       1.072   5.989  -5.998  0.00  0.00    -0.012 A 
ATOM      4  C3A BZF d   1       2.322   5.477  -5.527  0.00  0.00    -0.107 A 
ATOM      5  C4  BZF d   1       3.582   5.999  -5.452  0.00  0.00     0.055 A 
ATOM      6  C5  BZF d   1       4.567   5.264  -4.872  0.00  0.00    -0.016 A 
ATOM      7  C6  BZF d   1       4.328   4.008  -4.354  0.00  0.00     0.022 A 
ATOM      8  C7  BZF d   1       3.096   3.447  -4.410  0.00  0.00     0.029 A 
ATOM      9  C7A BZF d   1       2.105   4.173  -5.025  0.00  0.00     0.058 A 
ENDROOT
TORSDOF 0
ENDMDL
