MODEL 1
REMARK minimizedAffinity -0.442157298
REMARK minimizedRMSD -1
REMARK  0 active torsions:
REMARK  status: ('A' for Active; 'I' for Inactive)
ROOT
ATOM      1  O1  BZF d   1       0.418   5.972  -3.194  0.00  0.00    -0.204 OA
ATOM      2  C2  BZF d   1       0.674   5.926  -4.551  0.00  0.00     0.174 A 
ATOM      3  C3  BZF d   1      -0.474   5.843  -5.253  0.00  0.00    -0.012 A 
ATOM      4  C3A BZF d   1      -1.518   5.930  -4.278  0.00  0.00    -0.107 A 
ATOM      5  C4  BZF d   1      -2.881   5.922  -4.359  0.00  0.00     0.055 A 
ATOM      6  C5  BZF d   1      -3.611   5.949  -3.213  0.00  0.00    -0.016 A 
ATOM      7  C6  BZF d   1      -3.011   5.979  -1.971  0.00  0.00     0.022 A 
ATOM      8  C7  BZF d   1      -1.662   5.994  -1.840  0.00  0.00     0.029 A 
ATOM      9  C7A BZF d   1      -0.922   5.999  -2.997  0.00  0.00     0.058 A 
ENDROOT
TORSDOF 0
ENDMDL
