MODEL 1
REMARK minimizedAffinity 0.0610948764
REMARK minimizedRMSD -1
REMARK  0 active torsions:
REMARK  status: ('A' for Active; 'I' for Inactive)
ROOT
ATOM      1  O1  BZF d   1      -1.649   5.957  -5.916  0.00  0.00    -0.204 OA
ATOM      2  C2  BZF d   1      -0.316   5.946  -5.553  0.00  0.00     0.174 A 
ATOM      3  C3  BZF d   1      -0.184   5.999  -4.212  0.00  0.00    -0.012 A 
ATOM      4  C3A BZF d   1      -1.519   5.953  -3.701  0.00  0.00    -0.107 A 
ATOM      5  C4  BZF d   1      -2.042   5.957  -2.439  0.00  0.00     0.055 A 
ATOM      6  C5  BZF d   1      -3.392   5.978  -2.284  0.00  0.00    -0.016 A 
ATOM      7  C6  BZF d   1      -4.247   6.000  -3.366  0.00  0.00     0.022 A 
ATOM      8  C7  BZF d   1      -3.776   5.991  -4.636  0.00  0.00     0.029 A 
ATOM      9  C7A BZF d   1      -2.413   5.937  -4.797  0.00  0.00     0.058 A 
ENDROOT
TORSDOF 0
ENDMDL
