MODEL 1
REMARK minimizedAffinity 1.22478628
REMARK minimizedRMSD -1
REMARK  0 active torsions:
REMARK  status: ('A' for Active; 'I' for Inactive)
ROOT
ATOM      1  O1  BZF d   1      -1.511   5.983  -5.112  0.00  0.00    -0.204 OA
ATOM      2  C2  BZF d   1      -0.130   5.964  -5.085  0.00  0.00     0.174 A 
ATOM      3  C3  BZF d   1       0.324   5.995  -3.815  0.00  0.00    -0.012 A 
ATOM      4  C3A BZF d   1      -0.847   5.943  -2.995  0.00  0.00    -0.107 A 
ATOM      5  C4  BZF d   1      -1.048   5.927  -1.644  0.00  0.00     0.055 A 
ATOM      6  C5  BZF d   1      -2.319   5.947  -1.165  0.00  0.00    -0.016 A 
ATOM      7  C6  BZF d   1      -3.412   5.988  -2.006  0.00  0.00     0.022 A 
ATOM      8  C7  BZF d   1      -3.263   6.000  -3.353  0.00  0.00     0.029 A 
ATOM      9  C7A BZF d   1      -1.980   5.946  -3.841  0.00  0.00     0.058 A 
ENDROOT
TORSDOF 0
ENDMDL
