MODEL 1
REMARK minimizedAffinity 1.71999991
REMARK minimizedRMSD -1
REMARK  0 active torsions:
REMARK  status: ('A' for Active; 'I' for Inactive)
ROOT
ATOM      1  O1  BZF d   1      -0.660   5.921  -5.768  0.00  0.00    -0.204 OA
ATOM      2  C2  BZF d   1       0.717   5.920  -5.654  0.00  0.00     0.174 A 
ATOM      3  C3  BZF d   1       1.090   5.996  -4.360  0.00  0.00    -0.012 A 
ATOM      4  C3A BZF d   1      -0.130   5.955  -3.614  0.00  0.00    -0.107 A 
ATOM      5  C4  BZF d   1      -0.415   5.978  -2.278  0.00  0.00     0.055 A 
ATOM      6  C5  BZF d   1      -1.715   5.998  -1.881  0.00  0.00    -0.016 A 
ATOM      7  C6  BZF d   1      -2.752   5.999  -2.790  0.00  0.00     0.022 A 
ATOM      8  C7  BZF d   1      -2.519   5.971  -4.124  0.00  0.00     0.029 A 
ATOM      9  C7A BZF d   1      -1.207   5.918  -4.529  0.00  0.00     0.058 A 
ENDROOT
TORSDOF 0
ENDMDL
