MODEL 1
REMARK minimizedAffinity 5.64812565
REMARK minimizedRMSD -1
REMARK  0 active torsions:
REMARK  status: ('A' for Active; 'I' for Inactive)
ROOT
ATOM      1  O1  BZF d   1       2.051   5.809  -3.299  0.00  0.00    -0.204 OA
ATOM      2  C2  BZF d   1       1.128   5.846  -4.327  0.00  0.00     0.174 A 
ATOM      3  C3  BZF d   1       1.746   5.977  -5.519  0.00  0.00    -0.012 A 
ATOM      4  C3A BZF d   1       3.145   5.932  -5.225  0.00  0.00    -0.107 A 
ATOM      5  C4  BZF d   1       4.269   5.997  -5.998  0.00  0.00     0.055 A 
ATOM      6  C5  BZF d   1       5.487   5.997  -5.394  0.00  0.00    -0.016 A 
ATOM      7  C6  BZF d   1       5.616   5.941  -4.022  0.00  0.00     0.022 A 
ATOM      8  C7  BZF d   1       4.530   5.871  -3.214  0.00  0.00     0.029 A 
ATOM      9  C7A BZF d   1       3.300   5.836  -3.823  0.00  0.00     0.058 A 
ENDROOT
TORSDOF 0
ENDMDL
