MODEL 1
REMARK minimizedAffinity -0.582881331
REMARK minimizedRMSD -1
REMARK  0 active torsions:
REMARK  status: ('A' for Active; 'I' for Inactive)
ROOT
ATOM      1  O1  BZF d   1      -1.374   5.998  -5.231  0.00  0.00    -0.204 OA
ATOM      2  C2  BZF d   1      -0.074   5.979  -4.764  0.00  0.00     0.174 A 
ATOM      3  C3  BZF d   1      -0.049   5.999  -3.416  0.00  0.00    -0.012 A 
ATOM      4  C3A BZF d   1      -1.421   5.940  -3.014  0.00  0.00    -0.107 A 
ATOM      5  C4  BZF d   1      -2.042   5.912  -1.798  0.00  0.00     0.055 A 
ATOM      6  C5  BZF d   1      -3.400   5.928  -1.750  0.00  0.00    -0.016 A 
ATOM      7  C6  BZF d   1      -4.167   5.976  -2.896  0.00  0.00     0.022 A 
ATOM      8  C7  BZF d   1      -3.596   6.000  -4.124  0.00  0.00     0.029 A 
ATOM      9  C7A BZF d   1      -2.224   5.951  -4.177  0.00  0.00     0.058 A 
ENDROOT
TORSDOF 0
ENDMDL
