MODEL 1
REMARK minimizedAffinity -3.85870123
REMARK minimizedRMSD -1
REMARK  0 active torsions:
REMARK  status: ('A' for Active; 'I' for Inactive)
ROOT
ATOM      1  O1  BZF d   1       2.405   0.334   3.276  0.00  0.00    -0.204 OA
ATOM      2  C2  BZF d   1       3.594   0.733   2.696  0.00  0.00     0.174 A 
ATOM      3  C3  BZF d   1       3.375   1.269   1.478  0.00  0.00    -0.012 A 
ATOM      4  C3A BZF d   1       1.952   1.286   1.324  0.00  0.00    -0.107 A 
ATOM      5  C4  BZF d   1       1.121   1.716   0.330  0.00  0.00     0.055 A 
ATOM      6  C5  BZF d   1      -0.218   1.522   0.459  0.00  0.00    -0.016 A 
ATOM      7  C6  BZF d   1      -0.758   0.898   1.565  0.00  0.00     0.022 A 
ATOM      8  C7  BZF d   1       0.026   0.459   2.579  0.00  0.00     0.029 A 
ATOM      9  C7A BZF d   1       1.377   0.683   2.466  0.00  0.00     0.058 A 
ENDROOT
TORSDOF 0
ENDMDL
