MODEL 1
REMARK minimizedAffinity -0.469208002
REMARK minimizedRMSD -1
REMARK  0 active torsions:
REMARK  status: ('A' for Active; 'I' for Inactive)
ROOT
ATOM      1  O1  BZF d   1      -0.925   5.859  -5.917  0.00  0.00    -0.204 OA
ATOM      2  C2  BZF d   1       0.430   5.887  -5.650  0.00  0.00     0.174 A 
ATOM      3  C3  BZF d   1       0.654   5.998  -4.325  0.00  0.00    -0.012 A 
ATOM      4  C3A BZF d   1      -0.641   5.949  -3.719  0.00  0.00    -0.107 A 
ATOM      5  C4  BZF d   1      -1.075   5.996  -2.425  0.00  0.00     0.055 A 
ATOM      6  C5  BZF d   1      -2.411   5.999  -2.176  0.00  0.00    -0.016 A 
ATOM      7  C6  BZF d   1      -3.340   5.961  -3.195  0.00  0.00     0.022 A 
ATOM      8  C7  BZF d   1      -2.958   5.909  -4.494  0.00  0.00     0.029 A 
ATOM      9  C7A BZF d   1      -1.608   5.872  -4.748  0.00  0.00     0.058 A 
ENDROOT
TORSDOF 0
ENDMDL
