MODEL 1
REMARK minimizedAffinity -2.48426819
REMARK minimizedRMSD -1
REMARK  0 active torsions:
REMARK  status: ('A' for Active; 'I' for Inactive)
ROOT
ATOM      1  O1  BZF d   1       0.647   5.961  -3.811  0.00  0.00    -0.204 OA
ATOM      2  C2  BZF d   1       0.898   5.963  -5.169  0.00  0.00     0.174 A 
ATOM      3  C3  BZF d   1      -0.254   5.922  -5.869  0.00  0.00    -0.012 A 
ATOM      4  C3A BZF d   1      -1.293   5.986  -4.888  0.00  0.00    -0.107 A 
ATOM      5  C4  BZF d   1      -2.656   6.000  -4.963  0.00  0.00     0.055 A 
ATOM      6  C5  BZF d   1      -3.382   5.994  -3.814  0.00  0.00    -0.016 A 
ATOM      7  C6  BZF d   1      -2.778   5.970  -2.574  0.00  0.00     0.022 A 
ATOM      8  C7  BZF d   1      -1.428   5.961  -2.449  0.00  0.00     0.029 A 
ATOM      9  C7A BZF d   1      -0.692   6.000  -3.608  0.00  0.00     0.058 A 
ENDROOT
TORSDOF 0
ENDMDL
