MODEL 1
REMARK minimizedAffinity -2.29238272
REMARK minimizedRMSD -1
REMARK  0 active torsions:
REMARK  status: ('A' for Active; 'I' for Inactive)
ROOT
ATOM      1  O1  BZF d   1      -2.759   5.888  -4.470  0.00  0.00    -0.204 OA
ATOM      2  C2  BZF d   1      -2.951   5.992  -3.106  0.00  0.00     0.174 A 
ATOM      3  C3  BZF d   1      -1.769   6.000  -2.455  0.00  0.00    -0.012 A 
ATOM      4  C3A BZF d   1      -0.774   5.986  -3.483  0.00  0.00    -0.107 A 
ATOM      5  C4  BZF d   1       0.591   6.000  -3.468  0.00  0.00     0.055 A 
ATOM      6  C5  BZF d   1       1.266   5.905  -4.643  0.00  0.00    -0.016 A 
ATOM      7  C6  BZF d   1       0.609   5.790  -5.851  0.00  0.00     0.022 A 
ATOM      8  C7  BZF d   1      -0.745   5.777  -5.917  0.00  0.00     0.029 A 
ATOM      9  C7A BZF d   1      -1.430   5.905  -4.733  0.00  0.00     0.058 A 
ENDROOT
TORSDOF 0
ENDMDL
