MODEL 1
REMARK minimizedAffinity 5.8816762
REMARK minimizedRMSD -1
REMARK  0 active torsions:
REMARK  status: ('A' for Active; 'I' for Inactive)
ROOT
ATOM      1  O1  BZF d   1      -2.968   5.977  -1.268  0.00  0.00    -0.204 OA
ATOM      2  C2  BZF d   1      -2.126   5.999  -0.172  0.00  0.00     0.174 A 
ATOM      3  C3  BZF d   1      -0.835   5.956  -0.560  0.00  0.00    -0.012 A 
ATOM      4  C3A BZF d   1      -0.870   5.998  -1.990  0.00  0.00    -0.107 A 
ATOM      5  C4  BZF d   1       0.098   5.999  -2.953  0.00  0.00     0.055 A 
ATOM      6  C5  BZF d   1      -0.271   5.971  -4.260  0.00  0.00    -0.016 A 
ATOM      7  C6  BZF d   1      -1.597   5.936  -4.640  0.00  0.00     0.022 A 
ATOM      8  C7  BZF d   1      -2.593   5.938  -3.721  0.00  0.00     0.029 A 
ATOM      9  C7A BZF d   1      -2.224   6.000  -2.399  0.00  0.00     0.058 A 
ENDROOT
TORSDOF 0
ENDMDL
