MODEL 1
REMARK minimizedAffinity 5.30680132
REMARK minimizedRMSD -1
REMARK  0 active torsions:
REMARK  status: ('A' for Active; 'I' for Inactive)
ROOT
ATOM      1  O1  BZF d   1      -3.511  -1.945  -4.605  0.00  0.00    -0.204 OA
ATOM      2  C2  BZF d   1      -2.359  -1.197  -4.758  0.00  0.00     0.174 A 
ATOM      3  C3  BZF d   1      -1.905  -0.768  -3.563  0.00  0.00    -0.012 A 
ATOM      4  C3A BZF d   1      -2.779  -1.356  -2.595  0.00  0.00    -0.107 A 
ATOM      5  C4  BZF d   1      -2.833  -1.316  -1.231  0.00  0.00     0.055 A 
ATOM      6  C5  BZF d   1      -3.856  -1.941  -0.591  0.00  0.00    -0.016 A 
ATOM      7  C6  BZF d   1      -4.844  -2.610  -1.283  0.00  0.00     0.022 A 
ATOM      8  C7  BZF d   1      -4.831  -2.682  -2.636  0.00  0.00     0.029 A 
ATOM      9  C7A BZF d   1      -3.780  -2.079  -3.284  0.00  0.00     0.058 A 
ENDROOT
TORSDOF 0
ENDMDL
