MODEL 1
REMARK minimizedAffinity -2.11977077
REMARK minimizedRMSD -1
REMARK  0 active torsions:
REMARK  status: ('A' for Active; 'I' for Inactive)
ROOT
ATOM      1  O1  BZF d   1       2.013   5.901  -5.732  0.00  0.00    -0.204 OA
ATOM      2  C2  BZF d   1       1.173   5.998  -4.640  0.00  0.00     0.174 A 
ATOM      3  C3  BZF d   1       1.881   5.999  -3.491  0.00  0.00    -0.012 A 
ATOM      4  C3A BZF d   1       3.253   5.988  -3.895  0.00  0.00    -0.107 A 
ATOM      5  C4  BZF d   1       4.434   5.998  -3.209  0.00  0.00     0.055 A 
ATOM      6  C5  BZF d   1       5.601   5.908  -3.900  0.00  0.00    -0.016 A 
ATOM      7  C6  BZF d   1       5.623   5.802  -5.275  0.00  0.00     0.022 A 
ATOM      8  C7  BZF d   1       4.478   5.793  -6.000  0.00  0.00     0.029 A 
ATOM      9  C7A BZF d   1       3.299   5.917  -5.306  0.00  0.00     0.058 A 
ENDROOT
TORSDOF 0
ENDMDL
