MODEL 1
REMARK minimizedAffinity 1.72045374
REMARK minimizedRMSD -1
REMARK  0 active torsions:
REMARK  status: ('A' for Active; 'I' for Inactive)
ROOT
ATOM      1  O1  BZF d   1       0.463   5.949  -3.716  0.00  0.00    -0.204 OA
ATOM      2  C2  BZF d   1       0.885   5.919  -5.031  0.00  0.00     0.174 A 
ATOM      3  C3  BZF d   1      -0.169   5.866  -5.871  0.00  0.00    -0.012 A 
ATOM      4  C3A BZF d   1      -1.324   5.956  -5.031  0.00  0.00    -0.107 A 
ATOM      5  C4  BZF d   1      -2.667   5.973  -5.279  0.00  0.00     0.055 A 
ATOM      6  C5  BZF d   1      -3.532   5.996  -4.232  0.00  0.00    -0.016 A 
ATOM      7  C6  BZF d   1      -3.090   5.998  -2.925  0.00  0.00     0.022 A 
ATOM      8  C7  BZF d   1      -1.767   5.987  -2.629  0.00  0.00     0.029 A 
ATOM      9  C7A BZF d   1      -0.890   5.997  -3.685  0.00  0.00     0.058 A 
ENDROOT
TORSDOF 0
ENDMDL
