MODEL 1
REMARK minimizedAffinity -3.55347967
REMARK minimizedRMSD -1
REMARK  0 active torsions:
REMARK  status: ('A' for Active; 'I' for Inactive)
ROOT
ATOM      1  O1  BZF d   1       0.225   5.973  -4.370  0.00  0.00    -0.204 OA
ATOM      2  C2  BZF d   1      -0.080   5.995  -5.718  0.00  0.00     0.174 A 
ATOM      3  C3  BZF d   1      -1.414   5.954  -5.907  0.00  0.00    -0.012 A 
ATOM      4  C3A BZF d   1      -1.982   5.996  -4.594  0.00  0.00    -0.107 A 
ATOM      5  C4  BZF d   1      -3.265   5.999  -4.125  0.00  0.00     0.055 A 
ATOM      6  C5  BZF d   1      -3.478   5.972  -2.784  0.00  0.00    -0.016 A 
ATOM      7  C6  BZF d   1      -2.433   5.936  -1.883  0.00  0.00     0.022 A 
ATOM      8  C7  BZF d   1      -1.143   5.937  -2.300  0.00  0.00     0.029 A 
ATOM      9  C7A BZF d   1      -0.925   5.998  -3.655  0.00  0.00     0.058 A 
ENDROOT
TORSDOF 0
ENDMDL
