MODEL 1
REMARK minimizedAffinity -0.790627599
REMARK minimizedRMSD -1
REMARK  1 active torsions:
REMARK  status: ('A' for Active; 'I' for Inactive)
REMARK    1  A    between atoms: C3_4  and  O_7 
ROOT
ATOM      1  C   UNL d   1      -3.208  -2.101  -0.933  0.00  0.00    -0.033 A 
ATOM      2  C1  UNL d   1      -2.207  -2.035   0.037  0.00  0.00     0.039 A 
ATOM      3  C2  UNL d   1      -0.866  -2.170  -0.330  0.00  0.00    -0.080 A 
ATOM      4  C3  UNL d   1      -0.541  -2.368  -1.669  0.00  0.00     0.150 A 
ATOM      5  C4  UNL d   1      -1.534  -2.431  -2.642  0.00  0.00    -0.007 A 
ATOM      6  C5  UNL d   1      -2.872  -2.298  -2.273  0.00  0.00     0.039 A 
ENDROOT
BRANCH   4   7
ATOM      7  O   UNL d   1       0.752  -2.510  -2.075  0.00  0.00    -0.526 OA
ATOM      8  H5  UNL d   1       1.326  -2.474  -1.291  0.00  0.00     0.418 HD
ENDBRANCH   4   7
TORSDOF 1
ENDMDL
