MODEL 1
REMARK minimizedAffinity -5.12756395
REMARK minimizedRMSD -1
REMARK  1 active torsions:
REMARK  status: ('A' for Active; 'I' for Inactive)
REMARK    1  A    between atoms: C3_4  and  O_7 
ROOT
ATOM      1  C   UNL d   1       1.207   1.848   0.649  0.00  0.00    -0.033 A 
ATOM      2  C1  UNL d   1      -0.113   1.426   0.477  0.00  0.00     0.039 A 
ATOM      3  C2  UNL d   1      -0.485   0.748  -0.685  0.00  0.00    -0.080 A 
ATOM      4  C3  UNL d   1       0.471   0.499  -1.666  0.00  0.00     0.150 A 
ATOM      5  C4  UNL d   1       1.788   0.914  -1.500  0.00  0.00    -0.007 A 
ATOM      6  C5  UNL d   1       2.158   1.591  -0.339  0.00  0.00     0.039 A 
ENDROOT
BRANCH   4   7
ATOM      7  O   UNL d   1       0.154  -0.154  -2.820  0.00  0.00    -0.526 OA
ATOM      8  H5  UNL d   1      -0.797  -0.355  -2.809  0.00  0.00     0.418 HD
ENDBRANCH   4   7
TORSDOF 1
ENDMDL
