MODEL 1
REMARK minimizedAffinity -4.18573809
REMARK minimizedRMSD -1
REMARK  1 active torsions:
REMARK  status: ('A' for Active; 'I' for Inactive)
REMARK    1  A    between atoms: C3_4  and  O_7 
ROOT
ATOM      1  C   UNL d   1       2.223   3.136   0.526  0.00  0.00    -0.033 A 
ATOM      2  C1  UNL d   1       0.888   2.816   0.776  0.00  0.00     0.039 A 
ATOM      3  C2  UNL d   1       0.287   1.747   0.109  0.00  0.00    -0.080 A 
ATOM      4  C3  UNL d   1       1.032   1.006  -0.805  0.00  0.00     0.150 A 
ATOM      5  C4  UNL d   1       2.365   1.318  -1.057  0.00  0.00    -0.007 A 
ATOM      6  C5  UNL d   1       2.962   2.386  -0.390  0.00  0.00     0.039 A 
ENDROOT
BRANCH   4   7
ATOM      7  O   UNL d   1       0.488  -0.043  -1.484  0.00  0.00    -0.526 OA
ATOM      8  H5  UNL d   1      -0.446  -0.123  -1.230  0.00  0.00     0.418 HD
ENDBRANCH   4   7
TORSDOF 1
ENDMDL
