MODEL 1
REMARK minimizedAffinity -3.61077404
REMARK minimizedRMSD -1
REMARK  1 active torsions:
REMARK  status: ('A' for Active; 'I' for Inactive)
REMARK    1  A    between atoms: C3_4  and  O_7 
ROOT
ATOM      1  C   UNL d   1       1.595   3.407   0.526  0.00  0.00    -0.033 A 
ATOM      2  C1  UNL d   1       0.363   2.757   0.438  0.00  0.00     0.039 A 
ATOM      3  C2  UNL d   1       0.207   1.665  -0.419  0.00  0.00    -0.080 A 
ATOM      4  C3  UNL d   1       1.289   1.234  -1.180  0.00  0.00     0.150 A 
ATOM      5  C4  UNL d   1       2.521   1.874  -1.094  0.00  0.00    -0.007 A 
ATOM      6  C5  UNL d   1       2.675   2.965  -0.239  0.00  0.00     0.039 A 
ENDROOT
BRANCH   4   7
ATOM      7  O   UNL d   1       1.184   0.176  -2.033  0.00  0.00    -0.526 OA
ATOM      8  H5  UNL d   1       0.269  -0.149  -2.009  0.00  0.00     0.418 HD
ENDBRANCH   4   7
TORSDOF 1
ENDMDL
