MODEL 1
REMARK minimizedAffinity -0.319119364
REMARK minimizedRMSD -1
REMARK  1 active torsions:
REMARK  status: ('A' for Active; 'I' for Inactive)
REMARK    1  A    between atoms: C3_4  and  O_7 
ROOT
ATOM      1  C   UNL d   1       2.711   0.747  -2.621  0.00  0.00    -0.033 A 
ATOM      2  C1  UNL d   1       2.938   1.219  -1.327  0.00  0.00     0.039 A 
ATOM      3  C2  UNL d   1       1.906   1.210  -0.387  0.00  0.00    -0.080 A 
ATOM      4  C3  UNL d   1       0.653   0.726  -0.753  0.00  0.00     0.150 A 
ATOM      5  C4  UNL d   1       0.420   0.250  -2.039  0.00  0.00    -0.007 A 
ATOM      6  C5  UNL d   1       1.452   0.261  -2.977  0.00  0.00     0.039 A 
ENDROOT
BRANCH   4   7
ATOM      7  O   UNL d   1      -0.386   0.702   0.129  0.00  0.00    -0.526 OA
ATOM      8  H5  UNL d   1      -0.087   1.087   0.969  0.00  0.00     0.418 HD
ENDBRANCH   4   7
TORSDOF 1
ENDMDL
