MODEL 1
REMARK minimizedAffinity -4.87816858
REMARK minimizedRMSD -1
REMARK  1 active torsions:
REMARK  status: ('A' for Active; 'I' for Inactive)
REMARK    1  A    between atoms: C3_4  and  O_7 
ROOT
ATOM      1  C   UNL d   1       0.163   0.887  -0.402  0.00  0.00    -0.033 A 
ATOM      2  C1  UNL d   1       0.737  -0.131  -1.167  0.00  0.00     0.039 A 
ATOM      3  C2  UNL d   1       0.658  -1.457  -0.738  0.00  0.00    -0.080 A 
ATOM      4  C3  UNL d   1       0.004  -1.752   0.454  0.00  0.00     0.150 A 
ATOM      5  C4  UNL d   1      -0.573  -0.744   1.219  0.00  0.00    -0.007 A 
ATOM      6  C5  UNL d   1      -0.493   0.580   0.790  0.00  0.00     0.039 A 
ENDROOT
BRANCH   4   7
ATOM      7  O   UNL d   1      -0.094  -3.032   0.916  0.00  0.00    -0.526 OA
ATOM      8  H5  UNL d   1       0.375  -3.618   0.299  0.00  0.00     0.418 HD
ENDBRANCH   4   7
TORSDOF 1
ENDMDL
