MODEL 1
REMARK minimizedAffinity -4.79759693
REMARK minimizedRMSD -1
REMARK  1 active torsions:
REMARK  status: ('A' for Active; 'I' for Inactive)
REMARK    1  A    between atoms: C3_4  and  O_7 
ROOT
ATOM      1  C   UNL d   1      -0.010   0.923  -0.152  0.00  0.00    -0.033 A 
ATOM      2  C1  UNL d   1      -0.664   0.460   0.991  0.00  0.00     0.039 A 
ATOM      3  C2  UNL d   1      -0.646  -0.900   1.305  0.00  0.00    -0.080 A 
ATOM      4  C3  UNL d   1       0.029  -1.785   0.470  0.00  0.00     0.150 A 
ATOM      5  C4  UNL d   1       0.686  -1.331  -0.669  0.00  0.00    -0.007 A 
ATOM      6  C5  UNL d   1       0.666   0.028  -0.981  0.00  0.00     0.039 A 
ENDROOT
BRANCH   4   7
ATOM      7  O   UNL d   1       0.070  -3.122   0.733  0.00  0.00    -0.526 OA
ATOM      8  H5  UNL d   1      -0.451  -3.294   1.535  0.00  0.00     0.418 HD
ENDBRANCH   4   7
TORSDOF 1
ENDMDL
