MODEL 1
REMARK minimizedAffinity -3.9929812
REMARK minimizedRMSD -1
REMARK  1 active torsions:
REMARK  status: ('A' for Active; 'I' for Inactive)
REMARK    1  A    between atoms: C3_4  and  O_7 
ROOT
ATOM      1  C   UNL d   1      -0.956  -1.846   1.712  0.00  0.00    -0.033 A 
ATOM      2  C1  UNL d   1      -0.436  -0.560   1.867  0.00  0.00     0.039 A 
ATOM      3  C2  UNL d   1      -0.083   0.192   0.744  0.00  0.00    -0.080 A 
ATOM      4  C3  UNL d   1      -0.257  -0.353  -0.525  0.00  0.00     0.150 A 
ATOM      5  C4  UNL d   1      -0.778  -1.632  -0.686  0.00  0.00    -0.007 A 
ATOM      6  C5  UNL d   1      -1.129  -2.382   0.436  0.00  0.00     0.039 A 
ENDROOT
BRANCH   4   7
ATOM      7  O   UNL d   1       0.077   0.341  -1.650  0.00  0.00    -0.526 OA
ATOM      8  H5  UNL d   1       0.451   1.198  -1.384  0.00  0.00     0.418 HD
ENDBRANCH   4   7
TORSDOF 1
ENDMDL
