MODEL 1
REMARK minimizedAffinity -2.82149816
REMARK minimizedRMSD -1
REMARK  1 active torsions:
REMARK  status: ('A' for Active; 'I' for Inactive)
REMARK    1  A    between atoms: C3_4  and  O_7 
ROOT
ATOM      1  C   UNL d   1      -1.248   1.143   1.728  0.00  0.00    -0.033 A 
ATOM      2  C1  UNL d   1      -0.842   2.114   0.810  0.00  0.00     0.039 A 
ATOM      3  C2  UNL d   1      -0.319   1.732  -0.427  0.00  0.00    -0.080 A 
ATOM      4  C3  UNL d   1      -0.209   0.379  -0.734  0.00  0.00     0.150 A 
ATOM      5  C4  UNL d   1      -0.615  -0.594   0.174  0.00  0.00    -0.007 A 
ATOM      6  C5  UNL d   1      -1.136  -0.211   1.409  0.00  0.00     0.039 A 
ENDROOT
BRANCH   4   7
ATOM      7  O   UNL d   1       0.300  -0.042  -1.927  0.00  0.00    -0.526 OA
ATOM      8  H5  UNL d   1       0.566   0.739  -2.441  0.00  0.00     0.418 HD
ENDBRANCH   4   7
TORSDOF 1
ENDMDL
