MODEL 1
REMARK minimizedAffinity -1.59041178
REMARK minimizedRMSD -1
REMARK  1 active torsions:
REMARK  status: ('A' for Active; 'I' for Inactive)
REMARK    1  A    between atoms: C3_4  and  O_7 
ROOT
ATOM      1  C   UNL d   1      -1.134  -1.983   0.642  0.00  0.00    -0.033 A 
ATOM      2  C1  UNL d   1      -0.895  -1.261  -0.529  0.00  0.00     0.039 A 
ATOM      3  C2  UNL d   1      -0.740   0.125  -0.476  0.00  0.00    -0.080 A 
ATOM      4  C3  UNL d   1      -0.824   0.777   0.751  0.00  0.00     0.150 A 
ATOM      5  C4  UNL d   1      -1.057   0.063   1.922  0.00  0.00    -0.007 A 
ATOM      6  C5  UNL d   1      -1.213  -1.322   1.868  0.00  0.00     0.039 A 
ENDROOT
BRANCH   4   7
ATOM      7  O   UNL d   1      -0.683   2.129   0.852  0.00  0.00    -0.526 OA
ATOM      8  H5  UNL d   1      -0.556   2.492  -0.040  0.00  0.00     0.418 HD
ENDBRANCH   4   7
TORSDOF 1
ENDMDL
