MODEL 1
REMARK minimizedAffinity -3.94305348
REMARK minimizedRMSD -1
REMARK  1 active torsions:
REMARK  status: ('A' for Active; 'I' for Inactive)
REMARK    1  A    between atoms: C3_4  and  O_7 
ROOT
ATOM      1  C   UNL d   1       0.446   0.628  -1.274  0.00  0.00    -0.033 A 
ATOM      2  C1  UNL d   1      -0.038   0.825   0.021  0.00  0.00     0.039 A 
ATOM      3  C2  UNL d   1      -0.471  -0.264   0.779  0.00  0.00    -0.080 A 
ATOM      4  C3  UNL d   1      -0.414  -1.543   0.232  0.00  0.00     0.150 A 
ATOM      5  C4  UNL d   1       0.070  -1.747  -1.056  0.00  0.00    -0.007 A 
ATOM      6  C5  UNL d   1       0.501  -0.658  -1.812  0.00  0.00     0.039 A 
ENDROOT
BRANCH   4   7
ATOM      7  O   UNL d   1      -0.830  -2.637   0.932  0.00  0.00    -0.526 OA
ATOM      8  H5  UNL d   1      -1.166  -2.340   1.795  0.00  0.00     0.418 HD
ENDBRANCH   4   7
TORSDOF 1
ENDMDL
