MODEL 1
REMARK minimizedAffinity -1.26006055
REMARK minimizedRMSD -1
REMARK  1 active torsions:
REMARK  status: ('A' for Active; 'I' for Inactive)
REMARK    1  A    between atoms: C3_4  and  O_7 
ROOT
ATOM      1  C   UNL d   1       3.581  -1.838   5.999  0.00  0.00    -0.033 A 
ATOM      2  C1  UNL d   1       4.968  -1.678   5.999  0.00  0.00     0.039 A 
ATOM      3  C2  UNL d   1       5.798  -2.769   5.737  0.00  0.00    -0.080 A 
ATOM      4  C3  UNL d   1       5.230  -4.013   5.477  0.00  0.00     0.150 A 
ATOM      5  C4  UNL d   1       3.849  -4.179   5.472  0.00  0.00    -0.007 A 
ATOM      6  C5  UNL d   1       3.021  -3.088   5.734  0.00  0.00     0.039 A 
ENDROOT
BRANCH   4   7
ATOM      7  O   UNL d   1       6.000  -5.109   5.220  0.00  0.00    -0.526 OA
ATOM      8  H5  UNL d   1       6.934  -4.850   5.286  0.00  0.00     0.418 HD
ENDBRANCH   4   7
TORSDOF 1
ENDMDL
