MODEL 1
REMARK minimizedAffinity 1.68231714
REMARK minimizedRMSD -1
REMARK  1 active torsions:
REMARK  status: ('A' for Active; 'I' for Inactive)
REMARK    1  A    between atoms: C3_4  and  O_7 
ROOT
ATOM      1  C   UNL d   1       4.098  -2.112   5.952  0.00  0.00    -0.033 A 
ATOM      2  C1  UNL d   1       3.471  -3.359   6.000  0.00  0.00     0.039 A 
ATOM      3  C2  UNL d   1       4.098  -4.479   5.450  0.00  0.00    -0.080 A 
ATOM      4  C3  UNL d   1       5.350  -4.340   4.858  0.00  0.00     0.150 A 
ATOM      5  C4  UNL d   1       5.983  -3.101   4.811  0.00  0.00    -0.007 A 
ATOM      6  C5  UNL d   1       5.355  -1.984   5.359  0.00  0.00     0.039 A 
ENDROOT
BRANCH   4   7
ATOM      7  O   UNL d   1       5.999  -5.403   4.304  0.00  0.00    -0.526 OA
ATOM      8  H5  UNL d   1       5.430  -6.187   4.385  0.00  0.00     0.418 HD
ENDBRANCH   4   7
TORSDOF 1
ENDMDL
