MODEL 1
REMARK minimizedAffinity -4.64874029
REMARK minimizedRMSD -1
REMARK  1 active torsions:
REMARK  status: ('A' for Active; 'I' for Inactive)
REMARK    1  A    between atoms: C3_4  and  O_7 
ROOT
ATOM      1  C   UNL d   1       0.049   0.447   0.135  0.00  0.00    -0.033 A 
ATOM      2  C1  UNL d   1       0.784  -0.330  -0.762  0.00  0.00     0.039 A 
ATOM      3  C2  UNL d   1       0.785  -1.722  -0.644  0.00  0.00    -0.080 A 
ATOM      4  C3  UNL d   1       0.047  -2.322   0.372  0.00  0.00     0.150 A 
ATOM      5  C4  UNL d   1      -0.690  -1.553   1.267  0.00  0.00    -0.007 A 
ATOM      6  C5  UNL d   1      -0.689  -0.164   1.149  0.00  0.00     0.039 A 
ENDROOT
BRANCH   4   7
ATOM      7  O   UNL d   1       0.021  -3.676   0.530  0.00  0.00    -0.526 OA
ATOM      8  H5  UNL d   1       0.599  -4.075  -0.142  0.00  0.00     0.418 HD
ENDBRANCH   4   7
TORSDOF 1
ENDMDL
