MODEL 1
REMARK minimizedAffinity -4.04340363
REMARK minimizedRMSD -1
REMARK  0 active torsions:
REMARK  status: ('A' for Active; 'I' for Inactive)
ROOT
ATOM      1  C   UNL d   1       2.075   0.611  -1.493  0.00  0.00     0.124 A 
ATOM      2  C1  UNL d   1       0.873   1.257  -1.748  0.00  0.00     0.062 A 
ATOM      3  C2  UNL d   1      -0.147   1.237  -0.802  0.00  0.00     0.162 A 
ATOM      4  C3  UNL d   1       0.030   0.569   0.410  0.00  0.00    -0.034 A 
ATOM      5  C4  UNL d   1       1.240  -0.080   0.659  0.00  0.00     0.162 A 
ATOM      6  C5  UNL d   1       2.257  -0.057  -0.290  0.00  0.00     0.062 A 
ATOM      7  F   UNL d   1       3.417  -0.681  -0.041  0.00  0.00    -0.097 F 
ATOM      8  F1  UNL d   1       1.444  -0.731   1.814  0.00  0.00    -0.096 F 
ATOM      9  I   UNL d   1      -1.494   0.537   1.828  0.00  0.00    -0.060 I 
ATOM     10  F2  UNL d   1      -1.298   1.870  -1.075  0.00  0.00    -0.096 F 
ATOM     11  F3  UNL d   1       0.694   1.902  -2.910  0.00  0.00    -0.097 F 
ATOM     12  F4  UNL d   1       3.055   0.631  -2.405  0.00  0.00    -0.092 F 
ENDROOT
TORSDOF 0
ENDMDL
