MODEL 1
REMARK minimizedAffinity 2.00681925
REMARK minimizedRMSD -1
REMARK  0 active torsions:
REMARK  status: ('A' for Active; 'I' for Inactive)
ROOT
ATOM      1  C   UNL d   1       1.383  -0.170  -2.347  0.00  0.00     0.124 A 
ATOM      2  C1  UNL d   1       0.642   0.981  -2.121  0.00  0.00     0.062 A 
ATOM      3  C2  UNL d   1      -0.252   1.039  -1.056  0.00  0.00     0.162 A 
ATOM      4  C3  UNL d   1      -0.410  -0.057  -0.208  0.00  0.00    -0.034 A 
ATOM      5  C4  UNL d   1       0.338  -1.212  -0.443  0.00  0.00     0.162 A 
ATOM      6  C5  UNL d   1       1.231  -1.265  -1.509  0.00  0.00     0.062 A 
ATOM      7  F   UNL d   1       1.946  -2.379  -1.726  0.00  0.00    -0.097 F 
ATOM      8  F1  UNL d   1       0.211  -2.285   0.352  0.00  0.00    -0.096 F 
ATOM      9  I   UNL d   1      -1.747   0.026   1.385  0.00  0.00    -0.060 I 
ATOM     10  F2  UNL d   1      -0.955   2.165  -0.861  0.00  0.00    -0.096 F 
ATOM     11  F3  UNL d   1       0.787   2.040  -2.930  0.00  0.00    -0.097 F 
ATOM     12  F4  UNL d   1       2.242  -0.224  -3.373  0.00  0.00    -0.092 F 
ENDROOT
TORSDOF 0
ENDMDL
