MODEL 1
REMARK minimizedAffinity 0.597151697
REMARK minimizedRMSD -1
REMARK  0 active torsions:
REMARK  status: ('A' for Active; 'I' for Inactive)
ROOT
ATOM      1  C   UNL d   1      -0.585   1.689   1.046  0.00  0.00     0.124 A 
ATOM      2  C1  UNL d   1      -0.208   1.994  -0.254  0.00  0.00     0.062 A 
ATOM      3  C2  UNL d   1       0.484   1.059  -1.020  0.00  0.00     0.162 A 
ATOM      4  C3  UNL d   1       0.802  -0.190  -0.487  0.00  0.00    -0.034 A 
ATOM      5  C4  UNL d   1       0.420  -0.489   0.822  0.00  0.00     0.162 A 
ATOM      6  C5  UNL d   1      -0.271   0.449   1.583  0.00  0.00     0.062 A 
ATOM      7  F   UNL d   1      -0.635   0.153   2.839  0.00  0.00    -0.097 F 
ATOM      8  F1  UNL d   1       0.709  -1.680   1.366  0.00  0.00    -0.096 F 
ATOM      9  I   UNL d   1       1.836  -1.590  -1.628  0.00  0.00    -0.060 I 
ATOM     10  F2  UNL d   1       0.836   1.381  -2.273  0.00  0.00    -0.096 F 
ATOM     11  F3  UNL d   1      -0.509   3.192  -0.775  0.00  0.00    -0.097 F 
ATOM     12  F4  UNL d   1      -1.250   2.591   1.781  0.00  0.00    -0.092 F 
ENDROOT
TORSDOF 0
ENDMDL
