MODEL 1
REMARK minimizedAffinity -1.22440612
REMARK minimizedRMSD -1
REMARK  0 active torsions:
REMARK  status: ('A' for Active; 'I' for Inactive)
ROOT
ATOM      1  C   UNL d   1       1.325  -0.185  -1.536  0.00  0.00     0.124 A 
ATOM      2  C1  UNL d   1       0.510   0.938  -1.559  0.00  0.00     0.062 A 
ATOM      3  C2  UNL d   1      -0.553   1.050  -0.667  0.00  0.00     0.162 A 
ATOM      4  C3  UNL d   1      -0.806   0.036   0.256  0.00  0.00    -0.034 A 
ATOM      5  C4  UNL d   1       0.018  -1.091   0.273  0.00  0.00     0.162 A 
ATOM      6  C5  UNL d   1       1.078  -1.198  -0.620  0.00  0.00     0.062 A 
ATOM      7  F   UNL d   1       1.865  -2.284  -0.597  0.00  0.00    -0.097 F 
ATOM      8  F1  UNL d   1      -0.198  -2.084   1.148  0.00  0.00    -0.096 F 
ATOM      9  I   UNL d   1      -2.394   0.200   1.592  0.00  0.00    -0.060 I 
ATOM     10  F2  UNL d   1      -1.324   2.147  -0.712  0.00  0.00    -0.096 F 
ATOM     11  F3  UNL d   1       0.746   1.918  -2.444  0.00  0.00    -0.097 F 
ATOM     12  F4  UNL d   1       2.347  -0.290  -2.396  0.00  0.00    -0.092 F 
ENDROOT
TORSDOF 0
ENDMDL
