MODEL 1
REMARK minimizedAffinity -1.07608163
REMARK minimizedRMSD -1
REMARK  0 active torsions:
REMARK  status: ('A' for Active; 'I' for Inactive)
ROOT
ATOM      1  C   UNL d   1       0.272  -0.170  -0.447  0.00  0.00     0.124 A 
ATOM      2  C1  UNL d   1       0.904  -0.923   0.533  0.00  0.00     0.062 A 
ATOM      3  C2  UNL d   1       0.449  -0.884   1.847  0.00  0.00     0.162 A 
ATOM      4  C3  UNL d   1      -0.645  -0.090   2.191  0.00  0.00    -0.034 A 
ATOM      5  C4  UNL d   1      -1.275   0.666   1.200  0.00  0.00     0.162 A 
ATOM      6  C5  UNL d   1      -0.817   0.624  -0.112  0.00  0.00     0.062 A 
ATOM      7  F   UNL d   1      -1.429   1.352  -1.057  0.00  0.00    -0.097 F 
ATOM      8  F1  UNL d   1      -2.330   1.440   1.496  0.00  0.00    -0.096 F 
ATOM      9  I   UNL d   1      -1.328  -0.030   4.156  0.00  0.00    -0.060 I 
ATOM     10  F2  UNL d   1       1.079  -1.623   2.773  0.00  0.00    -0.096 F 
ATOM     11  F3  UNL d   1       1.956  -1.689   0.212  0.00  0.00    -0.097 F 
ATOM     12  F4  UNL d   1       0.712  -0.208  -1.711  0.00  0.00    -0.092 F 
ENDROOT
TORSDOF 0
ENDMDL
