MODEL 1
REMARK minimizedAffinity -1.66303921
REMARK minimizedRMSD -1
REMARK  0 active torsions:
REMARK  status: ('A' for Active; 'I' for Inactive)
ROOT
ATOM      1  C   UNL d   1      -1.055   1.281   1.906  0.00  0.00     0.124 A 
ATOM      2  C1  UNL d   1      -0.276   0.337   2.561  0.00  0.00     0.062 A 
ATOM      3  C2  UNL d   1       0.568  -0.499   1.837  0.00  0.00     0.162 A 
ATOM      4  C3  UNL d   1       0.640  -0.395   0.448  0.00  0.00    -0.034 A 
ATOM      5  C4  UNL d   1      -0.147   0.556  -0.205  0.00  0.00     0.162 A 
ATOM      6  C5  UNL d   1      -0.989   1.389   0.524  0.00  0.00     0.062 A 
ATOM      7  F   UNL d   1      -1.741   2.300  -0.112  0.00  0.00    -0.097 F 
ATOM      8  F1  UNL d   1      -0.103   0.683  -1.539  0.00  0.00    -0.096 F 
ATOM      9  I   UNL d   1       1.901  -1.644  -0.639  0.00  0.00    -0.060 I 
ATOM     10  F2  UNL d   1       1.309  -1.402   2.497  0.00  0.00    -0.096 F 
ATOM     11  F3  UNL d   1      -0.338   0.230   3.896  0.00  0.00    -0.097 F 
ATOM     12  F4  UNL d   1      -1.867   2.083   2.605  0.00  0.00    -0.092 F 
ENDROOT
TORSDOF 0
ENDMDL
