MODEL 1
REMARK minimizedAffinity 3.61004806
REMARK minimizedRMSD -1
REMARK  0 active torsions:
REMARK  status: ('A' for Active; 'I' for Inactive)
ROOT
ATOM      1  C   UNL d   1       0.090   1.601   4.372  0.00  0.00     0.124 A 
ATOM      2  C1  UNL d   1      -1.184   1.436   3.844  0.00  0.00     0.062 A 
ATOM      3  C2  UNL d   1      -1.365   0.724   2.662  0.00  0.00     0.162 A 
ATOM      4  C3  UNL d   1      -0.269   0.169   2.000  0.00  0.00    -0.034 A 
ATOM      5  C4  UNL d   1       1.008   0.340   2.536  0.00  0.00     0.162 A 
ATOM      6  C5  UNL d   1       1.184   1.053   3.718  0.00  0.00     0.062 A 
ATOM      7  F   UNL d   1       2.415   1.212   4.226  0.00  0.00    -0.097 F 
ATOM      8  F1  UNL d   1       2.083  -0.180   1.925  0.00  0.00    -0.096 F 
ATOM      9  I   UNL d   1      -0.536  -0.898   0.233  0.00  0.00    -0.060 I 
ATOM     10  F2  UNL d   1      -2.606   0.580   2.176  0.00  0.00    -0.096 F 
ATOM     11  F3  UNL d   1      -2.242   1.966   4.474  0.00  0.00    -0.097 F 
ATOM     12  F4  UNL d   1       0.261   2.289   5.508  0.00  0.00    -0.092 F 
ENDROOT
TORSDOF 0
ENDMDL
