MODEL 1
REMARK minimizedAffinity 1.89750969
REMARK minimizedRMSD -1
REMARK  0 active torsions:
REMARK  status: ('A' for Active; 'I' for Inactive)
ROOT
ATOM      1  C   UNL d   1       1.650  -0.203  -1.853  0.00  0.00     0.124 A 
ATOM      2  C1  UNL d   1       0.753   0.856  -1.833  0.00  0.00     0.062 A 
ATOM      3  C2  UNL d   1      -0.210   0.938  -0.831  0.00  0.00     0.162 A 
ATOM      4  C3  UNL d   1      -0.281  -0.041   0.159  0.00  0.00    -0.034 A 
ATOM      5  C4  UNL d   1       0.624  -1.104   0.131  0.00  0.00     0.162 A 
ATOM      6  C5  UNL d   1       1.585  -1.182  -0.872  0.00  0.00     0.062 A 
ATOM      7  F   UNL d   1       2.450  -2.205  -0.890  0.00  0.00    -0.097 F 
ATOM      8  F1  UNL d   1       0.584  -2.063   1.068  0.00  0.00    -0.096 F 
ATOM      9  I   UNL d   1      -1.719   0.078   1.659  0.00  0.00    -0.060 I 
ATOM     10  F2  UNL d   1      -1.064   1.973  -0.836  0.00  0.00    -0.096 F 
ATOM     11  F3  UNL d   1       0.813   1.802  -2.781  0.00  0.00    -0.097 F 
ATOM     12  F4  UNL d   1       2.575  -0.280  -2.819  0.00  0.00    -0.092 F 
ENDROOT
TORSDOF 0
ENDMDL
