MODEL 1
REMARK minimizedAffinity -5.11135626
REMARK minimizedRMSD -1
REMARK  0 active torsions:
REMARK  status: ('A' for Active; 'I' for Inactive)
ROOT
ATOM      1  C   UNL d   1       2.482   0.126  -1.659  0.00  0.00     0.124 A 
ATOM      2  C1  UNL d   1       2.105  -0.833  -0.729  0.00  0.00     0.062 A 
ATOM      3  C2  UNL d   1       0.854  -0.767  -0.122  0.00  0.00     0.162 A 
ATOM      4  C3  UNL d   1      -0.031   0.262  -0.445  0.00  0.00    -0.034 A 
ATOM      5  C4  UNL d   1       0.355   1.223  -1.381  0.00  0.00     0.162 A 
ATOM      6  C5  UNL d   1       1.607   1.153  -1.984  0.00  0.00     0.062 A 
ATOM      7  F   UNL d   1       1.969   2.080  -2.883  0.00  0.00    -0.097 F 
ATOM      8  F1  UNL d   1      -0.471   2.226  -1.714  0.00  0.00    -0.096 F 
ATOM      9  I   UNL d   1      -1.902   0.365   0.459  0.00  0.00    -0.060 I 
ATOM     10  F2  UNL d   1       0.517  -1.707   0.773  0.00  0.00    -0.096 F 
ATOM     11  F3  UNL d   1       2.949  -1.826  -0.412  0.00  0.00    -0.097 F 
ATOM     12  F4  UNL d   1       3.687   0.060  -2.240  0.00  0.00    -0.092 F 
ENDROOT
TORSDOF 0
ENDMDL
