MODEL 1
REMARK minimizedAffinity 1.93344009
REMARK minimizedRMSD -1
REMARK  0 active torsions:
REMARK  status: ('A' for Active; 'I' for Inactive)
ROOT
ATOM      1  C   UNL d   1       1.557  -0.424  -2.077  0.00  0.00     0.124 A 
ATOM      2  C1  UNL d   1       0.718   0.677  -2.170  0.00  0.00     0.062 A 
ATOM      3  C2  UNL d   1      -0.254   0.901  -1.199  0.00  0.00     0.162 A 
ATOM      4  C3  UNL d   1      -0.390   0.022  -0.124  0.00  0.00    -0.034 A 
ATOM      5  C4  UNL d   1       0.458  -1.084  -0.037  0.00  0.00     0.162 A 
ATOM      6  C5  UNL d   1       1.427  -1.303  -1.011  0.00  0.00     0.062 A 
ATOM      7  F   UNL d   1       2.237  -2.368  -0.919  0.00  0.00    -0.097 F 
ATOM      8  F1  UNL d   1       0.354  -1.949   0.982  0.00  0.00    -0.096 F 
ATOM      9  I   UNL d   1      -1.841   0.353   1.331  0.00  0.00    -0.060 I 
ATOM     10  F2  UNL d   1      -1.051   1.973  -1.314  0.00  0.00    -0.096 F 
ATOM     11  F3  UNL d   1       0.841   1.527  -3.199  0.00  0.00    -0.097 F 
ATOM     12  F4  UNL d   1       2.491  -0.638  -3.013  0.00  0.00    -0.092 F 
ENDROOT
TORSDOF 0
ENDMDL
