MODEL 1
REMARK minimizedAffinity -1.43983293
REMARK minimizedRMSD -1
REMARK  0 active torsions:
REMARK  status: ('A' for Active; 'I' for Inactive)
ROOT
ATOM      1  C   UNL d   1       1.271  -0.855  -1.526  0.00  0.00     0.124 A 
ATOM      2  C1  UNL d   1       0.572   0.341  -1.619  0.00  0.00     0.062 A 
ATOM      3  C2  UNL d   1      -0.250   0.754  -0.574  0.00  0.00     0.162 A 
ATOM      4  C3  UNL d   1      -0.377  -0.029   0.573  0.00  0.00    -0.034 A 
ATOM      5  C4  UNL d   1       0.329  -1.231   0.659  0.00  0.00     0.162 A 
ATOM      6  C5  UNL d   1       1.149  -1.639  -0.388  0.00  0.00     0.062 A 
ATOM      7  F   UNL d   1       1.823  -2.795  -0.297  0.00  0.00    -0.097 F 
ATOM      8  F1  UNL d   1       0.230  -2.008   1.748  0.00  0.00    -0.096 F 
ATOM      9  I   UNL d   1      -1.605   0.585   2.137  0.00  0.00    -0.060 I 
ATOM     10  F2  UNL d   1      -0.914   1.913  -0.691  0.00  0.00    -0.096 F 
ATOM     11  F3  UNL d   1       0.687   1.100  -2.718  0.00  0.00    -0.097 F 
ATOM     12  F4  UNL d   1       2.060  -1.251  -2.533  0.00  0.00    -0.092 F 
ENDROOT
TORSDOF 0
ENDMDL
