MODEL 1
REMARK minimizedAffinity -3.73567224
REMARK minimizedRMSD -1
REMARK  0 active torsions:
REMARK  status: ('A' for Active; 'I' for Inactive)
ROOT
ATOM      1  C   UNL d   1       1.729   0.126  -2.332  0.00  0.00     0.124 A 
ATOM      2  C1  UNL d   1       0.773   1.128  -2.430  0.00  0.00     0.062 A 
ATOM      3  C2  UNL d   1      -0.237   1.227  -1.477  0.00  0.00     0.162 A 
ATOM      4  C3  UNL d   1      -0.296   0.322  -0.417  0.00  0.00    -0.034 A 
ATOM      5  C4  UNL d   1       0.669  -0.683  -0.326  0.00  0.00     0.162 A 
ATOM      6  C5  UNL d   1       1.676  -0.778  -1.281  0.00  0.00     0.062 A 
ATOM      7  F   UNL d   1       2.599  -1.746  -1.184  0.00  0.00    -0.097 F 
ATOM      8  F1  UNL d   1       0.642  -1.569   0.681  0.00  0.00    -0.096 F 
ATOM      9  I   UNL d   1      -1.804   0.468   1.010  0.00  0.00    -0.060 I 
ATOM     10  F2  UNL d   1      -1.147   2.205  -1.597  0.00  0.00    -0.096 F 
ATOM     11  F3  UNL d   1       0.821   2.002  -3.446  0.00  0.00    -0.097 F 
ATOM     12  F4  UNL d   1       2.699   0.032  -3.251  0.00  0.00    -0.092 F 
ENDROOT
TORSDOF 0
ENDMDL
