MODEL 1
REMARK minimizedAffinity -2.24612594
REMARK minimizedRMSD -1
REMARK  0 active torsions:
REMARK  status: ('A' for Active; 'I' for Inactive)
ROOT
ATOM      1  C   UNL d   1       0.480  -0.234  -0.915  0.00  0.00     0.124 A 
ATOM      2  C1  UNL d   1       0.878  -0.848   0.265  0.00  0.00     0.062 A 
ATOM      3  C2  UNL d   1       0.352  -0.429   1.483  0.00  0.00     0.162 A 
ATOM      4  C3  UNL d   1      -0.579   0.610   1.528  0.00  0.00    -0.034 A 
ATOM      5  C4  UNL d   1      -0.973   1.223   0.338  0.00  0.00     0.162 A 
ATOM      6  C5  UNL d   1      -0.444   0.800  -0.878  0.00  0.00     0.062 A 
ATOM      7  F   UNL d   1      -0.829   1.395  -2.016  0.00  0.00    -0.097 F 
ATOM      8  F1  UNL d   1      -1.865   2.224   0.345  0.00  0.00    -0.096 F 
ATOM      9  I   UNL d   1      -1.368   1.239   3.349  0.00  0.00    -0.060 I 
ATOM     10  F2  UNL d   1       0.753  -1.040   2.608  0.00  0.00    -0.096 F 
ATOM     11  F3  UNL d   1       1.771  -1.846   0.231  0.00  0.00    -0.097 F 
ATOM     12  F4  UNL d   1       0.989  -0.638  -2.086  0.00  0.00    -0.092 F 
ENDROOT
TORSDOF 0
ENDMDL
