MODEL 1
REMARK minimizedAffinity -0.162641257
REMARK minimizedRMSD -1
REMARK  0 active torsions:
REMARK  status: ('A' for Active; 'I' for Inactive)
ROOT
ATOM      1  C   UNL d   1       0.932  -0.310  -1.045  0.00  0.00     0.124 A 
ATOM      2  C1  UNL d   1       1.161  -1.051   0.107  0.00  0.00     0.062 A 
ATOM      3  C2  UNL d   1       0.535  -0.701   1.300  0.00  0.00     0.162 A 
ATOM      4  C3  UNL d   1      -0.327   0.394   1.348  0.00  0.00    -0.034 A 
ATOM      5  C4  UNL d   1      -0.552   1.135   0.185  0.00  0.00     0.162 A 
ATOM      6  C5  UNL d   1       0.076   0.781  -1.004  0.00  0.00     0.062 A 
ATOM      7  F   UNL d   1      -0.146   1.498  -2.116  0.00  0.00    -0.097 F 
ATOM      8  F1  UNL d   1      -1.375   2.194   0.196  0.00  0.00    -0.096 F 
ATOM      9  I   UNL d   1      -1.265   0.920   3.129  0.00  0.00    -0.060 I 
ATOM     10  F2  UNL d   1       0.775  -1.434   2.397  0.00  0.00    -0.096 F 
ATOM     11  F3  UNL d   1       1.988  -2.105   0.071  0.00  0.00    -0.097 F 
ATOM     12  F4  UNL d   1       1.536  -0.648  -2.191  0.00  0.00    -0.092 F 
ENDROOT
TORSDOF 0
ENDMDL
