MODEL 1
REMARK minimizedAffinity 7.72353125
REMARK minimizedRMSD -1
REMARK  0 active torsions:
REMARK  status: ('A' for Active; 'I' for Inactive)
ROOT
ATOM      1  C1  DEN d   1      -0.965  -1.190   2.501  0.00  0.00     0.130 A 
ATOM      2  C2  DEN d   1      -0.943   0.199   2.048  0.00  0.00    -0.031 A 
ATOM      3  C3  DEN d   1       0.194   0.875   2.706  0.00  0.00     0.027 A 
ATOM      4  C4  DEN d   1       1.914  -0.089   4.368  0.00  0.00     0.027 A 
ATOM      5  C5  DEN d   1       2.295  -1.216   5.062  0.00  0.00    -0.003 A 
ATOM      6  C6  DEN d   1       1.601  -2.395   4.978  0.00  0.00     0.001 A 
ATOM      7  C7  DEN d   1       0.516  -2.486   4.147  0.00  0.00     0.017 A 
ATOM      8  C8  DEN d   1       0.121  -1.351   3.450  0.00  0.00    -0.094 A 
ATOM      9  C9  DEN d   1       0.843  -0.173   3.539  0.00  0.00    -0.072 A 
ENDROOT
TORSDOF 0
ENDMDL
