MODEL 1
REMARK minimizedAffinity 11.1270514
REMARK minimizedRMSD -1
REMARK  0 active torsions:
REMARK  status: ('A' for Active; 'I' for Inactive)
ROOT
ATOM      1  C1  DEN d   1      -0.084   0.922   2.539  0.00  0.00     0.130 A 
ATOM      2  C2  DEN d   1      -1.363   0.276   2.258  0.00  0.00    -0.031 A 
ATOM      3  C3  DEN d   1      -1.273  -1.129   2.704  0.00  0.00     0.027 A 
ATOM      4  C4  DEN d   1       0.712  -2.358   3.802  0.00  0.00     0.027 A 
ATOM      5  C5  DEN d   1       2.014  -2.228   4.231  0.00  0.00    -0.003 A 
ATOM      6  C6  DEN d   1       2.714  -1.058   4.096  0.00  0.00     0.001 A 
ATOM      7  C7  DEN d   1       2.100   0.042   3.559  0.00  0.00     0.017 A 
ATOM      8  C8  DEN d   1       0.789  -0.083   3.117  0.00  0.00    -0.094 A 
ATOM      9  C9  DEN d   1       0.095  -1.271   3.273  0.00  0.00    -0.072 A 
ENDROOT
TORSDOF 0
ENDMDL
