MODEL 1
REMARK minimizedAffinity 15.8202686
REMARK minimizedRMSD -1
REMARK  0 active torsions:
REMARK  status: ('A' for Active; 'I' for Inactive)
ROOT
ATOM      1  C1  DEN d   1       0.129   2.318   2.660  0.00  0.00     0.130 A 
ATOM      2  C2  DEN d   1      -1.294   2.297   2.336  0.00  0.00    -0.031 A 
ATOM      3  C3  DEN d   1      -1.753   0.894   2.389  0.00  0.00     0.027 A 
ATOM      4  C4  DEN d   1      -0.406  -1.234   2.945  0.00  0.00     0.027 A 
ATOM      5  C5  DEN d   1       0.840  -1.719   3.274  0.00  0.00    -0.003 A 
ATOM      6  C6  DEN d   1       1.935  -0.904   3.388  0.00  0.00     0.001 A 
ATOM      7  C7  DEN d   1       1.795   0.448   3.215  0.00  0.00     0.017 A 
ATOM      8  C8  DEN d   1       0.544   0.944   2.875  0.00  0.00    -0.094 A 
ATOM      9  C9  DEN d   1      -0.553   0.105   2.776  0.00  0.00    -0.072 A 
ENDROOT
TORSDOF 0
ENDMDL
