MODEL 1
REMARK minimizedAffinity 14.3822622
REMARK minimizedRMSD -1
REMARK  0 active torsions:
REMARK  status: ('A' for Active; 'I' for Inactive)
ROOT
ATOM      1  C1  DEN d   1       0.394  -2.430  -5.216  0.00  0.00     0.130 A 
ATOM      2  C2  DEN d   1       0.088  -1.147  -4.589  0.00  0.00    -0.031 A 
ATOM      3  C3  DEN d   1       1.333  -0.621  -3.994  0.00  0.00     0.027 A 
ATOM      4  C4  DEN d   1       3.693  -1.661  -3.986  0.00  0.00     0.027 A 
ATOM      5  C5  DEN d   1       4.443  -2.746  -4.382  0.00  0.00    -0.003 A 
ATOM      6  C6  DEN d   1       3.893  -3.809  -5.049  0.00  0.00     0.001 A 
ATOM      7  C7  DEN d   1       2.564  -3.790  -5.379  0.00  0.00     0.017 A 
ATOM      8  C8  DEN d   1       1.800  -2.702  -4.977  0.00  0.00    -0.094 A 
ATOM      9  C9  DEN d   1       2.377  -1.631  -4.314  0.00  0.00    -0.072 A 
ENDROOT
TORSDOF 0
ENDMDL
