MODEL 1
REMARK minimizedAffinity 16.454792
REMARK minimizedRMSD -1
REMARK  0 active torsions:
REMARK  status: ('A' for Active; 'I' for Inactive)
ROOT
ATOM      1  C1  DEN d   1      -2.573  -3.667  -5.838  0.00  0.00     0.130 A 
ATOM      2  C2  DEN d   1      -3.364  -4.871  -5.598  0.00  0.00    -0.031 A 
ATOM      3  C3  DEN d   1      -2.431  -5.999  -5.407  0.00  0.00     0.027 A 
ATOM      4  C4  DEN d   1       0.147  -5.999  -5.453  0.00  0.00     0.027 A 
ATOM      5  C5  DEN d   1       1.267  -5.217  -5.632  0.00  0.00    -0.003 A 
ATOM      6  C6  DEN d   1       1.185  -3.881  -5.923  0.00  0.00     0.001 A 
ATOM      7  C7  DEN d   1      -0.042  -3.277  -6.000  0.00  0.00     0.017 A 
ATOM      8  C8  DEN d   1      -1.175  -4.061  -5.828  0.00  0.00    -0.094 A 
ATOM      9  C9  DEN d   1      -1.072  -5.407  -5.522  0.00  0.00    -0.072 A 
ENDROOT
TORSDOF 0
ENDMDL
