MODEL 1
REMARK minimizedAffinity 17.8839302
REMARK minimizedRMSD -1
REMARK  0 active torsions:
REMARK  status: ('A' for Active; 'I' for Inactive)
ROOT
ATOM      1  C1  DEN d   1      -1.096  -5.896  -4.041  0.00  0.00     0.130 A 
ATOM      2  C2  DEN d   1      -1.003  -5.748  -5.491  0.00  0.00    -0.031 A 
ATOM      3  C3  DEN d   1      -0.948  -4.305  -5.801  0.00  0.00     0.027 A 
ATOM      4  C4  DEN d   1      -0.992  -2.296  -4.184  0.00  0.00     0.027 A 
ATOM      5  C5  DEN d   1      -1.075  -1.922  -2.861  0.00  0.00    -0.003 A 
ATOM      6  C6  DEN d   1      -1.204  -2.836  -1.850  0.00  0.00     0.001 A 
ATOM      7  C7  DEN d   1      -1.208  -4.175  -2.142  0.00  0.00     0.017 A 
ATOM      8  C8  DEN d   1      -1.132  -4.560  -3.474  0.00  0.00    -0.094 A 
ATOM      9  C9  DEN d   1      -0.990  -3.620  -4.481  0.00  0.00    -0.072 A 
ENDROOT
TORSDOF 0
ENDMDL
