MODEL 1
REMARK minimizedAffinity 3.94386506
REMARK minimizedRMSD -1
REMARK  0 active torsions:
REMARK  status: ('A' for Active; 'I' for Inactive)
ROOT
ATOM      1  C   UNL d   1       1.265  -1.478   2.664  0.00  0.00    -0.002 A 
ATOM      2  C1  UNL d   1      -0.038  -1.891   2.906  0.00  0.00     0.010 A 
ATOM      3  C2  UNL d   1      -1.083  -1.459   2.088  0.00  0.00     0.041 A 
ATOM      4  C3  UNL d   1      -0.795  -0.597   1.011  0.00  0.00    -0.075 A 
ATOM      5  S   UNL d   1      -1.914   0.059  -0.124  0.00  0.00     0.015 SA
ATOM      6  C4  UNL d   1      -0.689   0.903  -0.957  0.00  0.00     0.022 A 
ATOM      7  C5  UNL d   1       0.549   0.700  -0.396  0.00  0.00     0.026 A 
ATOM      8  C6  UNL d   1       0.509  -0.169   0.747  0.00  0.00    -0.082 A 
ATOM      9  C7  UNL d   1       1.547  -0.624   1.595  0.00  0.00     0.045 A 
ENDROOT
TORSDOF 0
ENDMDL
