MODEL 1
REMARK minimizedAffinity -4.12121201
REMARK minimizedRMSD -1
REMARK  0 active torsions:
REMARK  status: ('A' for Active; 'I' for Inactive)
ROOT
ATOM      1  C   UNL d   1      -3.017  -0.771   1.894  0.00  0.00    -0.002 A 
ATOM      2  C1  UNL d   1      -3.286  -1.096   0.571  0.00  0.00     0.010 A 
ATOM      3  C2  UNL d   1      -2.294  -0.978  -0.405  0.00  0.00     0.041 A 
ATOM      4  C3  UNL d   1      -1.014  -0.527  -0.025  0.00  0.00    -0.075 A 
ATOM      5  S   UNL d   1       0.356  -0.307  -1.048  0.00  0.00     0.015 SA
ATOM      6  C4  UNL d   1       1.331   0.222   0.246  0.00  0.00     0.022 A 
ATOM      7  C5  UNL d   1       0.644   0.236   1.437  0.00  0.00     0.026 A 
ATOM      8  C6  UNL d   1      -0.719  -0.196   1.300  0.00  0.00    -0.082 A 
ATOM      9  C7  UNL d   1      -1.746  -0.324   2.266  0.00  0.00     0.045 A 
ENDROOT
TORSDOF 0
ENDMDL
