MODEL 1
REMARK minimizedAffinity -4.79960537
REMARK minimizedRMSD -1
REMARK  0 active torsions:
REMARK  status: ('A' for Active; 'I' for Inactive)
ROOT
ATOM      1  C   UNL d   1      -3.341  -0.959  -1.266  0.00  0.00    -0.002 A 
ATOM      2  C1  UNL d   1      -2.570  -0.337  -2.238  0.00  0.00     0.010 A 
ATOM      3  C2  UNL d   1      -1.316   0.189  -1.921  0.00  0.00     0.041 A 
ATOM      4  C3  UNL d   1      -0.845   0.078  -0.598  0.00  0.00    -0.075 A 
ATOM      5  S   UNL d   1       0.660   0.648   0.021  0.00  0.00     0.015 SA
ATOM      6  C4  UNL d   1       0.315   0.078   1.590  0.00  0.00     0.022 A 
ATOM      7  C5  UNL d   1      -0.914  -0.534   1.658  0.00  0.00     0.026 A 
ATOM      8  C6  UNL d   1      -1.602  -0.545   0.398  0.00  0.00    -0.082 A 
ATOM      9  C7  UNL d   1      -2.870  -1.067   0.045  0.00  0.00     0.045 A 
ENDROOT
TORSDOF 0
ENDMDL
