MODEL 1
REMARK minimizedAffinity -4.15403318
REMARK minimizedRMSD -1
REMARK  0 active torsions:
REMARK  status: ('A' for Active; 'I' for Inactive)
ROOT
ATOM      1  C   UNL d   1       2.086  -0.585   2.413  0.00  0.00    -0.002 A 
ATOM      2  C1  UNL d   1       0.790  -0.180   2.701  0.00  0.00     0.010 A 
ATOM      3  C2  UNL d   1      -0.160  -0.063   1.684  0.00  0.00     0.041 A 
ATOM      4  C3  UNL d   1       0.218  -0.366   0.361  0.00  0.00    -0.075 A 
ATOM      5  S   UNL d   1      -0.776  -0.296  -1.046  0.00  0.00     0.015 SA
ATOM      6  C4  UNL d   1       0.495  -0.803  -2.061  0.00  0.00     0.022 A 
ATOM      7  C5  UNL d   1       1.657  -1.025  -1.361  0.00  0.00     0.026 A 
ATOM      8  C6  UNL d   1       1.516  -0.777   0.047  0.00  0.00    -0.082 A 
ATOM      9  C7  UNL d   1       2.457  -0.885   1.100  0.00  0.00     0.045 A 
ENDROOT
TORSDOF 0
ENDMDL
