MODEL 1
REMARK minimizedAffinity 4.3439641
REMARK minimizedRMSD -1
REMARK  0 active torsions:
REMARK  status: ('A' for Active; 'I' for Inactive)
ROOT
ATOM      1  C   UNL d   1       0.961  -0.337   0.907  0.00  0.00    -0.002 A 
ATOM      2  C1  UNL d   1       1.316  -0.971  -0.275  0.00  0.00     0.010 A 
ATOM      3  C2  UNL d   1       1.190  -0.313  -1.500  0.00  0.00     0.041 A 
ATOM      4  C3  UNL d   1       0.698   1.007  -1.517  0.00  0.00    -0.075 A 
ATOM      5  S   UNL d   1       0.460   2.009  -2.899  0.00  0.00     0.015 SA
ATOM      6  C4  UNL d   1      -0.119   3.304  -1.953  0.00  0.00     0.022 A 
ATOM      7  C5  UNL d   1      -0.136   2.996  -0.613  0.00  0.00     0.026 A 
ATOM      8  C6  UNL d   1       0.335   1.667  -0.340  0.00  0.00    -0.082 A 
ATOM      9  C7  UNL d   1       0.473   0.973   0.886  0.00  0.00     0.045 A 
ENDROOT
TORSDOF 0
ENDMDL
