MODEL 1
REMARK minimizedAffinity -1.32262671
REMARK minimizedRMSD -1
REMARK  0 active torsions:
REMARK  status: ('A' for Active; 'I' for Inactive)
ROOT
ATOM      1  C   UNL d   1      -0.166   3.682  -3.570  0.00  0.00    -0.002 A 
ATOM      2  C1  UNL d   1       0.251   2.740  -4.499  0.00  0.00     0.010 A 
ATOM      3  C2  UNL d   1       0.499   1.422  -4.111  0.00  0.00     0.041 A 
ATOM      4  C3  UNL d   1       0.317   1.063  -2.760  0.00  0.00    -0.075 A 
ATOM      5  S   UNL d   1       0.560  -0.491  -2.056  0.00  0.00     0.015 SA
ATOM      6  C4  UNL d   1       0.114   0.059  -0.506  0.00  0.00     0.022 A 
ATOM      7  C5  UNL d   1      -0.215   1.394  -0.507  0.00  0.00     0.026 A 
ATOM      8  C6  UNL d   1      -0.103   1.995  -1.807  0.00  0.00    -0.082 A 
ATOM      9  C7  UNL d   1      -0.346   3.323  -2.232  0.00  0.00     0.045 A 
ENDROOT
TORSDOF 0
ENDMDL
