MODEL 1
REMARK minimizedAffinity -0.950683892
REMARK minimizedRMSD -1
REMARK  0 active torsions:
REMARK  status: ('A' for Active; 'I' for Inactive)
ROOT
ATOM      1  C   UNL d   1       0.494   3.755  -3.269  0.00  0.00    -0.002 A 
ATOM      2  C1  UNL d   1      -0.817   3.828  -2.821  0.00  0.00     0.010 A 
ATOM      3  C2  UNL d   1      -1.435   2.713  -2.250  0.00  0.00     0.041 A 
ATOM      4  C3  UNL d   1      -0.706   1.514  -2.135  0.00  0.00    -0.075 A 
ATOM      5  S   UNL d   1      -1.257   0.022  -1.469  0.00  0.00     0.015 SA
ATOM      6  C4  UNL d   1       0.236  -0.746  -1.762  0.00  0.00     0.022 A 
ATOM      7  C5  UNL d   1       1.144   0.100  -2.354  0.00  0.00     0.026 A 
ATOM      8  C6  UNL d   1       0.616   1.416  -2.578  0.00  0.00    -0.082 A 
ATOM      9  C7  UNL d   1       1.215   2.563  -3.153  0.00  0.00     0.045 A 
ENDROOT
TORSDOF 0
ENDMDL
