MODEL 1
REMARK minimizedAffinity 20.3225689
REMARK minimizedRMSD -1
REMARK  0 active torsions:
REMARK  status: ('A' for Active; 'I' for Inactive)
ROOT
ATOM      1  C   UNL d   1       3.327   0.242  -1.420  0.00  0.00     0.124 A 
ATOM      2  C1  UNL d   1       3.156   1.295  -0.531  0.00  0.00     0.062 A 
ATOM      3  C2  UNL d   1       2.507   1.089   0.683  0.00  0.00     0.162 A 
ATOM      4  C3  UNL d   1       2.023  -0.176   1.016  0.00  0.00    -0.034 A 
ATOM      5  C4  UNL d   1       2.197  -1.230   0.117  0.00  0.00     0.162 A 
ATOM      6  C5  UNL d   1       2.847  -1.019  -1.095  0.00  0.00     0.062 A 
ATOM      7  F   UNL d   1       3.010  -2.037  -1.952  0.00  0.00    -0.097 F 
ATOM      8  F1  UNL d   1       1.745  -2.459   0.406  0.00  0.00    -0.096 F 
ATOM      9  I   UNL d   1       1.052  -0.489   2.830  0.00  0.00    -0.060 I 
ATOM     10  F2  UNL d   1       2.357   2.125   1.522  0.00  0.00    -0.096 F 
ATOM     11  F3  UNL d   1       3.618   2.515  -0.843  0.00  0.00    -0.097 F 
ATOM     12  F4  UNL d   1       3.951   0.444  -2.587  0.00  0.00    -0.092 F 
ENDROOT
TORSDOF 0
ENDMDL
