MODEL 1
REMARK minimizedAffinity 25.8737984
REMARK minimizedRMSD -1
REMARK  0 active torsions:
REMARK  status: ('A' for Active; 'I' for Inactive)
ROOT
ATOM      1  C   UNL d   1       4.040   1.073  -1.572  0.00  0.00     0.124 A 
ATOM      2  C1  UNL d   1       3.583   0.398  -2.696  0.00  0.00     0.062 A 
ATOM      3  C2  UNL d   1       2.870  -0.789  -2.557  0.00  0.00     0.162 A 
ATOM      4  C3  UNL d   1       2.608  -1.309  -1.290  0.00  0.00    -0.034 A 
ATOM      5  C4  UNL d   1       3.071  -0.625  -0.164  0.00  0.00     0.162 A 
ATOM      6  C5  UNL d   1       3.784   0.561  -0.308  0.00  0.00     0.062 A 
ATOM      7  F   UNL d   1       4.224   1.212   0.779  0.00  0.00    -0.097 F 
ATOM      8  F1  UNL d   1       2.837  -1.097   1.069  0.00  0.00    -0.096 F 
ATOM      9  I   UNL d   1       1.542  -3.084  -1.078  0.00  0.00    -0.060 I 
ATOM     10  F2  UNL d   1       2.441  -1.420  -3.660  0.00  0.00    -0.096 F 
ATOM     11  F3  UNL d   1       3.830   0.890  -3.918  0.00  0.00    -0.097 F 
ATOM     12  F4  UNL d   1       4.727   2.215  -1.708  0.00  0.00    -0.092 F 
ENDROOT
TORSDOF 0
ENDMDL
