MODEL 1
REMARK minimizedAffinity 28.0176735
REMARK minimizedRMSD -1
REMARK  0 active torsions:
REMARK  status: ('A' for Active; 'I' for Inactive)
ROOT
ATOM      1  C   UNL d   1      -2.590   0.485  -4.236  0.00  0.00     0.124 A 
ATOM      2  C1  UNL d   1      -2.321  -0.005  -2.966  0.00  0.00     0.062 A 
ATOM      3  C2  UNL d   1      -3.293   0.057  -1.972  0.00  0.00     0.162 A 
ATOM      4  C3  UNL d   1      -4.544   0.611  -2.244  0.00  0.00    -0.034 A 
ATOM      5  C4  UNL d   1      -4.806   1.103  -3.524  0.00  0.00     0.162 A 
ATOM      6  C5  UNL d   1      -3.831   1.039  -4.514  0.00  0.00     0.062 A 
ATOM      7  F   UNL d   1      -4.093   1.513  -5.741  0.00  0.00    -0.097 F 
ATOM      8  F1  UNL d   1      -5.998   1.642  -3.820  0.00  0.00    -0.096 F 
ATOM      9  I   UNL d   1      -6.000   0.706  -0.760  0.00  0.00    -0.060 I 
ATOM     10  F2  UNL d   1      -3.006  -0.424  -0.753  0.00  0.00    -0.096 F 
ATOM     11  F3  UNL d   1      -1.121  -0.539  -2.695  0.00  0.00    -0.097 F 
ATOM     12  F4  UNL d   1      -1.652   0.425  -5.191  0.00  0.00    -0.092 F 
ENDROOT
TORSDOF 0
ENDMDL
