MODEL 1
REMARK minimizedAffinity 24.8007755
REMARK minimizedRMSD -1
REMARK  0 active torsions:
REMARK  status: ('A' for Active; 'I' for Inactive)
ROOT
ATOM      1  C   UNL d   1       2.328   0.279  -0.428  0.00  0.00     0.124 A 
ATOM      2  C1  UNL d   1       3.451   0.485  -1.217  0.00  0.00     0.062 A 
ATOM      3  C2  UNL d   1       4.434   1.384  -0.813  0.00  0.00     0.162 A 
ATOM      4  C3  UNL d   1       4.300   2.082   0.387  0.00  0.00    -0.034 A 
ATOM      5  C4  UNL d   1       3.167   1.870   1.174  0.00  0.00     0.162 A 
ATOM      6  C5  UNL d   1       2.187   0.971   0.766  0.00  0.00     0.062 A 
ATOM      7  F   UNL d   1       1.102   0.774   1.530  0.00  0.00    -0.097 F 
ATOM      8  F1  UNL d   1       3.005   2.525   2.333  0.00  0.00    -0.096 F 
ATOM      9  I   UNL d   1       5.768   3.426   0.994  0.00  0.00    -0.060 I 
ATOM     10  F2  UNL d   1       5.509   1.563  -1.595  0.00  0.00    -0.096 F 
ATOM     11  F3  UNL d   1       3.589  -0.182  -2.372  0.00  0.00    -0.097 F 
ATOM     12  F4  UNL d   1       1.382  -0.585  -0.820  0.00  0.00    -0.092 F 
ENDROOT
TORSDOF 0
ENDMDL
