MODEL 1
REMARK minimizedAffinity 24.8164463
REMARK minimizedRMSD -1
REMARK  0 active torsions:
REMARK  status: ('A' for Active; 'I' for Inactive)
ROOT
ATOM      1  C   UNL d   1       2.770   3.188   2.189  0.00  0.00     0.124 A 
ATOM      2  C1  UNL d   1       1.929   2.248   2.767  0.00  0.00     0.062 A 
ATOM      3  C2  UNL d   1       1.658   1.052   2.108  0.00  0.00     0.162 A 
ATOM      4  C3  UNL d   1       2.229   0.789   0.863  0.00  0.00    -0.034 A 
ATOM      5  C4  UNL d   1       3.074   1.740   0.288  0.00  0.00     0.162 A 
ATOM      6  C5  UNL d   1       3.341   2.934   0.950  0.00  0.00     0.062 A 
ATOM      7  F   UNL d   1       4.154   3.841   0.390  0.00  0.00    -0.097 F 
ATOM      8  F1  UNL d   1       3.640   1.520  -0.908  0.00  0.00    -0.096 F 
ATOM      9  I   UNL d   1       1.827  -0.998  -0.125  0.00  0.00    -0.060 I 
ATOM     10  F2  UNL d   1       0.841   0.161   2.691  0.00  0.00    -0.096 F 
ATOM     11  F3  UNL d   1       1.375   2.492   3.963  0.00  0.00    -0.097 F 
ATOM     12  F4  UNL d   1       3.028   4.338   2.824  0.00  0.00    -0.092 F 
ENDROOT
TORSDOF 0
ENDMDL
