MODEL 1
REMARK minimizedAffinity 16.2146301
REMARK minimizedRMSD -1
REMARK  0 active torsions:
REMARK  status: ('A' for Active; 'I' for Inactive)
ROOT
ATOM      1  C   UNL d   1       1.505  -1.502   4.929  0.00  0.00     0.124 A 
ATOM      2  C1  UNL d   1       0.148  -1.261   4.765  0.00  0.00     0.062 A 
ATOM      3  C2  UNL d   1      -0.777  -2.270   5.017  0.00  0.00     0.162 A 
ATOM      4  C3  UNL d   1      -0.348  -3.529   5.437  0.00  0.00    -0.034 A 
ATOM      5  C4  UNL d   1       1.018  -3.764   5.598  0.00  0.00     0.162 A 
ATOM      6  C5  UNL d   1       1.939  -2.753   5.345  0.00  0.00     0.062 A 
ATOM      7  F   UNL d   1       3.250  -2.987   5.503  0.00  0.00    -0.097 F 
ATOM      8  F1  UNL d   1       1.465  -4.963   6.000  0.00  0.00    -0.096 F 
ATOM      9  I   UNL d   1      -1.728  -5.041   5.815  0.00  0.00    -0.060 I 
ATOM     10  F2  UNL d   1      -2.082  -2.009   4.851  0.00  0.00    -0.096 F 
ATOM     11  F3  UNL d   1      -0.273  -0.054   4.363  0.00  0.00    -0.097 F 
ATOM     12  F4  UNL d   1       2.393  -0.530   4.685  0.00  0.00    -0.092 F 
ENDROOT
TORSDOF 0
ENDMDL
