MODEL 1
REMARK minimizedAffinity 20.8522854
REMARK minimizedRMSD -1
REMARK  0 active torsions:
REMARK  status: ('A' for Active; 'I' for Inactive)
ROOT
ATOM      1  C   UNL d   1      -2.713   4.664   1.417  0.00  0.00     0.124 A 
ATOM      2  C1  UNL d   1      -2.447   5.337   2.601  0.00  0.00     0.062 A 
ATOM      3  C2  UNL d   1      -3.377   5.327   3.636  0.00  0.00     0.162 A 
ATOM      4  C3  UNL d   1      -4.583   4.641   3.492  0.00  0.00    -0.034 A 
ATOM      5  C4  UNL d   1      -4.844   3.967   2.298  0.00  0.00     0.162 A 
ATOM      6  C5  UNL d   1      -3.911   3.979   1.266  0.00  0.00     0.062 A 
ATOM      7  F   UNL d   1      -4.170   3.329   0.123  0.00  0.00    -0.097 F 
ATOM      8  F1  UNL d   1      -5.993   3.297   2.126  0.00  0.00    -0.096 F 
ATOM      9  I   UNL d   1      -5.977   4.624   5.038  0.00  0.00    -0.060 I 
ATOM     10  F2  UNL d   1      -3.093   5.986   4.769  0.00  0.00    -0.096 F 
ATOM     11  F3  UNL d   1      -1.290   5.999   2.748  0.00  0.00    -0.097 F 
ATOM     12  F4  UNL d   1      -1.816   4.675   0.422  0.00  0.00    -0.092 F 
ENDROOT
TORSDOF 0
ENDMDL
