MODEL 1
REMARK minimizedAffinity 11.2981453
REMARK minimizedRMSD -1
REMARK  0 active torsions:
REMARK  status: ('A' for Active; 'I' for Inactive)
ROOT
ATOM      1  C   UNL d   1      -0.887  -4.772   5.270  0.00  0.00     0.124 A 
ATOM      2  C1  UNL d   1      -1.696  -3.658   5.095  0.00  0.00     0.062 A 
ATOM      3  C2  UNL d   1      -1.143  -2.381   5.120  0.00  0.00     0.162 A 
ATOM      4  C3  UNL d   1       0.227  -2.211   5.318  0.00  0.00    -0.034 A 
ATOM      5  C4  UNL d   1       1.034  -3.336   5.494  0.00  0.00     0.162 A 
ATOM      6  C5  UNL d   1       0.477  -4.610   5.469  0.00  0.00     0.062 A 
ATOM      7  F   UNL d   1       1.260  -5.686   5.637  0.00  0.00    -0.097 F 
ATOM      8  F1  UNL d   1       2.355  -3.209   5.687  0.00  0.00    -0.096 F 
ATOM      9  I   UNL d   1       1.058  -0.303   5.355  0.00  0.00    -0.060 I 
ATOM     10  F2  UNL d   1      -1.949  -1.322   4.949  0.00  0.00    -0.096 F 
ATOM     11  F3  UNL d   1      -3.014  -3.811   4.904  0.00  0.00    -0.097 F 
ATOM     12  F4  UNL d   1      -1.422  -6.000   5.247  0.00  0.00    -0.092 F 
ENDROOT
TORSDOF 0
ENDMDL
