MODEL 1
REMARK minimizedAffinity 5.78556013
REMARK minimizedRMSD -1
REMARK  0 active torsions:
REMARK  status: ('A' for Active; 'I' for Inactive)
ROOT
ATOM      1  C   UNL d   1      -2.373   5.749   2.014  0.00  0.00     0.124 A 
ATOM      2  C1  UNL d   1      -2.087   5.835   3.370  0.00  0.00     0.062 A 
ATOM      3  C2  UNL d   1      -3.121   5.895   4.300  0.00  0.00     0.162 A 
ATOM      4  C3  UNL d   1      -4.450   5.869   3.878  0.00  0.00    -0.034 A 
ATOM      5  C4  UNL d   1      -4.729   5.783   2.513  0.00  0.00     0.162 A 
ATOM      6  C5  UNL d   1      -3.693   5.723   1.587  0.00  0.00     0.062 A 
ATOM      7  F   UNL d   1      -3.970   5.641   0.278  0.00  0.00    -0.097 F 
ATOM      8  F1  UNL d   1      -5.996   5.756   2.073  0.00  0.00    -0.096 F 
ATOM      9  I   UNL d   1      -5.998   5.959   5.266  0.00  0.00    -0.060 I 
ATOM     10  F2  UNL d   1      -2.816   5.977   5.604  0.00  0.00    -0.096 F 
ATOM     11  F3  UNL d   1      -0.813   5.860   3.785  0.00  0.00    -0.097 F 
ATOM     12  F4  UNL d   1      -1.376   5.692   1.121  0.00  0.00    -0.092 F 
ENDROOT
TORSDOF 0
ENDMDL
