MODEL 1
REMARK minimizedAffinity 15.7258453
REMARK minimizedRMSD -1
REMARK  0 active torsions:
REMARK  status: ('A' for Active; 'I' for Inactive)
ROOT
ATOM      1  C   UNL d   1       2.668  -1.144   0.937  0.00  0.00     0.124 A 
ATOM      2  C1  UNL d   1       2.235  -0.218  -0.001  0.00  0.00     0.062 A 
ATOM      3  C2  UNL d   1       3.071   0.824  -0.394  0.00  0.00     0.162 A 
ATOM      4  C3  UNL d   1       4.349   0.944   0.151  0.00  0.00    -0.034 A 
ATOM      5  C4  UNL d   1       4.777   0.009   1.095  0.00  0.00     0.162 A 
ATOM      6  C5  UNL d   1       3.938  -1.030   1.484  0.00  0.00     0.062 A 
ATOM      7  F   UNL d   1       4.358  -1.924   2.391  0.00  0.00    -0.097 F 
ATOM      8  F1  UNL d   1       6.000   0.095   1.640  0.00  0.00    -0.096 F 
ATOM      9  I   UNL d   1       5.601   2.500  -0.433  0.00  0.00    -0.060 I 
ATOM     10  F2  UNL d   1       2.626   1.704  -1.302  0.00  0.00    -0.096 F 
ATOM     11  F3  UNL d   1       1.008  -0.326  -0.531  0.00  0.00    -0.097 F 
ATOM     12  F4  UNL d   1       1.862  -2.145   1.314  0.00  0.00    -0.092 F 
ENDROOT
TORSDOF 0
ENDMDL
