MODEL 1
REMARK minimizedAffinity 11.6167984
REMARK minimizedRMSD -1
REMARK  1 active torsions:
REMARK  status: ('A' for Active; 'I' for Inactive)
REMARK    1  A    between atoms: C1_2  and  C2_3 
ROOT
ATOM      1  C2  UNL d   1       3.771   2.829  -4.303  0.00  0.00    -0.081 A 
ATOM      2  C3  UNL d   1       3.657   1.967  -5.401  0.00  0.00     0.006 A 
ATOM      3  C4  UNL d   1       3.026   0.728  -5.266  0.00  0.00     0.002 A 
ATOM      4  C5  UNL d   1       2.492   0.334  -4.035  0.00  0.00    -0.080 A 
ATOM      5  C6  UNL d   1       1.785  -0.981  -3.884  0.00  0.00     0.076 C 
ATOM      6  C7  UNL d   1       2.620   1.187  -2.934  0.00  0.00     0.002 A 
ATOM      7  C8  UNL d   1       3.252   2.426  -3.068  0.00  0.00     0.006 A 
ENDROOT
BRANCH   1   8
ATOM      8  C1  UNL d   1       4.393   4.192  -4.461  0.00  0.00     0.054 C 
ATOM      9  C   UNL d   1       3.489   5.281  -3.901  0.00  0.00     0.018 C 
ENDBRANCH   1   8
TORSDOF 1
ENDMDL
