MODEL 1
REMARK minimizedAffinity 16.7446728
REMARK minimizedRMSD -1
REMARK  1 active torsions:
REMARK  status: ('A' for Active; 'I' for Inactive)
REMARK    1  A    between atoms: C1_2  and  C2_3 
ROOT
ATOM      1  C2  UNL d   1       0.086   0.467  -0.781  0.00  0.00    -0.081 A 
ATOM      2  C3  UNL d   1       0.788   1.259  -1.698  0.00  0.00     0.006 A 
ATOM      3  C4  UNL d   1       1.453   0.672  -2.777  0.00  0.00     0.002 A 
ATOM      4  C5  UNL d   1       1.421  -0.714  -2.962  0.00  0.00    -0.080 A 
ATOM      5  C6  UNL d   1       2.105  -1.354  -4.133  0.00  0.00     0.076 C 
ATOM      6  C7  UNL d   1       0.734  -1.507  -2.036  0.00  0.00     0.002 A 
ATOM      7  C8  UNL d   1       0.069  -0.921  -0.957  0.00  0.00     0.006 A 
ENDROOT
BRANCH   1   8
ATOM      8  C1  UNL d   1      -0.686   1.102   0.347  0.00  0.00     0.054 C 
ATOM      9  C   UNL d   1      -1.423   0.056   1.171  0.00  0.00     0.018 C 
ENDBRANCH   1   8
TORSDOF 1
ENDMDL
