MODEL 1
REMARK minimizedAffinity 16.7129536
REMARK minimizedRMSD -1
REMARK  1 active torsions:
REMARK  status: ('A' for Active; 'I' for Inactive)
REMARK    1  A    between atoms: C1_2  and  C2_3 
ROOT
ATOM      1  C2  UNL d   1       4.415   4.385  -4.949  0.00  0.00    -0.081 A 
ATOM      2  C3  UNL d   1       4.051   5.408  -4.065  0.00  0.00     0.006 A 
ATOM      3  C4  UNL d   1       2.760   5.941  -4.093  0.00  0.00     0.002 A 
ATOM      4  C5  UNL d   1       1.810   5.455  -4.998  0.00  0.00    -0.080 A 
ATOM      5  C6  UNL d   1       0.412   5.998  -5.018  0.00  0.00     0.076 C 
ATOM      6  C7  UNL d   1       2.180   4.445  -5.893  0.00  0.00     0.002 A 
ATOM      7  C8  UNL d   1       3.470   3.912  -5.866  0.00  0.00     0.006 A 
ENDROOT
BRANCH   1   8
ATOM      8  C1  UNL d   1       5.787   3.763  -4.877  0.00  0.00     0.054 C 
ATOM      9  C   UNL d   1       5.983   2.729  -5.976  0.00  0.00     0.018 C 
ENDBRANCH   1   8
TORSDOF 1
ENDMDL
