MODEL 1
REMARK minimizedAffinity 15.6320105
REMARK minimizedRMSD -1
REMARK  1 active torsions:
REMARK  status: ('A' for Active; 'I' for Inactive)
REMARK    1  A    between atoms: C1_2  and  C2_3 
ROOT
ATOM      1  C2  UNL d   1       2.581   2.544  -2.956  0.00  0.00    -0.081 A 
ATOM      2  C3  UNL d   1       2.724   1.414  -3.770  0.00  0.00     0.006 A 
ATOM      3  C4  UNL d   1       2.085   0.217  -3.438  0.00  0.00     0.002 A 
ATOM      4  C5  UNL d   1       1.288   0.132  -2.292  0.00  0.00    -0.080 A 
ATOM      5  C6  UNL d   1       0.573  -1.138  -1.940  0.00  0.00     0.076 C 
ATOM      6  C7  UNL d   1       1.160   1.256  -1.469  0.00  0.00     0.002 A 
ATOM      7  C8  UNL d   1       1.798   2.453  -1.800  0.00  0.00     0.006 A 
ENDROOT
BRANCH   1   8
ATOM      8  C1  UNL d   1       3.216   3.855  -3.347  0.00  0.00     0.054 C 
ATOM      9  C   UNL d   1       3.347   3.978  -4.858  0.00  0.00     0.018 C 
ENDBRANCH   1   8
TORSDOF 1
ENDMDL
