MODEL 1
REMARK minimizedAffinity 11.2028799
REMARK minimizedRMSD -1
REMARK  1 active torsions:
REMARK  status: ('A' for Active; 'I' for Inactive)
REMARK    1  A    between atoms: C1_2  and  C2_3 
ROOT
ATOM      1  C2  UNL d   1      -0.689  -1.845  -5.185  0.00  0.00    -0.081 A 
ATOM      2  C3  UNL d   1      -0.030  -0.740  -5.738  0.00  0.00     0.006 A 
ATOM      3  C4  UNL d   1       0.950  -0.063  -5.010  0.00  0.00     0.002 A 
ATOM      4  C5  UNL d   1       1.294  -0.483  -3.721  0.00  0.00    -0.080 A 
ATOM      5  C6  UNL d   1       2.367   0.216  -2.939  0.00  0.00     0.076 C 
ATOM      6  C7  UNL d   1       0.624  -1.577  -3.161  0.00  0.00     0.002 A 
ATOM      7  C8  UNL d   1      -0.357  -2.253  -3.889  0.00  0.00     0.006 A 
ENDROOT
BRANCH   1   8
ATOM      8  C1  UNL d   1      -1.702  -2.616  -5.993  0.00  0.00     0.054 C 
ATOM      9  C   UNL d   1      -1.387  -4.105  -5.997  0.00  0.00     0.018 C 
ENDBRANCH   1   8
TORSDOF 1
ENDMDL
