MODEL 1
REMARK minimizedAffinity 11.8733978
REMARK minimizedRMSD -1
REMARK  1 active torsions:
REMARK  status: ('A' for Active; 'I' for Inactive)
REMARK    1  A    between atoms: C1_2  and  C2_3 
ROOT
ATOM      1  C2  UNL d   1      -0.522  -2.174  -5.308  0.00  0.00    -0.081 A 
ATOM      2  C3  UNL d   1       0.403  -2.706  -4.402  0.00  0.00     0.006 A 
ATOM      3  C4  UNL d   1       1.286  -1.868  -3.717  0.00  0.00     0.002 A 
ATOM      4  C5  UNL d   1       1.253  -0.484  -3.920  0.00  0.00    -0.080 A 
ATOM      5  C6  UNL d   1       2.175   0.429  -3.169  0.00  0.00     0.076 C 
ATOM      6  C7  UNL d   1       0.341   0.046  -4.839  0.00  0.00     0.002 A 
ATOM      7  C8  UNL d   1      -0.541  -0.792  -5.525  0.00  0.00     0.006 A 
ENDROOT
BRANCH   1   8
ATOM      8  C1  UNL d   1      -1.518  -3.069  -6.000  0.00  0.00     0.054 C 
ATOM      9  C   UNL d   1      -1.054  -4.518  -6.000  0.00  0.00     0.018 C 
ENDBRANCH   1   8
TORSDOF 1
ENDMDL
