MODEL 1
REMARK minimizedAffinity 12.2213821
REMARK minimizedRMSD -1
REMARK  1 active torsions:
REMARK  status: ('A' for Active; 'I' for Inactive)
REMARK    1  A    between atoms: C1_2  and  C2_3 
ROOT
ATOM      1  C2  UNL d   1      -5.479  -4.101  -2.257  0.00  0.00    -0.081 A 
ATOM      2  C3  UNL d   1      -4.882  -3.853  -3.500  0.00  0.00     0.006 A 
ATOM      3  C4  UNL d   1      -4.582  -2.547  -3.893  0.00  0.00     0.002 A 
ATOM      4  C5  UNL d   1      -4.867  -1.468  -3.049  0.00  0.00    -0.080 A 
ATOM      5  C6  UNL d   1      -4.522  -0.064  -3.446  0.00  0.00     0.076 C 
ATOM      6  C7  UNL d   1      -5.479  -1.714  -1.815  0.00  0.00     0.002 A 
ATOM      7  C8  UNL d   1      -5.779  -3.020  -1.421  0.00  0.00     0.006 A 
ENDROOT
BRANCH   1   8
ATOM      8  C1  UNL d   1      -5.745  -5.513  -1.803  0.00  0.00     0.054 C 
ATOM      9  C   UNL d   1      -4.668  -5.997  -0.842  0.00  0.00     0.018 C 
ENDBRANCH   1   8
TORSDOF 1
ENDMDL
