MODEL 1
REMARK minimizedAffinity 7.26109743
REMARK minimizedRMSD -1
REMARK  1 active torsions:
REMARK  status: ('A' for Active; 'I' for Inactive)
REMARK    1  A    between atoms: C1_2  and  C2_3 
ROOT
ATOM      1  C2  UNL d   1      -4.387  -2.433   0.316  0.00  0.00    -0.081 A 
ATOM      2  C3  UNL d   1      -5.305  -2.359  -0.738  0.00  0.00     0.006 A 
ATOM      3  C4  UNL d   1      -5.662  -3.508  -1.448  0.00  0.00     0.002 A 
ATOM      4  C5  UNL d   1      -5.113  -4.750  -1.111  0.00  0.00    -0.080 A 
ATOM      5  C6  UNL d   1      -5.511  -5.996  -1.845  0.00  0.00     0.076 C 
ATOM      6  C7  UNL d   1      -4.183  -4.821  -0.068  0.00  0.00     0.002 A 
ATOM      7  C8  UNL d   1      -3.825  -3.673   0.641  0.00  0.00     0.006 A 
ENDROOT
BRANCH   1   8
ATOM      8  C1  UNL d   1      -4.049  -1.207   1.126  0.00  0.00     0.054 C 
ATOM      9  C   UNL d   1      -2.609  -0.772   0.895  0.00  0.00     0.018 C 
ENDBRANCH   1   8
TORSDOF 1
ENDMDL
