MODEL 1
REMARK minimizedAffinity 18.3315525
REMARK minimizedRMSD -1
REMARK  1 active torsions:
REMARK  status: ('A' for Active; 'I' for Inactive)
REMARK    1  A    between atoms: C1_2  and  C2_3 
ROOT
ATOM      1  C2  UNL d   1      -0.615   0.494   2.982  0.00  0.00    -0.081 A 
ATOM      2  C3  UNL d   1      -1.176  -0.427   2.090  0.00  0.00     0.006 A 
ATOM      3  C4  UNL d   1      -2.140  -0.020   1.164  0.00  0.00     0.002 A 
ATOM      4  C5  UNL d   1      -2.552   1.316   1.111  0.00  0.00    -0.080 A 
ATOM      5  C6  UNL d   1      -3.564   1.773   0.102  0.00  0.00     0.076 C 
ATOM      6  C7  UNL d   1      -2.004   2.233   2.014  0.00  0.00     0.002 A 
ATOM      7  C8  UNL d   1      -1.041   1.826   2.940  0.00  0.00     0.006 A 
ENDROOT
BRANCH   1   8
ATOM      8  C1  UNL d   1       0.472   0.071   3.938  0.00  0.00     0.054 C 
ATOM      9  C   UNL d   1       1.713   0.938   3.783  0.00  0.00     0.018 C 
ENDBRANCH   1   8
TORSDOF 1
ENDMDL
