MODEL 1
REMARK minimizedAffinity 9.13621044
REMARK minimizedRMSD -1
REMARK  1 active torsions:
REMARK  status: ('A' for Active; 'I' for Inactive)
REMARK    1  A    between atoms: C1_2  and  C2_3 
ROOT
ATOM      1  C2  UNL d   1       3.061   2.836  -3.051  0.00  0.00    -0.081 A 
ATOM      2  C3  UNL d   1       2.968   1.443  -3.165  0.00  0.00     0.006 A 
ATOM      3  C4  UNL d   1       2.015   0.735  -2.429  0.00  0.00     0.002 A 
ATOM      4  C5  UNL d   1       1.135   1.406  -1.575  0.00  0.00    -0.080 A 
ATOM      5  C6  UNL d   1       0.087   0.661  -0.803  0.00  0.00     0.076 C 
ATOM      6  C7  UNL d   1       1.238   2.796  -1.448  0.00  0.00     0.002 A 
ATOM      7  C8  UNL d   1       2.191   3.505  -2.183  0.00  0.00     0.006 A 
ENDROOT
BRANCH   1   8
ATOM      8  C1  UNL d   1       4.044   3.610  -3.892  0.00  0.00     0.054 C 
ATOM      9  C   UNL d   1       3.400   4.849  -4.497  0.00  0.00     0.018 C 
ENDBRANCH   1   8
TORSDOF 1
ENDMDL
