MODEL 1
REMARK minimizedAffinity 2.79104185
REMARK minimizedRMSD -1
REMARK  1 active torsions:
REMARK  status: ('A' for Active; 'I' for Inactive)
REMARK    1  A    between atoms: C1_2  and  C2_3 
ROOT
ATOM      1  C2  UNL d   1      -0.860  -2.128  -4.955  0.00  0.00    -0.081 A 
ATOM      2  C3  UNL d   1       0.195  -2.637  -4.187  0.00  0.00     0.006 A 
ATOM      3  C4  UNL d   1       1.021  -1.776  -3.460  0.00  0.00     0.002 A 
ATOM      4  C5  UNL d   1       0.802  -0.395  -3.483  0.00  0.00    -0.080 A 
ATOM      5  C6  UNL d   1       1.663   0.537  -2.683  0.00  0.00     0.076 C 
ATOM      6  C7  UNL d   1      -0.241   0.115  -4.263  0.00  0.00     0.002 A 
ATOM      7  C8  UNL d   1      -1.067  -0.745  -4.991  0.00  0.00     0.006 A 
ENDROOT
BRANCH   1   8
ATOM      8  C1  UNL d   1      -1.792  -3.058  -5.689  0.00  0.00     0.054 C 
ATOM      9  C   UNL d   1      -1.166  -4.432  -5.880  0.00  0.00     0.018 C 
ENDBRANCH   1   8
TORSDOF 1
ENDMDL
