MODEL 1
REMARK minimizedAffinity 8.54351425
REMARK minimizedRMSD -1
REMARK  2 active torsions:
REMARK  status: ('A' for Active; 'I' for Inactive)
REMARK    1  A    between atoms: C1_2  and  C2_3 
REMARK    2  A    between atoms: C2_3  and  C3_4 
ROOT
ATOM      1  C3  UNL d   1       3.130  -3.175   2.518  0.00  0.00    -0.075 A 
ATOM      2  C4  UNL d   1       2.074  -2.252   2.513  0.00  0.00     0.002 A 
ATOM      3  C5  UNL d   1       1.132  -2.259   1.484  0.00  0.00     0.002 A 
ATOM      4  C6  UNL d   1       1.240  -3.179   0.444  0.00  0.00    -0.004 A 
ATOM      5  C7  UNL d   1       2.294  -4.090   0.430  0.00  0.00     0.002 A 
ATOM      6  C8  UNL d   1       3.235  -4.088   1.461  0.00  0.00     0.002 A 
ENDROOT
BRANCH   1   7
ATOM      7  C2  UNL d   1       4.136  -3.192   3.644  0.00  0.00     0.056 C 
BRANCH   7   8
ATOM      8  C1  UNL d   1       3.516  -3.030   5.036  0.00  0.00     0.007 C 
ATOM      9  C   UNL d   1       3.904  -4.144   5.999  0.00  0.00     0.009 C 
ENDBRANCH   7   8
ENDBRANCH   1   7
TORSDOF 2
ENDMDL
