MODEL 1
REMARK minimizedAffinity 8.47471905
REMARK minimizedRMSD -1
REMARK  2 active torsions:
REMARK  status: ('A' for Active; 'I' for Inactive)
REMARK    1  A    between atoms: C1_2  and  C2_3 
REMARK    2  A    between atoms: C2_3  and  C3_4 
ROOT
ATOM      1  C3  UNL d   1       2.584   3.826   3.926  0.00  0.00    -0.075 A 
ATOM      2  C4  UNL d   1       1.724   4.894   3.628  0.00  0.00     0.002 A 
ATOM      3  C5  UNL d   1       1.610   5.976   4.501  0.00  0.00     0.002 A 
ATOM      4  C6  UNL d   1       2.343   6.000   5.686  0.00  0.00    -0.004 A 
ATOM      5  C7  UNL d   1       3.187   4.937   6.000  0.00  0.00     0.002 A 
ATOM      6  C8  UNL d   1       3.307   3.855   5.125  0.00  0.00     0.002 A 
ENDROOT
BRANCH   1   7
ATOM      7  C2  UNL d   1       2.735   2.666   2.971  0.00  0.00     0.056 C 
BRANCH   7   8
ATOM      8  C1  UNL d   1       2.634   3.058   1.493  0.00  0.00     0.007 C 
ATOM      9  C   UNL d   1       3.634   2.326   0.608  0.00  0.00     0.009 C 
ENDBRANCH   7   8
ENDBRANCH   1   7
TORSDOF 2
ENDMDL
