MODEL 1
REMARK minimizedAffinity 3.35539579
REMARK minimizedRMSD -1
REMARK  2 active torsions:
REMARK  status: ('A' for Active; 'I' for Inactive)
REMARK    1  A    between atoms: C1_2  and  C2_3 
REMARK    2  A    between atoms: C2_3  and  C3_4 
ROOT
ATOM      1  C3  UNL d   1      -4.058   0.216  -2.786  0.00  0.00    -0.075 A 
ATOM      2  C4  UNL d   1      -5.027   0.293  -3.797  0.00  0.00     0.002 A 
ATOM      3  C5  UNL d   1      -5.404  -0.848  -4.505  0.00  0.00     0.002 A 
ATOM      4  C6  UNL d   1      -4.812  -2.076  -4.220  0.00  0.00    -0.004 A 
ATOM      5  C7  UNL d   1      -3.836  -2.162  -3.228  0.00  0.00     0.002 A 
ATOM      6  C8  UNL d   1      -3.460  -1.022  -2.515  0.00  0.00     0.002 A 
ENDROOT
BRANCH   1   7
ATOM      7  C2  UNL d   1      -3.667   1.442  -1.996  0.00  0.00     0.056 C 
BRANCH   7   8
ATOM      8  C1  UNL d   1      -2.754   2.409  -2.757  0.00  0.00     0.007 C 
ATOM      9  C   UNL d   1      -3.505   3.301  -3.735  0.00  0.00     0.009 C 
ENDBRANCH   7   8
ENDBRANCH   1   7
TORSDOF 2
ENDMDL
