MODEL 1
REMARK minimizedAffinity 3.41010618
REMARK minimizedRMSD -1
REMARK  2 active torsions:
REMARK  status: ('A' for Active; 'I' for Inactive)
REMARK    1  A    between atoms: C1_2  and  C2_3 
REMARK    2  A    between atoms: C2_3  and  C3_4 
ROOT
ATOM      1  C3  UNL d   1       1.719  -3.552   1.397  0.00  0.00    -0.075 A 
ATOM      2  C4  UNL d   1       0.697  -4.406   1.837  0.00  0.00     0.002 A 
ATOM      3  C5  UNL d   1      -0.446  -3.887   2.446  0.00  0.00     0.002 A 
ATOM      4  C6  UNL d   1      -0.576  -2.513   2.634  0.00  0.00    -0.004 A 
ATOM      5  C7  UNL d   1       0.441  -1.657   2.216  0.00  0.00     0.002 A 
ATOM      6  C8  UNL d   1       1.583  -2.173   1.602  0.00  0.00     0.002 A 
ENDROOT
BRANCH   1   7
ATOM      7  C2  UNL d   1       2.945  -4.105   0.710  0.00  0.00     0.056 C 
BRANCH   7   8
ATOM      8  C1  UNL d   1       3.935  -4.790   1.657  0.00  0.00     0.007 C 
ATOM      9  C   UNL d   1       5.286  -5.073   1.012  0.00  0.00     0.009 C 
ENDBRANCH   7   8
ENDBRANCH   1   7
TORSDOF 2
ENDMDL
