MODEL 1
REMARK minimizedAffinity 6.82628298
REMARK minimizedRMSD -1
REMARK  2 active torsions:
REMARK  status: ('A' for Active; 'I' for Inactive)
REMARK    1  A    between atoms: C1_2  and  C2_3 
REMARK    2  A    between atoms: C2_3  and  C3_4 
ROOT
ATOM      1  C3  UNL d   1       3.691  -1.889   0.385  0.00  0.00    -0.075 A 
ATOM      2  C4  UNL d   1       3.407  -3.022  -0.391  0.00  0.00     0.002 A 
ATOM      3  C5  UNL d   1       2.129  -3.581  -0.388  0.00  0.00     0.002 A 
ATOM      4  C6  UNL d   1       1.123  -3.022   0.397  0.00  0.00    -0.004 A 
ATOM      5  C7  UNL d   1       1.398  -1.906   1.185  0.00  0.00     0.002 A 
ATOM      6  C8  UNL d   1       2.675  -1.342   1.180  0.00  0.00     0.002 A 
ENDROOT
BRANCH   1   7
ATOM      7  C2  UNL d   1       5.065  -1.262   0.363  0.00  0.00     0.056 C 
BRANCH   7   8
ATOM      8  C1  UNL d   1       5.137   0.054  -0.418  0.00  0.00     0.007 C 
ATOM      9  C   UNL d   1       5.590   1.233   0.434  0.00  0.00     0.009 C 
ENDBRANCH   7   8
ENDBRANCH   1   7
TORSDOF 2
ENDMDL
