MODEL 1
REMARK minimizedAffinity 6.54091597
REMARK minimizedRMSD -1
REMARK  2 active torsions:
REMARK  status: ('A' for Active; 'I' for Inactive)
REMARK    1  A    between atoms: C1_2  and  C2_3 
REMARK    2  A    between atoms: C2_3  and  C3_4 
ROOT
ATOM      1  C3  UNL d   1       4.333  -4.032   3.282  0.00  0.00    -0.075 A 
ATOM      2  C4  UNL d   1       4.604  -3.006   4.199  0.00  0.00     0.002 A 
ATOM      3  C5  UNL d   1       4.804  -3.297   5.549  0.00  0.00     0.002 A 
ATOM      4  C6  UNL d   1       4.726  -4.613   6.000  0.00  0.00    -0.004 A 
ATOM      5  C7  UNL d   1       4.441  -5.638   5.100  0.00  0.00     0.002 A 
ATOM      6  C8  UNL d   1       4.245  -5.350   3.748  0.00  0.00     0.002 A 
ENDROOT
BRANCH   1   7
ATOM      7  C2  UNL d   1       4.145  -3.727   1.815  0.00  0.00     0.056 C 
BRANCH   7   8
ATOM      8  C1  UNL d   1       2.751  -4.070   1.281  0.00  0.00     0.007 C 
ATOM      9  C   UNL d   1       2.016  -2.867   0.705  0.00  0.00     0.009 C 
ENDBRANCH   7   8
ENDBRANCH   1   7
TORSDOF 2
ENDMDL
