MODEL 1
REMARK minimizedAffinity -4.30291748
REMARK minimizedRMSD -1
REMARK  0 active torsions:
REMARK  status: ('A' for Active; 'I' for Inactive)
ROOT
ATOM      1  N1  IND d   1      -1.151  -0.876   0.658  0.00  0.00    -0.196 N 
ATOM      2  C2  IND d   1      -0.647  -2.021   1.208  0.00  0.00     0.054 A 
ATOM      3  C3  IND d   1       0.693  -1.922   1.356  0.00  0.00    -0.031 A 
ATOM      4  C4  IND d   1       2.250   0.067   0.859  0.00  0.00     0.051 A 
ATOM      5  C5  IND d   1       2.256   1.320   0.312  0.00  0.00    -0.031 A 
ATOM      6  C6  IND d   1       1.103   1.918  -0.154  0.00  0.00     0.015 A 
ATOM      7  C7  IND d   1      -0.106   1.287  -0.080  0.00  0.00    -0.016 A 
ATOM      8  C8  IND d   1      -0.115   0.012   0.468  0.00  0.00    -0.047 A 
ATOM      9  C9  IND d   1       1.058  -0.617   0.904  0.00  0.00    -0.096 A 
ATOM     10  HN1 IND d   1      -1.977  -0.734   0.463  0.00  0.00     0.298 HD
ENDROOT
TORSDOF 0
ENDMDL
