MODEL 1
REMARK minimizedAffinity 9.95694828
REMARK minimizedRMSD -1
REMARK  0 active torsions:
REMARK  status: ('A' for Active; 'I' for Inactive)
ROOT
ATOM      1  N1  IND d   1       0.906   3.028  -0.362  0.00  0.00    -0.196 N 
ATOM      2  C2  IND d   1       1.508   2.355  -1.389  0.00  0.00     0.054 A 
ATOM      3  C3  IND d   1       1.958   1.153  -0.964  0.00  0.00    -0.031 A 
ATOM      4  C4  IND d   1       1.726   0.044   1.348  0.00  0.00     0.051 A 
ATOM      5  C5  IND d   1       1.286   0.285   2.619  0.00  0.00    -0.031 A 
ATOM      6  C6  IND d   1       0.682   1.476   2.968  0.00  0.00     0.015 A 
ATOM      7  C7  IND d   1       0.485   2.470   2.052  0.00  0.00    -0.016 A 
ATOM      8  C8  IND d   1       0.937   2.231   0.762  0.00  0.00    -0.047 A 
ATOM      9  C9  IND d   1       1.588   1.042   0.412  0.00  0.00    -0.096 A 
ATOM     10  HN1 IND d   1       0.566   3.817  -0.409  0.00  0.00     0.298 HD
ENDROOT
TORSDOF 0
ENDMDL
