MODEL 1
REMARK minimizedAffinity -3.57161641
REMARK minimizedRMSD -1
REMARK  0 active torsions:
REMARK  status: ('A' for Active; 'I' for Inactive)
ROOT
ATOM      1  N1  IND d   1       1.608   2.488   0.090  0.00  0.00    -0.196 N 
ATOM      2  C2  IND d   1       0.266   2.740   0.170  0.00  0.00     0.054 A 
ATOM      3  C3  IND d   1      -0.409   1.604   0.455  0.00  0.00    -0.031 A 
ATOM      4  C4  IND d   1       0.492  -0.759   0.932  0.00  0.00     0.051 A 
ATOM      5  C5  IND d   1       1.647  -1.490   0.940  0.00  0.00    -0.031 A 
ATOM      6  C6  IND d   1       2.873  -0.920   0.663  0.00  0.00     0.015 A 
ATOM      7  C7  IND d   1       2.991   0.410   0.377  0.00  0.00    -0.016 A 
ATOM      8  C8  IND d   1       1.820   1.154   0.360  0.00  0.00    -0.047 A 
ATOM      9  C9  IND d   1       0.568   0.573   0.599  0.00  0.00    -0.096 A 
ATOM     10  HN1 IND d   1       2.216   3.066  -0.097  0.00  0.00     0.298 HD
ENDROOT
TORSDOF 0
ENDMDL
