MODEL 1
REMARK minimizedAffinity 0.703572989
REMARK minimizedRMSD -1
REMARK  0 active torsions:
REMARK  status: ('A' for Active; 'I' for Inactive)
ROOT
ATOM      1  N1  IND d   1      -1.403  -0.650   0.762  0.00  0.00    -0.196 N 
ATOM      2  C2  IND d   1      -2.076  -0.525  -0.422  0.00  0.00     0.054 A 
ATOM      3  C3  IND d   1      -1.358   0.218  -1.294  0.00  0.00    -0.031 A 
ATOM      4  C4  IND d   1       0.989   1.242  -1.026  0.00  0.00     0.051 A 
ATOM      5  C5  IND d   1       1.985   1.426  -0.109  0.00  0.00    -0.031 A 
ATOM      6  C6  IND d   1       1.902   0.915   1.170  0.00  0.00     0.015 A 
ATOM      7  C7  IND d   1       0.820   0.188   1.578  0.00  0.00    -0.016 A 
ATOM      8  C8  IND d   1      -0.196   0.004   0.652  0.00  0.00    -0.047 A 
ATOM      9  C9  IND d   1      -0.137   0.557  -0.634  0.00  0.00    -0.096 A 
ATOM     10  HN1 IND d   1      -1.687  -1.068   1.458  0.00  0.00     0.298 HD
ENDROOT
TORSDOF 0
ENDMDL
