MODEL 1
REMARK minimizedAffinity -0.473866999
REMARK minimizedRMSD -1
REMARK  0 active torsions:
REMARK  status: ('A' for Active; 'I' for Inactive)
ROOT
ATOM      1  N1  IND d   1      -0.106  -0.471  -0.272  0.00  0.00    -0.196 N 
ATOM      2  C2  IND d   1      -0.111   0.376   0.801  0.00  0.00     0.054 A 
ATOM      3  C3  IND d   1      -1.108   1.281   0.681  0.00  0.00    -0.031 A 
ATOM      4  C4  IND d   1      -2.913   1.494  -1.143  0.00  0.00     0.051 A 
ATOM      5  C5  IND d   1      -3.296   0.971  -2.345  0.00  0.00    -0.031 A 
ATOM      6  C6  IND d   1      -2.624  -0.084  -2.929  0.00  0.00     0.015 A 
ATOM      7  C7  IND d   1      -1.545  -0.663  -2.324  0.00  0.00    -0.016 A 
ATOM      8  C8  IND d   1      -1.148  -0.129  -1.106  0.00  0.00    -0.047 A 
ATOM      9  C9  IND d   1      -1.801   0.968  -0.529  0.00  0.00    -0.096 A 
ATOM     10  HN1 IND d   1       0.455  -1.110  -0.405  0.00  0.00     0.298 HD
ENDROOT
TORSDOF 0
ENDMDL
