MODEL 1
REMARK minimizedAffinity -1.75222814
REMARK minimizedRMSD -1
REMARK  1 active torsions:
REMARK  status: ('A' for Active; 'I' for Inactive)
REMARK    1  A    between atoms: C1_2  and  C2_3 
ROOT
ATOM      1  C2  UNL d   1       0.237   1.169   1.278  0.00  0.00    -0.076 A 
ATOM      2  C3  UNL d   1       0.222   1.941   2.452  0.00  0.00     0.004 A 
ATOM      3  C4  UNL d   1      -0.713   1.700   3.458  0.00  0.00    -0.003 A 
ATOM      4  C5  UNL d   1      -1.647   0.681   3.305  0.00  0.00     0.000 A 
ATOM      5  C6  UNL d   1      -1.635  -0.106   2.155  0.00  0.00     0.000 A 
ATOM      6  C7  UNL d   1      -0.689   0.113   1.139  0.00  0.00    -0.073 A 
ATOM      7  C8  UNL d   1      -0.726  -0.763  -0.084  0.00  0.00     0.078 C 
ENDROOT
BRANCH   1   8
ATOM      8  C1  UNL d   1       1.257   1.494   0.210  0.00  0.00     0.053 C 
ATOM      9  C   UNL d   1       2.683   1.227   0.666  0.00  0.00     0.018 C 
ENDBRANCH   1   8
TORSDOF 1
ENDMDL
