MODEL 1
REMARK minimizedAffinity 2.61448121
REMARK minimizedRMSD -1
REMARK  1 active torsions:
REMARK  status: ('A' for Active; 'I' for Inactive)
REMARK    1  A    between atoms: C1_2  and  C2_3 
ROOT
ATOM      1  C2  UNL d   1       0.362   0.318   1.410  0.00  0.00    -0.076 A 
ATOM      2  C3  UNL d   1       0.125  -0.332   0.186  0.00  0.00     0.004 A 
ATOM      3  C4  UNL d   1      -1.141  -0.822  -0.132  0.00  0.00    -0.003 A 
ATOM      4  C5  UNL d   1      -2.190  -0.668   0.767  0.00  0.00     0.000 A 
ATOM      5  C6  UNL d   1      -1.977  -0.011   1.978  0.00  0.00     0.000 A 
ATOM      6  C7  UNL d   1      -0.711   0.503   2.308  0.00  0.00    -0.073 A 
ATOM      7  C8  UNL d   1      -0.536   1.198   3.630  0.00  0.00     0.078 C 
ENDROOT
BRANCH   1   8
ATOM      8  C1  UNL d   1       1.762   0.804   1.713  0.00  0.00     0.053 C 
ATOM      9  C   UNL d   1       2.801  -0.299   1.585  0.00  0.00     0.018 C 
ENDBRANCH   1   8
TORSDOF 1
ENDMDL
