MODEL 1
REMARK minimizedAffinity 4.35587788
REMARK minimizedRMSD -1
REMARK  1 active torsions:
REMARK  status: ('A' for Active; 'I' for Inactive)
REMARK    1  A    between atoms: C1_2  and  C2_3 
ROOT
ATOM      1  C2  UNL d   1      -0.585  -0.728   2.529  0.00  0.00    -0.076 A 
ATOM      2  C3  UNL d   1       0.389  -0.108   1.727  0.00  0.00     0.004 A 
ATOM      3  C4  UNL d   1       0.064   0.406   0.473  0.00  0.00    -0.003 A 
ATOM      4  C5  UNL d   1      -1.240   0.309   0.000  0.00  0.00     0.000 A 
ATOM      5  C6  UNL d   1      -2.223  -0.287   0.790  0.00  0.00     0.000 A 
ATOM      6  C7  UNL d   1      -1.916  -0.796   2.064  0.00  0.00    -0.073 A 
ATOM      7  C8  UNL d   1      -3.014  -1.433   2.870  0.00  0.00     0.078 C 
ENDROOT
BRANCH   1   8
ATOM      8  C1  UNL d   1      -0.169  -1.291   3.869  0.00  0.00     0.053 C 
ATOM      9  C   UNL d   1       0.440  -0.237   4.780  0.00  0.00     0.018 C 
ENDBRANCH   1   8
TORSDOF 1
ENDMDL
