MODEL 1
REMARK minimizedAffinity 11.5619068
REMARK minimizedRMSD -1
REMARK  1 active torsions:
REMARK  status: ('A' for Active; 'I' for Inactive)
REMARK    1  A    between atoms: N_2  and  C1_3 
ROOT
ATOM      1  C1  UNL d   1      -1.335   3.506   1.206  0.00  0.00     0.143 A 
ATOM      2  C2  UNL d   1      -2.585   3.121   1.702  0.00  0.00    -0.057 A 
ATOM      3  C3  UNL d   1      -2.711   2.068   2.616  0.00  0.00     0.033 A 
ATOM      4  C4  UNL d   1      -1.587   1.360   3.029  0.00  0.00    -0.042 A 
ATOM      5  C5  UNL d   1      -0.337   1.709   2.530  0.00  0.00     0.033 A 
ATOM      6  C6  UNL d   1      -0.217   2.766   1.622  0.00  0.00    -0.057 A 
ENDROOT
BRANCH   1   7
ATOM      7  N   UNL d   1      -1.155   4.480   0.220  0.00  0.00    -0.732 N 
ATOM      8  C   UNL d   1      -2.089   4.597  -0.879  0.00  0.00     0.284 C 
ATOM      9  H3  UNL d   1      -0.854   5.372   0.606  0.00  0.00     0.395 HD
ENDBRANCH   1   7
TORSDOF 1
ENDMDL
