MODEL 1
REMARK minimizedAffinity -4.69482231
REMARK minimizedRMSD -1
REMARK  1 active torsions:
REMARK  status: ('A' for Active; 'I' for Inactive)
REMARK    1  A    between atoms: N_2  and  C1_3 
ROOT
ATOM      1  C1  UNL d   1       1.447   1.588   0.050  0.00  0.00     0.143 A 
ATOM      2  C2  UNL d   1       2.530   0.950  -0.566  0.00  0.00    -0.057 A 
ATOM      3  C3  UNL d   1       2.398  -0.327  -1.125  0.00  0.00     0.033 A 
ATOM      4  C4  UNL d   1       1.184  -1.002  -1.054  0.00  0.00    -0.042 A 
ATOM      5  C5  UNL d   1       0.101  -0.398  -0.425  0.00  0.00     0.033 A 
ATOM      6  C6  UNL d   1       0.238   0.880   0.126  0.00  0.00    -0.057 A 
ENDROOT
BRANCH   1   7
ATOM      7  N   UNL d   1       1.541   2.815   0.711  0.00  0.00    -0.732 N 
ATOM      8  C   UNL d   1       1.634   2.869   2.154  0.00  0.00     0.284 C 
ATOM      9  H3  UNL d   1       2.153   3.470   0.230  0.00  0.00     0.395 HD
ENDBRANCH   1   7
TORSDOF 1
ENDMDL
