MODEL 1
REMARK minimizedAffinity 4.02797508
REMARK minimizedRMSD -1
REMARK  1 active torsions:
REMARK  status: ('A' for Active; 'I' for Inactive)
REMARK    1  A    between atoms: N_2  and  C1_3 
ROOT
ATOM      1  C1  UNL d   1       1.182   2.068   1.478  0.00  0.00     0.143 A 
ATOM      2  C2  UNL d   1       1.190   0.901   0.707  0.00  0.00    -0.057 A 
ATOM      3  C3  UNL d   1       2.311   0.536  -0.048  0.00  0.00     0.033 A 
ATOM      4  C4  UNL d   1       3.438   1.352  -0.068  0.00  0.00    -0.042 A 
ATOM      5  C5  UNL d   1       3.443   2.529   0.671  0.00  0.00     0.033 A 
ATOM      6  C6  UNL d   1       2.323   2.884   1.428  0.00  0.00    -0.057 A 
ENDROOT
BRANCH   1   7
ATOM      7  N   UNL d   1       0.062   2.535   2.172  0.00  0.00    -0.732 N 
ATOM      8  C   UNL d   1      -0.970   1.618   2.607  0.00  0.00     0.284 C 
ATOM      9  H3  UNL d   1       0.299   3.250   2.855  0.00  0.00     0.395 HD
ENDBRANCH   1   7
TORSDOF 1
ENDMDL
