MODEL 1
REMARK minimizedAffinity 9.11830711
REMARK minimizedRMSD -1
REMARK  1 active torsions:
REMARK  status: ('A' for Active; 'I' for Inactive)
REMARK    1  A    between atoms: N_2  and  C1_3 
ROOT
ATOM      1  C1  UNL d   1       1.883   0.777   0.410  0.00  0.00     0.143 A 
ATOM      2  C2  UNL d   1       1.936   2.113  -0.003  0.00  0.00    -0.057 A 
ATOM      3  C3  UNL d   1       1.291   3.123   0.721  0.00  0.00     0.033 A 
ATOM      4  C4  UNL d   1       0.556   2.810   1.859  0.00  0.00    -0.042 A 
ATOM      5  C5  UNL d   1       0.469   1.486   2.275  0.00  0.00     0.033 A 
ATOM      6  C6  UNL d   1       1.121   0.482   1.551  0.00  0.00    -0.057 A 
ENDROOT
BRANCH   1   7
ATOM      7  N   UNL d   1       2.420  -0.285  -0.322  0.00  0.00    -0.732 N 
ATOM      8  C   UNL d   1       1.675  -0.883  -1.408  0.00  0.00     0.284 C 
ATOM      9  H3  UNL d   1       3.412  -0.161  -0.516  0.00  0.00     0.395 HD
ENDBRANCH   1   7
TORSDOF 1
ENDMDL
