MODEL 1
REMARK minimizedAffinity 4.67209196
REMARK minimizedRMSD -1
REMARK  1 active torsions:
REMARK  status: ('A' for Active; 'I' for Inactive)
REMARK    1  A    between atoms: N_2  and  C1_3 
ROOT
ATOM      1  C1  UNL d   1       1.107  -0.081  -0.262  0.00  0.00     0.143 A 
ATOM      2  C2  UNL d   1       1.667   1.200  -0.226  0.00  0.00    -0.057 A 
ATOM      3  C3  UNL d   1       1.755   1.920   0.971  0.00  0.00     0.033 A 
ATOM      4  C4  UNL d   1       1.257   1.382   2.153  0.00  0.00    -0.042 A 
ATOM      5  C5  UNL d   1       0.673   0.120   2.136  0.00  0.00     0.033 A 
ATOM      6  C6  UNL d   1       0.593  -0.597   0.938  0.00  0.00    -0.057 A 
ENDROOT
BRANCH   1   7
ATOM      7  N   UNL d   1       0.901  -0.807  -1.438  0.00  0.00    -0.732 N 
ATOM      8  C   UNL d   1      -0.006  -0.321  -2.455  0.00  0.00     0.284 C 
ATOM      9  H3  UNL d   1       1.762  -1.205  -1.805  0.00  0.00     0.395 HD
ENDBRANCH   1   7
TORSDOF 1
ENDMDL
