MODEL 1
REMARK minimizedAffinity 3.10180402
REMARK minimizedRMSD -1
REMARK  1 active torsions:
REMARK  status: ('A' for Active; 'I' for Inactive)
REMARK    1  A    between atoms: N_2  and  C1_3 
ROOT
ATOM      1  C1  UNL d   1      -1.040   1.488   2.157  0.00  0.00     0.143 A 
ATOM      2  C2  UNL d   1       0.016   0.600   1.927  0.00  0.00    -0.057 A 
ATOM      3  C3  UNL d   1       1.339   1.051   1.848  0.00  0.00     0.033 A 
ATOM      4  C4  UNL d   1       1.628   2.406   1.970  0.00  0.00    -0.042 A 
ATOM      5  C5  UNL d   1       0.591   3.310   2.175  0.00  0.00     0.033 A 
ATOM      6  C6  UNL d   1      -0.728   2.853   2.258  0.00  0.00    -0.057 A 
ENDROOT
BRANCH   1   7
ATOM      7  N   UNL d   1      -2.386   1.115   2.146  0.00  0.00    -0.732 N 
ATOM      8  C   UNL d   1      -3.378   1.915   2.832  0.00  0.00     0.284 C 
ATOM      9  H3  UNL d   1      -2.687   0.769   1.238  0.00  0.00     0.395 HD
ENDBRANCH   1   7
TORSDOF 1
ENDMDL
