MODEL 1
REMARK minimizedAffinity 5.64001274
REMARK minimizedRMSD -1
REMARK  1 active torsions:
REMARK  status: ('A' for Active; 'I' for Inactive)
REMARK    1  A    between atoms: N_2  and  C1_3 
ROOT
ATOM      1  C1  UNL d   1      -0.507   2.296   2.359  0.00  0.00     0.143 A 
ATOM      2  C2  UNL d   1       0.288   1.196   2.698  0.00  0.00    -0.057 A 
ATOM      3  C3  UNL d   1       1.590   1.060   2.200  0.00  0.00     0.033 A 
ATOM      4  C4  UNL d   1       2.110   2.009   1.328  0.00  0.00    -0.042 A 
ATOM      5  C5  UNL d   1       1.329   3.098   0.956  0.00  0.00     0.033 A 
ATOM      6  C6  UNL d   1       0.032   3.232   1.462  0.00  0.00    -0.057 A 
ENDROOT
BRANCH   1   7
ATOM      7  N   UNL d   1      -1.843   2.438   2.742  0.00  0.00    -0.732 N 
ATOM      8  C   UNL d   1      -2.747   1.309   2.694  0.00  0.00     0.284 C 
ATOM      9  H3  UNL d   1      -1.949   3.022   3.569  0.00  0.00     0.395 HD
ENDBRANCH   1   7
TORSDOF 1
ENDMDL
