MODEL 1
REMARK minimizedAffinity 4.31981421
REMARK minimizedRMSD -1
REMARK  1 active torsions:
REMARK  status: ('A' for Active; 'I' for Inactive)
REMARK    1  A    between atoms: N_2  and  C1_3 
ROOT
ATOM      1  C1  UNL d   1       0.716   1.698  -2.475  0.00  0.00     0.143 A 
ATOM      2  C2  UNL d   1       1.497   1.516  -1.329  0.00  0.00    -0.057 A 
ATOM      3  C3  UNL d   1       1.826   0.235  -0.869  0.00  0.00     0.033 A 
ATOM      4  C4  UNL d   1       1.352  -0.892  -1.534  0.00  0.00    -0.042 A 
ATOM      5  C5  UNL d   1       0.553  -0.735  -2.661  0.00  0.00     0.033 A 
ATOM      6  C6  UNL d   1       0.234   0.547  -3.119  0.00  0.00    -0.057 A 
ENDROOT
BRANCH   1   7
ATOM      7  N   UNL d   1       0.274   2.944  -2.925  0.00  0.00    -0.732 N 
ATOM      8  C   UNL d   1      -0.424   3.845  -2.033  0.00  0.00     0.284 C 
ATOM      9  H3  UNL d   1       0.951   3.401  -3.531  0.00  0.00     0.395 HD
ENDBRANCH   1   7
TORSDOF 1
ENDMDL
