MODEL 1
REMARK minimizedAffinity 10.842597
REMARK minimizedRMSD -1
REMARK  1 active torsions:
REMARK  status: ('A' for Active; 'I' for Inactive)
REMARK    1  A    between atoms: N_2  and  C1_3 
ROOT
ATOM      1  C1  UNL d   1       5.787   3.346  -3.720  0.00  0.00     0.143 A 
ATOM      2  C2  UNL d   1       5.793   4.497  -2.924  0.00  0.00    -0.057 A 
ATOM      3  C3  UNL d   1       5.872   5.773  -3.494  0.00  0.00     0.033 A 
ATOM      4  C4  UNL d   1       5.976   5.920  -4.874  0.00  0.00    -0.042 A 
ATOM      5  C5  UNL d   1       5.997   4.789  -5.682  0.00  0.00     0.033 A 
ATOM      6  C6  UNL d   1       5.911   3.518  -5.107  0.00  0.00    -0.057 A 
ENDROOT
BRANCH   1   7
ATOM      7  N   UNL d   1       5.810   2.046  -3.208  0.00  0.00    -0.732 N 
ATOM      8  C   UNL d   1       5.998   0.911  -4.086  0.00  0.00     0.284 C 
ATOM      9  H3  UNL d   1       6.322   1.983  -2.331  0.00  0.00     0.395 HD
ENDBRANCH   1   7
TORSDOF 1
ENDMDL
