MODEL 1
REMARK minimizedAffinity 11.0293875
REMARK minimizedRMSD -1
REMARK  1 active torsions:
REMARK  status: ('A' for Active; 'I' for Inactive)
REMARK    1  A    between atoms: N_2  and  C1_3 
ROOT
ATOM      1  C1  UNL d   1       0.402   1.760  -2.155  0.00  0.00     0.143 A 
ATOM      2  C2  UNL d   1       1.114   1.869  -0.956  0.00  0.00    -0.057 A 
ATOM      3  C3  UNL d   1       1.955   0.841  -0.514  0.00  0.00     0.033 A 
ATOM      4  C4  UNL d   1       2.077  -0.331  -1.252  0.00  0.00    -0.042 A 
ATOM      5  C5  UNL d   1       1.360  -0.473  -2.435  0.00  0.00     0.033 A 
ATOM      6  C6  UNL d   1       0.526   0.561  -2.874  0.00  0.00    -0.057 A 
ENDROOT
BRANCH   1   7
ATOM      7  N   UNL d   1      -0.526   2.705  -2.598  0.00  0.00    -0.732 N 
ATOM      8  C   UNL d   1      -1.050   3.705  -1.692  0.00  0.00     0.284 C 
ATOM      9  H3  UNL d   1      -0.306   3.060  -3.526  0.00  0.00     0.395 HD
ENDBRANCH   1   7
TORSDOF 1
ENDMDL
