MODEL 1
REMARK minimizedAffinity -0.5381459
REMARK minimizedRMSD -1
REMARK  1 active torsions:
REMARK  status: ('A' for Active; 'I' for Inactive)
REMARK    1  A    between atoms: N_2  and  C1_3 
ROOT
ATOM      1  C1  UNL d   1       0.664  -1.280   0.390  0.00  0.00     0.143 A 
ATOM      2  C2  UNL d   1       0.680  -0.311   1.399  0.00  0.00    -0.057 A 
ATOM      3  C3  UNL d   1       1.591   0.752   1.370  0.00  0.00     0.033 A 
ATOM      4  C4  UNL d   1       2.524   0.849   0.343  0.00  0.00    -0.042 A 
ATOM      5  C5  UNL d   1       2.543  -0.117  -0.657  0.00  0.00     0.033 A 
ATOM      6  C6  UNL d   1       1.627  -1.172  -0.626  0.00  0.00    -0.057 A 
ENDROOT
BRANCH   1   7
ATOM      7  N   UNL d   1      -0.150  -2.415   0.414  0.00  0.00    -0.732 N 
ATOM      8  C   UNL d   1       0.374  -3.689   0.856  0.00  0.00     0.284 C 
ATOM      9  H3  UNL d   1      -1.089  -2.212   0.751  0.00  0.00     0.395 HD
ENDBRANCH   1   7
TORSDOF 1
ENDMDL
