MODEL 1
REMARK minimizedAffinity 1.84503639
REMARK minimizedRMSD -1
REMARK  1 active torsions:
REMARK  status: ('A' for Active; 'I' for Inactive)
REMARK    1  A    between atoms: N_2  and  C1_3 
ROOT
ATOM      1  C1  UNL d   1      -3.715  -5.186  -2.554  0.00  0.00     0.143 A 
ATOM      2  C2  UNL d   1      -4.721  -6.000  -3.086  0.00  0.00    -0.057 A 
ATOM      3  C3  UNL d   1      -5.846  -5.448  -3.711  0.00  0.00     0.033 A 
ATOM      4  C4  UNL d   1      -5.998  -4.068  -3.789  0.00  0.00    -0.042 A 
ATOM      5  C5  UNL d   1      -5.023  -3.240  -3.245  0.00  0.00     0.033 A 
ATOM      6  C6  UNL d   1      -3.899  -3.797  -2.628  0.00  0.00    -0.057 A 
ENDROOT
BRANCH   1   7
ATOM      7  N   UNL d   1      -2.621  -5.673  -1.833  0.00  0.00    -0.732 N 
ATOM      8  C   UNL d   1      -2.035  -4.891  -0.766  0.00  0.00     0.284 C 
ATOM      9  H3  UNL d   1      -2.704  -6.665  -1.624  0.00  0.00     0.395 HD
ENDBRANCH   1   7
TORSDOF 1
ENDMDL
