MODEL 1
REMARK minimizedAffinity 8.20235252
REMARK minimizedRMSD -1
REMARK  0 active torsions:
REMARK  status: ('A' for Active; 'I' for Inactive)
ROOT
ATOM      1  C   UNL d   1       0.250  -0.063  -1.723  0.00  0.00     0.023 A 
ATOM      2  C1  UNL d   1      -0.062  -0.921  -2.778  0.00  0.00     0.003 A 
ATOM      3  C2  UNL d   1       0.563  -2.166  -2.875  0.00  0.00     0.048 A 
ATOM      4  C3  UNL d   1       1.498  -2.547  -1.913  0.00  0.00     0.023 A 
ATOM      5  C4  UNL d   1       1.813  -1.692  -0.855  0.00  0.00     0.048 A 
ATOM      6  C5  UNL d   1       1.186  -0.448  -0.763  0.00  0.00     0.003 A 
ATOM      7  I   UNL d   1       2.430  -4.399  -2.055  0.00  0.00    -0.146 I 
ENDROOT
TORSDOF 0
ENDMDL
