MODEL 1
REMARK minimizedAffinity -0.903511286
REMARK minimizedRMSD -1
REMARK  0 active torsions:
REMARK  status: ('A' for Active; 'I' for Inactive)
ROOT
ATOM      1  C   UNL d   1      -0.185  -1.059  -2.914  0.00  0.00     0.023 A 
ATOM      2  C1  UNL d   1      -1.213  -0.865  -1.991  0.00  0.00     0.003 A 
ATOM      3  C2  UNL d   1      -0.979  -0.129  -0.828  0.00  0.00     0.048 A 
ATOM      4  C3  UNL d   1       0.285   0.413  -0.594  0.00  0.00     0.023 A 
ATOM      5  C4  UNL d   1       1.316   0.222  -1.515  0.00  0.00     0.048 A 
ATOM      6  C5  UNL d   1       1.078  -0.516  -2.676  0.00  0.00     0.003 A 
ATOM      7  I   UNL d   1       0.635   1.510   1.136  0.00  0.00    -0.146 I 
ENDROOT
TORSDOF 0
ENDMDL
