MODEL 1
REMARK minimizedAffinity 6.12092447
REMARK minimizedRMSD -1
REMARK  0 active torsions:
REMARK  status: ('A' for Active; 'I' for Inactive)
ROOT
ATOM      1  C   UNL d   1      -1.670   3.376   1.801  0.00  0.00     0.023 A 
ATOM      2  C1  UNL d   1      -1.854   2.854   3.081  0.00  0.00     0.003 A 
ATOM      3  C2  UNL d   1      -3.096   2.337   3.454  0.00  0.00     0.048 A 
ATOM      4  C3  UNL d   1      -4.150   2.343   2.540  0.00  0.00     0.023 A 
ATOM      5  C4  UNL d   1      -3.970   2.863   1.257  0.00  0.00     0.048 A 
ATOM      6  C5  UNL d   1      -2.726   3.380   0.890  0.00  0.00     0.003 A 
ATOM      7  I   UNL d   1      -6.000   1.573   3.092  0.00  0.00    -0.146 I 
ENDROOT
TORSDOF 0
ENDMDL
