MODEL 1
REMARK minimizedAffinity 10.4990139
REMARK minimizedRMSD -1
REMARK  0 active torsions:
REMARK  status: ('A' for Active; 'I' for Inactive)
ROOT
ATOM      1  C   UNL d   1      -0.028  -2.021  -1.703  0.00  0.00     0.023 A 
ATOM      2  C1  UNL d   1       0.967  -2.392  -0.799  0.00  0.00     0.003 A 
ATOM      3  C2  UNL d   1       1.959  -1.479  -0.437  0.00  0.00     0.048 A 
ATOM      4  C3  UNL d   1       1.950  -0.196  -0.982  0.00  0.00     0.023 A 
ATOM      5  C4  UNL d   1       0.956   0.180  -1.887  0.00  0.00     0.048 A 
ATOM      6  C5  UNL d   1      -0.034  -0.736  -2.247  0.00  0.00     0.003 A 
ATOM      7  I   UNL d   1       3.426   1.165  -0.444  0.00  0.00    -0.146 I 
ENDROOT
TORSDOF 0
ENDMDL
