MODEL 1
REMARK minimizedAffinity 3.82432127
REMARK minimizedRMSD -1
REMARK  0 active torsions:
REMARK  status: ('A' for Active; 'I' for Inactive)
ROOT
ATOM      1  C   UNL d   1      -3.478   2.555  -3.905  0.00  0.00     0.023 A 
ATOM      2  C1  UNL d   1      -2.761   1.472  -3.396  0.00  0.00     0.003 A 
ATOM      3  C2  UNL d   1      -2.964   0.192  -3.916  0.00  0.00     0.048 A 
ATOM      4  C3  UNL d   1      -3.884   0.002  -4.946  0.00  0.00     0.023 A 
ATOM      5  C4  UNL d   1      -4.603   1.083  -5.459  0.00  0.00     0.048 A 
ATOM      6  C5  UNL d   1      -4.397   2.361  -4.935  0.00  0.00     0.003 A 
ATOM      7  I   UNL d   1      -4.188  -1.902  -5.722  0.00  0.00    -0.146 I 
ENDROOT
TORSDOF 0
ENDMDL
