MODEL 1
REMARK minimizedAffinity 3.52099705
REMARK minimizedRMSD -1
REMARK  0 active torsions:
REMARK  status: ('A' for Active; 'I' for Inactive)
ROOT
ATOM      1  C   UNL d   1       1.387   1.108  -1.094  0.00  0.00     0.023 A 
ATOM      2  C1  UNL d   1       0.791   0.660  -2.274  0.00  0.00     0.003 A 
ATOM      3  C2  UNL d   1       0.562  -0.703  -2.468  0.00  0.00     0.048 A 
ATOM      4  C3  UNL d   1       0.931  -1.614  -1.479  0.00  0.00     0.023 A 
ATOM      5  C4  UNL d   1       1.527  -1.171  -0.297  0.00  0.00     0.048 A 
ATOM      6  C5  UNL d   1       1.754   0.193  -0.107  0.00  0.00     0.003 A 
ATOM      7  I   UNL d   1       0.592  -3.645  -1.767  0.00  0.00    -0.146 I 
ENDROOT
TORSDOF 0
ENDMDL
