MODEL 1
REMARK minimizedAffinity 0.740388691
REMARK minimizedRMSD -1
REMARK  0 active torsions:
REMARK  status: ('A' for Active; 'I' for Inactive)
ROOT
ATOM      1  C   UNL d   1      -0.221  -1.121   1.107  0.00  0.00     0.023 A 
ATOM      2  C1  UNL d   1      -0.026   0.134   1.685  0.00  0.00     0.003 A 
ATOM      3  C2  UNL d   1       0.760   1.088   1.036  0.00  0.00     0.048 A 
ATOM      4  C3  UNL d   1       1.346   0.782  -0.192  0.00  0.00     0.023 A 
ATOM      5  C4  UNL d   1       1.153  -0.472  -0.774  0.00  0.00     0.048 A 
ATOM      6  C5  UNL d   1       0.367  -1.423  -0.121  0.00  0.00     0.003 A 
ATOM      7  I   UNL d   1       2.516   2.201  -1.160  0.00  0.00    -0.146 I 
ENDROOT
TORSDOF 0
ENDMDL
