MODEL 1
REMARK minimizedAffinity 8.29038906
REMARK minimizedRMSD -1
REMARK  0 active torsions:
REMARK  status: ('A' for Active; 'I' for Inactive)
ROOT
ATOM      1  C   UNL d   1       0.188  -1.860  -2.632  0.00  0.00     0.023 A 
ATOM      2  C1  UNL d   1       0.000  -0.561  -3.106  0.00  0.00     0.003 A 
ATOM      3  C2  UNL d   1       0.539   0.522  -2.409  0.00  0.00     0.048 A 
ATOM      4  C3  UNL d   1       1.265   0.300  -1.240  0.00  0.00     0.023 A 
ATOM      5  C4  UNL d   1       1.456  -0.997  -0.762  0.00  0.00     0.048 A 
ATOM      6  C5  UNL d   1       0.915  -2.077  -1.461  0.00  0.00     0.003 A 
ATOM      7  I   UNL d   1       2.067   1.912  -0.201  0.00  0.00    -0.146 I 
ENDROOT
TORSDOF 0
ENDMDL
