MODEL 1
REMARK minimizedAffinity 0.710571587
REMARK minimizedRMSD -1
REMARK  0 active torsions:
REMARK  status: ('A' for Active; 'I' for Inactive)
ROOT
ATOM      1  C   UNL d   1      -5.790  -2.557  -5.317  0.00  0.00     0.023 A 
ATOM      2  C1  UNL d   1      -6.000  -3.756  -5.999  0.00  0.00     0.003 A 
ATOM      3  C2  UNL d   1      -5.011  -4.742  -6.000  0.00  0.00     0.048 A 
ATOM      4  C3  UNL d   1      -3.815  -4.522  -5.317  0.00  0.00     0.023 A 
ATOM      5  C4  UNL d   1      -3.601  -3.324  -4.633  0.00  0.00     0.048 A 
ATOM      6  C5  UNL d   1      -4.592  -2.341  -4.636  0.00  0.00     0.003 A 
ATOM      7  I   UNL d   1      -2.341  -5.988  -5.317  0.00  0.00    -0.146 I 
ENDROOT
TORSDOF 0
ENDMDL
