MODEL 1
REMARK minimizedAffinity 6.21638775
REMARK minimizedRMSD -1
REMARK  0 active torsions:
REMARK  status: ('A' for Active; 'I' for Inactive)
ROOT
ATOM      1  C   UNL d   1       0.488  -1.038   0.112  0.00  0.00     0.023 A 
ATOM      2  C1  UNL d   1      -0.051  -0.311   1.173  0.00  0.00     0.003 A 
ATOM      3  C2  UNL d   1       0.342   1.012   1.385  0.00  0.00     0.048 A 
ATOM      4  C3  UNL d   1       1.274   1.602   0.532  0.00  0.00     0.023 A 
ATOM      5  C4  UNL d   1       1.816   0.878  -0.531  0.00  0.00     0.048 A 
ATOM      6  C5  UNL d   1       1.421  -0.445  -0.739  0.00  0.00     0.003 A 
ATOM      7  I   UNL d   1       1.860   3.571   0.845  0.00  0.00    -0.146 I 
ENDROOT
TORSDOF 0
ENDMDL
