MODEL 1
REMARK minimizedAffinity 16.2402382
REMARK minimizedRMSD -1
REMARK  0 active torsions:
REMARK  status: ('A' for Active; 'I' for Inactive)
ROOT
ATOM      1  C   UNL d   1      -3.127  -2.027  -3.996  0.00  0.00     0.023 A 
ATOM      2  C1  UNL d   1      -3.709  -1.863  -5.253  0.00  0.00     0.003 A 
ATOM      3  C2  UNL d   1      -3.783  -0.594  -5.830  0.00  0.00     0.048 A 
ATOM      4  C3  UNL d   1      -3.272   0.508  -5.144  0.00  0.00     0.023 A 
ATOM      5  C4  UNL d   1      -2.687   0.348  -3.887  0.00  0.00     0.048 A 
ATOM      6  C5  UNL d   1      -2.616  -0.923  -3.314  0.00  0.00     0.003 A 
ATOM      7  I   UNL d   1      -3.380   2.399  -6.000  0.00  0.00    -0.146 I 
ENDROOT
TORSDOF 0
ENDMDL
