MODEL 1
REMARK minimizedAffinity 3.1939497
REMARK minimizedRMSD -1
REMARK  0 active torsions:
REMARK  status: ('A' for Active; 'I' for Inactive)
ROOT
ATOM      1  C   UNL d   1      -5.386  -1.948  -5.727  0.00  0.00     0.023 A 
ATOM      2  C1  UNL d   1      -3.994  -1.849  -5.726  0.00  0.00     0.003 A 
ATOM      3  C2  UNL d   1      -3.211  -3.004  -5.784  0.00  0.00     0.048 A 
ATOM      4  C3  UNL d   1      -3.826  -4.254  -5.844  0.00  0.00     0.023 A 
ATOM      5  C4  UNL d   1      -5.218  -4.357  -5.845  0.00  0.00     0.048 A 
ATOM      6  C5  UNL d   1      -5.997  -3.200  -5.786  0.00  0.00     0.003 A 
ATOM      7  I   UNL d   1      -2.662  -5.974  -5.931  0.00  0.00    -0.146 I 
ENDROOT
TORSDOF 0
ENDMDL
