MODEL 1
REMARK minimizedAffinity 11.4648514
REMARK minimizedRMSD -1
REMARK  0 active torsions:
REMARK  status: ('A' for Active; 'I' for Inactive)
ROOT
ATOM      1  C   UNL d   1       0.576  -0.261  -1.292  0.00  0.00     0.023 A 
ATOM      2  C1  UNL d   1       0.380  -1.006  -2.455  0.00  0.00     0.003 A 
ATOM      3  C2  UNL d   1       0.881  -2.307  -2.545  0.00  0.00     0.048 A 
ATOM      4  C3  UNL d   1       1.575  -2.856  -1.468  0.00  0.00     0.023 A 
ATOM      5  C4  UNL d   1       1.772  -2.115  -0.302  0.00  0.00     0.048 A 
ATOM      6  C5  UNL d   1       1.271  -0.815  -0.217  0.00  0.00     0.003 A 
ATOM      7  I   UNL d   1       2.321  -4.792  -1.599  0.00  0.00    -0.146 I 
ENDROOT
TORSDOF 0
ENDMDL
