MODEL 1
REMARK minimizedAffinity 4.47642326
REMARK minimizedRMSD -1
REMARK  0 active torsions:
REMARK  status: ('A' for Active; 'I' for Inactive)
ROOT
ATOM      1  C   UNL d   1       1.372   5.999   0.563  0.00  0.00     0.023 A 
ATOM      2  C1  UNL d   1       1.527   5.887  -0.818  0.00  0.00     0.003 A 
ATOM      3  C2  UNL d   1       1.379   4.646  -1.440  0.00  0.00     0.048 A 
ATOM      4  C3  UNL d   1       1.075   3.521  -0.674  0.00  0.00     0.023 A 
ATOM      5  C4  UNL d   1       0.917   3.628   0.708  0.00  0.00     0.048 A 
ATOM      6  C5  UNL d   1       1.067   4.872   1.326  0.00  0.00     0.003 A 
ATOM      7  I   UNL d   1       0.854   1.672  -1.598  0.00  0.00    -0.146 I 
ENDROOT
TORSDOF 0
ENDMDL
