MODEL 1
REMARK minimizedAffinity 10.9400911
REMARK minimizedRMSD -1
REMARK  0 active torsions:
REMARK  status: ('A' for Active; 'I' for Inactive)
ROOT
ATOM      1  C   UNL d   1       0.517  -2.813  -1.116  0.00  0.00     0.023 A 
ATOM      2  C1  UNL d   1       1.872  -3.091  -1.294  0.00  0.00     0.003 A 
ATOM      3  C2  UNL d   1       2.825  -2.090  -1.088  0.00  0.00     0.048 A 
ATOM      4  C3  UNL d   1       2.415  -0.814  -0.703  0.00  0.00     0.023 A 
ATOM      5  C4  UNL d   1       1.060  -0.532  -0.523  0.00  0.00     0.048 A 
ATOM      6  C5  UNL d   1       0.111  -1.535  -0.731  0.00  0.00     0.003 A 
ATOM      7  I   UNL d   1       3.830   0.676  -0.395  0.00  0.00    -0.146 I 
ENDROOT
TORSDOF 0
ENDMDL
