MODEL 1
REMARK minimizedAffinity -2.84325933
REMARK minimizedRMSD -1
REMARK  0 active torsions:
REMARK  status: ('A' for Active; 'I' for Inactive)
ROOT
ATOM      1  C   UNL d   1      -2.401  -1.455  -0.736  0.00  0.00     0.172 C 
ATOM      2  N   UNL d   1      -1.074  -1.174  -0.242  0.00  0.00    -0.070 N 
ATOM      3  C1  UNL d   1      -0.442  -1.842   0.774  0.00  0.00    -0.004 A 
ATOM      4  C2  UNL d   1       0.803  -1.275   0.941  0.00  0.00    -0.047 A 
ATOM      5  C3  UNL d   1       0.923  -0.230  -0.006  0.00  0.00    -0.047 A 
ATOM      6  C4  UNL d   1      -0.253  -0.190  -0.725  0.00  0.00    -0.004 A 
ENDROOT
TORSDOF 0
ENDMDL
