MODEL 1
REMARK minimizedAffinity -3.99116778
REMARK minimizedRMSD -1
REMARK  0 active torsions:
REMARK  status: ('A' for Active; 'I' for Inactive)
ROOT
ATOM      1  C   UNL d   1       1.142   0.180   0.317  0.00  0.00     0.172 C 
ATOM      2  N   UNL d   1      -0.168  -0.029  -0.254  0.00  0.00    -0.070 N 
ATOM      3  C1  UNL d   1      -0.500   0.142  -1.572  0.00  0.00    -0.004 A 
ATOM      4  C2  UNL d   1      -1.838  -0.156  -1.711  0.00  0.00    -0.047 A 
ATOM      5  C3  UNL d   1      -2.327  -0.517  -0.433  0.00  0.00    -0.047 A 
ATOM      6  C4  UNL d   1      -1.272  -0.429   0.450  0.00  0.00    -0.004 A 
ENDROOT
TORSDOF 0
ENDMDL
