MODEL 1
REMARK minimizedAffinity -3.31735182
REMARK minimizedRMSD -1
REMARK  0 active torsions:
REMARK  status: ('A' for Active; 'I' for Inactive)
ROOT
ATOM      1  C   UNL d   1       1.432   0.408   0.275  0.00  0.00     0.172 C 
ATOM      2  N   UNL d   1       0.088   0.042  -0.108  0.00  0.00    -0.070 N 
ATOM      3  C1  UNL d   1      -0.501   0.314  -1.313  0.00  0.00    -0.004 A 
ATOM      4  C2  UNL d   1      -1.780  -0.199  -1.283  0.00  0.00    -0.047 A 
ATOM      5  C3  UNL d   1      -1.965  -0.800  -0.015  0.00  0.00    -0.047 A 
ATOM      6  C4  UNL d   1      -0.793  -0.636   0.692  0.00  0.00    -0.004 A 
ENDROOT
TORSDOF 0
ENDMDL
