MODEL 1
REMARK minimizedAffinity -3.20009089
REMARK minimizedRMSD -1
REMARK  0 active torsions:
REMARK  status: ('A' for Active; 'I' for Inactive)
ROOT
ATOM      1  C   UNL d   1      -2.313  -0.389   0.268  0.00  0.00     0.172 C 
ATOM      2  N   UNL d   1      -0.874  -0.273   0.265  0.00  0.00    -0.070 N 
ATOM      3  C1  UNL d   1      -0.019  -0.940   1.101  0.00  0.00    -0.004 A 
ATOM      4  C2  UNL d   1       1.267  -0.559   0.781  0.00  0.00    -0.047 A 
ATOM      5  C3  UNL d   1       1.180   0.370  -0.283  0.00  0.00    -0.047 A 
ATOM      6  C4  UNL d   1      -0.156   0.528  -0.582  0.00  0.00    -0.004 A 
ENDROOT
TORSDOF 0
ENDMDL
