MODEL 1
REMARK minimizedAffinity -4.0977416
REMARK minimizedRMSD -1
REMARK  0 active torsions:
REMARK  status: ('A' for Active; 'I' for Inactive)
ROOT
ATOM      1  C   UNL d   1       0.983  -0.012   0.375  0.00  0.00     0.172 C 
ATOM      2  N   UNL d   1      -0.390  -0.232  -0.014  0.00  0.00    -0.070 N 
ATOM      3  C1  UNL d   1      -1.411  -0.588   0.826  0.00  0.00    -0.004 A 
ATOM      4  C2  UNL d   1      -2.559  -0.698   0.071  0.00  0.00    -0.047 A 
ATOM      5  C3  UNL d   1      -2.216  -0.399  -1.269  0.00  0.00    -0.047 A 
ATOM      6  C4  UNL d   1      -0.867  -0.114  -1.293  0.00  0.00    -0.004 A 
ENDROOT
TORSDOF 0
ENDMDL
