MODEL 1
REMARK minimizedAffinity -3.71304798
REMARK minimizedRMSD -1
REMARK  0 active torsions:
REMARK  status: ('A' for Active; 'I' for Inactive)
ROOT
ATOM      1  C   UNL d   1       1.040   0.275   0.234  0.00  0.00     0.172 C 
ATOM      2  N   UNL d   1      -0.346   0.077  -0.117  0.00  0.00    -0.070 N 
ATOM      3  C1  UNL d   1      -1.330  -0.359   0.730  0.00  0.00    -0.004 A 
ATOM      4  C2  UNL d   1      -2.508  -0.414   0.017  0.00  0.00    -0.047 A 
ATOM      5  C3  UNL d   1      -2.222   0.002  -1.306  0.00  0.00    -0.047 A 
ATOM      6  C4  UNL d   1      -0.877   0.300  -1.360  0.00  0.00    -0.004 A 
ENDROOT
TORSDOF 0
ENDMDL
