MODEL 1
REMARK minimizedAffinity -3.48702598
REMARK minimizedRMSD -1
REMARK  0 active torsions:
REMARK  status: ('A' for Active; 'I' for Inactive)
ROOT
ATOM      1  C   UNL d   1       1.535   0.686   0.084  0.00  0.00     0.172 C 
ATOM      2  N   UNL d   1       0.258   0.284  -0.459  0.00  0.00    -0.070 N 
ATOM      3  C1  UNL d   1      -0.680  -0.476   0.187  0.00  0.00    -0.004 A 
ATOM      4  C2  UNL d   1      -1.752  -0.637  -0.664  0.00  0.00    -0.047 A 
ATOM      5  C3  UNL d   1      -1.446   0.048  -1.864  0.00  0.00    -0.047 A 
ATOM      6  C4  UNL d   1      -0.195   0.609  -1.710  0.00  0.00    -0.004 A 
ENDROOT
TORSDOF 0
ENDMDL
