MODEL 1
REMARK minimizedAffinity -3.81071568
REMARK minimizedRMSD -1
REMARK  0 active torsions:
REMARK  status: ('A' for Active; 'I' for Inactive)
ROOT
ATOM      1  C   UNL d   1       0.427   0.010   0.375  0.00  0.00     0.172 C 
ATOM      2  N   UNL d   1      -0.900  -0.552   0.288  0.00  0.00    -0.070 N 
ATOM      3  C1  UNL d   1      -1.332  -1.684   0.927  0.00  0.00    -0.004 A 
ATOM      4  C2  UNL d   1      -2.653  -1.882   0.587  0.00  0.00    -0.047 A 
ATOM      5  C3  UNL d   1      -3.028  -0.834  -0.287  0.00  0.00    -0.047 A 
ATOM      6  C4  UNL d   1      -1.924  -0.025  -0.455  0.00  0.00    -0.004 A 
ENDROOT
TORSDOF 0
ENDMDL
