MODEL 1
REMARK minimizedAffinity -1.70725811
REMARK minimizedRMSD -1
REMARK  0 active torsions:
REMARK  status: ('A' for Active; 'I' for Inactive)
ROOT
ATOM      1  C   UNL d   1       1.303   0.327   0.206  0.00  0.00     0.172 C 
ATOM      2  N   UNL d   1       0.049   0.060  -0.459  0.00  0.00    -0.070 N 
ATOM      3  C1  UNL d   1      -0.250   0.380  -1.756  0.00  0.00    -0.004 A 
ATOM      4  C2  UNL d   1      -1.539  -0.040  -2.008  0.00  0.00    -0.047 A 
ATOM      5  C3  UNL d   1      -2.031  -0.632  -0.821  0.00  0.00    -0.047 A 
ATOM      6  C4  UNL d   1      -1.028  -0.556   0.122  0.00  0.00    -0.004 A 
ENDROOT
TORSDOF 0
ENDMDL
