MODEL 1
REMARK minimizedAffinity -3.54541373
REMARK minimizedRMSD -1
REMARK  0 active torsions:
REMARK  status: ('A' for Active; 'I' for Inactive)
ROOT
ATOM      1  C   UNL d   1      -2.962  -0.746  -0.006  0.00  0.00     0.172 C 
ATOM      2  N   UNL d   1      -1.524  -0.622   0.030  0.00  0.00    -0.070 N 
ATOM      3  C1  UNL d   1      -0.769   0.168  -0.796  0.00  0.00    -0.004 A 
ATOM      4  C2  UNL d   1       0.553   0.008  -0.441  0.00  0.00    -0.047 A 
ATOM      5  C3  UNL d   1       0.595  -0.910   0.635  0.00  0.00    -0.047 A 
ATOM      6  C4  UNL d   1      -0.705  -1.284   0.906  0.00  0.00    -0.004 A 
ENDROOT
TORSDOF 0
ENDMDL
