MODEL 1
REMARK minimizedAffinity -4.0743742
REMARK minimizedRMSD -1
REMARK  0 active torsions:
REMARK  status: ('A' for Active; 'I' for Inactive)
ROOT
ATOM      1  C   UNL d   1      -0.126   0.124  -1.841  0.00  0.00     0.172 C 
ATOM      2  N   UNL d   1      -1.192  -0.313  -0.970  0.00  0.00    -0.070 N 
ATOM      3  C1  UNL d   1      -1.195  -0.221   0.397  0.00  0.00    -0.004 A 
ATOM      4  C2  UNL d   1      -2.386  -0.745   0.852  0.00  0.00    -0.047 A 
ATOM      5  C3  UNL d   1      -3.123  -1.168  -0.279  0.00  0.00    -0.047 A 
ATOM      6  C4  UNL d   1      -2.361  -0.889  -1.394  0.00  0.00    -0.004 A 
ENDROOT
TORSDOF 0
ENDMDL
