MODEL 1
REMARK minimizedAffinity -3.89836574
REMARK minimizedRMSD -1
REMARK  0 active torsions:
REMARK  status: ('A' for Active; 'I' for Inactive)
ROOT
ATOM      1  C   UNL d   1       1.110   0.345   0.471  0.00  0.00     0.172 C 
ATOM      2  N   UNL d   1      -0.230   0.001   0.060  0.00  0.00    -0.070 N 
ATOM      3  C1  UNL d   1      -1.276  -0.277   0.899  0.00  0.00    -0.004 A 
ATOM      4  C2  UNL d   1      -2.379  -0.557   0.121  0.00  0.00    -0.047 A 
ATOM      5  C3  UNL d   1      -1.982  -0.443  -1.232  0.00  0.00    -0.047 A 
ATOM      6  C4  UNL d   1      -0.647  -0.097  -1.241  0.00  0.00    -0.004 A 
ENDROOT
TORSDOF 0
ENDMDL
