MODEL 1
REMARK minimizedAffinity -2.80965447
REMARK minimizedRMSD -1
REMARK  0 active torsions:
REMARK  status: ('A' for Active; 'I' for Inactive)
ROOT
ATOM      1  C   UNL d   1      -2.659  -1.028  -0.484  0.00  0.00     0.172 C 
ATOM      2  N   UNL d   1      -1.310  -0.548  -0.296  0.00  0.00    -0.070 N 
ATOM      3  C1  UNL d   1      -0.634   0.286  -1.145  0.00  0.00    -0.004 A 
ATOM      4  C2  UNL d   1       0.618   0.507  -0.613  0.00  0.00    -0.047 A 
ATOM      5  C3  UNL d   1       0.698  -0.222   0.598  0.00  0.00    -0.047 A 
ATOM      6  C4  UNL d   1      -0.510  -0.865   0.770  0.00  0.00    -0.004 A 
ENDROOT
TORSDOF 0
ENDMDL
