MODEL 1
REMARK minimizedAffinity -0.616118968
REMARK minimizedRMSD -1
REMARK  0 active torsions:
REMARK  status: ('A' for Active; 'I' for Inactive)
ROOT
ATOM      1  C   UNL d   1       1.059   0.045   0.746  0.00  0.00     0.172 C 
ATOM      2  N   UNL d   1       1.914   1.199   0.894  0.00  0.00    -0.070 N 
ATOM      3  C1  UNL d   1       2.123   1.895   2.055  0.00  0.00    -0.004 A 
ATOM      4  C2  UNL d   1       3.000   2.922   1.779  0.00  0.00    -0.047 A 
ATOM      5  C3  UNL d   1       3.328   2.841   0.405  0.00  0.00    -0.047 A 
ATOM      6  C4  UNL d   1       2.642   1.766  -0.119  0.00  0.00    -0.004 A 
ENDROOT
TORSDOF 0
ENDMDL
