MODEL 1
REMARK minimizedAffinity -3.94600868
REMARK minimizedRMSD -1
REMARK  0 active torsions:
REMARK  status: ('A' for Active; 'I' for Inactive)
ROOT
ATOM      1  C   UNL d   1       0.969   0.248   0.089  0.00  0.00     0.172 C 
ATOM      2  N   UNL d   1      -0.426   0.032  -0.213  0.00  0.00    -0.070 N 
ATOM      3  C1  UNL d   1      -1.330  -0.601   0.597  0.00  0.00    -0.004 A 
ATOM      4  C2  UNL d   1      -2.548  -0.603  -0.048  0.00  0.00    -0.047 A 
ATOM      5  C3  UNL d   1      -2.369   0.051  -1.290  0.00  0.00    -0.047 A 
ATOM      6  C4  UNL d   1      -1.047   0.434  -1.367  0.00  0.00    -0.004 A 
ENDROOT
TORSDOF 0
ENDMDL
