MODEL 1
REMARK minimizedAffinity -2.64969134
REMARK minimizedRMSD -1
REMARK  0 active torsions:
REMARK  status: ('A' for Active; 'I' for Inactive)
ROOT
ATOM      1  C   UNL d   1       1.153   0.449  -0.067  0.00  0.00     0.172 C 
ATOM      2  N   UNL d   1      -0.227   0.163  -0.384  0.00  0.00    -0.070 N 
ATOM      3  C1  UNL d   1      -1.010  -0.775   0.235  0.00  0.00    -0.004 A 
ATOM      4  C2  UNL d   1      -2.255  -0.739  -0.354  0.00  0.00    -0.047 A 
ATOM      5  C3  UNL d   1      -2.219   0.253  -1.362  0.00  0.00    -0.047 A 
ATOM      6  C4  UNL d   1      -0.951   0.795  -1.359  0.00  0.00    -0.004 A 
ENDROOT
TORSDOF 0
ENDMDL
