MODEL 1
REMARK minimizedAffinity 15.5077763
REMARK minimizedRMSD -1
REMARK  1 active torsions:
REMARK  status: ('A' for Active; 'I' for Inactive)
REMARK    1  A    between atoms: C1_2  and  C2_3 
ROOT
ATOM      1  C2  UNL d   1      -5.948  -2.197   1.744  0.00  0.00    -0.081 A 
ATOM      2  C3  UNL d   1      -5.976  -0.891   2.246  0.00  0.00     0.006 A 
ATOM      3  C4  UNL d   1      -5.935  -0.660   3.623  0.00  0.00     0.002 A 
ATOM      4  C5  UNL d   1      -5.857  -1.731   4.520  0.00  0.00    -0.080 A 
ATOM      5  C6  UNL d   1      -5.781  -1.496   5.999  0.00  0.00     0.076 C 
ATOM      6  C7  UNL d   1      -5.846  -3.037   4.019  0.00  0.00     0.002 A 
ATOM      7  C8  UNL d   1      -5.888  -3.268   2.642  0.00  0.00     0.006 A 
ENDROOT
BRANCH   1   8
ATOM      8  C1  UNL d   1      -5.927  -2.447   0.257  0.00  0.00     0.054 C 
ATOM      9  C   UNL d   1      -5.962  -1.141  -0.524  0.00  0.00     0.018 C 
ENDBRANCH   1   8
TORSDOF 1
ENDMDL
