MODEL 1
REMARK minimizedAffinity -6.42186928
REMARK minimizedRMSD -1
REMARK  1 active torsions:
REMARK  status: ('A' for Active; 'I' for Inactive)
REMARK    1  A    between atoms: C1_2  and  C2_3 
ROOT
ATOM      1  C2  UNL d   1      -1.489   1.973  -0.790  0.00  0.00    -0.081 A 
ATOM      2  C3  UNL d   1      -1.822   0.995   0.155  0.00  0.00     0.006 A 
ATOM      3  C4  UNL d   1      -1.434  -0.333  -0.034  0.00  0.00     0.002 A 
ATOM      4  C5  UNL d   1      -0.702  -0.705  -1.166  0.00  0.00    -0.080 A 
ATOM      5  C6  UNL d   1      -0.254  -2.122  -1.366  0.00  0.00     0.076 C 
ATOM      6  C7  UNL d   1      -0.385   0.269  -2.119  0.00  0.00     0.002 A 
ATOM      7  C8  UNL d   1      -0.772   1.597  -1.931  0.00  0.00     0.006 A 
ENDROOT
BRANCH   1   8
ATOM      8  C1  UNL d   1      -1.849   3.418  -0.557  0.00  0.00     0.054 C 
ATOM      9  C   UNL d   1      -1.502   3.854   0.859  0.00  0.00     0.018 C 
ENDBRANCH   1   8
TORSDOF 1
ENDMDL
