MODEL 1
REMARK minimizedAffinity -2.7667048
REMARK minimizedRMSD -1
REMARK  1 active torsions:
REMARK  status: ('A' for Active; 'I' for Inactive)
REMARK    1  A    between atoms: C1_2  and  C2_3 
ROOT
ATOM      1  C2  UNL d   1      -0.851   1.518  -1.071  0.00  0.00    -0.081 A 
ATOM      2  C3  UNL d   1      -0.991   0.569  -0.051  0.00  0.00     0.006 A 
ATOM      3  C4  UNL d   1      -0.504  -0.729  -0.220  0.00  0.00     0.002 A 
ATOM      4  C5  UNL d   1       0.139  -1.097  -1.407  0.00  0.00    -0.080 A 
ATOM      5  C6  UNL d   1       0.694  -2.479  -1.588  0.00  0.00     0.076 C 
ATOM      6  C7  UNL d   1       0.263  -0.154  -2.432  0.00  0.00     0.002 A 
ATOM      7  C8  UNL d   1      -0.225   1.144  -2.265  0.00  0.00     0.006 A 
ENDROOT
BRANCH   1   8
ATOM      8  C1  UNL d   1      -1.318   2.937  -0.868  0.00  0.00     0.054 C 
ATOM      9  C   UNL d   1      -1.238   3.341   0.598  0.00  0.00     0.018 C 
ENDBRANCH   1   8
TORSDOF 1
ENDMDL
