MODEL 1
REMARK minimizedAffinity -4.48833084
REMARK minimizedRMSD -1
REMARK  1 active torsions:
REMARK  status: ('A' for Active; 'I' for Inactive)
REMARK    1  A    between atoms: C1_2  and  C2_3 
ROOT
ATOM      1  C2  UNL d   1       0.254   0.455   0.269  0.00  0.00    -0.081 A 
ATOM      2  C3  UNL d   1       0.712   1.227   1.343  0.00  0.00     0.006 A 
ATOM      3  C4  UNL d   1       0.051   2.404   1.702  0.00  0.00     0.002 A 
ATOM      4  C5  UNL d   1      -1.083   2.824   0.999  0.00  0.00    -0.080 A 
ATOM      5  C6  UNL d   1      -1.819   4.070   1.393  0.00  0.00     0.076 C 
ATOM      6  C7  UNL d   1      -1.531   2.062  -0.085  0.00  0.00     0.002 A 
ATOM      7  C8  UNL d   1      -0.870   0.885  -0.445  0.00  0.00     0.006 A 
ENDROOT
BRANCH   1   8
ATOM      8  C1  UNL d   1       0.926  -0.849  -0.079  0.00  0.00     0.054 C 
ATOM      9  C   UNL d   1      -0.027  -1.784  -0.812  0.00  0.00     0.018 C 
ENDBRANCH   1   8
TORSDOF 1
ENDMDL
