MODEL 1
REMARK minimizedAffinity -0.365601063
REMARK minimizedRMSD -1
REMARK  1 active torsions:
REMARK  status: ('A' for Active; 'I' for Inactive)
REMARK    1  A    between atoms: C1_2  and  C2_3 
ROOT
ATOM      1  C2  UNL d   1       1.966   3.768   2.147  0.00  0.00    -0.081 A 
ATOM      2  C3  UNL d   1       0.776   3.631   1.423  0.00  0.00     0.006 A 
ATOM      3  C4  UNL d   1       0.573   4.360   0.249  0.00  0.00     0.002 A 
ATOM      4  C5  UNL d   1       1.559   5.233  -0.224  0.00  0.00    -0.080 A 
ATOM      5  C6  UNL d   1       1.367   5.999  -1.499  0.00  0.00     0.076 C 
ATOM      6  C7  UNL d   1       2.741   5.383   0.509  0.00  0.00     0.002 A 
ATOM      7  C8  UNL d   1       2.944   4.654   1.683  0.00  0.00     0.006 A 
ENDROOT
BRANCH   1   8
ATOM      8  C1  UNL d   1       2.214   2.935   3.379  0.00  0.00     0.054 C 
ATOM      9  C   UNL d   1       2.932   3.737   4.454  0.00  0.00     0.018 C 
ENDBRANCH   1   8
TORSDOF 1
ENDMDL
