MODEL 1
REMARK minimizedAffinity -1.62843716
REMARK minimizedRMSD -1
REMARK  1 active torsions:
REMARK  status: ('A' for Active; 'I' for Inactive)
REMARK    1  A    between atoms: C1_2  and  C2_3 
ROOT
ATOM      1  C2  UNL d   1       0.246   0.777   0.376  0.00  0.00    -0.081 A 
ATOM      2  C3  UNL d   1       0.341   1.452   1.599  0.00  0.00     0.006 A 
ATOM      3  C4  UNL d   1       0.888   0.818   2.717  0.00  0.00     0.002 A 
ATOM      4  C5  UNL d   1       1.355  -0.498   2.629  0.00  0.00    -0.080 A 
ATOM      5  C6  UNL d   1       1.971  -1.180   3.814  0.00  0.00     0.076 C 
ATOM      6  C7  UNL d   1       1.244  -1.178   1.412  0.00  0.00     0.002 A 
ATOM      7  C8  UNL d   1       0.698  -0.545   0.293  0.00  0.00     0.006 A 
ENDROOT
BRANCH   1   8
ATOM      8  C1  UNL d   1      -0.283   1.480  -0.848  0.00  0.00     0.054 C 
ATOM      9  C   UNL d   1      -1.337   0.641  -1.556  0.00  0.00     0.018 C 
ENDBRANCH   1   8
TORSDOF 1
ENDMDL
