MODEL 1
REMARK minimizedAffinity 2.84624004
REMARK minimizedRMSD -1
REMARK  1 active torsions:
REMARK  status: ('A' for Active; 'I' for Inactive)
REMARK    1  A    between atoms: C1_2  and  C2_3 
ROOT
ATOM      1  C2  UNL d   1      -1.119  -0.788  -1.030  0.00  0.00    -0.081 A 
ATOM      2  C3  UNL d   1       0.115  -0.818  -0.370  0.00  0.00     0.006 A 
ATOM      3  C4  UNL d   1       0.741  -2.036  -0.093  0.00  0.00     0.002 A 
ATOM      4  C5  UNL d   1       0.147  -3.243  -0.477  0.00  0.00    -0.080 A 
ATOM      5  C6  UNL d   1       0.823  -4.555  -0.213  0.00  0.00     0.076 C 
ATOM      6  C7  UNL d   1      -1.094  -3.214  -1.121  0.00  0.00     0.002 A 
ATOM      7  C8  UNL d   1      -1.721  -1.997  -1.398  0.00  0.00     0.006 A 
ENDROOT
BRANCH   1   8
ATOM      8  C1  UNL d   1      -1.766   0.525  -1.388  0.00  0.00     0.054 C 
ATOM      9  C   UNL d   1      -0.725   1.568  -1.769  0.00  0.00     0.018 C 
ENDBRANCH   1   8
TORSDOF 1
ENDMDL
