MODEL 1
REMARK minimizedAffinity -0.262382299
REMARK minimizedRMSD -1
REMARK  0 active torsions:
REMARK  status: ('A' for Active; 'I' for Inactive)
ROOT
ATOM      1  C   UNL d   1      -0.031   1.302  -0.035  0.00  0.00     0.124 A 
ATOM      2  C1  UNL d   1       0.125   0.957  -1.370  0.00  0.00     0.062 A 
ATOM      3  C2  UNL d   1      -0.787   1.407  -2.320  0.00  0.00     0.162 A 
ATOM      4  C3  UNL d   1      -1.863   2.209  -1.939  0.00  0.00    -0.034 A 
ATOM      5  C4  UNL d   1      -2.014   2.551  -0.594  0.00  0.00     0.162 A 
ATOM      6  C5  UNL d   1      -1.100   2.098   0.352  0.00  0.00     0.062 A 
ATOM      7  F   UNL d   1      -1.251   2.433   1.642  0.00  0.00    -0.097 F 
ATOM      8  F1  UNL d   1      -3.037   3.320  -0.192  0.00  0.00    -0.096 F 
ATOM      9  I   UNL d   1      -3.229   2.884  -3.356  0.00  0.00    -0.060 I 
ATOM     10  F2  UNL d   1      -0.612   1.059  -3.604  0.00  0.00    -0.096 F 
ATOM     11  F3  UNL d   1       1.156   0.187  -1.747  0.00  0.00    -0.097 F 
ATOM     12  F4  UNL d   1       0.848   0.867   0.877  0.00  0.00    -0.092 F 
ENDROOT
TORSDOF 0
ENDMDL
