MODEL 1
REMARK minimizedAffinity 20.5828571
REMARK minimizedRMSD -1
REMARK  0 active torsions:
REMARK  status: ('A' for Active; 'I' for Inactive)
ROOT
ATOM      1  C   UNL d   1       0.950  -1.297  -1.003  0.00  0.00     0.124 A 
ATOM      2  C1  UNL d   1       1.176  -1.590   0.334  0.00  0.00     0.062 A 
ATOM      3  C2  UNL d   1       0.812  -0.679   1.322  0.00  0.00     0.162 A 
ATOM      4  C3  UNL d   1       0.217   0.534   0.976  0.00  0.00    -0.034 A 
ATOM      5  C4  UNL d   1      -0.006   0.822  -0.372  0.00  0.00     0.162 A 
ATOM      6  C5  UNL d   1       0.359  -0.091  -1.355  0.00  0.00     0.062 A 
ATOM      7  F   UNL d   1       0.140   0.194  -2.647  0.00  0.00    -0.097 F 
ATOM      8  F1  UNL d   1      -0.577   1.979  -0.739  0.00  0.00    -0.096 F 
ATOM      9  I   UNL d   1      -0.328   1.898   2.450  0.00  0.00    -0.060 I 
ATOM     10  F2  UNL d   1       1.043  -0.989   2.607  0.00  0.00    -0.096 F 
ATOM     11  F3  UNL d   1       1.748  -2.754   0.677  0.00  0.00    -0.097 F 
ATOM     12  F4  UNL d   1       1.302  -2.174  -1.952  0.00  0.00    -0.092 F 
ENDROOT
TORSDOF 0
ENDMDL
