MODEL 1
REMARK minimizedAffinity 4.59865808
REMARK minimizedRMSD -1
REMARK  0 active torsions:
REMARK  status: ('A' for Active; 'I' for Inactive)
ROOT
ATOM      1  C   UNL d   1       0.082   1.974   0.988  0.00  0.00     0.124 A 
ATOM      2  C1  UNL d   1      -0.040   1.702  -0.367  0.00  0.00     0.062 A 
ATOM      3  C2  UNL d   1       0.089   0.398  -0.834  0.00  0.00     0.162 A 
ATOM      4  C3  UNL d   1       0.341  -0.647   0.056  0.00  0.00    -0.034 A 
ATOM      5  C4  UNL d   1       0.464  -0.366   1.417  0.00  0.00     0.162 A 
ATOM      6  C5  UNL d   1       0.334   0.940   1.879  0.00  0.00     0.062 A 
ATOM      7  F   UNL d   1       0.452   1.201   3.189  0.00  0.00    -0.097 F 
ATOM      8  F1  UNL d   1       0.706  -1.346   2.301  0.00  0.00    -0.096 F 
ATOM      9  I   UNL d   1       0.535  -2.599  -0.639  0.00  0.00    -0.060 I 
ATOM     10  F2  UNL d   1      -0.034   0.164  -2.150  0.00  0.00    -0.096 F 
ATOM     11  F3  UNL d   1      -0.282   2.700  -1.230  0.00  0.00    -0.097 F 
ATOM     12  F4  UNL d   1      -0.041   3.231   1.435  0.00  0.00    -0.092 F 
ENDROOT
TORSDOF 0
ENDMDL
