MODEL 1
REMARK minimizedAffinity 20.532814
REMARK minimizedRMSD -1
REMARK  0 active torsions:
REMARK  status: ('A' for Active; 'I' for Inactive)
ROOT
ATOM      1  C   UNL d   1       1.566   2.246   3.005  0.00  0.00     0.124 A 
ATOM      2  C1  UNL d   1       0.255   2.088   2.578  0.00  0.00     0.062 A 
ATOM      3  C2  UNL d   1      -0.148   0.898   1.980  0.00  0.00     0.162 A 
ATOM      4  C3  UNL d   1       0.761  -0.146   1.806  0.00  0.00    -0.034 A 
ATOM      5  C4  UNL d   1       2.078   0.021   2.237  0.00  0.00     0.162 A 
ATOM      6  C5  UNL d   1       2.476   1.212   2.834  0.00  0.00     0.062 A 
ATOM      7  F   UNL d   1       3.744   1.363   3.246  0.00  0.00    -0.097 F 
ATOM      8  F1  UNL d   1       2.978  -0.962   2.085  0.00  0.00    -0.096 F 
ATOM      9  I   UNL d   1       0.162  -1.927   0.912  0.00  0.00    -0.060 I 
ATOM     10  F2  UNL d   1      -1.422   0.773   1.577  0.00  0.00    -0.096 F 
ATOM     11  F3  UNL d   1      -0.626   3.086   2.741  0.00  0.00    -0.097 F 
ATOM     12  F4  UNL d   1       1.952   3.393   3.579  0.00  0.00    -0.092 F 
ENDROOT
TORSDOF 0
ENDMDL
