MODEL 1
REMARK minimizedAffinity 16.6041374
REMARK minimizedRMSD -1
REMARK  0 active torsions:
REMARK  status: ('A' for Active; 'I' for Inactive)
ROOT
ATOM      1  C   UNL d   1       0.897   0.960  -0.572  0.00  0.00     0.124 A 
ATOM      2  C1  UNL d   1       0.939   1.300   0.773  0.00  0.00     0.062 A 
ATOM      3  C2  UNL d   1      -0.061   2.095   1.326  0.00  0.00     0.162 A 
ATOM      4  C3  UNL d   1      -1.113   2.555   0.534  0.00  0.00    -0.034 A 
ATOM      5  C4  UNL d   1      -1.148   2.210  -0.818  0.00  0.00     0.162 A 
ATOM      6  C5  UNL d   1      -0.146   1.416  -1.366  0.00  0.00     0.062 A 
ATOM      7  F   UNL d   1      -0.188   1.088  -2.666  0.00  0.00    -0.097 F 
ATOM      8  F1  UNL d   1      -2.145   2.636  -1.609  0.00  0.00    -0.096 F 
ATOM      9  I   UNL d   1      -2.610   3.744   1.357  0.00  0.00    -0.060 I 
ATOM     10  F2  UNL d   1       0.005   2.408   2.629  0.00  0.00    -0.096 F 
ATOM     11  F3  UNL d   1       1.946   0.862   1.543  0.00  0.00    -0.097 F 
ATOM     12  F4  UNL d   1       1.861   0.196  -1.102  0.00  0.00    -0.092 F 
ENDROOT
TORSDOF 0
ENDMDL
