MODEL 1
REMARK minimizedAffinity 17.4771614
REMARK minimizedRMSD -1
REMARK  0 active torsions:
REMARK  status: ('A' for Active; 'I' for Inactive)
ROOT
ATOM      1  C   UNL d   1       2.390  -1.646  -0.908  0.00  0.00     0.124 A 
ATOM      2  C1  UNL d   1       1.849  -2.871  -0.543  0.00  0.00     0.062 A 
ATOM      3  C2  UNL d   1       1.777  -3.908  -1.468  0.00  0.00     0.162 A 
ATOM      4  C3  UNL d   1       2.250  -3.725  -2.768  0.00  0.00    -0.034 A 
ATOM      5  C4  UNL d   1       2.792  -2.490  -3.128  0.00  0.00     0.162 A 
ATOM      6  C5  UNL d   1       2.861  -1.456  -2.199  0.00  0.00     0.062 A 
ATOM      7  F   UNL d   1       3.384  -0.274  -2.554  0.00  0.00    -0.097 F 
ATOM      8  F1  UNL d   1       3.255  -2.280  -4.369  0.00  0.00    -0.096 F 
ATOM      9  I   UNL d   1       2.145  -5.274  -4.154  0.00  0.00    -0.060 I 
ATOM     10  F2  UNL d   1       1.250  -5.081  -1.088  0.00  0.00    -0.096 F 
ATOM     11  F3  UNL d   1       1.393  -3.055   0.704  0.00  0.00    -0.097 F 
ATOM     12  F4  UNL d   1       2.457  -0.649  -0.016  0.00  0.00    -0.092 F 
ENDROOT
TORSDOF 0
ENDMDL
