MODEL 1
REMARK minimizedAffinity 9.61174011
REMARK minimizedRMSD -1
REMARK  0 active torsions:
REMARK  status: ('A' for Active; 'I' for Inactive)
ROOT
ATOM      1  C   UNL d   1      -1.204   0.656  -1.962  0.00  0.00     0.124 A 
ATOM      2  C1  UNL d   1       0.157   0.913  -2.044  0.00  0.00     0.062 A 
ATOM      3  C2  UNL d   1       1.072  -0.134  -1.997  0.00  0.00     0.162 A 
ATOM      4  C3  UNL d   1       0.629  -1.451  -1.870  0.00  0.00    -0.034 A 
ATOM      5  C4  UNL d   1      -0.742  -1.702  -1.787  0.00  0.00     0.162 A 
ATOM      6  C5  UNL d   1      -1.652  -0.652  -1.834  0.00  0.00     0.062 A 
ATOM      7  F   UNL d   1      -2.967  -0.903  -1.755  0.00  0.00    -0.097 F 
ATOM      8  F1  UNL d   1      -1.203  -2.956  -1.664  0.00  0.00    -0.096 F 
ATOM      9  I   UNL d   1       1.994  -3.020  -1.800  0.00  0.00    -0.060 I 
ATOM     10  F2  UNL d   1       2.382   0.144  -2.078  0.00  0.00    -0.096 F 
ATOM     11  F3  UNL d   1       0.593   2.176  -2.167  0.00  0.00    -0.097 F 
ATOM     12  F4  UNL d   1      -2.083   1.666  -2.006  0.00  0.00    -0.092 F 
ENDROOT
TORSDOF 0
ENDMDL
