MODEL 1
REMARK minimizedAffinity 12.8556023
REMARK minimizedRMSD -1
REMARK  0 active torsions:
REMARK  status: ('A' for Active; 'I' for Inactive)
ROOT
ATOM      1  C   UNL d   1      -1.154   2.861   1.658  0.00  0.00     0.124 A 
ATOM      2  C1  UNL d   1      -1.892   3.148   0.518  0.00  0.00     0.062 A 
ATOM      3  C2  UNL d   1      -1.494   2.648  -0.718  0.00  0.00     0.162 A 
ATOM      4  C3  UNL d   1      -0.352   1.854  -0.821  0.00  0.00    -0.034 A 
ATOM      5  C4  UNL d   1       0.386   1.570   0.329  0.00  0.00     0.162 A 
ATOM      6  C5  UNL d   1      -0.016   2.073   1.562  0.00  0.00     0.062 A 
ATOM      7  F   UNL d   1       0.699   1.794   2.662  0.00  0.00    -0.097 F 
ATOM      8  F1  UNL d   1       1.489   0.810   0.265  0.00  0.00    -0.096 F 
ATOM      9  I   UNL d   1       0.246   1.104  -2.668  0.00  0.00    -0.060 I 
ATOM     10  F2  UNL d   1      -2.227   2.941  -1.803  0.00  0.00    -0.096 F 
ATOM     11  F3  UNL d   1      -2.992   3.910   0.608  0.00  0.00    -0.097 F 
ATOM     12  F4  UNL d   1      -1.538   3.345   2.846  0.00  0.00    -0.092 F 
ENDROOT
TORSDOF 0
ENDMDL
