MODEL 1
REMARK minimizedAffinity 16.7332649
REMARK minimizedRMSD -1
REMARK  0 active torsions:
REMARK  status: ('A' for Active; 'I' for Inactive)
ROOT
ATOM      1  C   UNL d   1      -1.515   0.956  -0.962  0.00  0.00     0.124 A 
ATOM      2  C1  UNL d   1      -2.549   0.048  -1.138  0.00  0.00     0.062 A 
ATOM      3  C2  UNL d   1      -2.707  -0.606  -2.356  0.00  0.00     0.162 A 
ATOM      4  C3  UNL d   1      -1.827  -0.354  -3.409  0.00  0.00    -0.034 A 
ATOM      5  C4  UNL d   1      -0.789   0.561  -3.225  0.00  0.00     0.162 A 
ATOM      6  C5  UNL d   1      -0.636   1.212  -2.005  0.00  0.00     0.062 A 
ATOM      7  F   UNL d   1       0.364   2.089  -1.836  0.00  0.00    -0.097 F 
ATOM      8  F1  UNL d   1       0.075   0.827  -4.215  0.00  0.00    -0.096 F 
ATOM      9  I   UNL d   1      -2.060  -1.329  -5.233  0.00  0.00    -0.060 I 
ATOM     10  F2  UNL d   1      -3.716  -1.478  -2.498  0.00  0.00    -0.096 F 
ATOM     11  F3  UNL d   1      -3.400  -0.200  -0.132  0.00  0.00    -0.097 F 
ATOM     12  F4  UNL d   1      -1.366   1.584   0.212  0.00  0.00    -0.092 F 
ENDROOT
TORSDOF 0
ENDMDL
