MODEL 1
REMARK minimizedAffinity -2.2698822
REMARK minimizedRMSD -1
REMARK  0 active torsions:
REMARK  status: ('A' for Active; 'I' for Inactive)
ROOT
ATOM      1  C   UNL d   1       0.001   3.462   0.644  0.00  0.00     0.124 A 
ATOM      2  C1  UNL d   1      -0.553   2.998  -0.541  0.00  0.00     0.062 A 
ATOM      3  C2  UNL d   1      -0.538   1.637  -0.836  0.00  0.00     0.162 A 
ATOM      4  C3  UNL d   1       0.033   0.730   0.058  0.00  0.00    -0.034 A 
ATOM      5  C4  UNL d   1       0.589   1.205   1.247  0.00  0.00     0.162 A 
ATOM      6  C5  UNL d   1       0.572   2.565   1.536  0.00  0.00     0.062 A 
ATOM      7  F   UNL d   1       1.108   3.012   2.682  0.00  0.00    -0.097 F 
ATOM      8  F1  UNL d   1       1.146   0.360   2.128  0.00  0.00    -0.096 F 
ATOM      9  I   UNL d   1       0.058  -1.304  -0.379  0.00  0.00    -0.060 I 
ATOM     10  F2  UNL d   1      -1.080   1.217  -1.988  0.00  0.00    -0.096 F 
ATOM     11  F3  UNL d   1      -1.104   3.862  -1.406  0.00  0.00    -0.097 F 
ATOM     12  F4  UNL d   1      -0.014   4.771   0.924  0.00  0.00    -0.092 F 
ENDROOT
TORSDOF 0
ENDMDL
