MODEL 1
REMARK minimizedAffinity -2.76718688
REMARK minimizedRMSD -1
REMARK  0 active torsions:
REMARK  status: ('A' for Active; 'I' for Inactive)
ROOT
ATOM      1  C   UNL d   1       1.941  -1.139  -0.635  0.00  0.00    -0.002 A 
ATOM      2  C1  UNL d   1       2.204   0.139  -1.109  0.00  0.00     0.010 A 
ATOM      3  C2  UNL d   1       1.253   1.153  -0.983  0.00  0.00     0.041 A 
ATOM      4  C3  UNL d   1       0.022   0.860  -0.364  0.00  0.00    -0.075 A 
ATOM      5  S   UNL d   1      -1.293   1.944  -0.099  0.00  0.00     0.015 SA
ATOM      6  C4  UNL d   1      -2.234   0.737   0.651  0.00  0.00     0.022 A 
ATOM      7  C5  UNL d   1      -1.577  -0.470   0.706  0.00  0.00     0.026 A 
ATOM      8  C6  UNL d   1      -0.266  -0.419   0.122  0.00  0.00    -0.082 A 
ATOM      9  C7  UNL d   1       0.718  -1.426  -0.022  0.00  0.00     0.045 A 
ENDROOT
TORSDOF 0
ENDMDL
