MODEL 1
REMARK minimizedAffinity -4.4529829
REMARK minimizedRMSD -1
REMARK  0 active torsions:
REMARK  status: ('A' for Active; 'I' for Inactive)
ROOT
ATOM      1  C   UNL d   1       2.855  -0.046  -2.078  0.00  0.00    -0.002 A 
ATOM      2  C1  UNL d   1       2.442   1.120  -2.706  0.00  0.00     0.010 A 
ATOM      3  C2  UNL d   1       1.243   1.736  -2.342  0.00  0.00     0.041 A 
ATOM      4  C3  UNL d   1       0.459   1.156  -1.325  0.00  0.00    -0.075 A 
ATOM      5  S   UNL d   1      -1.046   1.735  -0.714  0.00  0.00     0.015 SA
ATOM      6  C4  UNL d   1      -1.175   0.448   0.396  0.00  0.00     0.022 A 
ATOM      7  C5  UNL d   1      -0.105  -0.412   0.315  0.00  0.00     0.026 A 
ATOM      8  C6  UNL d   1       0.854  -0.018  -0.678  0.00  0.00    -0.082 A 
ATOM      9  C7  UNL d   1       2.075  -0.619  -1.070  0.00  0.00     0.045 A 
ENDROOT
TORSDOF 0
ENDMDL
