MODEL 1
REMARK minimizedAffinity -3.78964472
REMARK minimizedRMSD -1
REMARK  0 active torsions:
REMARK  status: ('A' for Active; 'I' for Inactive)
ROOT
ATOM      1  C   UNL d   1       1.679  -1.953  -0.415  0.00  0.00    -0.002 A 
ATOM      2  C1  UNL d   1       0.614  -1.366   0.252  0.00  0.00     0.010 A 
ATOM      3  C2  UNL d   1       0.122  -0.123  -0.150  0.00  0.00     0.041 A 
ATOM      4  C3  UNL d   1       0.724   0.526  -1.246  0.00  0.00    -0.075 A 
ATOM      5  S   UNL d   1       0.290   2.054  -1.917  0.00  0.00     0.015 SA
ATOM      6  C4  UNL d   1       1.508   1.962  -3.105  0.00  0.00     0.022 A 
ATOM      7  C5  UNL d   1       2.238   0.801  -3.007  0.00  0.00     0.026 A 
ATOM      8  C6  UNL d   1       1.798  -0.046  -1.935  0.00  0.00    -0.082 A 
ATOM      9  C7  UNL d   1       2.274  -1.307  -1.502  0.00  0.00     0.045 A 
ENDROOT
TORSDOF 0
ENDMDL
