MODEL 1
REMARK minimizedAffinity -5.47233391
REMARK minimizedRMSD -1
REMARK  0 active torsions:
REMARK  status: ('A' for Active; 'I' for Inactive)
ROOT
ATOM      1  C   UNL d   1       3.256  -0.889  -1.982  0.00  0.00    -0.002 A 
ATOM      2  C1  UNL d   1       3.313   0.494  -1.892  0.00  0.00     0.010 A 
ATOM      3  C2  UNL d   1       2.229   1.218  -1.390  0.00  0.00     0.041 A 
ATOM      4  C3  UNL d   1       1.078   0.521  -0.974  0.00  0.00    -0.075 A 
ATOM      5  S   UNL d   1      -0.369   1.198  -0.326  0.00  0.00     0.015 SA
ATOM      6  C4  UNL d   1      -1.096  -0.334  -0.153  0.00  0.00     0.022 A 
ATOM      7  C5  UNL d   1      -0.269  -1.348  -0.574  0.00  0.00     0.026 A 
ATOM      8  C6  UNL d   1       0.998  -0.872  -1.054  0.00  0.00    -0.082 A 
ATOM      9  C7  UNL d   1       2.112  -1.577  -1.568  0.00  0.00     0.045 A 
ENDROOT
TORSDOF 0
ENDMDL
