MODEL 1
REMARK minimizedAffinity -1.68980825
REMARK minimizedRMSD -1
REMARK  0 active torsions:
REMARK  status: ('A' for Active; 'I' for Inactive)
ROOT
ATOM      1  C   UNL d   1       1.792  -1.740  -1.033  0.00  0.00    -0.002 A 
ATOM      2  C1  UNL d   1       0.696  -2.179  -0.304  0.00  0.00     0.010 A 
ATOM      3  C2  UNL d   1      -0.337  -1.300   0.025  0.00  0.00     0.041 A 
ATOM      4  C3  UNL d   1      -0.250   0.042  -0.397  0.00  0.00    -0.075 A 
ATOM      5  S   UNL d   1      -1.396   1.298  -0.111  0.00  0.00     0.015 SA
ATOM      6  C4  UNL d   1      -0.458   2.447  -0.951  0.00  0.00     0.022 A 
ATOM      7  C5  UNL d   1       0.704   1.902  -1.444  0.00  0.00     0.026 A 
ATOM      8  C6  UNL d   1       0.843   0.507  -1.133  0.00  0.00    -0.082 A 
ATOM      9  C7  UNL d   1       1.875  -0.409  -1.450  0.00  0.00     0.045 A 
ENDROOT
TORSDOF 0
ENDMDL
