MODEL 1
REMARK minimizedAffinity -3.17416596
REMARK minimizedRMSD -1
REMARK  0 active torsions:
REMARK  status: ('A' for Active; 'I' for Inactive)
ROOT
ATOM      1  C   UNL d   1       0.578   1.236  -1.411  0.00  0.00    -0.002 A 
ATOM      2  C1  UNL d   1       1.330   0.381  -0.618  0.00  0.00     0.010 A 
ATOM      3  C2  UNL d   1       0.789  -0.169   0.546  0.00  0.00     0.041 A 
ATOM      4  C3  UNL d   1      -0.534   0.157   0.902  0.00  0.00    -0.075 A 
ATOM      5  S   UNL d   1      -1.405  -0.398   2.283  0.00  0.00     0.015 SA
ATOM      6  C4  UNL d   1      -2.797   0.486   1.852  0.00  0.00     0.022 A 
ATOM      7  C5  UNL d   1      -2.619   1.193   0.687  0.00  0.00     0.026 A 
ATOM      8  C6  UNL d   1      -1.312   1.015   0.120  0.00  0.00    -0.082 A 
ATOM      9  C7  UNL d   1      -0.735   1.557  -1.054  0.00  0.00     0.045 A 
ENDROOT
TORSDOF 0
ENDMDL
