MODEL 1
REMARK minimizedAffinity -4.28433704
REMARK minimizedRMSD -1
REMARK  0 active torsions:
REMARK  status: ('A' for Active; 'I' for Inactive)
ROOT
ATOM      1  C   UNL d   1       3.235  -0.652  -1.937  0.00  0.00    -0.002 A 
ATOM      2  C1  UNL d   1       2.697   0.522  -2.445  0.00  0.00     0.010 A 
ATOM      3  C2  UNL d   1       1.482   1.014  -1.962  0.00  0.00     0.041 A 
ATOM      4  C3  UNL d   1       0.812   0.300  -0.949  0.00  0.00    -0.075 A 
ATOM      5  S   UNL d   1      -0.687   0.712  -0.205  0.00  0.00     0.015 SA
ATOM      6  C4  UNL d   1      -0.648  -0.660   0.805  0.00  0.00     0.022 A 
ATOM      7  C5  UNL d   1       0.474  -1.425   0.593  0.00  0.00     0.026 A 
ATOM      8  C6  UNL d   1       1.335  -0.884  -0.421  0.00  0.00    -0.082 A 
ATOM      9  C7  UNL d   1       2.568  -1.357  -0.932  0.00  0.00     0.045 A 
ENDROOT
TORSDOF 0
ENDMDL
