MODEL 1
REMARK minimizedAffinity -2.24012947
REMARK minimizedRMSD -1
REMARK  0 active torsions:
REMARK  status: ('A' for Active; 'I' for Inactive)
ROOT
ATOM      1  C   UNL d   1       2.769   0.700  -1.181  0.00  0.00    -0.002 A 
ATOM      2  C1  UNL d   1       1.725   1.559  -0.869  0.00  0.00     0.010 A 
ATOM      3  C2  UNL d   1       0.458   1.056  -0.565  0.00  0.00     0.041 A 
ATOM      4  C3  UNL d   1       0.258  -0.339  -0.577  0.00  0.00    -0.075 A 
ATOM      5  S   UNL d   1      -1.207  -1.181  -0.235  0.00  0.00     0.015 SA
ATOM      6  C4  UNL d   1      -0.480  -2.701  -0.494  0.00  0.00     0.022 A 
ATOM      7  C5  UNL d   1       0.847  -2.587  -0.834  0.00  0.00     0.026 A 
ATOM      8  C6  UNL d   1       1.295  -1.224  -0.886  0.00  0.00    -0.082 A 
ATOM      9  C7  UNL d   1       2.567  -0.682  -1.192  0.00  0.00     0.045 A 
ENDROOT
TORSDOF 0
ENDMDL
