MODEL 1
REMARK minimizedAffinity -0.601343393
REMARK minimizedRMSD -1
REMARK  0 active torsions:
REMARK  status: ('A' for Active; 'I' for Inactive)
ROOT
ATOM      1  C   UNL d   1      -0.943   0.608   0.890  0.00  0.00    -0.002 A 
ATOM      2  C1  UNL d   1      -1.503  -0.614   0.545  0.00  0.00     0.010 A 
ATOM      3  C2  UNL d   1      -0.783  -1.535  -0.218  0.00  0.00     0.041 A 
ATOM      4  C3  UNL d   1       0.523  -1.205  -0.630  0.00  0.00    -0.075 A 
ATOM      5  S   UNL d   1       1.593  -2.177  -1.570  0.00  0.00     0.015 SA
ATOM      6  C4  UNL d   1       2.819  -0.993  -1.535  0.00  0.00     0.022 A 
ATOM      7  C5  UNL d   1       2.438   0.123  -0.828  0.00  0.00     0.026 A 
ATOM      8  C6  UNL d   1       1.109   0.019  -0.295  0.00  0.00    -0.082 A 
ATOM      9  C7  UNL d   1       0.352   0.932   0.479  0.00  0.00     0.045 A 
ENDROOT
TORSDOF 0
ENDMDL
