MODEL 1
REMARK minimizedAffinity -4.36019325
REMARK minimizedRMSD -1
REMARK  0 active torsions:
REMARK  status: ('A' for Active; 'I' for Inactive)
ROOT
ATOM      1  C   UNL d   1       2.388  -1.158  -1.112  0.00  0.00    -0.002 A 
ATOM      2  C1  UNL d   1       2.780   0.159  -0.920  0.00  0.00     0.010 A 
ATOM      3  C2  UNL d   1       1.900   1.087  -0.359  0.00  0.00     0.041 A 
ATOM      4  C3  UNL d   1       0.609   0.664   0.012  0.00  0.00    -0.075 A 
ATOM      5  S   UNL d   1      -0.636   1.624   0.719  0.00  0.00     0.015 SA
ATOM      6  C4  UNL d   1      -1.717   0.308   0.784  0.00  0.00     0.022 A 
ATOM      7  C5  UNL d   1      -1.158  -0.843   0.283  0.00  0.00     0.026 A 
ATOM      8  C6  UNL d   1       0.192  -0.658  -0.170  0.00  0.00    -0.082 A 
ATOM      9  C7  UNL d   1       1.106  -1.574  -0.743  0.00  0.00     0.045 A 
ENDROOT
TORSDOF 0
ENDMDL
