MODEL 1
REMARK minimizedAffinity 7.80656481
REMARK minimizedRMSD -1
REMARK  0 active torsions:
REMARK  status: ('A' for Active; 'I' for Inactive)
ROOT
ATOM      1  O1  BZF d   1       2.248   3.858  -5.142  0.00  0.00    -0.204 OA
ATOM      2  C2  BZF d   1       1.520   4.919  -5.644  0.00  0.00     0.174 A 
ATOM      3  C3  BZF d   1       2.335   5.935  -5.995  0.00  0.00    -0.012 A 
ATOM      4  C3A BZF d   1       3.662   5.445  -5.780  0.00  0.00    -0.107 A 
ATOM      5  C4  BZF d   1       4.903   5.985  -5.961  0.00  0.00     0.055 A 
ATOM      6  C5  BZF d   1       5.995   5.270  -5.585  0.00  0.00    -0.016 A 
ATOM      7  C6  BZF d   1       5.883   4.016  -5.020  0.00  0.00     0.022 A 
ATOM      8  C7  BZF d   1       4.674   3.437  -4.826  0.00  0.00     0.029 A 
ATOM      9  C7A BZF d   1       3.569   4.143  -5.235  0.00  0.00     0.058 A 
ENDROOT
TORSDOF 0
ENDMDL
