MODEL 1
REMARK minimizedAffinity -3.45284271
REMARK minimizedRMSD -1
REMARK  0 active torsions:
REMARK  status: ('A' for Active; 'I' for Inactive)
ROOT
ATOM      1  O1  BZF d   1      -2.485   6.000  -4.039  0.00  0.00    -0.204 OA
ATOM      2  C2  BZF d   1      -2.435   5.994  -2.658  0.00  0.00     0.174 A 
ATOM      3  C3  BZF d   1      -1.160   5.911  -2.226  0.00  0.00    -0.012 A 
ATOM      4  C3A BZF d   1      -0.358   5.954  -3.410  0.00  0.00    -0.107 A 
ATOM      5  C4  BZF d   1       0.989   5.925  -3.633  0.00  0.00     0.055 A 
ATOM      6  C5  BZF d   1       1.446   5.909  -4.913  0.00  0.00    -0.016 A 
ATOM      7  C6  BZF d   1       0.586   5.917  -5.992  0.00  0.00     0.022 A 
ATOM      8  C7  BZF d   1      -0.758   5.951  -5.820  0.00  0.00     0.029 A 
ATOM      9  C7A BZF d   1      -1.222   6.000  -4.529  0.00  0.00     0.058 A 
ENDROOT
TORSDOF 0
ENDMDL
