MODEL 1
REMARK minimizedAffinity -3.34621191
REMARK minimizedRMSD -1
REMARK  0 active torsions:
REMARK  status: ('A' for Active; 'I' for Inactive)
ROOT
ATOM      1  O1  BZF d   1      -0.424   5.965  -2.906  0.00  0.00    -0.204 OA
ATOM      2  C2  BZF d   1       0.336   5.970  -4.060  0.00  0.00     0.174 A 
ATOM      3  C3  BZF d   1      -0.453   5.928  -5.153  0.00  0.00    -0.012 A 
ATOM      4  C3A BZF d   1      -1.792   5.987  -4.652  0.00  0.00    -0.107 A 
ATOM      5  C4  BZF d   1      -3.019   5.997  -5.252  0.00  0.00     0.055 A 
ATOM      6  C5  BZF d   1      -4.134   5.987  -4.476  0.00  0.00    -0.016 A 
ATOM      7  C6  BZF d   1      -4.059   5.961  -3.098  0.00  0.00     0.022 A 
ATOM      8  C7  BZF d   1      -2.865   5.956  -2.458  0.00  0.00     0.029 A 
ATOM      9  C7A BZF d   1      -1.736   5.999  -3.239  0.00  0.00     0.058 A 
ENDROOT
TORSDOF 0
ENDMDL
