MODEL 1
REMARK minimizedAffinity 0.0487734079
REMARK minimizedRMSD -1
REMARK  0 active torsions:
REMARK  status: ('A' for Active; 'I' for Inactive)
ROOT
ATOM      1  O1  BZF d   1      -0.179   5.991  -5.573  0.00  0.00    -0.204 OA
ATOM      2  C2  BZF d   1       1.119   5.973  -5.100  0.00  0.00     0.174 A 
ATOM      3  C3  BZF d   1       1.137   6.000  -3.751  0.00  0.00    -0.012 A 
ATOM      4  C3A BZF d   1      -0.237   5.943  -3.356  0.00  0.00    -0.107 A 
ATOM      5  C4  BZF d   1      -0.865   5.923  -2.143  0.00  0.00     0.055 A 
ATOM      6  C5  BZF d   1      -2.223   5.940  -2.102  0.00  0.00    -0.016 A 
ATOM      7  C6  BZF d   1      -2.984   5.983  -3.252  0.00  0.00     0.022 A 
ATOM      8  C7  BZF d   1      -2.406   6.000  -4.478  0.00  0.00     0.029 A 
ATOM      9  C7A BZF d   1      -1.034   5.949  -4.524  0.00  0.00     0.058 A 
ENDROOT
TORSDOF 0
ENDMDL
