MODEL 1
REMARK minimizedAffinity 4.86607838
REMARK minimizedRMSD -1
REMARK  0 active torsions:
REMARK  status: ('A' for Active; 'I' for Inactive)
ROOT
ATOM      1  O1  BZF d   1       0.909  -0.375  -0.706  0.00  0.00    -0.204 OA
ATOM      2  C2  BZF d   1       0.307  -0.625   0.512  0.00  0.00     0.174 A 
ATOM      3  C3  BZF d   1       0.239   0.501   1.252  0.00  0.00    -0.012 A 
ATOM      4  C3A BZF d   1       0.753   1.537   0.409  0.00  0.00    -0.107 A 
ATOM      5  C4  BZF d   1       0.928   2.881   0.574  0.00  0.00     0.055 A 
ATOM      6  C5  BZF d   1       1.524   3.596  -0.416  0.00  0.00    -0.016 A 
ATOM      7  C6  BZF d   1       1.960   2.999  -1.580  0.00  0.00     0.022 A 
ATOM      8  C7  BZF d   1       1.804   1.670  -1.792  0.00  0.00     0.029 A 
ATOM      9  C7A BZF d   1       1.173   0.950  -0.807  0.00  0.00     0.058 A 
ENDROOT
TORSDOF 0
ENDMDL
