MODEL 1
REMARK minimizedAffinity 3.06078815
REMARK minimizedRMSD -1
REMARK  0 active torsions:
REMARK  status: ('A' for Active; 'I' for Inactive)
ROOT
ATOM      1  O1  BZF d   1       1.648   4.373  -4.112  0.00  0.00    -0.204 OA
ATOM      2  C2  BZF d   1       0.869   5.209  -4.888  0.00  0.00     0.174 A 
ATOM      3  C3  BZF d   1       1.639   6.000  -5.662  0.00  0.00    -0.012 A 
ATOM      4  C3A BZF d   1       2.982   5.571  -5.419  0.00  0.00    -0.107 A 
ATOM      5  C4  BZF d   1       4.196   5.963  -5.907  0.00  0.00     0.055 A 
ATOM      6  C5  BZF d   1       5.324   5.390  -5.409  0.00  0.00    -0.016 A 
ATOM      7  C6  BZF d   1       5.275   4.428  -4.422  0.00  0.00     0.022 A 
ATOM      8  C7  BZF d   1       4.094   4.004  -3.910  0.00  0.00     0.029 A 
ATOM      9  C7A BZF d   1       2.951   4.556  -4.434  0.00  0.00     0.058 A 
ENDROOT
TORSDOF 0
ENDMDL
