MODEL 1
REMARK minimizedAffinity -0.391193509
REMARK minimizedRMSD -1
REMARK  0 active torsions:
REMARK  status: ('A' for Active; 'I' for Inactive)
ROOT
ATOM      1  O1  BZF d   1      -1.491   5.957  -5.898  0.00  0.00    -0.204 OA
ATOM      2  C2  BZF d   1      -2.413   5.968  -4.869  0.00  0.00     0.174 A 
ATOM      3  C3  BZF d   1      -1.794   5.931  -3.672  0.00  0.00    -0.012 A 
ATOM      4  C3A BZF d   1      -0.395   5.987  -3.970  0.00  0.00    -0.107 A 
ATOM      5  C4  BZF d   1       0.729   6.000  -3.195  0.00  0.00     0.055 A 
ATOM      6  C5  BZF d   1       1.947   5.985  -3.799  0.00  0.00    -0.016 A 
ATOM      7  C6  BZF d   1       2.076   5.953  -5.172  0.00  0.00     0.022 A 
ATOM      8  C7  BZF d   1       0.989   5.944  -5.982  0.00  0.00     0.029 A 
ATOM      9  C7A BZF d   1      -0.242   5.992  -5.375  0.00  0.00     0.058 A 
ENDROOT
TORSDOF 0
ENDMDL
