MODEL 1
REMARK minimizedAffinity -2.00058651
REMARK minimizedRMSD -1
REMARK  0 active torsions:
REMARK  status: ('A' for Active; 'I' for Inactive)
ROOT
ATOM      1  O1  BZF d   1      -0.263   5.451  -5.999  0.00  0.00    -0.204 OA
ATOM      2  C2  BZF d   1       1.101   5.668  -5.976  0.00  0.00     0.174 A 
ATOM      3  C3  BZF d   1       1.517   5.967  -4.728  0.00  0.00    -0.012 A 
ATOM      4  C3A BZF d   1       0.354   5.844  -3.904  0.00  0.00    -0.107 A 
ATOM      5  C4  BZF d   1       0.130   6.000  -2.566  0.00  0.00     0.055 A 
ATOM      6  C5  BZF d   1      -1.137   5.878  -2.090  0.00  0.00    -0.016 A 
ATOM      7  C6  BZF d   1      -2.203   5.608  -2.922  0.00  0.00     0.022 A 
ATOM      8  C7  BZF d   1      -2.030   5.440  -4.256  0.00  0.00     0.029 A 
ATOM      9  C7A BZF d   1      -0.746   5.529  -4.736  0.00  0.00     0.058 A 
ENDROOT
TORSDOF 0
ENDMDL
