MODEL 1
REMARK minimizedAffinity 1.42167044
REMARK minimizedRMSD -1
REMARK  0 active torsions:
REMARK  status: ('A' for Active; 'I' for Inactive)
ROOT
ATOM      1  O1  BZF d   1      -0.962   5.923  -5.986  0.00  0.00    -0.204 OA
ATOM      2  C2  BZF d   1       0.354   5.923  -5.566  0.00  0.00     0.174 A 
ATOM      3  C3  BZF d   1       0.427   5.999  -4.222  0.00  0.00    -0.012 A 
ATOM      4  C3A BZF d   1      -0.929   5.957  -3.768  0.00  0.00    -0.107 A 
ATOM      5  C4  BZF d   1      -1.507   5.980  -2.531  0.00  0.00     0.055 A 
ATOM      6  C5  BZF d   1      -2.862   5.998  -2.435  0.00  0.00    -0.016 A 
ATOM      7  C6  BZF d   1      -3.669   5.999  -3.553  0.00  0.00     0.022 A 
ATOM      8  C7  BZF d   1      -3.143   5.971  -4.802  0.00  0.00     0.029 A 
ATOM      9  C7A BZF d   1      -1.774   5.919  -4.902  0.00  0.00     0.058 A 
ENDROOT
TORSDOF 0
ENDMDL
