MODEL 1
REMARK minimizedAffinity -2.7061193
REMARK minimizedRMSD -1
REMARK  0 active torsions:
REMARK  status: ('A' for Active; 'I' for Inactive)
ROOT
ATOM      1  O1  BZF d   1      -1.318   5.928  -4.575  0.00  0.00    -0.204 OA
ATOM      2  C2  BZF d   1      -1.526   5.995  -3.211  0.00  0.00     0.174 A 
ATOM      3  C3  BZF d   1      -0.353   5.979  -2.546  0.00  0.00    -0.012 A 
ATOM      4  C3A BZF d   1       0.655   5.991  -3.562  0.00  0.00    -0.107 A 
ATOM      5  C4  BZF d   1       2.020   5.999  -3.530  0.00  0.00     0.055 A 
ATOM      6  C5  BZF d   1       2.709   5.935  -4.700  0.00  0.00    -0.016 A 
ATOM      7  C6  BZF d   1       2.066   5.857  -5.917  0.00  0.00     0.022 A 
ATOM      8  C7  BZF d   1       0.713   5.850  -6.000  0.00  0.00     0.029 A 
ATOM      9  C7A BZF d   1       0.014   5.948  -4.822  0.00  0.00     0.058 A 
ENDROOT
TORSDOF 0
ENDMDL
