MODEL 1
REMARK minimizedAffinity -2.30563521
REMARK minimizedRMSD -1
REMARK  0 active torsions:
REMARK  status: ('A' for Active; 'I' for Inactive)
ROOT
ATOM      1  O1  BZF d   1      -0.515   5.947  -2.305  0.00  0.00    -0.204 OA
ATOM      2  C2  BZF d   1       0.045   5.928  -3.568  0.00  0.00     0.174 A 
ATOM      3  C3  BZF d   1      -0.914   5.877  -4.515  0.00  0.00    -0.012 A 
ATOM      4  C3A BZF d   1      -2.152   5.956  -3.802  0.00  0.00    -0.107 A 
ATOM      5  C4  BZF d   1      -3.461   5.969  -4.192  0.00  0.00     0.055 A 
ATOM      6  C5  BZF d   1      -4.433   5.981  -3.243  0.00  0.00    -0.016 A 
ATOM      7  C6  BZF d   1      -4.133   5.975  -1.896  0.00  0.00     0.022 A 
ATOM      8  C7  BZF d   1      -2.849   5.967  -1.461  0.00  0.00     0.029 A 
ATOM      9  C7A BZF d   1      -1.864   5.989  -2.418  0.00  0.00     0.058 A 
ENDROOT
TORSDOF 0
ENDMDL
