MODEL 1
REMARK minimizedAffinity 6.69544315
REMARK minimizedRMSD -1
REMARK  0 active torsions:
REMARK  status: ('A' for Active; 'I' for Inactive)
ROOT
ATOM      1  O1  BZF d   1       0.780   5.950  -3.164  0.00  0.00    -0.204 OA
ATOM      2  C2  BZF d   1       1.091   5.959  -4.510  0.00  0.00     0.174 A 
ATOM      3  C3  BZF d   1      -0.030   5.924  -5.260  0.00  0.00    -0.012 A 
ATOM      4  C3A BZF d   1      -1.111   5.984  -4.325  0.00  0.00    -0.107 A 
ATOM      5  C4  BZF d   1      -2.470   5.999  -4.460  0.00  0.00     0.055 A 
ATOM      6  C5  BZF d   1      -3.245   5.987  -3.343  0.00  0.00    -0.016 A 
ATOM      7  C6  BZF d   1      -2.695   5.955  -2.078  0.00  0.00     0.022 A 
ATOM      8  C7  BZF d   1      -1.353   5.943  -1.894  0.00  0.00     0.029 A 
ATOM      9  C7A BZF d   1      -0.567   5.988  -3.019  0.00  0.00     0.058 A 
ENDROOT
TORSDOF 0
ENDMDL
