MODEL 1
REMARK minimizedAffinity 6.57203436
REMARK minimizedRMSD -1
REMARK  0 active torsions:
REMARK  status: ('A' for Active; 'I' for Inactive)
ROOT
ATOM      1  O1  BZF d   1       0.122   1.760   2.855  0.00  0.00    -0.204 OA
ATOM      2  C2  BZF d   1      -0.342   0.460   2.927  0.00  0.00     0.174 A 
ATOM      3  C3  BZF d   1      -0.249  -0.148   1.727  0.00  0.00    -0.012 A 
ATOM      4  C3A BZF d   1       0.394   0.803   0.872  0.00  0.00    -0.107 A 
ATOM      5  C4  BZF d   1       0.779   0.778  -0.438  0.00  0.00     0.055 A 
ATOM      6  C5  BZF d   1       1.316   1.898  -0.990  0.00  0.00    -0.016 A 
ATOM      7  C6  BZF d   1       1.477   3.060  -0.264  0.00  0.00     0.022 A 
ATOM      8  C7  BZF d   1       1.115   3.131   1.040  0.00  0.00     0.029 A 
ATOM      9  C7A BZF d   1       0.603   1.991   1.610  0.00  0.00     0.058 A 
ENDROOT
TORSDOF 0
ENDMDL
