MODEL 1
REMARK minimizedAffinity -2.73971868
REMARK minimizedRMSD -1
REMARK  0 active torsions:
REMARK  status: ('A' for Active; 'I' for Inactive)
ROOT
ATOM      1  O1  BZF d   1      -1.127   5.527  -5.838  0.00  0.00    -0.204 OA
ATOM      2  C2  BZF d   1       0.202   5.152  -5.779  0.00  0.00     0.174 A 
ATOM      3  C3  BZF d   1       0.614   5.052  -4.499  0.00  0.00    -0.012 A 
ATOM      4  C3A BZF d   1      -0.553   5.295  -3.707  0.00  0.00    -0.107 A 
ATOM      5  C4  BZF d   1      -0.787   5.319  -2.362  0.00  0.00     0.055 A 
ATOM      6  C5  BZF d   1      -2.023   5.662  -1.913  0.00  0.00    -0.016 A 
ATOM      7  C6  BZF d   1      -3.045   5.992  -2.779  0.00  0.00     0.022 A 
ATOM      8  C7  BZF d   1      -2.862   5.978  -4.122  0.00  0.00     0.029 A 
ATOM      9  C7A BZF d   1      -1.623   5.600  -4.580  0.00  0.00     0.058 A 
ENDROOT
TORSDOF 0
ENDMDL
