MODEL 1
REMARK minimizedAffinity 1.20862198
REMARK minimizedRMSD -1
REMARK  0 active torsions:
REMARK  status: ('A' for Active; 'I' for Inactive)
ROOT
ATOM      1  O1  BZF d   1       0.650   3.308   2.001  0.00  0.00    -0.204 OA
ATOM      2  C2  BZF d   1       1.170   3.743   0.797  0.00  0.00     0.174 A 
ATOM      3  C3  BZF d   1       1.228   2.730  -0.092  0.00  0.00    -0.012 A 
ATOM      4  C3A BZF d   1       0.626   1.613   0.570  0.00  0.00    -0.107 A 
ATOM      5  C4  BZF d   1       0.376   0.324   0.196  0.00  0.00     0.055 A 
ATOM      6  C5  BZF d   1      -0.159  -0.535   1.103  0.00  0.00    -0.016 A 
ATOM      7  C6  BZF d   1      -0.450  -0.140   2.392  0.00  0.00     0.022 A 
ATOM      8  C7  BZF d   1      -0.225   1.130   2.808  0.00  0.00     0.029 A 
ATOM      9  C7A BZF d   1       0.285   2.009   1.884  0.00  0.00     0.058 A 
ENDROOT
TORSDOF 0
ENDMDL
