MODEL 1
REMARK minimizedAffinity 5.50166607
REMARK minimizedRMSD -1
REMARK  0 active torsions:
REMARK  status: ('A' for Active; 'I' for Inactive)
ROOT
ATOM      1  O1  BZF d   1      -4.246   5.974  -3.983  0.00  0.00    -0.204 OA
ATOM      2  C2  BZF d   1      -4.854   5.988  -2.743  0.00  0.00     0.174 A 
ATOM      3  C3  BZF d   1      -3.933   5.944  -1.758  0.00  0.00    -0.012 A 
ATOM      4  C3A BZF d   1      -2.667   5.992  -2.425  0.00  0.00    -0.107 A 
ATOM      5  C4  BZF d   1      -1.375   5.995  -1.985  0.00  0.00     0.055 A 
ATOM      6  C5  BZF d   1      -0.367   5.975  -2.896  0.00  0.00    -0.016 A 
ATOM      7  C6  BZF d   1      -0.616   5.945  -4.253  0.00  0.00     0.022 A 
ATOM      8  C7  BZF d   1      -1.881   5.946  -4.737  0.00  0.00     0.029 A 
ATOM      9  C7A BZF d   1      -2.902   6.000  -3.819  0.00  0.00     0.058 A 
ENDROOT
TORSDOF 0
ENDMDL
