MODEL 1
REMARK minimizedAffinity 5.69621563
REMARK minimizedRMSD -1
REMARK  0 active torsions:
REMARK  status: ('A' for Active; 'I' for Inactive)
ROOT
ATOM      1  C   UNL d   1       1.844   4.926  -0.714  0.00  0.00     0.077 C 
ATOM      2  C1  UNL d   1       1.039   3.754  -0.236  0.00  0.00    -0.074 A 
ATOM      3  C2  UNL d   1      -0.335   3.871  -0.005  0.00  0.00    -0.005 A 
ATOM      4  C3  UNL d   1      -1.071   2.769   0.431  0.00  0.00     0.006 A 
ATOM      5  C4  UNL d   1      -0.442   1.542   0.640  0.00  0.00    -0.005 A 
ATOM      6  C5  UNL d   1       0.931   1.405   0.413  0.00  0.00    -0.074 A 
ATOM      7  C6  UNL d   1       1.621   0.090   0.623  0.00  0.00     0.077 C 
ATOM      8  C7  UNL d   1       1.663   2.515  -0.032  0.00  0.00    -0.001 A 
ENDROOT
TORSDOF 0
ENDMDL
