MODEL 1
REMARK minimizedAffinity -1.84380281
REMARK minimizedRMSD -1
REMARK  0 active torsions:
REMARK  status: ('A' for Active; 'I' for Inactive)
ROOT
ATOM      1  C   UNL d   1      -5.999   0.727  -2.998  0.00  0.00     0.077 C 
ATOM      2  C1  UNL d   1      -5.298   1.941  -3.530  0.00  0.00    -0.074 A 
ATOM      3  C2  UNL d   1      -4.003   2.265  -3.110  0.00  0.00    -0.005 A 
ATOM      4  C3  UNL d   1      -3.360   3.392  -3.621  0.00  0.00     0.006 A 
ATOM      5  C4  UNL d   1      -4.003   4.206  -4.554  0.00  0.00    -0.005 A 
ATOM      6  C5  UNL d   1      -5.297   3.898  -4.986  0.00  0.00    -0.074 A 
ATOM      7  C6  UNL d   1      -5.999   4.757  -5.995  0.00  0.00     0.077 C 
ATOM      8  C7  UNL d   1      -5.934   2.760  -4.473  0.00  0.00    -0.001 A 
ENDROOT
TORSDOF 0
ENDMDL
