MODEL 1
REMARK minimizedAffinity 7.29263258
REMARK minimizedRMSD -1
REMARK  0 active torsions:
REMARK  status: ('A' for Active; 'I' for Inactive)
ROOT
ATOM      1  C   UNL d   1       1.109  -1.634  -0.934  0.00  0.00     0.077 C 
ATOM      2  C1  UNL d   1       1.881  -1.431   0.336  0.00  0.00    -0.074 A 
ATOM      3  C2  UNL d   1       1.265  -0.903   1.475  0.00  0.00    -0.005 A 
ATOM      4  C3  UNL d   1       1.994  -0.728   2.652  0.00  0.00     0.006 A 
ATOM      5  C4  UNL d   1       3.343  -1.080   2.701  0.00  0.00    -0.005 A 
ATOM      6  C5  UNL d   1       3.976  -1.610   1.573  0.00  0.00    -0.074 A 
ATOM      7  C6  UNL d   1       5.423  -2.002   1.612  0.00  0.00     0.077 C 
ATOM      8  C7  UNL d   1       3.236  -1.789   0.396  0.00  0.00    -0.001 A 
ENDROOT
TORSDOF 0
ENDMDL
