MODEL 1
REMARK minimizedAffinity 5.27442932
REMARK minimizedRMSD -1
REMARK  0 active torsions:
REMARK  status: ('A' for Active; 'I' for Inactive)
ROOT
ATOM      1  C   UNL d   1       0.039   6.000  -1.791  0.00  0.00     0.077 C 
ATOM      2  C1  UNL d   1      -0.366   4.797  -0.991  0.00  0.00    -0.074 A 
ATOM      3  C2  UNL d   1       0.522   3.737  -0.786  0.00  0.00    -0.005 A 
ATOM      4  C3  UNL d   1       0.134   2.630  -0.032  0.00  0.00     0.006 A 
ATOM      5  C4  UNL d   1      -1.144   2.571   0.524  0.00  0.00    -0.005 A 
ATOM      6  C5  UNL d   1      -2.046   3.623   0.330  0.00  0.00    -0.074 A 
ATOM      7  C6  UNL d   1      -3.421   3.580   0.929  0.00  0.00     0.077 C 
ATOM      8  C7  UNL d   1      -1.646   4.735  -0.423  0.00  0.00    -0.001 A 
ENDROOT
TORSDOF 0
ENDMDL
