MODEL 1
REMARK minimizedAffinity -1.02457762
REMARK minimizedRMSD -1
REMARK  0 active torsions:
REMARK  status: ('A' for Active; 'I' for Inactive)
ROOT
ATOM      1  C   UNL d   1      -3.906   6.000   1.104  0.00  0.00     0.077 C 
ATOM      2  C1  UNL d   1      -3.000   4.807   1.029  0.00  0.00    -0.074 A 
ATOM      3  C2  UNL d   1      -2.789   3.994   2.147  0.00  0.00    -0.005 A 
ATOM      4  C3  UNL d   1      -1.950   2.882   2.060  0.00  0.00     0.006 A 
ATOM      5  C4  UNL d   1      -1.316   2.574   0.857  0.00  0.00    -0.005 A 
ATOM      6  C5  UNL d   1      -1.515   3.375  -0.272  0.00  0.00    -0.074 A 
ATOM      7  C6  UNL d   1      -0.848   3.051  -1.576  0.00  0.00     0.077 C 
ATOM      8  C7  UNL d   1      -2.365   4.486  -0.178  0.00  0.00    -0.001 A 
ENDROOT
TORSDOF 0
ENDMDL
