MODEL 1
REMARK minimizedAffinity 15.2945671
REMARK minimizedRMSD -1
REMARK  0 active torsions:
REMARK  status: ('A' for Active; 'I' for Inactive)
ROOT
ATOM      1  C   UNL d   1      -4.709   1.017  -3.198  0.00  0.00     0.077 C 
ATOM      2  C1  UNL d   1      -3.374   0.786  -3.841  0.00  0.00    -0.074 A 
ATOM      3  C2  UNL d   1      -3.276   0.450  -5.195  0.00  0.00    -0.005 A 
ATOM      4  C3  UNL d   1      -2.027   0.248  -5.781  0.00  0.00     0.006 A 
ATOM      5  C4  UNL d   1      -0.864   0.380  -5.021  0.00  0.00    -0.005 A 
ATOM      6  C5  UNL d   1      -0.942   0.716  -3.666  0.00  0.00    -0.074 A 
ATOM      7  C6  UNL d   1       0.298   0.871  -2.836  0.00  0.00     0.077 C 
ATOM      8  C7  UNL d   1      -2.201   0.925  -3.086  0.00  0.00    -0.001 A 
ENDROOT
TORSDOF 0
ENDMDL
