MODEL 1
REMARK minimizedAffinity 6.55225706
REMARK minimizedRMSD -1
REMARK  0 active torsions:
REMARK  status: ('A' for Active; 'I' for Inactive)
ROOT
ATOM      1  C   UNL d   1       1.879   5.998  -1.883  0.00  0.00     0.077 C 
ATOM      2  C1  UNL d   1       0.882   4.896  -1.681  0.00  0.00    -0.074 A 
ATOM      3  C2  UNL d   1       1.288   3.629  -1.250  0.00  0.00    -0.005 A 
ATOM      4  C3  UNL d   1       0.347   2.617  -1.057  0.00  0.00     0.006 A 
ATOM      5  C4  UNL d   1      -1.006   2.861  -1.293  0.00  0.00    -0.005 A 
ATOM      6  C5  UNL d   1      -1.431   4.122  -1.724  0.00  0.00    -0.074 A 
ATOM      7  C6  UNL d   1      -2.883   4.404  -1.973  0.00  0.00     0.077 C 
ATOM      8  C7  UNL d   1      -0.481   5.136  -1.909  0.00  0.00    -0.001 A 
ENDROOT
TORSDOF 0
ENDMDL
