MODEL 1
REMARK minimizedAffinity 6.41105795
REMARK minimizedRMSD -1
REMARK  0 active torsions:
REMARK  status: ('A' for Active; 'I' for Inactive)
ROOT
ATOM      1  C   UNL d   1       2.235  -0.260   2.413  0.00  0.00     0.077 C 
ATOM      2  C1  UNL d   1       3.216  -1.328   2.032  0.00  0.00    -0.074 A 
ATOM      3  C2  UNL d   1       3.673  -1.449   0.715  0.00  0.00    -0.005 A 
ATOM      4  C3  UNL d   1       4.593  -2.441   0.378  0.00  0.00     0.006 A 
ATOM      5  C4  UNL d   1       5.065  -3.322   1.352  0.00  0.00    -0.005 A 
ATOM      6  C5  UNL d   1       4.620  -3.217   2.673  0.00  0.00    -0.074 A 
ATOM      7  C6  UNL d   1       5.125  -4.149   3.734  0.00  0.00     0.077 C 
ATOM      8  C7  UNL d   1       3.701  -2.212   3.006  0.00  0.00    -0.001 A 
ENDROOT
TORSDOF 0
ENDMDL
