MODEL 1
REMARK minimizedAffinity 11.1065025
REMARK minimizedRMSD -1
REMARK  0 active torsions:
REMARK  status: ('A' for Active; 'I' for Inactive)
ROOT
ATOM      1  C   UNL d   1       3.604  -6.000  -1.125  0.00  0.00     0.077 C 
ATOM      2  C1  UNL d   1       2.297  -5.300  -0.897  0.00  0.00    -0.074 A 
ATOM      3  C2  UNL d   1       1.179  -6.000  -0.434  0.00  0.00    -0.005 A 
ATOM      4  C3  UNL d   1      -0.028  -5.334  -0.218  0.00  0.00     0.006 A 
ATOM      5  C4  UNL d   1      -0.128  -3.964  -0.463  0.00  0.00    -0.005 A 
ATOM      6  C5  UNL d   1       0.981  -3.248  -0.926  0.00  0.00    -0.074 A 
ATOM      7  C6  UNL d   1       0.893  -1.773  -1.186  0.00  0.00     0.077 C 
ATOM      8  C7  UNL d   1       2.191  -3.923  -1.134  0.00  0.00    -0.001 A 
ENDROOT
TORSDOF 0
ENDMDL
