MODEL 1
REMARK minimizedAffinity -5.78633118
REMARK minimizedRMSD -1
REMARK  1 active torsions:
REMARK  status: ('A' for Active; 'I' for Inactive)
REMARK    1  A    between atoms: C1_2  and  C2_3 
ROOT
ATOM      1  C2  UNL d   1       0.297   0.807   0.117  0.00  0.00    -0.076 A 
ATOM      2  C3  UNL d   1      -0.250   0.203   1.263  0.00  0.00     0.004 A 
ATOM      3  C4  UNL d   1      -0.404  -1.180   1.340  0.00  0.00    -0.003 A 
ATOM      4  C5  UNL d   1      -0.014  -1.982   0.273  0.00  0.00     0.000 A 
ATOM      5  C6  UNL d   1       0.546  -1.401  -0.864  0.00  0.00     0.000 A 
ATOM      6  C7  UNL d   1       0.724  -0.009  -0.952  0.00  0.00    -0.073 A 
ATOM      7  C8  UNL d   1       1.327   0.564  -2.204  0.00  0.00     0.078 C 
ENDROOT
BRANCH   1   8
ATOM      8  C1  UNL d   1       0.415   2.314   0.080  0.00  0.00     0.053 C 
ATOM      9  C   UNL d   1       1.753   2.807   0.608  0.00  0.00     0.018 C 
ENDBRANCH   1   8
TORSDOF 1
ENDMDL
