MODEL 1
REMARK minimizedAffinity -0.408206403
REMARK minimizedRMSD -1
REMARK  1 active torsions:
REMARK  status: ('A' for Active; 'I' for Inactive)
REMARK    1  A    between atoms: C1_2  and  C2_3 
ROOT
ATOM      1  C2  UNL d   1       1.360   1.955   0.588  0.00  0.00    -0.076 A 
ATOM      2  C3  UNL d   1       1.866   1.115  -0.420  0.00  0.00     0.004 A 
ATOM      3  C4  UNL d   1       3.196   1.202  -0.825  0.00  0.00    -0.003 A 
ATOM      4  C5  UNL d   1       4.044   2.130  -0.230  0.00  0.00     0.000 A 
ATOM      5  C6  UNL d   1       3.564   2.959   0.783  0.00  0.00     0.000 A 
ATOM      6  C7  UNL d   1       2.229   2.873   1.215  0.00  0.00    -0.073 A 
ATOM      7  C8  UNL d   1       1.763   3.797   2.308  0.00  0.00     0.078 C 
ENDROOT
BRANCH   1   8
ATOM      8  C1  UNL d   1      -0.098   1.834   0.967  0.00  0.00     0.053 C 
ATOM      9  C   UNL d   1      -0.540   0.388   1.131  0.00  0.00     0.018 C 
ENDBRANCH   1   8
TORSDOF 1
ENDMDL
