MODEL 1
REMARK minimizedAffinity -4.68778992
REMARK minimizedRMSD -1
REMARK  1 active torsions:
REMARK  status: ('A' for Active; 'I' for Inactive)
REMARK    1  A    between atoms: C1_2  and  C2_3 
ROOT
ATOM      1  C2  UNL d   1      -0.090  -0.339  -0.575  0.00  0.00    -0.076 A 
ATOM      2  C3  UNL d   1      -0.658  -1.618  -0.706  0.00  0.00     0.004 A 
ATOM      3  C4  UNL d   1      -1.109  -2.320   0.411  0.00  0.00    -0.003 A 
ATOM      4  C5  UNL d   1      -0.999  -1.754   1.676  0.00  0.00     0.000 A 
ATOM      5  C6  UNL d   1      -0.453  -0.479   1.822  0.00  0.00     0.000 A 
ATOM      6  C7  UNL d   1      -0.009   0.249   0.705  0.00  0.00    -0.073 A 
ATOM      7  C8  UNL d   1       0.576   1.618   0.921  0.00  0.00     0.078 C 
ENDROOT
BRANCH   1   8
ATOM      8  C1  UNL d   1       0.406   0.364  -1.819  0.00  0.00     0.053 C 
ATOM      9  C   UNL d   1       1.923   0.359  -1.925  0.00  0.00     0.018 C 
ENDBRANCH   1   8
TORSDOF 1
ENDMDL
