MODEL 1
REMARK minimizedAffinity -5.95171499
REMARK minimizedRMSD -1
REMARK  1 active torsions:
REMARK  status: ('A' for Active; 'I' for Inactive)
REMARK    1  A    between atoms: C1_2  and  C2_3 
ROOT
ATOM      1  C2  UNL d   1       0.254   1.078  -0.452  0.00  0.00    -0.076 A 
ATOM      2  C3  UNL d   1      -0.093   0.265  -1.545  0.00  0.00     0.004 A 
ATOM      3  C4  UNL d   1       0.843  -0.053  -2.528  0.00  0.00    -0.003 A 
ATOM      4  C5  UNL d   1       2.141   0.436  -2.433  0.00  0.00     0.000 A 
ATOM      5  C6  UNL d   1       2.507   1.229  -1.346  0.00  0.00     0.000 A 
ATOM      6  C7  UNL d   1       1.581   1.546  -0.338  0.00  0.00    -0.073 A 
ATOM      7  C8  UNL d   1       2.028   2.410   0.808  0.00  0.00     0.078 C 
ENDROOT
BRANCH   1   8
ATOM      8  C1  UNL d   1      -0.810   1.411   0.569  0.00  0.00     0.053 C 
ATOM      9  C   UNL d   1      -1.048   0.278   1.555  0.00  0.00     0.018 C 
ENDBRANCH   1   8
TORSDOF 1
ENDMDL
