MODEL 1
REMARK minimizedAffinity -4.57411385
REMARK minimizedRMSD -1
REMARK  1 active torsions:
REMARK  status: ('A' for Active; 'I' for Inactive)
REMARK    1  A    between atoms: C1_2  and  C2_3 
ROOT
ATOM      1  C2  UNL d   1       0.499   1.317  -0.100  0.00  0.00    -0.076 A 
ATOM      2  C3  UNL d   1       0.922   2.371   0.728  0.00  0.00     0.004 A 
ATOM      3  C4  UNL d   1       2.153   2.992   0.527  0.00  0.00    -0.003 A 
ATOM      4  C5  UNL d   1       2.982   2.570  -0.506  0.00  0.00     0.000 A 
ATOM      5  C6  UNL d   1       2.571   1.537  -1.349  0.00  0.00     0.000 A 
ATOM      6  C7  UNL d   1       1.326   0.911  -1.170  0.00  0.00    -0.073 A 
ATOM      7  C8  UNL d   1       0.936  -0.201  -2.104  0.00  0.00     0.078 C 
ENDROOT
BRANCH   1   8
ATOM      8  C1  UNL d   1      -0.835   0.664   0.183  0.00  0.00     0.053 C 
ATOM      9  C   UNL d   1      -0.731  -0.450   1.214  0.00  0.00     0.018 C 
ENDBRANCH   1   8
TORSDOF 1
ENDMDL
