MODEL 1
REMARK minimizedAffinity -5.32991219
REMARK minimizedRMSD -1
REMARK  1 active torsions:
REMARK  status: ('A' for Active; 'I' for Inactive)
REMARK    1  A    between atoms: C1_2  and  C2_3 
ROOT
ATOM      1  C2  UNL d   1       0.664   1.205  -0.012  0.00  0.00    -0.076 A 
ATOM      2  C3  UNL d   1       1.135   2.136   0.931  0.00  0.00     0.004 A 
ATOM      3  C4  UNL d   1       2.259   2.917   0.668  0.00  0.00    -0.003 A 
ATOM      4  C5  UNL d   1       2.930   2.780  -0.542  0.00  0.00     0.000 A 
ATOM      5  C6  UNL d   1       2.467   1.875  -1.496  0.00  0.00     0.000 A 
ATOM      6  C7  UNL d   1       1.326   1.091  -1.253  0.00  0.00    -0.073 A 
ATOM      7  C8  UNL d   1       0.874   0.126  -2.315  0.00  0.00     0.078 C 
ENDROOT
BRANCH   1   8
ATOM      8  C1  UNL d   1      -0.544   0.366   0.340  0.00  0.00     0.053 C 
ATOM      9  C   UNL d   1      -0.181  -0.864   1.158  0.00  0.00     0.018 C 
ENDBRANCH   1   8
TORSDOF 1
ENDMDL
