MODEL 1
REMARK minimizedAffinity -0.0170195177
REMARK minimizedRMSD -1
REMARK  1 active torsions:
REMARK  status: ('A' for Active; 'I' for Inactive)
REMARK    1  A    between atoms: C1_2  and  C2_3 
ROOT
ATOM      1  C2  UNL d   1      -1.032   0.773   0.807  0.00  0.00    -0.076 A 
ATOM      2  C3  UNL d   1      -0.606   0.148  -0.378  0.00  0.00     0.004 A 
ATOM      3  C4  UNL d   1      -0.677  -1.236  -0.525  0.00  0.00    -0.003 A 
ATOM      4  C5  UNL d   1      -1.176  -2.018   0.511  0.00  0.00     0.000 A 
ATOM      5  C6  UNL d   1      -1.621  -1.414   1.686  0.00  0.00     0.000 A 
ATOM      6  C7  UNL d   1      -1.571  -0.018   1.844  0.00  0.00    -0.073 A 
ATOM      7  C8  UNL d   1      -2.058   0.580   3.136  0.00  0.00     0.078 C 
ENDROOT
BRANCH   1   8
ATOM      8  C1  UNL d   1      -0.906   2.276   0.919  0.00  0.00     0.053 C 
ATOM      9  C   UNL d   1       0.523   2.722   1.190  0.00  0.00     0.018 C 
ENDBRANCH   1   8
TORSDOF 1
ENDMDL
