MODEL 1
REMARK minimizedAffinity -4.54485893
REMARK minimizedRMSD -1
REMARK  2 active torsions:
REMARK  status: ('A' for Active; 'I' for Inactive)
REMARK    1  A    between atoms: C1_2  and  C2_3 
REMARK    2  A    between atoms: C2_3  and  C3_4 
ROOT
ATOM      1  C3  UNL d   1       0.310   0.641  -0.024  0.00  0.00    -0.075 A 
ATOM      2  C4  UNL d   1       1.026  -0.535   0.240  0.00  0.00     0.002 A 
ATOM      3  C5  UNL d   1       0.362  -1.692   0.650  0.00  0.00     0.002 A 
ATOM      4  C6  UNL d   1      -1.022  -1.685   0.810  0.00  0.00    -0.004 A 
ATOM      5  C7  UNL d   1      -1.742  -0.517   0.567  0.00  0.00     0.002 A 
ATOM      6  C8  UNL d   1      -1.081   0.640   0.152  0.00  0.00     0.002 A 
ENDROOT
BRANCH   1   7
ATOM      7  C2  UNL d   1       1.019   1.888  -0.496  0.00  0.00     0.056 C 
BRANCH   7   8
ATOM      8  C1  UNL d   1       1.536   1.804  -1.936  0.00  0.00     0.007 C 
ATOM      9  C   UNL d   1       0.650   2.536  -2.936  0.00  0.00     0.009 C 
ENDBRANCH   7   8
ENDBRANCH   1   7
TORSDOF 2
ENDMDL
