MODEL 1
REMARK minimizedAffinity -4.91752815
REMARK minimizedRMSD -1
REMARK  2 active torsions:
REMARK  status: ('A' for Active; 'I' for Inactive)
REMARK    1  A    between atoms: C1_2  and  C2_3 
REMARK    2  A    between atoms: C2_3  and  C3_4 
ROOT
ATOM      1  C3  UNL d   1       0.123  -0.079  -0.073  0.00  0.00    -0.075 A 
ATOM      2  C4  UNL d   1       0.737  -1.300   0.241  0.00  0.00     0.002 A 
ATOM      3  C5  UNL d   1      -0.017  -2.367   0.729  0.00  0.00     0.002 A 
ATOM      4  C6  UNL d   1      -1.390  -2.225   0.920  0.00  0.00    -0.004 A 
ATOM      5  C7  UNL d   1      -2.008  -1.011   0.627  0.00  0.00     0.002 A 
ATOM      6  C8  UNL d   1      -1.256   0.057   0.134  0.00  0.00     0.002 A 
ENDROOT
BRANCH   1   7
ATOM      7  C2  UNL d   1       0.929   1.070  -0.630  0.00  0.00     0.056 C 
BRANCH   7   8
ATOM      8  C1  UNL d   1       0.533   1.478  -2.053  0.00  0.00     0.007 C 
ATOM      9  C   UNL d   1       1.723   1.872  -2.917  0.00  0.00     0.009 C 
ENDBRANCH   7   8
ENDBRANCH   1   7
TORSDOF 2
ENDMDL
