MODEL 1
REMARK minimizedAffinity -5.80170536
REMARK minimizedRMSD -1
REMARK  2 active torsions:
REMARK  status: ('A' for Active; 'I' for Inactive)
REMARK    1  A    between atoms: C1_2  and  C2_3 
REMARK    2  A    between atoms: C2_3  and  C3_4 
ROOT
ATOM      1  C3  UNL d   1      -0.240  -0.677   0.688  0.00  0.00    -0.075 A 
ATOM      2  C4  UNL d   1      -1.407   0.020   1.032  0.00  0.00     0.002 A 
ATOM      3  C5  UNL d   1      -2.454  -0.631   1.686  0.00  0.00     0.002 A 
ATOM      4  C6  UNL d   1      -2.351  -1.985   1.996  0.00  0.00    -0.004 A 
ATOM      5  C7  UNL d   1      -1.203  -2.691   1.644  0.00  0.00     0.002 A 
ATOM      6  C8  UNL d   1      -0.152  -2.042   0.994  0.00  0.00     0.002 A 
ENDROOT
BRANCH   1   7
ATOM      7  C2  UNL d   1       0.909   0.028   0.006  0.00  0.00     0.056 C 
BRANCH   7   8
ATOM      8  C1  UNL d   1       0.668   1.522  -0.235  0.00  0.00     0.007 C 
ATOM      9  C   UNL d   1       1.013   1.965  -1.650  0.00  0.00     0.009 C 
ENDBRANCH   7   8
ENDBRANCH   1   7
TORSDOF 2
ENDMDL
