MODEL 1
REMARK minimizedAffinity -5.2327323
REMARK minimizedRMSD -1
REMARK  2 active torsions:
REMARK  status: ('A' for Active; 'I' for Inactive)
REMARK    1  A    between atoms: C1_2  and  C2_3 
REMARK    2  A    between atoms: C2_3  and  C3_4 
ROOT
ATOM      1  C3  UNL d   1       0.308   0.366  -0.287  0.00  0.00    -0.075 A 
ATOM      2  C4  UNL d   1      -1.002  -0.090  -0.491  0.00  0.00     0.002 A 
ATOM      3  C5  UNL d   1      -1.398  -1.341  -0.016  0.00  0.00     0.002 A 
ATOM      4  C6  UNL d   1      -0.490  -2.153   0.659  0.00  0.00    -0.004 A 
ATOM      5  C7  UNL d   1       0.819  -1.716   0.853  0.00  0.00     0.002 A 
ATOM      6  C8  UNL d   1       1.217  -0.464   0.382  0.00  0.00     0.002 A 
ENDROOT
BRANCH   1   7
ATOM      7  C2  UNL d   1       0.735   1.731  -0.773  0.00  0.00     0.056 C 
BRANCH   7   8
ATOM      8  C1  UNL d   1       0.324   2.035  -2.218  0.00  0.00     0.007 C 
ATOM      9  C   UNL d   1       1.349   2.873  -2.970  0.00  0.00     0.009 C 
ENDBRANCH   7   8
ENDBRANCH   1   7
TORSDOF 2
ENDMDL
