MODEL 1
REMARK minimizedAffinity -3.74585724
REMARK minimizedRMSD -1
REMARK  2 active torsions:
REMARK  status: ('A' for Active; 'I' for Inactive)
REMARK    1  A    between atoms: C1_2  and  C2_3 
REMARK    2  A    between atoms: C2_3  and  C3_4 
ROOT
ATOM      1  C3  UNL d   1       0.093   0.622  -0.329  0.00  0.00    -0.075 A 
ATOM      2  C4  UNL d   1       0.986  -0.459  -0.352  0.00  0.00     0.002 A 
ATOM      3  C5  UNL d   1       0.635  -1.681   0.223  0.00  0.00     0.002 A 
ATOM      4  C6  UNL d   1      -0.607  -1.834   0.836  0.00  0.00    -0.004 A 
ATOM      5  C7  UNL d   1      -1.495  -0.762   0.879  0.00  0.00     0.002 A 
ATOM      6  C8  UNL d   1      -1.148   0.461   0.301  0.00  0.00     0.002 A 
ENDROOT
BRANCH   1   7
ATOM      7  C2  UNL d   1       0.456   1.938  -0.975  0.00  0.00     0.056 C 
BRANCH   7   8
ATOM      8  C1  UNL d   1       1.506   1.819  -2.085  0.00  0.00     0.007 C 
ATOM      9  C   UNL d   1       1.301   2.818  -3.215  0.00  0.00     0.009 C 
ENDBRANCH   7   8
ENDBRANCH   1   7
TORSDOF 2
ENDMDL
