MODEL 1
REMARK minimizedAffinity -3.47553992
REMARK minimizedRMSD -1
REMARK  2 active torsions:
REMARK  status: ('A' for Active; 'I' for Inactive)
REMARK    1  A    between atoms: C1_2  and  C2_3 
REMARK    2  A    between atoms: C2_3  and  C3_4 
ROOT
ATOM      1  C3  UNL d   1       0.252  -0.033  -0.035  0.00  0.00    -0.075 A 
ATOM      2  C4  UNL d   1       0.927  -1.134   0.512  0.00  0.00     0.002 A 
ATOM      3  C5  UNL d   1       0.216  -2.193   1.077  0.00  0.00     0.002 A 
ATOM      4  C6  UNL d   1      -1.176  -2.160   1.112  0.00  0.00    -0.004 A 
ATOM      5  C7  UNL d   1      -1.857  -1.065   0.586  0.00  0.00     0.002 A 
ATOM      6  C8  UNL d   1      -1.148  -0.006   0.016  0.00  0.00     0.002 A 
ENDROOT
BRANCH   1   7
ATOM      7  C2  UNL d   1       1.015   1.102  -0.675  0.00  0.00     0.056 C 
BRANCH   7   8
ATOM      8  C1  UNL d   1       0.548   1.446  -2.093  0.00  0.00     0.007 C 
ATOM      9  C   UNL d   1       1.691   1.819  -3.027  0.00  0.00     0.009 C 
ENDBRANCH   7   8
ENDBRANCH   1   7
TORSDOF 2
ENDMDL
