MODEL 1
REMARK minimizedAffinity -4.11030531
REMARK minimizedRMSD -1
REMARK  2 active torsions:
REMARK  status: ('A' for Active; 'I' for Inactive)
REMARK    1  A    between atoms: C1_2  and  C2_3 
REMARK    2  A    between atoms: C2_3  and  C3_4 
ROOT
ATOM      1  C3  UNL d   1       0.356  -0.077   0.208  0.00  0.00    -0.075 A 
ATOM      2  C4  UNL d   1      -1.029   0.071   0.369  0.00  0.00     0.002 A 
ATOM      3  C5  UNL d   1      -1.810  -1.001   0.805  0.00  0.00     0.002 A 
ATOM      4  C6  UNL d   1      -1.219  -2.233   1.075  0.00  0.00    -0.004 A 
ATOM      5  C7  UNL d   1       0.154  -2.396   0.902  0.00  0.00     0.002 A 
ATOM      6  C8  UNL d   1       0.938  -1.324   0.471  0.00  0.00     0.002 A 
ENDROOT
BRANCH   1   7
ATOM      7  C2  UNL d   1       1.211   1.086  -0.234  0.00  0.00     0.056 C 
BRANCH   7   8
ATOM      8  C1  UNL d   1       1.027   1.471  -1.706  0.00  0.00     0.007 C 
ATOM      9  C   UNL d   1       2.305   1.982  -2.358  0.00  0.00     0.009 C 
ENDBRANCH   7   8
ENDBRANCH   1   7
TORSDOF 2
ENDMDL
