MODEL 1
REMARK minimizedAffinity -3.4876368
REMARK minimizedRMSD -1
REMARK  2 active torsions:
REMARK  status: ('A' for Active; 'I' for Inactive)
REMARK    1  A    between atoms: C1_2  and  C2_3 
REMARK    2  A    between atoms: C2_3  and  C3_4 
ROOT
ATOM      1  C3  UNL d   1       0.589   0.284  -0.291  0.00  0.00    -0.075 A 
ATOM      2  C4  UNL d   1       1.229  -0.876   0.168  0.00  0.00     0.002 A 
ATOM      3  C5  UNL d   1       0.485  -1.939   0.682  0.00  0.00     0.002 A 
ATOM      4  C6  UNL d   1      -0.903  -1.851   0.754  0.00  0.00    -0.004 A 
ATOM      5  C7  UNL d   1      -1.548  -0.696   0.316  0.00  0.00     0.002 A 
ATOM      6  C8  UNL d   1      -0.807   0.367  -0.203  0.00  0.00     0.002 A 
ENDROOT
BRANCH   1   7
ATOM      7  C2  UNL d   1       1.385   1.426  -0.876  0.00  0.00     0.056 C 
BRANCH   7   8
ATOM      8  C1  UNL d   1       0.944   1.837  -2.285  0.00  0.00     0.007 C 
ATOM      9  C   UNL d   1       2.089   2.355  -3.145  0.00  0.00     0.009 C 
ENDBRANCH   7   8
ENDBRANCH   1   7
TORSDOF 2
ENDMDL
