MODEL 1
REMARK minimizedAffinity -3.33185959
REMARK minimizedRMSD -1
REMARK  2 active torsions:
REMARK  status: ('A' for Active; 'I' for Inactive)
REMARK    1  A    between atoms: C1_2  and  C2_3 
REMARK    2  A    between atoms: C2_3  and  C3_4 
ROOT
ATOM      1  C3  UNL d   1       1.020   0.074   0.790  0.00  0.00    -0.075 A 
ATOM      2  C4  UNL d   1       1.619  -1.053   1.372  0.00  0.00     0.002 A 
ATOM      3  C5  UNL d   1       0.863  -2.192   1.650  0.00  0.00     0.002 A 
ATOM      4  C6  UNL d   1      -0.500  -2.216   1.362  0.00  0.00    -0.004 A 
ATOM      5  C7  UNL d   1      -1.109  -1.096   0.800  0.00  0.00     0.002 A 
ATOM      6  C8  UNL d   1      -0.354   0.044   0.516  0.00  0.00     0.002 A 
ENDROOT
BRANCH   1   7
ATOM      7  C2  UNL d   1       1.838   1.299   0.459  0.00  0.00     0.056 C 
BRANCH   7   8
ATOM      8  C1  UNL d   1       2.957   1.045  -0.556  0.00  0.00     0.007 C 
ATOM      9  C   UNL d   1       3.696   2.313  -0.965  0.00  0.00     0.009 C 
ENDBRANCH   7   8
ENDBRANCH   1   7
TORSDOF 2
ENDMDL
