MODEL 1
REMARK minimizedAffinity -5.33792543
REMARK minimizedRMSD -1
REMARK  2 active torsions:
REMARK  status: ('A' for Active; 'I' for Inactive)
REMARK    1  A    between atoms: C1_2  and  C2_3 
REMARK    2  A    between atoms: C2_3  and  C3_4 
ROOT
ATOM      1  C3  UNL d   1      -0.619  -0.560   0.602  0.00  0.00    -0.075 A 
ATOM      2  C4  UNL d   1      -1.512   0.420   1.060  0.00  0.00     0.002 A 
ATOM      3  C5  UNL d   1      -2.644   0.061   1.792  0.00  0.00     0.002 A 
ATOM      4  C6  UNL d   1      -2.904  -1.281   2.065  0.00  0.00    -0.004 A 
ATOM      5  C7  UNL d   1      -2.033  -2.264   1.600  0.00  0.00     0.002 A 
ATOM      6  C8  UNL d   1      -0.897  -1.907   0.872  0.00  0.00     0.002 A 
ENDROOT
BRANCH   1   7
ATOM      7  C2  UNL d   1       0.623  -0.176  -0.165  0.00  0.00     0.056 C 
BRANCH   7   8
ATOM      8  C1  UNL d   1       0.876   1.334  -0.227  0.00  0.00     0.007 C 
ATOM      9  C   UNL d   1       1.222   1.828  -1.625  0.00  0.00     0.009 C 
ENDBRANCH   7   8
ENDBRANCH   1   7
TORSDOF 2
ENDMDL
