MODEL 1
REMARK minimizedAffinity 4.80418825
REMARK minimizedRMSD -1
REMARK  2 active torsions:
REMARK  status: ('A' for Active; 'I' for Inactive)
REMARK    1  A    between atoms: C1_2  and  C2_3 
REMARK    2  A    between atoms: C2_3  and  C3_4 
ROOT
ATOM      1  C3  UNL d   1       1.223   2.524   1.835  0.00  0.00    -0.075 A 
ATOM      2  C4  UNL d   1       1.247   1.383   1.019  0.00  0.00     0.002 A 
ATOM      3  C5  UNL d   1       0.089   0.947   0.376  0.00  0.00     0.002 A 
ATOM      4  C6  UNL d   1      -1.109   1.638   0.547  0.00  0.00    -0.004 A 
ATOM      5  C7  UNL d   1      -1.149   2.763   1.369  0.00  0.00     0.002 A 
ATOM      6  C8  UNL d   1       0.010   3.204   2.010  0.00  0.00     0.002 A 
ENDROOT
BRANCH   1   7
ATOM      7  C2  UNL d   1       2.480   3.018   2.510  0.00  0.00     0.056 C 
BRANCH   7   8
ATOM      8  C1  UNL d   1       3.773   2.597   1.805  0.00  0.00     0.007 C 
ATOM      9  C   UNL d   1       4.841   3.683   1.809  0.00  0.00     0.009 C 
ENDBRANCH   7   8
ENDBRANCH   1   7
TORSDOF 2
ENDMDL
