MODEL 1
REMARK minimizedAffinity 5.8270545
REMARK minimizedRMSD -1
REMARK  2 active torsions:
REMARK  status: ('A' for Active; 'I' for Inactive)
REMARK    1  A    between atoms: C1_2  and  C2_3 
REMARK    2  A    between atoms: C2_3  and  C3_4 
ROOT
ATOM      1  C3  UNL d   1      -0.665   2.841   1.728  0.00  0.00    -0.075 A 
ATOM      2  C4  UNL d   1       0.733   2.897   1.821  0.00  0.00     0.002 A 
ATOM      3  C5  UNL d   1       1.350   3.203   3.035  0.00  0.00     0.002 A 
ATOM      4  C6  UNL d   1       0.579   3.467   4.165  0.00  0.00    -0.004 A 
ATOM      5  C7  UNL d   1      -0.811   3.430   4.079  0.00  0.00     0.002 A 
ATOM      6  C8  UNL d   1      -1.431   3.120   2.867  0.00  0.00     0.002 A 
ENDROOT
BRANCH   1   7
ATOM      7  C2  UNL d   1      -1.338   2.482   0.424  0.00  0.00     0.056 C 
BRANCH   7   8
ATOM      8  C1  UNL d   1      -2.232   1.240   0.506  0.00  0.00     0.007 C 
ATOM      9  C   UNL d   1      -1.456  -0.040   0.788  0.00  0.00     0.009 C 
ENDBRANCH   7   8
ENDBRANCH   1   7
TORSDOF 2
ENDMDL
