MODEL 1
REMARK minimizedAffinity 0.559238017
REMARK minimizedRMSD -1
REMARK  2 active torsions:
REMARK  status: ('A' for Active; 'I' for Inactive)
REMARK    1  A    between atoms: C1_2  and  C2_3 
REMARK    2  A    between atoms: C2_3  and  C3_4 
ROOT
ATOM      1  C3  UNL d   1      -3.110   3.595  -5.997  0.00  0.00    -0.075 A 
ATOM      2  C4  UNL d   1      -2.601   4.902  -5.999  0.00  0.00     0.002 A 
ATOM      3  C5  UNL d   1      -3.464   5.998  -5.968  0.00  0.00     0.002 A 
ATOM      4  C6  UNL d   1      -4.843   5.802  -5.946  0.00  0.00    -0.004 A 
ATOM      5  C7  UNL d   1      -5.359   4.509  -5.960  0.00  0.00     0.002 A 
ATOM      6  C8  UNL d   1      -4.498   3.410  -5.986  0.00  0.00     0.002 A 
ENDROOT
BRANCH   1   7
ATOM      7  C2  UNL d   1      -2.181   2.405  -6.000  0.00  0.00     0.056 C 
BRANCH   7   8
ATOM      8  C1  UNL d   1      -0.709   2.761  -5.766  0.00  0.00     0.007 C 
ATOM      9  C   UNL d   1       0.237   1.591  -6.000  0.00  0.00     0.009 C 
ENDBRANCH   7   8
ENDBRANCH   1   7
TORSDOF 2
ENDMDL
