MODEL 1
REMARK minimizedAffinity -1.8670119
REMARK minimizedRMSD -1
REMARK  2 active torsions:
REMARK  status: ('A' for Active; 'I' for Inactive)
REMARK    1  A    between atoms: C1_2  and  C2_3 
REMARK    2  A    between atoms: C2_3  and  C3_4 
ROOT
ATOM      1  C3  UNL d   1      -2.971   4.194  -5.566  0.00  0.00    -0.075 A 
ATOM      2  C4  UNL d   1      -3.186   5.478  -5.045  0.00  0.00     0.002 A 
ATOM      3  C5  UNL d   1      -4.479   5.992  -4.941  0.00  0.00     0.002 A 
ATOM      4  C6  UNL d   1      -5.569   5.236  -5.365  0.00  0.00    -0.004 A 
ATOM      5  C7  UNL d   1      -5.365   3.965  -5.899  0.00  0.00     0.002 A 
ATOM      6  C8  UNL d   1      -4.073   3.446  -6.000  0.00  0.00     0.002 A 
ENDROOT
BRANCH   1   7
ATOM      7  C2  UNL d   1      -1.577   3.620  -5.654  0.00  0.00     0.056 C 
BRANCH   7   8
ATOM      8  C1  UNL d   1      -1.538   2.127  -5.999  0.00  0.00     0.007 C 
ATOM      9  C   UNL d   1      -0.129   1.548  -5.999  0.00  0.00     0.009 C 
ENDBRANCH   7   8
ENDBRANCH   1   7
TORSDOF 2
ENDMDL
