MODEL 1
REMARK minimizedAffinity -2.26080441
REMARK minimizedRMSD -1
REMARK  2 active torsions:
REMARK  status: ('A' for Active; 'I' for Inactive)
REMARK    1  A    between atoms: C1_2  and  C2_3 
REMARK    2  A    between atoms: C2_3  and  C3_4 
ROOT
ATOM      1  C3  UNL d   1       0.451   1.011   0.728  0.00  0.00    -0.075 A 
ATOM      2  C4  UNL d   1       0.049   2.354   0.767  0.00  0.00     0.002 A 
ATOM      3  C5  UNL d   1      -1.301   2.685   0.886  0.00  0.00     0.002 A 
ATOM      4  C6  UNL d   1      -2.264   1.681   0.957  0.00  0.00    -0.004 A 
ATOM      5  C7  UNL d   1      -1.877   0.344   0.903  0.00  0.00     0.002 A 
ATOM      6  C8  UNL d   1      -0.527   0.009   0.788  0.00  0.00     0.002 A 
ENDROOT
BRANCH   1   7
ATOM      7  C2  UNL d   1       1.913   0.645   0.629  0.00  0.00     0.056 C 
BRANCH   7   8
ATOM      8  C1  UNL d   1       2.867   1.830   0.814  0.00  0.00     0.007 C 
ATOM      9  C   UNL d   1       3.009   2.266   2.266  0.00  0.00     0.009 C 
ENDBRANCH   7   8
ENDBRANCH   1   7
TORSDOF 2
ENDMDL
