MODEL 1
REMARK minimizedAffinity 3.1092155
REMARK minimizedRMSD -1
REMARK  2 active torsions:
REMARK  status: ('A' for Active; 'I' for Inactive)
REMARK    1  A    between atoms: C1_2  and  C2_3 
REMARK    2  A    between atoms: C2_3  and  C3_4 
ROOT
ATOM      1  C3  UNL d   1      -0.136   1.559   0.809  0.00  0.00    -0.075 A 
ATOM      2  C4  UNL d   1       1.150   1.032   0.621  0.00  0.00     0.002 A 
ATOM      3  C5  UNL d   1       2.258   1.638   1.214  0.00  0.00     0.002 A 
ATOM      4  C6  UNL d   1       2.096   2.782   1.993  0.00  0.00    -0.004 A 
ATOM      5  C7  UNL d   1       0.826   3.323   2.173  0.00  0.00     0.002 A 
ATOM      6  C8  UNL d   1      -0.285   2.716   1.585  0.00  0.00     0.002 A 
ENDROOT
BRANCH   1   7
ATOM      7  C2  UNL d   1      -1.342   0.891   0.194  0.00  0.00     0.056 C 
BRANCH   7   8
ATOM      8  C1  UNL d   1      -2.524   0.730   1.156  0.00  0.00     0.007 C 
ATOM      9  C   UNL d   1      -2.341  -0.414   2.145  0.00  0.00     0.009 C 
ENDBRANCH   7   8
ENDBRANCH   1   7
TORSDOF 2
ENDMDL
