MODEL 1
REMARK minimizedAffinity 2.93959045
REMARK minimizedRMSD -1
REMARK  2 active torsions:
REMARK  status: ('A' for Active; 'I' for Inactive)
REMARK    1  A    between atoms: C1_2  and  C2_3 
REMARK    2  A    between atoms: C2_3  and  C3_4 
ROOT
ATOM      1  C3  UNL d   1      -0.575  -2.610  -1.188  0.00  0.00    -0.075 A 
ATOM      2  C4  UNL d   1      -0.764  -1.954   0.037  0.00  0.00     0.002 A 
ATOM      3  C5  UNL d   1       0.151  -0.998   0.477  0.00  0.00     0.002 A 
ATOM      4  C6  UNL d   1       1.270  -0.694  -0.294  0.00  0.00    -0.004 A 
ATOM      5  C7  UNL d   1       1.477  -1.351  -1.505  0.00  0.00     0.002 A 
ATOM      6  C8  UNL d   1       0.560  -2.305  -1.951  0.00  0.00     0.002 A 
ENDROOT
BRANCH   1   7
ATOM      7  C2  UNL d   1      -1.578  -3.624  -1.685  0.00  0.00     0.056 C 
BRANCH   7   8
ATOM      8  C1  UNL d   1      -2.528  -4.144  -0.601  0.00  0.00     0.007 C 
ATOM      9  C   UNL d   1      -3.771  -4.818  -1.166  0.00  0.00     0.009 C 
ENDBRANCH   7   8
ENDBRANCH   1   7
TORSDOF 2
ENDMDL
