MODEL 1
REMARK minimizedAffinity 1.97123003
REMARK minimizedRMSD -1
REMARK  2 active torsions:
REMARK  status: ('A' for Active; 'I' for Inactive)
REMARK    1  A    between atoms: C1_2  and  C2_3 
REMARK    2  A    between atoms: C2_3  and  C3_4 
ROOT
ATOM      1  C3  UNL d   1      -0.544  -0.775  -0.009  0.00  0.00    -0.075 A 
ATOM      2  C4  UNL d   1       0.737  -0.582  -0.546  0.00  0.00     0.002 A 
ATOM      3  C5  UNL d   1       1.179  -1.354  -1.620  0.00  0.00     0.002 A 
ATOM      4  C6  UNL d   1       0.353  -2.335  -2.163  0.00  0.00    -0.004 A 
ATOM      5  C7  UNL d   1      -0.916  -2.547  -1.627  0.00  0.00     0.002 A 
ATOM      6  C8  UNL d   1      -1.362  -1.773  -0.555  0.00  0.00     0.002 A 
ENDROOT
BRANCH   1   7
ATOM      7  C2  UNL d   1      -1.040   0.078   1.134  0.00  0.00     0.056 C 
BRANCH   7   8
ATOM      8  C1  UNL d   1      -1.761   1.355   0.692  0.00  0.00     0.007 C 
ATOM      9  C   UNL d   1      -1.061   2.628   1.147  0.00  0.00     0.009 C 
ENDBRANCH   7   8
ENDBRANCH   1   7
TORSDOF 2
ENDMDL
