MODEL 1
REMARK minimizedAffinity 3.52972889
REMARK minimizedRMSD -1
REMARK  2 active torsions:
REMARK  status: ('A' for Active; 'I' for Inactive)
REMARK    1  A    between atoms: C1_2  and  C2_3 
REMARK    2  A    between atoms: C2_3  and  C3_4 
ROOT
ATOM      1  C3  UNL d   1      -3.171   3.696  -5.526  0.00  0.00    -0.075 A 
ATOM      2  C4  UNL d   1      -2.576   4.881  -5.071  0.00  0.00     0.002 A 
ATOM      3  C5  UNL d   1      -3.361   5.987  -4.744  0.00  0.00     0.002 A 
ATOM      4  C6  UNL d   1      -4.746   5.926  -4.877  0.00  0.00    -0.004 A 
ATOM      5  C7  UNL d   1      -5.347   4.759  -5.344  0.00  0.00     0.002 A 
ATOM      6  C8  UNL d   1      -4.564   3.649  -5.668  0.00  0.00     0.002 A 
ENDROOT
BRANCH   1   7
ATOM      7  C2  UNL d   1      -2.330   2.485  -5.854  0.00  0.00     0.056 C 
BRANCH   7   8
ATOM      8  C1  UNL d   1      -0.828   2.776  -5.948  0.00  0.00     0.007 C 
ATOM      9  C   UNL d   1       0.028   1.517  -5.957  0.00  0.00     0.009 C 
ENDBRANCH   7   8
ENDBRANCH   1   7
TORSDOF 2
ENDMDL
