MODEL 1
REMARK minimizedAffinity 2.07569551
REMARK minimizedRMSD -1
REMARK  2 active torsions:
REMARK  status: ('A' for Active; 'I' for Inactive)
REMARK    1  A    between atoms: C1_2  and  C2_3 
REMARK    2  A    between atoms: C2_3  and  C3_4 
ROOT
ATOM      1  C3  UNL d   1      -2.759   4.216  -5.982  0.00  0.00    -0.075 A 
ATOM      2  C4  UNL d   1      -3.078   5.582  -5.995  0.00  0.00     0.002 A 
ATOM      3  C5  UNL d   1      -4.410   5.997  -5.997  0.00  0.00     0.002 A 
ATOM      4  C6  UNL d   1      -5.437   5.056  -5.996  0.00  0.00    -0.004 A 
ATOM      5  C7  UNL d   1      -5.131   3.696  -6.000  0.00  0.00     0.002 A 
ATOM      6  C8  UNL d   1      -3.799   3.278  -5.993  0.00  0.00     0.002 A 
ENDROOT
BRANCH   1   7
ATOM      7  C2  UNL d   1      -1.319   3.760  -5.950  0.00  0.00     0.056 C 
BRANCH   7   8
ATOM      8  C1  UNL d   1      -0.735   3.638  -4.539  0.00  0.00     0.007 C 
ATOM      9  C   UNL d   1      -1.452   4.507  -3.515  0.00  0.00     0.009 C 
ENDBRANCH   7   8
ENDBRANCH   1   7
TORSDOF 2
ENDMDL
