MODEL 1
REMARK minimizedAffinity 5.12175179
REMARK minimizedRMSD -1
REMARK  2 active torsions:
REMARK  status: ('A' for Active; 'I' for Inactive)
REMARK    1  A    between atoms: C1_2  and  C2_3 
REMARK    2  A    between atoms: C2_3  and  C3_4 
ROOT
ATOM      1  C3  UNL d   1       1.317   3.392   3.248  0.00  0.00    -0.075 A 
ATOM      2  C4  UNL d   1       0.815   2.902   2.033  0.00  0.00     0.002 A 
ATOM      3  C5  UNL d   1      -0.557   2.725   1.854  0.00  0.00     0.002 A 
ATOM      4  C6  UNL d   1      -1.442   3.024   2.888  0.00  0.00    -0.004 A 
ATOM      5  C7  UNL d   1      -0.953   3.495   4.105  0.00  0.00     0.002 A 
ATOM      6  C8  UNL d   1       0.420   3.677   4.285  0.00  0.00     0.002 A 
ENDROOT
BRANCH   1   7
ATOM      7  C2  UNL d   1       2.799   3.614   3.438  0.00  0.00     0.056 C 
BRANCH   7   8
ATOM      8  C1  UNL d   1       3.671   2.951   2.366  0.00  0.00     0.007 C 
ATOM      9  C   UNL d   1       5.137   3.355   2.451  0.00  0.00     0.009 C 
ENDBRANCH   7   8
ENDBRANCH   1   7
TORSDOF 2
ENDMDL
