MODEL 1
REMARK minimizedAffinity -0.783509851
REMARK minimizedRMSD -1
REMARK  2 active torsions:
REMARK  status: ('A' for Active; 'I' for Inactive)
REMARK    1  A    between atoms: C1_2  and  C2_3 
REMARK    2  A    between atoms: C2_3  and  C3_4 
ROOT
ATOM      1  C3  UNL d   1       1.333   2.679   1.512  0.00  0.00    -0.075 A 
ATOM      2  C4  UNL d   1      -0.021   3.033   1.426  0.00  0.00     0.002 A 
ATOM      3  C5  UNL d   1      -0.908   2.266   0.670  0.00  0.00     0.002 A 
ATOM      4  C6  UNL d   1      -0.451   1.143  -0.017  0.00  0.00    -0.004 A 
ATOM      5  C7  UNL d   1       0.896   0.791   0.048  0.00  0.00     0.002 A 
ATOM      6  C8  UNL d   1       1.784   1.555   0.808  0.00  0.00     0.002 A 
ENDROOT
BRANCH   1   7
ATOM      7  C2  UNL d   1       2.292   3.489   2.352  0.00  0.00     0.056 C 
BRANCH   7   8
ATOM      8  C1  UNL d   1       3.748   3.021   2.263  0.00  0.00     0.007 C 
ATOM      9  C   UNL d   1       4.627   3.947   1.434  0.00  0.00     0.009 C 
ENDBRANCH   7   8
ENDBRANCH   1   7
TORSDOF 2
ENDMDL
