MODEL 1
REMARK minimizedAffinity 5.76418924
REMARK minimizedRMSD -1
REMARK  2 active torsions:
REMARK  status: ('A' for Active; 'I' for Inactive)
REMARK    1  A    between atoms: C1_2  and  C2_3 
REMARK    2  A    between atoms: C2_3  and  C3_4 
ROOT
ATOM      1  C3  UNL d   1       0.449   2.915   1.665  0.00  0.00    -0.075 A 
ATOM      2  C4  UNL d   1      -0.932   3.139   1.752  0.00  0.00     0.002 A 
ATOM      3  C5  UNL d   1      -1.835   2.206   1.242  0.00  0.00     0.002 A 
ATOM      4  C6  UNL d   1      -1.370   1.043   0.631  0.00  0.00    -0.004 A 
ATOM      5  C7  UNL d   1       0.001   0.818   0.524  0.00  0.00     0.002 A 
ATOM      6  C8  UNL d   1       0.907   1.748   1.037  0.00  0.00     0.002 A 
ENDROOT
BRANCH   1   7
ATOM      7  C2  UNL d   1       1.431   3.907   2.240  0.00  0.00     0.056 C 
BRANCH   7   8
ATOM      8  C1  UNL d   1       2.522   3.273   3.109  0.00  0.00     0.007 C 
ATOM      9  C   UNL d   1       3.920   3.430   2.527  0.00  0.00     0.009 C 
ENDBRANCH   7   8
ENDBRANCH   1   7
TORSDOF 2
ENDMDL
