MODEL 1
REMARK minimizedAffinity 1.30957341
REMARK minimizedRMSD -1
REMARK  2 active torsions:
REMARK  status: ('A' for Active; 'I' for Inactive)
REMARK    1  A    between atoms: C1_2  and  C2_3 
REMARK    2  A    between atoms: C2_3  and  C3_4 
ROOT
ATOM      1  C3  UNL d   1      -2.128   3.491  -5.989  0.00  0.00    -0.075 A 
ATOM      2  C4  UNL d   1      -1.553   4.770  -5.999  0.00  0.00     0.002 A 
ATOM      3  C5  UNL d   1      -2.359   5.909  -5.997  0.00  0.00     0.002 A 
ATOM      4  C6  UNL d   1      -3.747   5.784  -5.994  0.00  0.00    -0.004 A 
ATOM      5  C7  UNL d   1      -4.329   4.518  -6.000  0.00  0.00     0.002 A 
ATOM      6  C8  UNL d   1      -3.524   3.377  -5.998  0.00  0.00     0.002 A 
ENDROOT
BRANCH   1   7
ATOM      7  C2  UNL d   1      -1.261   2.255  -5.961  0.00  0.00     0.056 C 
BRANCH   7   8
ATOM      8  C1  UNL d   1       0.243   2.547  -5.999  0.00  0.00     0.007 C 
ATOM      9  C   UNL d   1       1.101   1.294  -5.884  0.00  0.00     0.009 C 
ENDBRANCH   7   8
ENDBRANCH   1   7
TORSDOF 2
ENDMDL
