MODEL 1
REMARK minimizedAffinity 1.0294888
REMARK minimizedRMSD -1
REMARK  2 active torsions:
REMARK  status: ('A' for Active; 'I' for Inactive)
REMARK    1  A    between atoms: C1_2  and  C2_3 
REMARK    2  A    between atoms: C2_3  and  C3_4 
ROOT
ATOM      1  C3  UNL d   1       1.123   3.446  -4.811  0.00  0.00    -0.075 A 
ATOM      2  C4  UNL d   1       1.817   2.874  -3.734  0.00  0.00     0.002 A 
ATOM      3  C5  UNL d   1       3.202   2.718  -3.787  0.00  0.00     0.002 A 
ATOM      4  C6  UNL d   1       3.909   3.121  -4.917  0.00  0.00    -0.004 A 
ATOM      5  C7  UNL d   1       3.229   3.676  -5.999  0.00  0.00     0.002 A 
ATOM      6  C8  UNL d   1       1.843   3.837  -5.948  0.00  0.00     0.002 A 
ENDROOT
BRANCH   1   7
ATOM      7  C2  UNL d   1      -0.372   3.645  -4.748  0.00  0.00     0.056 C 
BRANCH   7   8
ATOM      8  C1  UNL d   1      -1.118   3.165  -5.998  0.00  0.00     0.007 C 
ATOM      9  C   UNL d   1      -2.619   3.413  -5.933  0.00  0.00     0.009 C 
ENDBRANCH   7   8
ENDBRANCH   1   7
TORSDOF 2
ENDMDL
