MODEL 1
REMARK minimizedAffinity 4.79734516
REMARK minimizedRMSD -1
REMARK  2 active torsions:
REMARK  status: ('A' for Active; 'I' for Inactive)
REMARK    1  A    between atoms: C1_2  and  C2_3 
REMARK    2  A    between atoms: C2_3  and  C3_4 
ROOT
ATOM      1  C3  UNL d   1       2.814   1.239  -3.810  0.00  0.00    -0.075 A 
ATOM      2  C4  UNL d   1       2.416   1.978  -4.934  0.00  0.00     0.002 A 
ATOM      3  C5  UNL d   1       1.767   1.352  -5.999  0.00  0.00     0.002 A 
ATOM      4  C6  UNL d   1       1.518  -0.018  -5.959  0.00  0.00    -0.004 A 
ATOM      5  C7  UNL d   1       1.924  -0.764  -4.855  0.00  0.00     0.002 A 
ATOM      6  C8  UNL d   1       2.570  -0.140  -3.786  0.00  0.00     0.002 A 
ENDROOT
BRANCH   1   7
ATOM      7  C2  UNL d   1       3.490   1.915  -2.642  0.00  0.00     0.056 C 
BRANCH   7   8
ATOM      8  C1  UNL d   1       4.780   2.656  -3.010  0.00  0.00     0.007 C 
ATOM      9  C   UNL d   1       5.614   3.050  -1.798  0.00  0.00     0.009 C 
ENDBRANCH   7   8
ENDBRANCH   1   7
TORSDOF 2
ENDMDL
