MODEL 1
REMARK minimizedAffinity -4.35787582
REMARK minimizedRMSD -1
REMARK  0 active torsions:
REMARK  status: ('A' for Active; 'I' for Inactive)
ROOT
ATOM      1  C   UNL d   1       0.104   2.569   0.387  0.00  0.00     0.077 C 
ATOM      2  C1  UNL d   1       0.308   1.162  -0.091  0.00  0.00    -0.074 A 
ATOM      3  C2  UNL d   1       1.594   0.650  -0.293  0.00  0.00    -0.005 A 
ATOM      4  C3  UNL d   1       1.767  -0.663  -0.729  0.00  0.00     0.006 A 
ATOM      5  C4  UNL d   1       0.659  -1.477  -0.967  0.00  0.00    -0.005 A 
ATOM      6  C5  UNL d   1      -0.634  -0.983  -0.770  0.00  0.00    -0.074 A 
ATOM      7  C6  UNL d   1      -1.836  -1.847  -1.012  0.00  0.00     0.077 C 
ATOM      8  C7  UNL d   1      -0.800   0.336  -0.325  0.00  0.00    -0.001 A 
ENDROOT
TORSDOF 0
ENDMDL
