MODEL 1
REMARK minimizedAffinity -4.60767031
REMARK minimizedRMSD -1
REMARK  0 active torsions:
REMARK  status: ('A' for Active; 'I' for Inactive)
ROOT
ATOM      1  C   UNL d   1      -2.047  -1.020   2.802  0.00  0.00     0.077 C 
ATOM      2  C1  UNL d   1      -1.055  -0.483   1.813  0.00  0.00    -0.074 A 
ATOM      3  C2  UNL d   1      -0.739  -1.197   0.653  0.00  0.00    -0.005 A 
ATOM      4  C3  UNL d   1       0.179  -0.682  -0.263  0.00  0.00     0.006 A 
ATOM      5  C4  UNL d   1       0.788   0.552  -0.028  0.00  0.00    -0.005 A 
ATOM      6  C5  UNL d   1       0.483   1.280   1.126  0.00  0.00    -0.074 A 
ATOM      7  C6  UNL d   1       1.122   2.612   1.389  0.00  0.00     0.077 C 
ATOM      8  C7  UNL d   1      -0.445   0.758   2.038  0.00  0.00    -0.001 A 
ENDROOT
TORSDOF 0
ENDMDL
