MODEL 1
REMARK minimizedAffinity -4.1764884
REMARK minimizedRMSD -1
REMARK  0 active torsions:
REMARK  status: ('A' for Active; 'I' for Inactive)
ROOT
ATOM      1  C   UNL d   1       1.125   2.827   0.829  0.00  0.00     0.077 C 
ATOM      2  C1  UNL d   1       0.730   1.432   0.443  0.00  0.00    -0.074 A 
ATOM      3  C2  UNL d   1      -0.596   1.003   0.555  0.00  0.00    -0.005 A 
ATOM      4  C3  UNL d   1      -0.950  -0.294   0.184  0.00  0.00     0.006 A 
ATOM      5  C4  UNL d   1       0.018  -1.173  -0.304  0.00  0.00    -0.005 A 
ATOM      6  C5  UNL d   1       1.349  -0.762  -0.424  0.00  0.00    -0.074 A 
ATOM      7  C6  UNL d   1       2.399  -1.692  -0.955  0.00  0.00     0.077 C 
ATOM      8  C7  UNL d   1       1.695   0.545  -0.055  0.00  0.00    -0.001 A 
ENDROOT
TORSDOF 0
ENDMDL
