MODEL 1
REMARK minimizedAffinity -5.09807301
REMARK minimizedRMSD -1
REMARK  0 active torsions:
REMARK  status: ('A' for Active; 'I' for Inactive)
ROOT
ATOM      1  C   UNL d   1      -1.842  -1.783  -1.231  0.00  0.00     0.077 C 
ATOM      2  C1  UNL d   1      -0.524  -1.168  -0.868  0.00  0.00    -0.074 A 
ATOM      3  C2  UNL d   1       0.667  -1.892  -0.996  0.00  0.00    -0.005 A 
ATOM      4  C3  UNL d   1       1.887  -1.303  -0.664  0.00  0.00     0.006 A 
ATOM      5  C4  UNL d   1       1.929   0.012  -0.199  0.00  0.00    -0.005 A 
ATOM      6  C5  UNL d   1       0.749   0.751  -0.065  0.00  0.00    -0.074 A 
ATOM      7  C6  UNL d   1       0.778   2.169   0.423  0.00  0.00     0.077 C 
ATOM      8  C7  UNL d   1      -0.472   0.155  -0.408  0.00  0.00    -0.001 A 
ENDROOT
TORSDOF 0
ENDMDL
