MODEL 1
REMARK minimizedAffinity -4.79480743
REMARK minimizedRMSD -1
REMARK  0 active torsions:
REMARK  status: ('A' for Active; 'I' for Inactive)
ROOT
ATOM      1  C   UNL d   1       1.488   2.837   1.385  0.00  0.00     0.077 C 
ATOM      2  C1  UNL d   1       0.621   1.613   1.393  0.00  0.00    -0.074 A 
ATOM      3  C2  UNL d   1      -0.120   1.264   2.527  0.00  0.00    -0.005 A 
ATOM      4  C3  UNL d   1      -0.929   0.129   2.516  0.00  0.00     0.006 A 
ATOM      5  C4  UNL d   1      -1.007  -0.668   1.374  0.00  0.00    -0.005 A 
ATOM      6  C5  UNL d   1      -0.275  -0.335   0.230  0.00  0.00    -0.074 A 
ATOM      7  C6  UNL d   1      -0.355  -1.175  -1.010  0.00  0.00     0.077 C 
ATOM      8  C7  UNL d   1       0.531   0.812   0.246  0.00  0.00    -0.001 A 
ENDROOT
TORSDOF 0
ENDMDL
