MODEL 1
REMARK minimizedAffinity -3.80678821
REMARK minimizedRMSD -1
REMARK  0 active torsions:
REMARK  status: ('A' for Active; 'I' for Inactive)
ROOT
ATOM      1  C   UNL d   1      -3.921  -3.594  -0.847  0.00  0.00     0.077 C 
ATOM      2  C1  UNL d   1      -2.929  -2.747  -1.586  0.00  0.00    -0.074 A 
ATOM      3  C2  UNL d   1      -3.056  -2.524  -2.961  0.00  0.00    -0.005 A 
ATOM      4  C3  UNL d   1      -2.131  -1.725  -3.633  0.00  0.00     0.006 A 
ATOM      5  C4  UNL d   1      -1.070  -1.143  -2.938  0.00  0.00    -0.005 A 
ATOM      6  C5  UNL d   1      -0.926  -1.354  -1.563  0.00  0.00    -0.074 A 
ATOM      7  C6  UNL d   1       0.203  -0.728  -0.800  0.00  0.00     0.077 C 
ATOM      8  C7  UNL d   1      -1.864  -2.152  -0.894  0.00  0.00    -0.001 A 
ENDROOT
TORSDOF 0
ENDMDL
