MODEL 1
REMARK minimizedAffinity -5.92705631
REMARK minimizedRMSD -1
REMARK  0 active torsions:
REMARK  status: ('A' for Active; 'I' for Inactive)
ROOT
ATOM      1  C   UNL d   1      -0.828  -1.180  -0.525  0.00  0.00     0.077 C 
ATOM      2  C1  UNL d   1      -0.418  -0.022   0.335  0.00  0.00    -0.074 A 
ATOM      3  C2  UNL d   1      -1.194   0.371   1.430  0.00  0.00    -0.005 A 
ATOM      4  C3  UNL d   1      -0.795   1.444   2.226  0.00  0.00     0.006 A 
ATOM      5  C4  UNL d   1       0.383   2.135   1.937  0.00  0.00    -0.005 A 
ATOM      6  C5  UNL d   1       1.172   1.756   0.847  0.00  0.00    -0.074 A 
ATOM      7  C6  UNL d   1       2.446   2.481   0.527  0.00  0.00     0.077 C 
ATOM      8  C7  UNL d   1       0.768   0.672   0.055  0.00  0.00    -0.001 A 
ENDROOT
TORSDOF 0
ENDMDL
