MODEL 1
REMARK minimizedAffinity -4.08501244
REMARK minimizedRMSD -1
REMARK  0 active torsions:
REMARK  status: ('A' for Active; 'I' for Inactive)
ROOT
ATOM      1  C   UNL d   1       0.812   2.125   1.116  0.00  0.00     0.077 C 
ATOM      2  C1  UNL d   1       0.838   0.780   0.451  0.00  0.00    -0.074 A 
ATOM      3  C2  UNL d   1       1.978   0.334  -0.225  0.00  0.00    -0.005 A 
ATOM      4  C3  UNL d   1       1.990  -0.923  -0.830  0.00  0.00     0.006 A 
ATOM      5  C4  UNL d   1       0.864  -1.744  -0.765  0.00  0.00    -0.005 A 
ATOM      6  C5  UNL d   1      -0.285  -1.315  -0.093  0.00  0.00    -0.074 A 
ATOM      7  C6  UNL d   1      -1.500  -2.190  -0.006  0.00  0.00     0.077 C 
ATOM      8  C7  UNL d   1      -0.287  -0.054   0.518  0.00  0.00    -0.001 A 
ENDROOT
TORSDOF 0
ENDMDL
