MODEL 1
REMARK minimizedAffinity -3.83197904
REMARK minimizedRMSD -1
REMARK  0 active torsions:
REMARK  status: ('A' for Active; 'I' for Inactive)
ROOT
ATOM      1  C   UNL d   1       0.400   0.821   3.608  0.00  0.00     0.077 C 
ATOM      2  C1  UNL d   1       0.423   0.937   2.113  0.00  0.00    -0.074 A 
ATOM      3  C2  UNL d   1       1.028   2.032   1.486  0.00  0.00    -0.005 A 
ATOM      4  C3  UNL d   1       1.050   2.122   0.095  0.00  0.00     0.006 A 
ATOM      5  C4  UNL d   1       0.469   1.119  -0.684  0.00  0.00    -0.005 A 
ATOM      6  C5  UNL d   1      -0.139   0.017  -0.075  0.00  0.00    -0.074 A 
ATOM      7  C6  UNL d   1      -0.759  -1.074  -0.897  0.00  0.00     0.077 C 
ATOM      8  C7  UNL d   1      -0.151  -0.070   1.324  0.00  0.00    -0.001 A 
ENDROOT
TORSDOF 0
ENDMDL
