MODEL 1
REMARK minimizedAffinity -0.452184588
REMARK minimizedRMSD -1
REMARK  0 active torsions:
REMARK  status: ('A' for Active; 'I' for Inactive)
ROOT
ATOM      1  C   UNL d   1       0.173  -1.448  -1.041  0.00  0.00     0.077 C 
ATOM      2  C1  UNL d   1      -1.023  -1.492  -1.946  0.00  0.00    -0.074 A 
ATOM      3  C2  UNL d   1      -0.933  -1.072  -3.277  0.00  0.00    -0.005 A 
ATOM      4  C3  UNL d   1      -2.051  -1.129  -4.109  0.00  0.00     0.006 A 
ATOM      5  C4  UNL d   1      -3.268  -1.604  -3.619  0.00  0.00    -0.005 A 
ATOM      6  C5  UNL d   1      -3.377  -2.030  -2.291  0.00  0.00    -0.074 A 
ATOM      7  C6  UNL d   1      -4.675  -2.553  -1.752  0.00  0.00     0.077 C 
ATOM      8  C7  UNL d   1      -2.247  -1.977  -1.464  0.00  0.00    -0.001 A 
ENDROOT
TORSDOF 0
ENDMDL
