MODEL 1
REMARK minimizedAffinity -4.62974405
REMARK minimizedRMSD -1
REMARK  0 active torsions:
REMARK  status: ('A' for Active; 'I' for Inactive)
ROOT
ATOM      1  C   UNL d   1      -1.296  -1.561  -0.599  0.00  0.00     0.077 C 
ATOM      2  C1  UNL d   1      -0.197  -0.577  -0.328  0.00  0.00    -0.074 A 
ATOM      3  C2  UNL d   1       1.109  -0.820  -0.763  0.00  0.00    -0.005 A 
ATOM      4  C3  UNL d   1       2.119   0.110  -0.511  0.00  0.00     0.006 A 
ATOM      5  C4  UNL d   1       1.832   1.289   0.176  0.00  0.00    -0.005 A 
ATOM      6  C5  UNL d   1       0.531   1.550   0.618  0.00  0.00    -0.074 A 
ATOM      7  C6  UNL d   1       0.204   2.818   1.350  0.00  0.00     0.077 C 
ATOM      8  C7  UNL d   1      -0.479   0.615   0.356  0.00  0.00    -0.001 A 
ENDROOT
TORSDOF 0
ENDMDL
