MODEL 1
REMARK minimizedAffinity -5.5081706
REMARK minimizedRMSD -1
REMARK  0 active torsions:
REMARK  status: ('A' for Active; 'I' for Inactive)
ROOT
ATOM      1  C   UNL d   1       1.068  -1.542  -0.707  0.00  0.00     0.077 C 
ATOM      2  C1  UNL d   1       1.115  -0.263   0.076  0.00  0.00    -0.074 A 
ATOM      3  C2  UNL d   1       2.249   0.555   0.050  0.00  0.00    -0.005 A 
ATOM      4  C3  UNL d   1       2.274   1.746   0.776  0.00  0.00     0.006 A 
ATOM      5  C4  UNL d   1       1.167   2.131   1.533  0.00  0.00    -0.005 A 
ATOM      6  C5  UNL d   1       0.023   1.326   1.569  0.00  0.00    -0.074 A 
ATOM      7  C6  UNL d   1      -1.179   1.730   2.370  0.00  0.00     0.077 C 
ATOM      8  C7  UNL d   1       0.003   0.135   0.832  0.00  0.00    -0.001 A 
ENDROOT
TORSDOF 0
ENDMDL
