MODEL 1
REMARK minimizedAffinity -2.97888637
REMARK minimizedRMSD -1
REMARK  0 active torsions:
REMARK  status: ('A' for Active; 'I' for Inactive)
ROOT
ATOM      1  C   UNL d   1      -0.502  -1.452  -0.526  0.00  0.00     0.077 C 
ATOM      2  C1  UNL d   1      -0.123  -0.115   0.037  0.00  0.00    -0.074 A 
ATOM      3  C2  UNL d   1       0.580   0.817  -0.733  0.00  0.00    -0.005 A 
ATOM      4  C3  UNL d   1       0.917   2.060  -0.199  0.00  0.00     0.006 A 
ATOM      5  C4  UNL d   1       0.554   2.385   1.109  0.00  0.00    -0.005 A 
ATOM      6  C5  UNL d   1      -0.151   1.467   1.894  0.00  0.00    -0.074 A 
ATOM      7  C6  UNL d   1      -0.557   1.803   3.298  0.00  0.00     0.077 C 
ATOM      8  C7  UNL d   1      -0.492   0.222   1.347  0.00  0.00    -0.001 A 
ENDROOT
TORSDOF 0
ENDMDL
