MODEL 1
REMARK minimizedAffinity -2.90516949
REMARK minimizedRMSD -1
REMARK  0 active torsions:
REMARK  status: ('A' for Active; 'I' for Inactive)
ROOT
ATOM      1  C   UNL d   1      -0.887   1.985  -0.100  0.00  0.00     0.077 C 
ATOM      2  C1  UNL d   1      -0.774   0.530  -0.445  0.00  0.00    -0.074 A 
ATOM      3  C2  UNL d   1       0.203  -0.276   0.149  0.00  0.00    -0.005 A 
ATOM      4  C3  UNL d   1       0.289  -1.630  -0.174  0.00  0.00     0.006 A 
ATOM      5  C4  UNL d   1      -0.598  -2.191  -1.094  0.00  0.00    -0.005 A 
ATOM      6  C5  UNL d   1      -1.582  -1.401  -1.697  0.00  0.00    -0.074 A 
ATOM      7  C6  UNL d   1      -2.550  -1.990  -2.680  0.00  0.00     0.077 C 
ATOM      8  C7  UNL d   1      -1.667  -0.042  -1.361  0.00  0.00    -0.001 A 
ENDROOT
TORSDOF 0
ENDMDL
