MODEL 1
REMARK minimizedAffinity 3.70776248
REMARK minimizedRMSD -1
REMARK  0 active torsions:
REMARK  status: ('A' for Active; 'I' for Inactive)
ROOT
ATOM      1  C   UNL d   1       1.794   1.657  -0.107  0.00  0.00     0.077 C 
ATOM      2  C1  UNL d   1       2.144   0.634   0.932  0.00  0.00    -0.074 A 
ATOM      3  C2  UNL d   1       1.212  -0.325   1.340  0.00  0.00    -0.005 A 
ATOM      4  C3  UNL d   1       1.556  -1.276   2.301  0.00  0.00     0.006 A 
ATOM      5  C4  UNL d   1       2.833  -1.277   2.862  0.00  0.00    -0.005 A 
ATOM      6  C5  UNL d   1       3.779  -0.327   2.466  0.00  0.00    -0.074 A 
ATOM      7  C6  UNL d   1       5.160  -0.320   3.052  0.00  0.00     0.077 C 
ATOM      8  C7  UNL d   1       3.428   0.621   1.495  0.00  0.00    -0.001 A 
ENDROOT
TORSDOF 0
ENDMDL
