MODEL 1
REMARK minimizedAffinity 3.06464076
REMARK minimizedRMSD -1
REMARK  0 active torsions:
REMARK  status: ('A' for Active; 'I' for Inactive)
ROOT
ATOM      1  C   UNL d   1       1.931  -1.707   2.853  0.00  0.00     0.077 C 
ATOM      2  C1  UNL d   1       3.075  -0.853   2.393  0.00  0.00    -0.074 A 
ATOM      3  C2  UNL d   1       4.355  -1.014   2.935  0.00  0.00    -0.005 A 
ATOM      4  C3  UNL d   1       5.412  -0.220   2.491  0.00  0.00     0.006 A 
ATOM      5  C4  UNL d   1       5.200   0.742   1.502  0.00  0.00    -0.005 A 
ATOM      6  C5  UNL d   1       3.928   0.917   0.948  0.00  0.00    -0.074 A 
ATOM      7  C6  UNL d   1       3.686   1.939  -0.122  0.00  0.00     0.077 C 
ATOM      8  C7  UNL d   1       2.873   0.110   1.395  0.00  0.00    -0.001 A 
ENDROOT
TORSDOF 0
ENDMDL
