MODEL 1
REMARK minimizedAffinity 9.25029945
REMARK minimizedRMSD -1
REMARK  0 active torsions:
REMARK  status: ('A' for Active; 'I' for Inactive)
ROOT
ATOM      1  C   UNL d   1       1.905   1.965  -0.573  0.00  0.00     0.077 C 
ATOM      2  C1  UNL d   1       2.212   0.884   0.420  0.00  0.00    -0.074 A 
ATOM      3  C2  UNL d   1       1.400  -0.250   0.522  0.00  0.00    -0.005 A 
ATOM      4  C3  UNL d   1       1.704  -1.252   1.444  0.00  0.00     0.006 A 
ATOM      5  C4  UNL d   1       2.820  -1.130   2.272  0.00  0.00    -0.005 A 
ATOM      6  C5  UNL d   1       3.644  -0.003   2.184  0.00  0.00    -0.074 A 
ATOM      7  C6  UNL d   1       4.854   0.139   3.060  0.00  0.00     0.077 C 
ATOM      8  C7  UNL d   1       3.337   0.996   1.250  0.00  0.00    -0.001 A 
ENDROOT
TORSDOF 0
ENDMDL
