MODEL 1
REMARK minimizedAffinity -2.85203958
REMARK minimizedRMSD -1
REMARK  0 active torsions:
REMARK  status: ('A' for Active; 'I' for Inactive)
ROOT
ATOM      1  C   UNL d   1       5.784   0.372   2.340  0.00  0.00     0.077 C 
ATOM      2  C1  UNL d   1       4.382   0.037   1.926  0.00  0.00    -0.074 A 
ATOM      3  C2  UNL d   1       3.713   0.804   0.967  0.00  0.00    -0.005 A 
ATOM      4  C3  UNL d   1       2.413   0.475   0.586  0.00  0.00     0.006 A 
ATOM      5  C4  UNL d   1       1.769  -0.623   1.158  0.00  0.00    -0.005 A 
ATOM      6  C5  UNL d   1       2.422  -1.402   2.118  0.00  0.00    -0.074 A 
ATOM      7  C6  UNL d   1       1.748  -2.591   2.736  0.00  0.00     0.077 C 
ATOM      8  C7  UNL d   1       3.732  -1.069   2.491  0.00  0.00    -0.001 A 
ENDROOT
TORSDOF 0
ENDMDL
