MODEL 1
REMARK minimizedAffinity 6.33375835
REMARK minimizedRMSD -1
REMARK  0 active torsions:
REMARK  status: ('A' for Active; 'I' for Inactive)
ROOT
ATOM      1  C   UNL d   1       1.208  -0.428   1.877  0.00  0.00     0.077 C 
ATOM      2  C1  UNL d   1       2.634  -0.014   1.661  0.00  0.00    -0.074 A 
ATOM      3  C2  UNL d   1       2.994   0.779   0.566  0.00  0.00    -0.005 A 
ATOM      4  C3  UNL d   1       4.322   1.163   0.383  0.00  0.00     0.006 A 
ATOM      5  C4  UNL d   1       5.302   0.760   1.291  0.00  0.00    -0.005 A 
ATOM      6  C5  UNL d   1       4.960  -0.032   2.392  0.00  0.00    -0.074 A 
ATOM      7  C6  UNL d   1       6.000  -0.466   3.383  0.00  0.00     0.077 C 
ATOM      8  C7  UNL d   1       3.623  -0.408   2.573  0.00  0.00    -0.001 A 
ENDROOT
TORSDOF 0
ENDMDL
