MODEL 1
REMARK minimizedAffinity 1.16868103
REMARK minimizedRMSD -1
REMARK  0 active torsions:
REMARK  status: ('A' for Active; 'I' for Inactive)
ROOT
ATOM      1  C   UNL d   1       5.999   0.164   3.057  0.00  0.00     0.077 C 
ATOM      2  C1  UNL d   1       4.749   0.017   2.241  0.00  0.00    -0.074 A 
ATOM      3  C2  UNL d   1       4.499   0.857   1.152  0.00  0.00    -0.005 A 
ATOM      4  C3  UNL d   1       3.336   0.703   0.397  0.00  0.00     0.006 A 
ATOM      5  C4  UNL d   1       2.413  -0.292   0.723  0.00  0.00    -0.005 A 
ATOM      6  C5  UNL d   1       2.647  -1.142   1.809  0.00  0.00    -0.074 A 
ATOM      7  C6  UNL d   1       1.670  -2.222   2.167  0.00  0.00     0.077 C 
ATOM      8  C7  UNL d   1       3.821  -0.985   2.558  0.00  0.00    -0.001 A 
ENDROOT
TORSDOF 0
ENDMDL
