MODEL 1
REMARK minimizedAffinity 2.1939683
REMARK minimizedRMSD -1
REMARK  0 active torsions:
REMARK  status: ('A' for Active; 'I' for Inactive)
ROOT
ATOM      1  C   UNL d   1      -5.371   3.279   1.732  0.00  0.00     0.077 C 
ATOM      2  C1  UNL d   1      -5.584   3.286   3.216  0.00  0.00    -0.074 A 
ATOM      3  C2  UNL d   1      -5.660   2.090   3.937  0.00  0.00    -0.005 A 
ATOM      4  C3  UNL d   1      -5.848   2.112   5.319  0.00  0.00     0.006 A 
ATOM      5  C4  UNL d   1      -5.962   3.329   5.993  0.00  0.00    -0.005 A 
ATOM      6  C5  UNL d   1      -5.888   4.535   5.289  0.00  0.00    -0.074 A 
ATOM      7  C6  UNL d   1      -5.999   5.852   5.999  0.00  0.00     0.077 C 
ATOM      8  C7  UNL d   1      -5.692   4.504   3.902  0.00  0.00    -0.001 A 
ENDROOT
TORSDOF 0
ENDMDL
