MODEL 1
REMARK minimizedAffinity 11.9221716
REMARK minimizedRMSD -1
REMARK  0 active torsions:
REMARK  status: ('A' for Active; 'I' for Inactive)
ROOT
ATOM      1  C   UNL d   1      -5.527   3.185   5.379  0.00  0.00     0.077 C 
ATOM      2  C1  UNL d   1      -5.626   2.637   3.986  0.00  0.00    -0.074 A 
ATOM      3  C2  UNL d   1      -5.919   3.473   2.904  0.00  0.00    -0.005 A 
ATOM      4  C3  UNL d   1      -6.000   2.951   1.613  0.00  0.00     0.006 A 
ATOM      5  C4  UNL d   1      -5.788   1.590   1.392  0.00  0.00    -0.005 A 
ATOM      6  C5  UNL d   1      -5.493   0.739   2.461  0.00  0.00    -0.074 A 
ATOM      7  C6  UNL d   1      -5.253  -0.725   2.239  0.00  0.00     0.077 C 
ATOM      8  C7  UNL d   1      -5.407   1.272   3.754  0.00  0.00    -0.001 A 
ENDROOT
TORSDOF 0
ENDMDL
