MODEL 1
REMARK minimizedAffinity 11.7681866
REMARK minimizedRMSD -1
REMARK  0 active torsions:
REMARK  status: ('A' for Active; 'I' for Inactive)
ROOT
ATOM      1  C   UNL d   1       1.215   1.603   0.480  0.00  0.00     0.077 C 
ATOM      2  C1  UNL d   1       1.663   0.426   1.295  0.00  0.00    -0.074 A 
ATOM      3  C2  UNL d   1       0.846  -0.698   1.445  0.00  0.00    -0.005 A 
ATOM      4  C3  UNL d   1       1.280  -1.789   2.198  0.00  0.00     0.006 A 
ATOM      5  C4  UNL d   1       2.535  -1.766   2.808  0.00  0.00    -0.005 A 
ATOM      6  C5  UNL d   1       3.367  -0.650   2.668  0.00  0.00    -0.074 A 
ATOM      7  C6  UNL d   1       4.723  -0.614   3.309  0.00  0.00     0.077 C 
ATOM      8  C7  UNL d   1       2.926   0.438   1.904  0.00  0.00    -0.001 A 
ENDROOT
TORSDOF 0
ENDMDL
