MODEL 1
REMARK minimizedAffinity 4.65089417
REMARK minimizedRMSD -1
REMARK  0 active torsions:
REMARK  status: ('A' for Active; 'I' for Inactive)
ROOT
ATOM      1  C   UNL d   1       5.807  -0.003   3.011  0.00  0.00     0.077 C 
ATOM      2  C1  UNL d   1       4.411  -0.041   2.465  0.00  0.00    -0.074 A 
ATOM      3  C2  UNL d   1       3.438  -0.868   3.036  0.00  0.00    -0.005 A 
ATOM      4  C3  UNL d   1       2.141  -0.886   2.523  0.00  0.00     0.006 A 
ATOM      5  C4  UNL d   1       1.804  -0.078   1.437  0.00  0.00    -0.005 A 
ATOM      6  C5  UNL d   1       2.763   0.757   0.854  0.00  0.00    -0.074 A 
ATOM      7  C6  UNL d   1       2.415   1.639  -0.308  0.00  0.00     0.077 C 
ATOM      8  C7  UNL d   1       4.062   0.774   1.379  0.00  0.00    -0.001 A 
ENDROOT
TORSDOF 0
ENDMDL
