MODEL 1
REMARK minimizedAffinity 6.61019468
REMARK minimizedRMSD -1
REMARK  0 active torsions:
REMARK  status: ('A' for Active; 'I' for Inactive)
ROOT
ATOM      1  C   UNL d   1      -1.378   4.512   4.788  0.00  0.00     0.077 C 
ATOM      2  C1  UNL d   1      -2.858   4.273   4.808  0.00  0.00    -0.074 A 
ATOM      3  C2  UNL d   1      -3.586   4.371   5.998  0.00  0.00    -0.005 A 
ATOM      4  C3  UNL d   1      -4.964   4.156   6.000  0.00  0.00     0.006 A 
ATOM      5  C4  UNL d   1      -5.627   3.840   4.813  0.00  0.00    -0.005 A 
ATOM      6  C5  UNL d   1      -4.916   3.739   3.613  0.00  0.00    -0.074 A 
ATOM      7  C6  UNL d   1      -5.615   3.410   2.327  0.00  0.00     0.077 C 
ATOM      8  C7  UNL d   1      -3.533   3.964   3.619  0.00  0.00    -0.001 A 
ENDROOT
TORSDOF 0
ENDMDL
