MODEL 1
REMARK minimizedAffinity 4.32121181
REMARK minimizedRMSD -1
REMARK  0 active torsions:
REMARK  status: ('A' for Active; 'I' for Inactive)
ROOT
ATOM      1  C   UNL d   1       4.096   2.494   0.458  0.00  0.00     0.077 C 
ATOM      2  C1  UNL d   1       4.111   1.222   1.253  0.00  0.00    -0.074 A 
ATOM      3  C2  UNL d   1       5.318   0.637   1.649  0.00  0.00    -0.005 A 
ATOM      4  C3  UNL d   1       5.317  -0.541   2.397  0.00  0.00     0.006 A 
ATOM      5  C4  UNL d   1       4.111  -1.144   2.755  0.00  0.00    -0.005 A 
ATOM      6  C5  UNL d   1       2.894  -0.573   2.368  0.00  0.00    -0.074 A 
ATOM      7  C6  UNL d   1       1.588  -1.204   2.753  0.00  0.00     0.077 C 
ATOM      8  C7  UNL d   1       2.904   0.614   1.623  0.00  0.00    -0.001 A 
ENDROOT
TORSDOF 0
ENDMDL
