MODEL 1
REMARK minimizedAffinity 1.34328449
REMARK minimizedRMSD -1
REMARK  0 active torsions:
REMARK  status: ('A' for Active; 'I' for Inactive)
ROOT
ATOM      1  C   UNL d   1      -3.722  -1.603   1.684  0.00  0.00     0.077 C 
ATOM      2  C1  UNL d   1      -3.698  -1.590   3.183  0.00  0.00    -0.074 A 
ATOM      3  C2  UNL d   1      -3.373  -2.742   3.907  0.00  0.00    -0.005 A 
ATOM      4  C3  UNL d   1      -3.345  -2.713   5.301  0.00  0.00     0.006 A 
ATOM      5  C4  UNL d   1      -3.641  -1.533   5.985  0.00  0.00    -0.005 A 
ATOM      6  C5  UNL d   1      -3.967  -0.371   5.279  0.00  0.00    -0.074 A 
ATOM      7  C6  UNL d   1      -4.278   0.907   5.998  0.00  0.00     0.077 C 
ATOM      8  C7  UNL d   1      -3.986  -0.407   3.878  0.00  0.00    -0.001 A 
ENDROOT
TORSDOF 0
ENDMDL
