MODEL 1
REMARK minimizedAffinity 1.47601938
REMARK minimizedRMSD -1
REMARK  0 active torsions:
REMARK  status: ('A' for Active; 'I' for Inactive)
ROOT
ATOM      1  C   UNL d   1      -4.360   2.525   6.000  0.00  0.00     0.077 C 
ATOM      2  C1  UNL d   1      -4.916   2.253   4.634  0.00  0.00    -0.074 A 
ATOM      3  C2  UNL d   1      -5.495   3.277   3.877  0.00  0.00    -0.005 A 
ATOM      4  C3  UNL d   1      -6.000   3.011   2.604  0.00  0.00     0.006 A 
ATOM      5  C4  UNL d   1      -5.931   1.721   2.076  0.00  0.00    -0.005 A 
ATOM      6  C5  UNL d   1      -5.355   0.685   2.818  0.00  0.00    -0.074 A 
ATOM      7  C6  UNL d   1      -5.264  -0.705   2.262  0.00  0.00     0.077 C 
ATOM      8  C7  UNL d   1      -4.844   0.962   4.093  0.00  0.00    -0.001 A 
ENDROOT
TORSDOF 0
ENDMDL
