MODEL 1
REMARK minimizedAffinity 1.6966778
REMARK minimizedRMSD -1
REMARK  0 active torsions:
REMARK  status: ('A' for Active; 'I' for Inactive)
ROOT
ATOM      1  C   UNL d   1       0.109   4.224  -3.454  0.00  0.00     0.077 C 
ATOM      2  C1  UNL d   1       1.209   3.722  -4.341  0.00  0.00    -0.074 A 
ATOM      3  C2  UNL d   1       1.906   4.592  -5.185  0.00  0.00    -0.005 A 
ATOM      4  C3  UNL d   1       2.933   4.112  -5.998  0.00  0.00     0.006 A 
ATOM      5  C4  UNL d   1       3.273   2.759  -5.974  0.00  0.00    -0.005 A 
ATOM      6  C5  UNL d   1       2.588   1.874  -5.136  0.00  0.00    -0.074 A 
ATOM      7  C6  UNL d   1       2.948   0.419  -5.091  0.00  0.00     0.077 C 
ATOM      8  C7  UNL d   1       1.562   2.365  -4.317  0.00  0.00    -0.001 A 
ENDROOT
TORSDOF 0
ENDMDL
