MODEL 1
REMARK minimizedAffinity 8.23146725
REMARK minimizedRMSD -1
REMARK  0 active torsions:
REMARK  status: ('A' for Active; 'I' for Inactive)
ROOT
ATOM      1  C   UNL d   1      -2.000   4.901  -2.961  0.00  0.00     0.172 C 
ATOM      2  N   UNL d   1      -0.916   4.409  -2.143  0.00  0.00    -0.070 N 
ATOM      3  C1  UNL d   1       0.415   4.475  -2.458  0.00  0.00    -0.004 A 
ATOM      4  C2  UNL d   1       1.122   3.901  -1.423  0.00  0.00    -0.047 A 
ATOM      5  C3  UNL d   1       0.183   3.475  -0.454  0.00  0.00    -0.047 A 
ATOM      6  C4  UNL d   1      -1.071   3.802  -0.925  0.00  0.00    -0.004 A 
ENDROOT
TORSDOF 0
ENDMDL
