MODEL 1
REMARK minimizedAffinity 0.995052874
REMARK minimizedRMSD -1
REMARK  0 active torsions:
REMARK  status: ('A' for Active; 'I' for Inactive)
ROOT
ATOM      1  C   UNL d   1      -2.496  -5.879  -5.546  0.00  0.00     0.172 C 
ATOM      2  N   UNL d   1      -3.804  -5.290  -5.713  0.00  0.00    -0.070 N 
ATOM      3  C1  UNL d   1      -4.078  -3.949  -5.743  0.00  0.00    -0.004 A 
ATOM      4  C2  UNL d   1      -5.436  -3.800  -5.920  0.00  0.00    -0.047 A 
ATOM      5  C3  UNL d   1      -5.998  -5.096  -5.998  0.00  0.00    -0.047 A 
ATOM      6  C4  UNL d   1      -4.965  -6.000  -5.867  0.00  0.00    -0.004 A 
ENDROOT
TORSDOF 0
ENDMDL
