MODEL 1
REMARK minimizedAffinity 2.30774236
REMARK minimizedRMSD -1
REMARK  0 active torsions:
REMARK  status: ('A' for Active; 'I' for Inactive)
ROOT
ATOM      1  C   UNL d   1      -1.077  -4.867  -5.970  0.00  0.00     0.172 C 
ATOM      2  N   UNL d   1      -2.521  -4.871  -5.980  0.00  0.00    -0.070 N 
ATOM      3  C1  UNL d   1      -3.322  -3.761  -5.991  0.00  0.00    -0.004 A 
ATOM      4  C2  UNL d   1      -4.633  -4.187  -5.999  0.00  0.00    -0.047 A 
ATOM      5  C3  UNL d   1      -4.618  -5.602  -5.991  0.00  0.00    -0.047 A 
ATOM      6  C4  UNL d   1      -3.298  -5.999  -5.979  0.00  0.00    -0.004 A 
ENDROOT
TORSDOF 0
ENDMDL
