MODEL 1
REMARK minimizedAffinity 2.56315446
REMARK minimizedRMSD -1
REMARK  0 active torsions:
REMARK  status: ('A' for Active; 'I' for Inactive)
ROOT
ATOM      1  C   UNL d   1      -4.142   5.376  -2.043  0.00  0.00     0.172 C 
ATOM      2  N   UNL d   1      -3.719   5.605  -0.681  0.00  0.00    -0.070 N 
ATOM      3  C1  UNL d   1      -4.549   5.830   0.385  0.00  0.00    -0.004 A 
ATOM      4  C2  UNL d   1      -3.761   6.000   1.503  0.00  0.00    -0.047 A 
ATOM      5  C3  UNL d   1      -2.412   5.873   1.095  0.00  0.00    -0.047 A 
ATOM      6  C4  UNL d   1      -2.415   5.629  -0.262  0.00  0.00    -0.004 A 
ENDROOT
TORSDOF 0
ENDMDL
