MODEL 1
REMARK minimizedAffinity 1.58241177
REMARK minimizedRMSD -1
REMARK  0 active torsions:
REMARK  status: ('A' for Active; 'I' for Inactive)
ROOT
ATOM      1  C   UNL d   1      -0.384   2.878  -0.063  0.00  0.00     0.172 C 
ATOM      2  N   UNL d   1      -0.406   4.143  -0.759  0.00  0.00    -0.070 N 
ATOM      3  C1  UNL d   1       0.695   4.853  -1.160  0.00  0.00    -0.004 A 
ATOM      4  C2  UNL d   1       0.253   5.998  -1.787  0.00  0.00    -0.047 A 
ATOM      5  C3  UNL d   1      -1.162   5.976  -1.761  0.00  0.00    -0.047 A 
ATOM      6  C4  UNL d   1      -1.543   4.817  -1.119  0.00  0.00    -0.004 A 
ENDROOT
TORSDOF 0
ENDMDL
