MODEL 1
REMARK minimizedAffinity 3.33047748
REMARK minimizedRMSD -1
REMARK  0 active torsions:
REMARK  status: ('A' for Active; 'I' for Inactive)
ROOT
ATOM      1  C   UNL d   1       1.422   0.725  -0.602  0.00  0.00     0.172 C 
ATOM      2  N   UNL d   1       0.666   1.934  -0.373  0.00  0.00    -0.070 N 
ATOM      3  C1  UNL d   1      -0.699   2.026  -0.328  0.00  0.00    -0.004 A 
ATOM      4  C2  UNL d   1      -1.027   3.343  -0.089  0.00  0.00    -0.047 A 
ATOM      5  C3  UNL d   1       0.184   4.068   0.012  0.00  0.00    -0.047 A 
ATOM      6  C4  UNL d   1       1.216   3.172  -0.168  0.00  0.00    -0.004 A 
ENDROOT
TORSDOF 0
ENDMDL
