MODEL 1
REMARK minimizedAffinity 4.64287281
REMARK minimizedRMSD -1
REMARK  0 active torsions:
REMARK  status: ('A' for Active; 'I' for Inactive)
ROOT
ATOM      1  C   UNL d   1       1.056   4.413  -1.240  0.00  0.00     0.172 C 
ATOM      2  N   UNL d   1       0.268   3.490  -0.457  0.00  0.00    -0.070 N 
ATOM      3  C1  UNL d   1      -1.094   3.522  -0.318  0.00  0.00    -0.004 A 
ATOM      4  C2  UNL d   1      -1.458   2.478   0.505  0.00  0.00    -0.047 A 
ATOM      5  C3  UNL d   1      -0.275   1.796   0.873  0.00  0.00    -0.047 A 
ATOM      6  C4  UNL d   1       0.779   2.444   0.264  0.00  0.00    -0.004 A 
ENDROOT
TORSDOF 0
ENDMDL
