MODEL 1
REMARK minimizedAffinity -0.90858531
REMARK minimizedRMSD -1
REMARK  1 active torsions:
REMARK  status: ('A' for Active; 'I' for Inactive)
REMARK    1  A    between atoms: C1_2  and  C2_3 
ROOT
ATOM      1  C2  UNL d   1       2.253  -0.791  -0.449  0.00  0.00    -0.077 A 
ATOM      2  C3  UNL d   1       2.570   0.533  -0.115  0.00  0.00     0.002 A 
ATOM      3  C4  UNL d   1       1.786   1.238   0.800  0.00  0.00     0.002 A 
ATOM      4  C5  UNL d   1       0.684   0.626   1.392  0.00  0.00    -0.004 A 
ATOM      5  C6  UNL d   1       0.359  -0.690   1.066  0.00  0.00     0.002 A 
ATOM      6  C7  UNL d   1       1.140  -1.396   0.150  0.00  0.00     0.002 A 
ENDROOT
BRANCH   1   7
ATOM      7  C1  UNL d   1       3.125  -1.569  -1.399  0.00  0.00     0.055 C 
ATOM      8  C   UNL d   1       4.356  -0.770  -1.802  0.00  0.00     0.019 C 
ENDBRANCH   1   7
TORSDOF 1
ENDMDL
