MODEL 1
REMARK minimizedAffinity -0.109442458
REMARK minimizedRMSD -1
REMARK  1 active torsions:
REMARK  status: ('A' for Active; 'I' for Inactive)
REMARK    1  A    between atoms: C1_2  and  C2_3 
ROOT
ATOM      1  C2  UNL d   1       2.420  -0.897  -0.409  0.00  0.00    -0.077 A 
ATOM      2  C3  UNL d   1       1.212  -1.357   0.133  0.00  0.00     0.002 A 
ATOM      3  C4  UNL d   1       0.374  -0.486   0.831  0.00  0.00     0.002 A 
ATOM      4  C5  UNL d   1       0.732   0.851   0.989  0.00  0.00    -0.004 A 
ATOM      5  C6  UNL d   1       1.932   1.319   0.455  0.00  0.00     0.002 A 
ATOM      6  C7  UNL d   1       2.772   0.449  -0.242  0.00  0.00     0.002 A 
ENDROOT
BRANCH   1   7
ATOM      7  C1  UNL d   1       3.302  -1.823  -1.205  0.00  0.00     0.055 C 
ATOM      8  C   UNL d   1       4.666  -1.200  -1.466  0.00  0.00     0.019 C 
ENDBRANCH   1   7
TORSDOF 1
ENDMDL
