MODEL 1
REMARK minimizedAffinity 1.17115462
REMARK minimizedRMSD -1
REMARK  1 active torsions:
REMARK  status: ('A' for Active; 'I' for Inactive)
REMARK    1  A    between atoms: C1_2  and  C2_3 
ROOT
ATOM      1  C2  UNL d   1       3.310  -5.881   5.045  0.00  0.00    -0.077 A 
ATOM      2  C3  UNL d   1       2.183  -5.727   5.864  0.00  0.00     0.002 A 
ATOM      3  C4  UNL d   1       0.904  -5.688   5.304  0.00  0.00     0.002 A 
ATOM      4  C5  UNL d   1       0.740  -5.807   3.926  0.00  0.00    -0.004 A 
ATOM      5  C6  UNL d   1       1.856  -5.959   3.103  0.00  0.00     0.002 A 
ATOM      6  C7  UNL d   1       3.135  -5.996   3.660  0.00  0.00     0.002 A 
ENDROOT
BRANCH   1   7
ATOM      7  C1  UNL d   1       4.687  -5.972   5.650  0.00  0.00     0.055 C 
ATOM      8  C   UNL d   1       5.762  -5.611   4.637  0.00  0.00     0.019 C 
ENDBRANCH   1   7
TORSDOF 1
ENDMDL
