MODEL 1
REMARK minimizedAffinity -1.36677074
REMARK minimizedRMSD -1
REMARK  1 active torsions:
REMARK  status: ('A' for Active; 'I' for Inactive)
REMARK    1  A    between atoms: C1_2  and  C2_3 
ROOT
ATOM      1  C2  UNL d   1       3.344   0.269  -1.745  0.00  0.00    -0.077 A 
ATOM      2  C3  UNL d   1       2.437   1.089  -1.058  0.00  0.00     0.002 A 
ATOM      3  C4  UNL d   1       1.382   0.526  -0.337  0.00  0.00     0.002 A 
ATOM      4  C5  UNL d   1       1.226  -0.858  -0.293  0.00  0.00    -0.004 A 
ATOM      5  C6  UNL d   1       2.122  -1.681  -0.974  0.00  0.00     0.002 A 
ATOM      6  C7  UNL d   1       3.176  -1.121  -1.696  0.00  0.00     0.002 A 
ENDROOT
BRANCH   1   7
ATOM      7  C1  UNL d   1       4.511   0.872  -2.482  0.00  0.00     0.055 C 
ATOM      8  C   UNL d   1       5.484  -0.201  -2.950  0.00  0.00     0.019 C 
ENDBRANCH   1   7
TORSDOF 1
ENDMDL
