MODEL 1
REMARK minimizedAffinity -2.49219656
REMARK minimizedRMSD -1
REMARK  1 active torsions:
REMARK  status: ('A' for Active; 'I' for Inactive)
REMARK    1  A    between atoms: C1_2  and  C2_3 
ROOT
ATOM      1  C2  UNL d   1       4.353  -0.459  -1.630  0.00  0.00    -0.077 A 
ATOM      2  C3  UNL d   1       3.582  -1.532  -1.162  0.00  0.00     0.002 A 
ATOM      3  C4  UNL d   1       2.314  -1.309  -0.622  0.00  0.00     0.002 A 
ATOM      4  C5  UNL d   1       1.804  -0.014  -0.550  0.00  0.00    -0.004 A 
ATOM      5  C6  UNL d   1       2.563   1.060  -1.012  0.00  0.00     0.002 A 
ATOM      6  C7  UNL d   1       3.831   0.839  -1.550  0.00  0.00     0.002 A 
ENDROOT
BRANCH   1   7
ATOM      7  C1  UNL d   1       5.700  -0.703  -2.258  0.00  0.00     0.055 C 
ATOM      8  C   UNL d   1       5.986   0.302  -3.364  0.00  0.00     0.019 C 
ENDBRANCH   1   7
TORSDOF 1
ENDMDL
