MODEL 1
REMARK minimizedAffinity -1.48653805
REMARK minimizedRMSD -1
REMARK  1 active torsions:
REMARK  status: ('A' for Active; 'I' for Inactive)
REMARK    1  A    between atoms: C1_2  and  C2_3 
ROOT
ATOM      1  C2  UNL d   1       1.677  -0.798  -0.227  0.00  0.00    -0.077 A 
ATOM      2  C3  UNL d   1       2.721  -1.661  -0.586  0.00  0.00     0.002 A 
ATOM      3  C4  UNL d   1       3.720  -1.235  -1.464  0.00  0.00     0.002 A 
ATOM      4  C5  UNL d   1       3.686   0.056  -1.986  0.00  0.00    -0.004 A 
ATOM      5  C6  UNL d   1       2.650   0.922  -1.637  0.00  0.00     0.002 A 
ATOM      6  C7  UNL d   1       1.651   0.497  -0.760  0.00  0.00     0.002 A 
ENDROOT
BRANCH   1   7
ATOM      7  C1  UNL d   1       0.626  -1.239   0.758  0.00  0.00     0.055 C 
ATOM      8  C   UNL d   1       0.360  -0.165   1.802  0.00  0.00     0.019 C 
ENDBRANCH   1   7
TORSDOF 1
ENDMDL
