MODEL 1
REMARK minimizedAffinity -1.15299821
REMARK minimizedRMSD -1
REMARK  1 active torsions:
REMARK  status: ('A' for Active; 'I' for Inactive)
REMARK    1  A    between atoms: C1_2  and  C2_3 
ROOT
ATOM      1  C2  UNL d   1       3.713   0.107  -1.501  0.00  0.00    -0.077 A 
ATOM      2  C3  UNL d   1       3.624  -1.284  -1.352  0.00  0.00     0.002 A 
ATOM      3  C4  UNL d   1       2.566  -1.852  -0.640  0.00  0.00     0.002 A 
ATOM      4  C5  UNL d   1       1.587  -1.037  -0.075  0.00  0.00    -0.004 A 
ATOM      5  C6  UNL d   1       1.668   0.348  -0.217  0.00  0.00     0.002 A 
ATOM      6  C7  UNL d   1       2.726   0.917  -0.927  0.00  0.00     0.002 A 
ENDROOT
BRANCH   1   7
ATOM      7  C1  UNL d   1       4.827   0.718  -2.311  0.00  0.00     0.055 C 
ATOM      8  C   UNL d   1       5.746  -0.351  -2.884  0.00  0.00     0.019 C 
ENDBRANCH   1   7
TORSDOF 1
ENDMDL
