MODEL 1
REMARK minimizedAffinity -1.08091033
REMARK minimizedRMSD -1
REMARK  1 active torsions:
REMARK  status: ('A' for Active; 'I' for Inactive)
REMARK    1  A    between atoms: C1_2  and  C2_3 
ROOT
ATOM      1  C2  UNL d   1       0.607  -0.872   0.955  0.00  0.00    -0.077 A 
ATOM      2  C3  UNL d   1       0.837   0.460   0.584  0.00  0.00     0.002 A 
ATOM      3  C4  UNL d   1       2.016   0.816  -0.075  0.00  0.00     0.002 A 
ATOM      4  C5  UNL d   1       2.971  -0.155  -0.371  0.00  0.00    -0.004 A 
ATOM      5  C6  UNL d   1       2.751  -1.482  -0.004  0.00  0.00     0.002 A 
ATOM      6  C7  UNL d   1       1.574  -1.839   0.655  0.00  0.00     0.002 A 
ENDROOT
BRANCH   1   7
ATOM      7  C1  UNL d   1      -0.686  -1.265   1.621  0.00  0.00     0.055 C 
ATOM      8  C   UNL d   1      -1.249  -0.124   2.456  0.00  0.00     0.019 C 
ENDBRANCH   1   7
TORSDOF 1
ENDMDL
