MODEL 1
REMARK minimizedAffinity -4.47929478
REMARK minimizedRMSD -1
REMARK  1 active torsions:
REMARK  status: ('A' for Active; 'I' for Inactive)
REMARK    1  A    between atoms: C1_2  and  C2_3 
ROOT
ATOM      1  C2  UNL d   1       1.970   0.043  -0.385  0.00  0.00    -0.077 A 
ATOM      2  C3  UNL d   1       2.472  -1.245  -0.620  0.00  0.00     0.002 A 
ATOM      3  C4  UNL d   1       3.505  -1.444  -1.537  0.00  0.00     0.002 A 
ATOM      4  C5  UNL d   1       4.048  -0.360  -2.223  0.00  0.00    -0.004 A 
ATOM      5  C6  UNL d   1       3.555   0.925  -1.998  0.00  0.00     0.002 A 
ATOM      6  C7  UNL d   1       2.522   1.125  -1.082  0.00  0.00     0.002 A 
ENDROOT
BRANCH   1   7
ATOM      7  C1  UNL d   1       0.890   0.266   0.641  0.00  0.00     0.055 C 
ATOM      8  C   UNL d   1       0.108  -1.012   0.908  0.00  0.00     0.019 C 
ENDBRANCH   1   7
TORSDOF 1
ENDMDL
