MODEL 1
REMARK minimizedAffinity -0.714588225
REMARK minimizedRMSD -1
REMARK  2 active torsions:
REMARK  status: ('A' for Active; 'I' for Inactive)
REMARK    1  A    between atoms: C1_2  and  C2_3 
REMARK    2  A    between atoms: C2_3  and  C3_4 
ROOT
ATOM      1  C3  UNL d   1       1.114  -2.776   1.199  0.00  0.00    -0.075 A 
ATOM      2  C4  UNL d   1       1.406  -3.969   1.876  0.00  0.00     0.002 A 
ATOM      3  C5  UNL d   1       0.533  -4.466   2.844  0.00  0.00     0.002 A 
ATOM      4  C6  UNL d   1      -0.635  -3.773   3.154  0.00  0.00    -0.004 A 
ATOM      5  C7  UNL d   1      -0.927  -2.579   2.499  0.00  0.00     0.002 A 
ATOM      6  C8  UNL d   1      -0.058  -2.081   1.527  0.00  0.00     0.002 A 
ENDROOT
BRANCH   1   7
ATOM      7  C2  UNL d   1       2.041  -2.248   0.129  0.00  0.00     0.056 C 
BRANCH   7   8
ATOM      8  C1  UNL d   1       1.579  -0.929  -0.500  0.00  0.00     0.007 C 
ATOM      9  C   UNL d   1       2.499   0.242  -0.181  0.00  0.00     0.009 C 
ENDBRANCH   7   8
ENDBRANCH   1   7
TORSDOF 2
ENDMDL
