MODEL 1
REMARK minimizedAffinity -3.38595247
REMARK minimizedRMSD -1
REMARK  2 active torsions:
REMARK  status: ('A' for Active; 'I' for Inactive)
REMARK    1  A    between atoms: C1_2  and  C2_3 
REMARK    2  A    between atoms: C2_3  and  C3_4 
ROOT
ATOM      1  C3  UNL d   1       1.407  -4.151   2.120  0.00  0.00    -0.075 A 
ATOM      2  C4  UNL d   1       1.286  -2.774   1.883  0.00  0.00     0.002 A 
ATOM      3  C5  UNL d   1       0.086  -2.112   2.145  0.00  0.00     0.002 A 
ATOM      4  C6  UNL d   1      -1.009  -2.819   2.636  0.00  0.00    -0.004 A 
ATOM      5  C7  UNL d   1      -0.906  -4.190   2.860  0.00  0.00     0.002 A 
ATOM      6  C8  UNL d   1       0.295  -4.854   2.603  0.00  0.00     0.002 A 
ENDROOT
BRANCH   1   7
ATOM      7  C2  UNL d   1       2.712  -4.867   1.867  0.00  0.00     0.056 C 
BRANCH   7   8
ATOM      8  C1  UNL d   1       3.369  -4.511   0.529  0.00  0.00     0.007 C 
ATOM      9  C   UNL d   1       4.822  -4.957   0.436  0.00  0.00     0.009 C 
ENDBRANCH   7   8
ENDBRANCH   1   7
TORSDOF 2
ENDMDL
