MODEL 1
REMARK minimizedAffinity 1.14326668
REMARK minimizedRMSD -1
REMARK  2 active torsions:
REMARK  status: ('A' for Active; 'I' for Inactive)
REMARK    1  A    between atoms: C1_2  and  C2_3 
REMARK    2  A    between atoms: C2_3  and  C3_4 
ROOT
ATOM      1  C3  UNL d   1       1.546  -2.707   0.718  0.00  0.00    -0.075 A 
ATOM      2  C4  UNL d   1       1.691  -1.354   0.379  0.00  0.00     0.002 A 
ATOM      3  C5  UNL d   1       0.871  -0.386   0.958  0.00  0.00     0.002 A 
ATOM      4  C6  UNL d   1      -0.111  -0.759   1.874  0.00  0.00    -0.004 A 
ATOM      5  C7  UNL d   1      -0.276  -2.102   2.206  0.00  0.00     0.002 A 
ATOM      6  C8  UNL d   1       0.547  -3.072   1.631  0.00  0.00     0.002 A 
ENDROOT
BRANCH   1   7
ATOM      7  C2  UNL d   1       2.451  -3.756   0.116  0.00  0.00     0.056 C 
BRANCH   7   8
ATOM      8  C1  UNL d   1       3.348  -4.464   1.136  0.00  0.00     0.007 C 
ATOM      9  C   UNL d   1       4.764  -4.700   0.628  0.00  0.00     0.009 C 
ENDBRANCH   7   8
ENDBRANCH   1   7
TORSDOF 2
ENDMDL
