MODEL 1
REMARK minimizedAffinity 4.57880878
REMARK minimizedRMSD -1
REMARK  2 active torsions:
REMARK  status: ('A' for Active; 'I' for Inactive)
REMARK    1  A    between atoms: C1_2  and  C2_3 
REMARK    2  A    between atoms: C2_3  and  C3_4 
ROOT
ATOM      1  C3  UNL d   1      -4.934  -1.149  -5.961  0.00  0.00    -0.075 A 
ATOM      2  C4  UNL d   1      -3.548  -1.363  -5.957  0.00  0.00     0.002 A 
ATOM      3  C5  UNL d   1      -3.032  -2.659  -5.981  0.00  0.00     0.002 A 
ATOM      4  C6  UNL d   1      -3.892  -3.755  -6.000  0.00  0.00    -0.004 A 
ATOM      5  C7  UNL d   1      -5.271  -3.554  -5.988  0.00  0.00     0.002 A 
ATOM      6  C8  UNL d   1      -5.790  -2.258  -5.968  0.00  0.00     0.002 A 
ENDROOT
BRANCH   1   7
ATOM      7  C2  UNL d   1      -5.500   0.252  -5.965  0.00  0.00     0.056 C 
BRANCH   7   8
ATOM      8  C1  UNL d   1      -5.999   0.726  -4.596  0.00  0.00     0.007 C 
ATOM      9  C   UNL d   1      -4.874   0.995  -3.606  0.00  0.00     0.009 C 
ENDBRANCH   7   8
ENDBRANCH   1   7
TORSDOF 2
ENDMDL
