MODEL 1
REMARK minimizedAffinity 4.42736197
REMARK minimizedRMSD -1
REMARK  2 active torsions:
REMARK  status: ('A' for Active; 'I' for Inactive)
REMARK    1  A    between atoms: C1_2  and  C2_3 
REMARK    2  A    between atoms: C2_3  and  C3_4 
ROOT
ATOM      1  C3  UNL d   1       2.195  -1.978   0.912  0.00  0.00    -0.075 A 
ATOM      2  C4  UNL d   1       0.950  -2.166   1.531  0.00  0.00     0.002 A 
ATOM      3  C5  UNL d   1       0.081  -1.091   1.715  0.00  0.00     0.002 A 
ATOM      4  C6  UNL d   1       0.447   0.185   1.293  0.00  0.00    -0.004 A 
ATOM      5  C7  UNL d   1       1.688   0.387   0.693  0.00  0.00     0.002 A 
ATOM      6  C8  UNL d   1       2.558  -0.688   0.503  0.00  0.00     0.002 A 
ENDROOT
BRANCH   1   7
ATOM      7  C2  UNL d   1       3.128  -3.143   0.683  0.00  0.00     0.056 C 
BRANCH   7   8
ATOM      8  C1  UNL d   1       3.012  -4.251   1.735  0.00  0.00     0.007 C 
ATOM      9  C   UNL d   1       2.933  -5.646   1.131  0.00  0.00     0.009 C 
ENDBRANCH   7   8
ENDBRANCH   1   7
TORSDOF 2
ENDMDL
