MODEL 1
REMARK minimizedAffinity -1.52993608
REMARK minimizedRMSD -1
REMARK  0 active torsions:
REMARK  status: ('A' for Active; 'I' for Inactive)
ROOT
ATOM      1  C   UNL d   1       2.330  -5.998  -5.991  0.00  0.00     0.172 C 
ATOM      2  N   UNL d   1       3.373  -5.997  -4.992  0.00  0.00    -0.070 N 
ATOM      3  C1  UNL d   1       4.719  -5.994  -5.243  0.00  0.00    -0.004 A 
ATOM      4  C2  UNL d   1       5.375  -5.994  -4.030  0.00  0.00    -0.047 A 
ATOM      5  C3  UNL d   1       4.388  -5.997  -3.016  0.00  0.00    -0.047 A 
ATOM      6  C4  UNL d   1       3.158  -5.999  -3.639  0.00  0.00    -0.004 A 
ENDROOT
TORSDOF 0
ENDMDL
