MODEL 1
REMARK minimizedAffinity 2.92411757
REMARK minimizedRMSD -1
REMARK  0 active torsions:
REMARK  status: ('A' for Active; 'I' for Inactive)
ROOT
ATOM      1  C   UNL d   1      -3.354  -3.038  -3.905  0.00  0.00     0.172 C 
ATOM      2  N   UNL d   1      -3.204  -1.783  -3.207  0.00  0.00    -0.070 N 
ATOM      3  C1  UNL d   1      -3.845  -1.432  -2.049  0.00  0.00    -0.004 A 
ATOM      4  C2  UNL d   1      -3.434  -0.162  -1.708  0.00  0.00    -0.047 A 
ATOM      5  C3  UNL d   1      -2.515   0.266  -2.695  0.00  0.00    -0.047 A 
ATOM      6  C4  UNL d   1      -2.391  -0.757  -3.612  0.00  0.00    -0.004 A 
ENDROOT
TORSDOF 0
ENDMDL
