MODEL 1
REMARK minimizedAffinity 2.29627943
REMARK minimizedRMSD -1
REMARK  0 active torsions:
REMARK  status: ('A' for Active; 'I' for Inactive)
ROOT
ATOM      1  C   UNL d   1      -4.499   1.622  -3.633  0.00  0.00     0.172 C 
ATOM      2  N   UNL d   1      -3.624   0.606  -3.095  0.00  0.00    -0.070 N 
ATOM      3  C1  UNL d   1      -2.628   0.814  -2.179  0.00  0.00    -0.004 A 
ATOM      4  C2  UNL d   1      -2.028  -0.400  -1.925  0.00  0.00    -0.047 A 
ATOM      5  C3  UNL d   1      -2.687  -1.372  -2.716  0.00  0.00    -0.047 A 
ATOM      6  C4  UNL d   1      -3.670  -0.721  -3.431  0.00  0.00    -0.004 A 
ENDROOT
TORSDOF 0
ENDMDL
