MODEL 1
REMARK minimizedAffinity 6.23989391
REMARK minimizedRMSD -1
REMARK  0 active torsions:
REMARK  status: ('A' for Active; 'I' for Inactive)
ROOT
ATOM      1  C   UNL d   1       3.365  -3.562   3.004  0.00  0.00     0.172 C 
ATOM      2  N   UNL d   1       2.993  -4.398   1.887  0.00  0.00    -0.070 N 
ATOM      3  C1  UNL d   1       1.856  -4.266   1.135  0.00  0.00    -0.004 A 
ATOM      4  C2  UNL d   1       1.872  -5.250   0.170  0.00  0.00    -0.047 A 
ATOM      5  C3  UNL d   1       3.059  -6.000   0.349  0.00  0.00    -0.047 A 
ATOM      6  C4  UNL d   1       3.734  -5.451   1.418  0.00  0.00    -0.004 A 
ENDROOT
TORSDOF 0
ENDMDL
