MODEL 1
REMARK minimizedAffinity 2.04575682
REMARK minimizedRMSD -1
REMARK  0 active torsions:
REMARK  status: ('A' for Active; 'I' for Inactive)
ROOT
ATOM      1  C   UNL d   1       1.369  -1.147   3.988  0.00  0.00     0.172 C 
ATOM      2  N   UNL d   1       2.056  -0.384   2.973  0.00  0.00    -0.070 N 
ATOM      3  C1  UNL d   1       2.919  -0.892   2.039  0.00  0.00    -0.004 A 
ATOM      4  C2  UNL d   1       3.359   0.154   1.257  0.00  0.00    -0.047 A 
ATOM      5  C3  UNL d   1       2.740   1.332   1.738  0.00  0.00    -0.047 A 
ATOM      6  C4  UNL d   1       1.938   0.970   2.800  0.00  0.00    -0.004 A 
ENDROOT
TORSDOF 0
ENDMDL
