MODEL 1
REMARK minimizedAffinity -1.1012404
REMARK minimizedRMSD -1
REMARK  0 active torsions:
REMARK  status: ('A' for Active; 'I' for Inactive)
ROOT
ATOM      1  C   UNL d   1       5.254  -5.995  -3.043  0.00  0.00     0.172 C 
ATOM      2  N   UNL d   1       3.957  -5.865  -2.423  0.00  0.00    -0.070 N 
ATOM      3  C1  UNL d   1       2.783  -5.601  -3.076  0.00  0.00    -0.004 A 
ATOM      4  C2  UNL d   1       1.777  -5.556  -2.135  0.00  0.00    -0.047 A 
ATOM      5  C3  UNL d   1       2.367  -5.801  -0.872  0.00  0.00    -0.047 A 
ATOM      6  C4  UNL d   1       3.717  -5.989  -1.080  0.00  0.00    -0.004 A 
ENDROOT
TORSDOF 0
ENDMDL
