MODEL 1
REMARK minimizedAffinity -2.64006066
REMARK minimizedRMSD -1
REMARK  0 active torsions:
REMARK  status: ('A' for Active; 'I' for Inactive)
ROOT
ATOM      1  C   UNL d   1       4.880   2.271  -5.250  0.00  0.00     0.172 C 
ATOM      2  N   UNL d   1       5.124   0.849  -5.192  0.00  0.00    -0.070 N 
ATOM      3  C1  UNL d   1       4.524  -0.030  -4.329  0.00  0.00    -0.004 A 
ATOM      4  C2  UNL d   1       5.024  -1.287  -4.592  0.00  0.00    -0.047 A 
ATOM      5  C3  UNL d   1       5.957  -1.159  -5.648  0.00  0.00    -0.047 A 
ATOM      6  C4  UNL d   1       6.000   0.173  -6.000  0.00  0.00    -0.004 A 
ENDROOT
TORSDOF 0
ENDMDL
