MODEL 1
REMARK minimizedAffinity 1.37755978
REMARK minimizedRMSD -1
REMARK  0 active torsions:
REMARK  status: ('A' for Active; 'I' for Inactive)
ROOT
ATOM      1  C   UNL d   1       0.535   2.515   2.019  0.00  0.00    -0.002 A 
ATOM      2  C1  UNL d   1      -0.348   1.504   2.372  0.00  0.00     0.010 A 
ATOM      3  C2  UNL d   1      -0.291   0.260   1.740  0.00  0.00     0.041 A 
ATOM      4  C3  UNL d   1       0.678   0.046   0.741  0.00  0.00    -0.075 A 
ATOM      5  S   UNL d   1       0.934  -1.397  -0.168  0.00  0.00     0.015 SA
ATOM      6  C4  UNL d   1       2.222  -0.705  -1.044  0.00  0.00     0.022 A 
ATOM      7  C5  UNL d   1       2.464   0.594  -0.666  0.00  0.00     0.026 A 
ATOM      8  C6  UNL d   1       1.579   1.049   0.369  0.00  0.00    -0.082 A 
ATOM      9  C7  UNL d   1       1.495   2.299   1.027  0.00  0.00     0.045 A 
ENDROOT
TORSDOF 0
ENDMDL
