MODEL 1
REMARK minimizedAffinity 1.24556398
REMARK minimizedRMSD -1
REMARK  0 active torsions:
REMARK  status: ('A' for Active; 'I' for Inactive)
ROOT
ATOM      1  C   UNL d   1       2.733   2.299   0.372  0.00  0.00    -0.002 A 
ATOM      2  C1  UNL d   1       1.870   2.686   1.388  0.00  0.00     0.010 A 
ATOM      3  C2  UNL d   1       0.747   1.916   1.697  0.00  0.00     0.041 A 
ATOM      4  C3  UNL d   1       0.504   0.739   0.962  0.00  0.00    -0.075 A 
ATOM      5  S   UNL d   1      -0.807  -0.361   1.165  0.00  0.00     0.015 SA
ATOM      6  C4  UNL d   1      -0.253  -1.371  -0.092  0.00  0.00     0.022 A 
ATOM      7  C5  UNL d   1       0.904  -0.895  -0.663  0.00  0.00     0.026 A 
ATOM      8  C6  UNL d   1       1.359   0.329  -0.065  0.00  0.00    -0.082 A 
ATOM      9  C7  UNL d   1       2.489   1.131  -0.355  0.00  0.00     0.045 A 
ENDROOT
TORSDOF 0
ENDMDL
