MODEL 1
REMARK minimizedAffinity -3.87356305
REMARK minimizedRMSD -1
REMARK  0 active torsions:
REMARK  status: ('A' for Active; 'I' for Inactive)
ROOT
ATOM      1  C   UNL d   1       1.740   1.415   0.289  0.00  0.00    -0.002 A 
ATOM      2  C1  UNL d   1       2.217   0.161  -0.065  0.00  0.00     0.010 A 
ATOM      3  C2  UNL d   1       1.365  -0.788  -0.633  0.00  0.00     0.041 A 
ATOM      4  C3  UNL d   1       0.013  -0.452  -0.844  0.00  0.00    -0.075 A 
ATOM      5  S   UNL d   1      -1.213  -1.454  -1.526  0.00  0.00     0.015 SA
ATOM      6  C4  UNL d   1      -2.398  -0.240  -1.365  0.00  0.00     0.022 A 
ATOM      7  C5  UNL d   1      -1.888   0.908  -0.806  0.00  0.00     0.026 A 
ATOM      8  C6  UNL d   1      -0.490   0.805  -0.497  0.00  0.00    -0.082 A 
ATOM      9  C7  UNL d   1       0.399   1.746   0.078  0.00  0.00     0.045 A 
ENDROOT
TORSDOF 0
ENDMDL
