MODEL 1
REMARK minimizedAffinity 8.70783329
REMARK minimizedRMSD -1
REMARK  0 active torsions:
REMARK  status: ('A' for Active; 'I' for Inactive)
ROOT
ATOM      1  C   UNL d   1       2.902  -0.682  -1.981  0.00  0.00    -0.002 A 
ATOM      2  C1  UNL d   1       3.638   0.274  -1.295  0.00  0.00     0.010 A 
ATOM      3  C2  UNL d   1       3.079   0.960  -0.215  0.00  0.00     0.041 A 
ATOM      4  C3  UNL d   1       1.756   0.666   0.169  0.00  0.00    -0.075 A 
ATOM      5  S   UNL d   1       0.866   1.380   1.461  0.00  0.00     0.015 SA
ATOM      6  C4  UNL d   1      -0.512   0.432   1.134  0.00  0.00     0.022 A 
ATOM      7  C5  UNL d   1      -0.315  -0.414   0.068  0.00  0.00     0.026 A 
ATOM      8  C6  UNL d   1       0.996  -0.294  -0.505  0.00  0.00    -0.082 A 
ATOM      9  C7  UNL d   1       1.590  -0.972  -1.597  0.00  0.00     0.045 A 
ENDROOT
TORSDOF 0
ENDMDL
