MODEL 1
REMARK minimizedAffinity 0.390762627
REMARK minimizedRMSD -1
REMARK  0 active torsions:
REMARK  status: ('A' for Active; 'I' for Inactive)
ROOT
ATOM      1  C   UNL d   1       1.193   2.390   0.525  0.00  0.00    -0.002 A 
ATOM      2  C1  UNL d   1       0.511   2.613  -0.663  0.00  0.00     0.010 A 
ATOM      3  C2  UNL d   1      -0.343   1.641  -1.186  0.00  0.00     0.041 A 
ATOM      4  C3  UNL d   1      -0.503   0.428  -0.487  0.00  0.00    -0.075 A 
ATOM      5  S   UNL d   1      -1.497  -0.907  -0.937  0.00  0.00     0.015 SA
ATOM      6  C4  UNL d   1      -1.041  -1.806   0.437  0.00  0.00     0.022 A 
ATOM      7  C5  UNL d   1      -0.153  -1.119   1.231  0.00  0.00     0.026 A 
ATOM      8  C6  UNL d   1       0.172   0.180   0.711  0.00  0.00    -0.082 A 
ATOM      9  C7  UNL d   1       1.031   1.185   1.215  0.00  0.00     0.045 A 
ENDROOT
TORSDOF 0
ENDMDL
