MODEL 1
REMARK minimizedAffinity -0.994498074
REMARK minimizedRMSD -1
REMARK  0 active torsions:
REMARK  status: ('A' for Active; 'I' for Inactive)
ROOT
ATOM      1  C   UNL d   1      -1.087   1.530   1.926  0.00  0.00    -0.002 A 
ATOM      2  C1  UNL d   1      -0.110   2.515   1.897  0.00  0.00     0.010 A 
ATOM      3  C2  UNL d   1       1.068   2.326   1.173  0.00  0.00     0.041 A 
ATOM      4  C3  UNL d   1       1.249   1.118   0.470  0.00  0.00    -0.075 A 
ATOM      5  S   UNL d   1       2.612   0.666  -0.485  0.00  0.00     0.015 SA
ATOM      6  C4  UNL d   1       1.928  -0.845  -0.878  0.00  0.00     0.022 A 
ATOM      7  C5  UNL d   1       0.692  -1.017  -0.302  0.00  0.00     0.026 A 
ATOM      8  C6  UNL d   1       0.280   0.112   0.483  0.00  0.00    -0.082 A 
ATOM      9  C7  UNL d   1      -0.904   0.334   1.228  0.00  0.00     0.045 A 
ENDROOT
TORSDOF 0
ENDMDL
