MODEL 1
REMARK minimizedAffinity -2.89142203
REMARK minimizedRMSD -1
REMARK  0 active torsions:
REMARK  status: ('A' for Active; 'I' for Inactive)
ROOT
ATOM      1  C   UNL d   1       1.162   2.679   1.711  0.00  0.00    -0.002 A 
ATOM      2  C1  UNL d   1       0.619   1.867   2.697  0.00  0.00     0.010 A 
ATOM      3  C2  UNL d   1      -0.029   0.677   2.361  0.00  0.00     0.041 A 
ATOM      4  C3  UNL d   1      -0.122   0.312   1.003  0.00  0.00    -0.075 A 
ATOM      5  S   UNL d   1      -0.869  -1.100   0.355  0.00  0.00     0.015 SA
ATOM      6  C4  UNL d   1      -0.485  -0.659  -1.246  0.00  0.00     0.022 A 
ATOM      7  C5  UNL d   1       0.196   0.533  -1.303  0.00  0.00     0.026 A 
ATOM      8  C6  UNL d   1       0.417   1.113  -0.008  0.00  0.00    -0.082 A 
ATOM      9  C7  UNL d   1       1.067   2.314   0.366  0.00  0.00     0.045 A 
ENDROOT
TORSDOF 0
ENDMDL
