MODEL 1
REMARK minimizedAffinity 11.6108894
REMARK minimizedRMSD -1
REMARK  0 active torsions:
REMARK  status: ('A' for Active; 'I' for Inactive)
ROOT
ATOM      1  C   UNL d   1       5.935   3.181  -3.019  0.00  0.00    -0.002 A 
ATOM      2  C1  UNL d   1       6.000   3.557  -4.353  0.00  0.00     0.010 A 
ATOM      3  C2  UNL d   1       4.835   3.848  -5.066  0.00  0.00     0.041 A 
ATOM      4  C3  UNL d   1       3.592   3.754  -4.409  0.00  0.00    -0.075 A 
ATOM      5  S   UNL d   1       2.035   4.063  -5.081  0.00  0.00     0.015 SA
ATOM      6  C4  UNL d   1       1.248   3.704  -3.613  0.00  0.00     0.022 A 
ATOM      7  C5  UNL d   1       2.136   3.355  -2.624  0.00  0.00     0.026 A 
ATOM      8  C6  UNL d   1       3.502   3.379  -3.066  0.00  0.00    -0.082 A 
ATOM      9  C7  UNL d   1       4.701   3.090  -2.371  0.00  0.00     0.045 A 
ENDROOT
TORSDOF 0
ENDMDL
