MODEL 1
REMARK minimizedAffinity 14.2804565
REMARK minimizedRMSD -1
REMARK  0 active torsions:
REMARK  status: ('A' for Active; 'I' for Inactive)
ROOT
ATOM      1  C   UNL d   1       1.178   3.272  -2.581  0.00  0.00    -0.002 A 
ATOM      2  C1  UNL d   1      -0.013   3.847  -2.163  0.00  0.00     0.010 A 
ATOM      3  C2  UNL d   1      -0.797   3.227  -1.188  0.00  0.00     0.041 A 
ATOM      4  C3  UNL d   1      -0.358   2.009  -0.633  0.00  0.00    -0.075 A 
ATOM      5  S   UNL d   1      -1.152   1.071   0.576  0.00  0.00     0.015 SA
ATOM      6  C4  UNL d   1       0.072  -0.114   0.566  0.00  0.00     0.022 A 
ATOM      7  C5  UNL d   1       1.070   0.182  -0.331  0.00  0.00     0.026 A 
ATOM      8  C6  UNL d   1       0.839   1.411  -1.037  0.00  0.00    -0.082 A 
ATOM      9  C7  UNL d   1       1.611   2.064  -2.028  0.00  0.00     0.045 A 
ENDROOT
TORSDOF 0
ENDMDL
