MODEL 1
REMARK minimizedAffinity -1.09519088
REMARK minimizedRMSD -1
REMARK  0 active torsions:
REMARK  status: ('A' for Active; 'I' for Inactive)
ROOT
ATOM      1  C   UNL d   1       3.346   1.683   3.666  0.00  0.00    -0.002 A 
ATOM      2  C1  UNL d   1       2.349   1.609   4.628  0.00  0.00     0.010 A 
ATOM      3  C2  UNL d   1       1.032   1.317   4.265  0.00  0.00     0.041 A 
ATOM      4  C3  UNL d   1       0.733   1.096   2.906  0.00  0.00    -0.075 A 
ATOM      5  S   UNL d   1      -0.808   0.723   2.228  0.00  0.00     0.015 SA
ATOM      6  C4  UNL d   1      -0.178   0.652   0.646  0.00  0.00     0.022 A 
ATOM      7  C5  UNL d   1       1.173   0.904   0.618  0.00  0.00     0.026 A 
ATOM      8  C6  UNL d   1       1.721   1.164   1.919  0.00  0.00    -0.082 A 
ATOM      9  C7  UNL d   1       3.046   1.463   2.319  0.00  0.00     0.045 A 
ENDROOT
TORSDOF 0
ENDMDL
