MODEL 1
REMARK minimizedAffinity -0.179460838
REMARK minimizedRMSD -1
REMARK  0 active torsions:
REMARK  status: ('A' for Active; 'I' for Inactive)
ROOT
ATOM      1  C   UNL d   1      -2.846  -2.076   3.816  0.00  0.00    -0.002 A 
ATOM      2  C1  UNL d   1      -2.533  -3.040   2.868  0.00  0.00     0.010 A 
ATOM      3  C2  UNL d   1      -1.539  -2.804   1.916  0.00  0.00     0.041 A 
ATOM      4  C3  UNL d   1      -0.857  -1.572   1.935  0.00  0.00    -0.075 A 
ATOM      5  S   UNL d   1       0.398  -1.062   0.868  0.00  0.00     0.015 SA
ATOM      6  C4  UNL d   1       0.549   0.447   1.646  0.00  0.00     0.022 A 
ATOM      7  C5  UNL d   1      -0.329   0.576   2.696  0.00  0.00     0.026 A 
ATOM      8  C6  UNL d   1      -1.153  -0.586   2.880  0.00  0.00    -0.082 A 
ATOM      9  C7  UNL d   1      -2.167  -0.855   3.831  0.00  0.00     0.045 A 
ENDROOT
TORSDOF 0
ENDMDL
