MODEL 1
REMARK minimizedAffinity 4.49275064
REMARK minimizedRMSD -1
REMARK  0 active torsions:
REMARK  status: ('A' for Active; 'I' for Inactive)
ROOT
ATOM      1  C   UNL d   1       1.579   2.691  -2.620  0.00  0.00    -0.002 A 
ATOM      2  C1  UNL d   1       1.094   1.597  -3.323  0.00  0.00     0.010 A 
ATOM      3  C2  UNL d   1       0.491   0.532  -2.651  0.00  0.00     0.041 A 
ATOM      4  C3  UNL d   1       0.381   0.586  -1.248  0.00  0.00    -0.075 A 
ATOM      5  S   UNL d   1      -0.320  -0.602  -0.214  0.00  0.00     0.015 SA
ATOM      6  C4  UNL d   1       0.006   0.315   1.185  0.00  0.00     0.022 A 
ATOM      7  C5  UNL d   1       0.635   1.501   0.889  0.00  0.00     0.026 A 
ATOM      8  C6  UNL d   1       0.860   1.678  -0.518  0.00  0.00    -0.082 A 
ATOM      9  C7  UNL d   1       1.467   2.741  -1.228  0.00  0.00     0.045 A 
ENDROOT
TORSDOF 0
ENDMDL
