MODEL 1
REMARK minimizedAffinity -1.17619932
REMARK minimizedRMSD -1
REMARK  0 active torsions:
REMARK  status: ('A' for Active; 'I' for Inactive)
ROOT
ATOM      1  C   UNL d   1       0.283   5.993  -3.922  0.00  0.00    -0.002 A 
ATOM      2  C1  UNL d   1      -0.296   5.995  -5.183  0.00  0.00     0.010 A 
ATOM      3  C2  UNL d   1      -1.685   5.996  -5.327  0.00  0.00     0.041 A 
ATOM      4  C3  UNL d   1      -2.489   5.997  -4.170  0.00  0.00    -0.075 A 
ATOM      5  S   UNL d   1      -4.212   6.000  -4.103  0.00  0.00     0.015 SA
ATOM      6  C4  UNL d   1      -4.220   5.999  -2.399  0.00  0.00     0.022 A 
ATOM      7  C5  UNL d   1      -2.948   5.997  -1.877  0.00  0.00     0.026 A 
ATOM      8  C6  UNL d   1      -1.930   5.996  -2.890  0.00  0.00    -0.082 A 
ATOM      9  C7  UNL d   1      -0.518   5.994  -2.777  0.00  0.00     0.045 A 
ENDROOT
TORSDOF 0
ENDMDL
