MODEL 1
REMARK minimizedAffinity -4.73766184
REMARK minimizedRMSD -1
REMARK  0 active torsions:
REMARK  status: ('A' for Active; 'I' for Inactive)
ROOT
ATOM      1  C   UNL d   1      -2.465   1.035   3.005  0.00  0.00     0.077 C 
ATOM      2  C1  UNL d   1      -1.503   0.914   1.861  0.00  0.00    -0.074 A 
ATOM      3  C2  UNL d   1      -0.970   2.052   1.247  0.00  0.00    -0.005 A 
ATOM      4  C3  UNL d   1      -0.069   1.924   0.190  0.00  0.00     0.006 A 
ATOM      5  C4  UNL d   1       0.307   0.659  -0.263  0.00  0.00    -0.005 A 
ATOM      6  C5  UNL d   1      -0.215  -0.490   0.339  0.00  0.00    -0.074 A 
ATOM      7  C6  UNL d   1       0.186  -1.858  -0.129  0.00  0.00     0.077 C 
ATOM      8  C7  UNL d   1      -1.114  -0.353   1.405  0.00  0.00    -0.001 A 
ENDROOT
TORSDOF 0
ENDMDL
