MODEL 1
REMARK minimizedAffinity -4.73581982
REMARK minimizedRMSD -1
REMARK  0 active torsions:
REMARK  status: ('A' for Active; 'I' for Inactive)
ROOT
ATOM      1  C   UNL d   1      -2.031   1.305   3.145  0.00  0.00     0.077 C 
ATOM      2  C1  UNL d   1      -1.341   1.139   1.824  0.00  0.00    -0.074 A 
ATOM      3  C2  UNL d   1      -0.756   2.231   1.176  0.00  0.00    -0.005 A 
ATOM      4  C3  UNL d   1      -0.110   2.059  -0.048  0.00  0.00     0.006 A 
ATOM      5  C4  UNL d   1      -0.042   0.795  -0.636  0.00  0.00    -0.005 A 
ATOM      6  C5  UNL d   1      -0.621  -0.309  -0.002  0.00  0.00    -0.074 A 
ATOM      7  C6  UNL d   1      -0.548  -1.677  -0.614  0.00  0.00     0.077 C 
ATOM      8  C7  UNL d   1      -1.262  -0.130   1.232  0.00  0.00    -0.001 A 
ENDROOT
TORSDOF 0
ENDMDL
