MODEL 1
REMARK minimizedAffinity -2.81986403
REMARK minimizedRMSD -1
REMARK  0 active torsions:
REMARK  status: ('A' for Active; 'I' for Inactive)
ROOT
ATOM      1  C   UNL d   1      -2.602  -0.008   2.258  0.00  0.00     0.077 C 
ATOM      2  C1  UNL d   1      -1.471   0.348   1.339  0.00  0.00    -0.074 A 
ATOM      3  C2  UNL d   1      -1.078   1.679   1.164  0.00  0.00    -0.005 A 
ATOM      4  C3  UNL d   1      -0.018   1.993   0.313  0.00  0.00     0.006 A 
ATOM      5  C4  UNL d   1       0.658   0.982  -0.370  0.00  0.00    -0.005 A 
ATOM      6  C5  UNL d   1       0.279  -0.355  -0.207  0.00  0.00    -0.074 A 
ATOM      7  C6  UNL d   1       1.002  -1.455  -0.927  0.00  0.00     0.077 C 
ATOM      8  C7  UNL d   1      -0.782  -0.663   0.655  0.00  0.00    -0.001 A 
ENDROOT
TORSDOF 0
ENDMDL
