MODEL 1
REMARK minimizedAffinity -3.73500824
REMARK minimizedRMSD -1
REMARK  0 active torsions:
REMARK  status: ('A' for Active; 'I' for Inactive)
ROOT
ATOM      1  C   UNL d   1      -1.932   0.139   1.383  0.00  0.00     0.077 C 
ATOM      2  C1  UNL d   1      -0.908   0.453   0.333  0.00  0.00    -0.074 A 
ATOM      3  C2  UNL d   1      -0.903   1.690  -0.319  0.00  0.00    -0.005 A 
ATOM      4  C3  UNL d   1       0.063   1.971  -1.286  0.00  0.00     0.006 A 
ATOM      5  C4  UNL d   1       1.031   1.019  -1.610  0.00  0.00    -0.005 A 
ATOM      6  C5  UNL d   1       1.042  -0.223  -0.967  0.00  0.00    -0.074 A 
ATOM      7  C6  UNL d   1       2.082  -1.252  -1.295  0.00  0.00     0.077 C 
ATOM      8  C7  UNL d   1       0.073  -0.495   0.009  0.00  0.00    -0.001 A 
ENDROOT
TORSDOF 0
ENDMDL
