MODEL 1
REMARK minimizedAffinity -1.53900254
REMARK minimizedRMSD -1
REMARK  0 active torsions:
REMARK  status: ('A' for Active; 'I' for Inactive)
ROOT
ATOM      1  C   UNL d   1       0.000   2.504  -1.501  0.00  0.00     0.077 C 
ATOM      2  C1  UNL d   1       0.073   1.100  -0.979  0.00  0.00    -0.074 A 
ATOM      3  C2  UNL d   1      -0.781   0.667   0.041  0.00  0.00    -0.005 A 
ATOM      4  C3  UNL d   1      -0.708  -0.644   0.510  0.00  0.00     0.006 A 
ATOM      5  C4  UNL d   1       0.218  -1.535  -0.034  0.00  0.00    -0.005 A 
ATOM      6  C5  UNL d   1       1.079  -1.120  -1.055  0.00  0.00    -0.074 A 
ATOM      7  C6  UNL d   1       2.074  -2.068  -1.658  0.00  0.00     0.077 C 
ATOM      8  C7  UNL d   1       0.995   0.197  -1.526  0.00  0.00    -0.001 A 
ENDROOT
TORSDOF 0
ENDMDL
