MODEL 1
REMARK minimizedAffinity -4.46752739
REMARK minimizedRMSD -1
REMARK  0 active torsions:
REMARK  status: ('A' for Active; 'I' for Inactive)
ROOT
ATOM      1  C   UNL d   1       0.727   2.610  -2.075  0.00  0.00     0.077 C 
ATOM      2  C1  UNL d   1       0.546   1.509  -1.072  0.00  0.00    -0.074 A 
ATOM      3  C2  UNL d   1       1.133   0.254  -1.269  0.00  0.00    -0.005 A 
ATOM      4  C3  UNL d   1       0.964  -0.757  -0.323  0.00  0.00     0.006 A 
ATOM      5  C4  UNL d   1       0.208  -0.525   0.827  0.00  0.00    -0.005 A 
ATOM      6  C5  UNL d   1      -0.385   0.724   1.040  0.00  0.00    -0.074 A 
ATOM      7  C6  UNL d   1      -1.193   0.993   2.275  0.00  0.00     0.077 C 
ATOM      8  C7  UNL d   1      -0.205   1.737   0.089  0.00  0.00    -0.001 A 
ENDROOT
TORSDOF 0
ENDMDL
