MODEL 1
REMARK minimizedAffinity -4.34258127
REMARK minimizedRMSD -1
REMARK  0 active torsions:
REMARK  status: ('A' for Active; 'I' for Inactive)
ROOT
ATOM      1  C   UNL d   1      -0.912   0.658   0.764  0.00  0.00     0.077 C 
ATOM      2  C1  UNL d   1       0.051  -0.048  -0.143  0.00  0.00    -0.074 A 
ATOM      3  C2  UNL d   1       0.577  -1.298   0.201  0.00  0.00    -0.005 A 
ATOM      4  C3  UNL d   1       1.464  -1.948  -0.657  0.00  0.00     0.006 A 
ATOM      5  C4  UNL d   1       1.834  -1.355  -1.865  0.00  0.00    -0.005 A 
ATOM      6  C5  UNL d   1       1.318  -0.107  -2.226  0.00  0.00    -0.074 A 
ATOM      7  C6  UNL d   1       1.698   0.540  -3.525  0.00  0.00     0.077 C 
ATOM      8  C7  UNL d   1       0.422   0.537  -1.362  0.00  0.00    -0.001 A 
ENDROOT
TORSDOF 0
ENDMDL
