MODEL 1
REMARK minimizedAffinity -5.49563313
REMARK minimizedRMSD -1
REMARK  0 active torsions:
REMARK  status: ('A' for Active; 'I' for Inactive)
ROOT
ATOM      1  C   UNL d   1       1.558  -1.943  -1.102  0.00  0.00     0.077 C 
ATOM      2  C1  UNL d   1       0.700  -0.785  -0.685  0.00  0.00    -0.074 A 
ATOM      3  C2  UNL d   1      -0.208  -0.907   0.372  0.00  0.00    -0.005 A 
ATOM      4  C3  UNL d   1      -0.992   0.181   0.754  0.00  0.00     0.006 A 
ATOM      5  C4  UNL d   1      -0.876   1.400   0.086  0.00  0.00    -0.005 A 
ATOM      6  C5  UNL d   1       0.028   1.542  -0.972  0.00  0.00    -0.074 A 
ATOM      7  C6  UNL d   1       0.172   2.848  -1.695  0.00  0.00     0.077 C 
ATOM      8  C7  UNL d   1       0.817   0.445  -1.346  0.00  0.00    -0.001 A 
ENDROOT
TORSDOF 0
ENDMDL
