MODEL 1
REMARK minimizedAffinity -3.00000596
REMARK minimizedRMSD -1
REMARK  0 active torsions:
REMARK  status: ('A' for Active; 'I' for Inactive)
ROOT
ATOM      1  C   UNL d   1       5.438  -1.111   5.476  0.00  0.00     0.077 C 
ATOM      2  C1  UNL d   1       5.435   0.349   5.134  0.00  0.00    -0.074 A 
ATOM      3  C2  UNL d   1       6.000   1.291   6.000  0.00  0.00    -0.005 A 
ATOM      4  C3  UNL d   1       5.998   2.645   5.664  0.00  0.00     0.006 A 
ATOM      5  C4  UNL d   1       5.432   3.070   4.461  0.00  0.00    -0.005 A 
ATOM      6  C5  UNL d   1       4.863   2.142   3.583  0.00  0.00    -0.074 A 
ATOM      7  C6  UNL d   1       4.260   2.581   2.282  0.00  0.00     0.077 C 
ATOM      8  C7  UNL d   1       4.875   0.783   3.924  0.00  0.00    -0.001 A 
ENDROOT
TORSDOF 0
ENDMDL
