MODEL 1
REMARK minimizedAffinity -4.52878332
REMARK minimizedRMSD -1
REMARK  0 active torsions:
REMARK  status: ('A' for Active; 'I' for Inactive)
ROOT
ATOM      1  C   UNL d   1      -2.579   1.097   3.389  0.00  0.00     0.077 C 
ATOM      2  C1  UNL d   1      -1.775   1.180   2.125  0.00  0.00    -0.074 A 
ATOM      3  C2  UNL d   1      -1.399   2.417   1.592  0.00  0.00    -0.005 A 
ATOM      4  C3  UNL d   1      -0.643   2.477   0.422  0.00  0.00     0.006 A 
ATOM      5  C4  UNL d   1      -0.257   1.304  -0.227  0.00  0.00    -0.005 A 
ATOM      6  C5  UNL d   1      -0.624   0.058   0.291  0.00  0.00    -0.074 A 
ATOM      7  C6  UNL d   1      -0.209  -1.213  -0.388  0.00  0.00     0.077 C 
ATOM      8  C7  UNL d   1      -1.377   0.005   1.472  0.00  0.00    -0.001 A 
ENDROOT
TORSDOF 0
ENDMDL
