MODEL 1
REMARK minimizedAffinity -4.09440756
REMARK minimizedRMSD -1
REMARK  0 active torsions:
REMARK  status: ('A' for Active; 'I' for Inactive)
ROOT
ATOM      1  C   UNL d   1       3.304  -0.620  -1.104  0.00  0.00     0.077 C 
ATOM      2  C1  UNL d   1       1.850  -0.468  -0.771  0.00  0.00    -0.074 A 
ATOM      3  C2  UNL d   1       0.956  -1.528  -0.956  0.00  0.00    -0.005 A 
ATOM      4  C3  UNL d   1      -0.392  -1.376  -0.633  0.00  0.00     0.006 A 
ATOM      5  C4  UNL d   1      -0.860  -0.164  -0.122  0.00  0.00    -0.005 A 
ATOM      6  C5  UNL d   1       0.019   0.906   0.072  0.00  0.00    -0.074 A 
ATOM      7  C6  UNL d   1      -0.465   2.211   0.629  0.00  0.00     0.077 C 
ATOM      8  C7  UNL d   1       1.374   0.743  -0.249  0.00  0.00    -0.001 A 
ENDROOT
TORSDOF 0
ENDMDL
