MODEL 1
REMARK minimizedAffinity -0.94975841
REMARK minimizedRMSD -1
REMARK  0 active torsions:
REMARK  status: ('A' for Active; 'I' for Inactive)
ROOT
ATOM      1  C   UNL d   1       2.061  -1.867  -1.818  0.00  0.00     0.077 C 
ATOM      2  C1  UNL d   1       1.026  -1.106  -1.043  0.00  0.00    -0.074 A 
ATOM      3  C2  UNL d   1      -0.013  -1.772  -0.385  0.00  0.00    -0.005 A 
ATOM      4  C3  UNL d   1      -0.962  -1.052   0.340  0.00  0.00     0.006 A 
ATOM      5  C4  UNL d   1      -0.883   0.339   0.413  0.00  0.00    -0.005 A 
ATOM      6  C5  UNL d   1       0.149   1.022  -0.237  0.00  0.00    -0.074 A 
ATOM      7  C6  UNL d   1       0.255   2.516  -0.160  0.00  0.00     0.077 C 
ATOM      8  C7  UNL d   1       1.103   0.291  -0.958  0.00  0.00    -0.001 A 
ENDROOT
TORSDOF 0
ENDMDL
