MODEL 1
REMARK minimizedAffinity -5.40208197
REMARK minimizedRMSD -1
REMARK  0 active torsions:
REMARK  status: ('A' for Active; 'I' for Inactive)
ROOT
ATOM      1  C   UNL d   1       3.435  -0.501  -1.025  0.00  0.00     0.077 C 
ATOM      2  C1  UNL d   1       2.002  -0.278  -0.644  0.00  0.00    -0.074 A 
ATOM      3  C2  UNL d   1       1.019  -1.222  -0.957  0.00  0.00    -0.005 A 
ATOM      4  C3  UNL d   1      -0.308  -1.005  -0.588  0.00  0.00     0.006 A 
ATOM      5  C4  UNL d   1      -0.665   0.157   0.098  0.00  0.00    -0.005 A 
ATOM      6  C5  UNL d   1       0.304   1.112   0.421  0.00  0.00    -0.074 A 
ATOM      7  C6  UNL d   1      -0.062   2.361   1.166  0.00  0.00     0.077 C 
ATOM      8  C7  UNL d   1       1.637   0.883   0.052  0.00  0.00    -0.001 A 
ENDROOT
TORSDOF 0
ENDMDL
