MODEL 1
REMARK minimizedAffinity -1.6211623
REMARK minimizedRMSD -1
REMARK  0 active torsions:
REMARK  status: ('A' for Active; 'I' for Inactive)
ROOT
ATOM      1  C   UNL d   1      -0.462  -1.182  -0.460  0.00  0.00     0.077 C 
ATOM      2  C1  UNL d   1      -0.496  -0.056   0.530  0.00  0.00    -0.074 A 
ATOM      3  C2  UNL d   1      -0.007   1.210   0.196  0.00  0.00    -0.005 A 
ATOM      4  C3  UNL d   1      -0.053   2.250   1.124  0.00  0.00     0.006 A 
ATOM      5  C4  UNL d   1      -0.589   2.034   2.395  0.00  0.00    -0.005 A 
ATOM      6  C5  UNL d   1      -1.083   0.774   2.747  0.00  0.00    -0.074 A 
ATOM      7  C6  UNL d   1      -1.671   0.528   4.105  0.00  0.00     0.077 C 
ATOM      8  C7  UNL d   1      -1.039  -0.263   1.806  0.00  0.00    -0.001 A 
ENDROOT
TORSDOF 0
ENDMDL
