MODEL 1
REMARK minimizedAffinity -3.65017056
REMARK minimizedRMSD -1
REMARK  0 active torsions:
REMARK  status: ('A' for Active; 'I' for Inactive)
ROOT
ATOM      1  C   UNL d   1      -0.022   2.221  -1.197  0.00  0.00     0.077 C 
ATOM      2  C1  UNL d   1      -0.588   2.008   0.176  0.00  0.00    -0.074 A 
ATOM      3  C2  UNL d   1      -0.286   2.886   1.222  0.00  0.00    -0.005 A 
ATOM      4  C3  UNL d   1      -0.828   2.680   2.491  0.00  0.00     0.006 A 
ATOM      5  C4  UNL d   1      -1.676   1.597   2.726  0.00  0.00    -0.005 A 
ATOM      6  C5  UNL d   1      -1.989   0.709   1.692  0.00  0.00    -0.074 A 
ATOM      7  C6  UNL d   1      -2.906  -0.454   1.925  0.00  0.00     0.077 C 
ATOM      8  C7  UNL d   1      -1.447   0.927   0.418  0.00  0.00    -0.001 A 
ENDROOT
TORSDOF 0
ENDMDL
