MODEL 1
REMARK minimizedAffinity -3.20143414
REMARK minimizedRMSD -1
REMARK  0 active torsions:
REMARK  status: ('A' for Active; 'I' for Inactive)
ROOT
ATOM      1  C   UNL d   1       2.056  -1.749  -1.803  0.00  0.00     0.077 C 
ATOM      2  C1  UNL d   1       1.003  -1.011  -1.029  0.00  0.00    -0.074 A 
ATOM      3  C2  UNL d   1       0.251  -1.657  -0.042  0.00  0.00    -0.005 A 
ATOM      4  C3  UNL d   1      -0.717  -0.956   0.676  0.00  0.00     0.006 A 
ATOM      5  C4  UNL d   1      -0.943   0.396   0.415  0.00  0.00    -0.005 A 
ATOM      6  C5  UNL d   1      -0.200   1.059  -0.567  0.00  0.00    -0.074 A 
ATOM      7  C6  UNL d   1      -0.424   2.514  -0.852  0.00  0.00     0.077 C 
ATOM      8  C7  UNL d   1       0.776   0.349  -1.279  0.00  0.00    -0.001 A 
ENDROOT
TORSDOF 0
ENDMDL
