MODEL 1
REMARK minimizedAffinity -5.3106451
REMARK minimizedRMSD -1
REMARK  0 active torsions:
REMARK  status: ('A' for Active; 'I' for Inactive)
ROOT
ATOM      1  C   UNL d   1       3.509  -0.543  -1.150  0.00  0.00     0.077 C 
ATOM      2  C1  UNL d   1       2.123  -0.672  -0.593  0.00  0.00    -0.074 A 
ATOM      3  C2  UNL d   1       1.450  -1.897  -0.618  0.00  0.00    -0.005 A 
ATOM      4  C3  UNL d   1       0.164  -2.005  -0.087  0.00  0.00     0.006 A 
ATOM      5  C4  UNL d   1      -0.460  -0.889   0.474  0.00  0.00    -0.005 A 
ATOM      6  C5  UNL d   1       0.199   0.344   0.509  0.00  0.00    -0.074 A 
ATOM      7  C6  UNL d   1      -0.453   1.550   1.117  0.00  0.00     0.077 C 
ATOM      8  C7  UNL d   1       1.493   0.442  -0.021  0.00  0.00    -0.001 A 
ENDROOT
TORSDOF 0
ENDMDL
