MODEL 1
REMARK minimizedAffinity -3.19426632
REMARK minimizedRMSD -1
REMARK  1 active torsions:
REMARK  status: ('A' for Active; 'I' for Inactive)
REMARK    1  A    between atoms: C1_2  and  C2_3 
ROOT
ATOM      1  C2  UNL d   1       1.725  -0.835  -0.387  0.00  0.00    -0.077 A 
ATOM      2  C3  UNL d   1       0.960  -1.953  -0.027  0.00  0.00     0.002 A 
ATOM      3  C4  UNL d   1      -0.371  -1.801   0.366  0.00  0.00     0.002 A 
ATOM      4  C5  UNL d   1      -0.950  -0.534   0.398  0.00  0.00    -0.004 A 
ATOM      5  C6  UNL d   1      -0.196   0.585   0.044  0.00  0.00     0.002 A 
ATOM      6  C7  UNL d   1       1.135   0.435  -0.348  0.00  0.00     0.002 A 
ENDROOT
BRANCH   1   7
ATOM      7  C1  UNL d   1       3.146  -1.002  -0.858  0.00  0.00     0.055 C 
ATOM      8  C   UNL d   1       3.226  -1.937  -2.056  0.00  0.00     0.019 C 
ENDBRANCH   1   7
TORSDOF 1
ENDMDL
