MODEL 1
REMARK minimizedAffinity -2.7980051
REMARK minimizedRMSD -1
REMARK  1 active torsions:
REMARK  status: ('A' for Active; 'I' for Inactive)
REMARK    1  A    between atoms: C1_2  and  C2_3 
ROOT
ATOM      1  C2  UNL d   1       0.200  -0.069  -0.338  0.00  0.00    -0.077 A 
ATOM      2  C3  UNL d   1       0.720   1.156  -0.779  0.00  0.00     0.002 A 
ATOM      3  C4  UNL d   1       1.968   1.210  -1.403  0.00  0.00     0.002 A 
ATOM      4  C5  UNL d   1       2.704   0.042  -1.594  0.00  0.00    -0.004 A 
ATOM      5  C6  UNL d   1       2.196  -1.181  -1.157  0.00  0.00     0.002 A 
ATOM      6  C7  UNL d   1       0.950  -1.236  -0.532  0.00  0.00     0.002 A 
ENDROOT
BRANCH   1   7
ATOM      7  C1  UNL d   1      -1.167  -0.136   0.290  0.00  0.00     0.055 C 
ATOM      8  C   UNL d   1      -1.503   1.155   1.024  0.00  0.00     0.019 C 
ENDBRANCH   1   7
TORSDOF 1
ENDMDL
