MODEL 1
REMARK minimizedAffinity -4.42640734
REMARK minimizedRMSD -1
REMARK  1 active torsions:
REMARK  status: ('A' for Active; 'I' for Inactive)
REMARK    1  A    between atoms: C1_2  and  C2_3 
ROOT
ATOM      1  C2  UNL d   1      -0.078  -0.071  -0.144  0.00  0.00    -0.077 A 
ATOM      2  C3  UNL d   1       0.884   0.877  -0.519  0.00  0.00     0.002 A 
ATOM      3  C4  UNL d   1       2.146   0.469  -0.953  0.00  0.00     0.002 A 
ATOM      4  C5  UNL d   1       2.457  -0.888  -1.019  0.00  0.00    -0.004 A 
ATOM      5  C6  UNL d   1       1.508  -1.839  -0.647  0.00  0.00     0.002 A 
ATOM      6  C7  UNL d   1       0.246  -1.432  -0.211  0.00  0.00     0.002 A 
ENDROOT
BRANCH   1   7
ATOM      7  C1  UNL d   1      -1.457   0.366   0.278  0.00  0.00     0.055 C 
ATOM      8  C   UNL d   1      -1.476   0.813   1.732  0.00  0.00     0.019 C 
ENDBRANCH   1   7
TORSDOF 1
ENDMDL
