MODEL 1
REMARK minimizedAffinity -4.65863419
REMARK minimizedRMSD -1
REMARK  1 active torsions:
REMARK  status: ('A' for Active; 'I' for Inactive)
REMARK    1  A    between atoms: C1_2  and  C2_3 
ROOT
ATOM      1  C2  UNL d   1       0.040  -0.098   0.186  0.00  0.00    -0.077 A 
ATOM      2  C3  UNL d   1       0.956   0.842  -0.306  0.00  0.00     0.002 A 
ATOM      3  C4  UNL d   1       2.170   0.424  -0.855  0.00  0.00     0.002 A 
ATOM      4  C5  UNL d   1       2.477  -0.934  -0.920  0.00  0.00    -0.004 A 
ATOM      5  C6  UNL d   1       1.573  -1.876  -0.432  0.00  0.00     0.002 A 
ATOM      6  C7  UNL d   1       0.359  -1.460   0.118  0.00  0.00     0.002 A 
ENDROOT
BRANCH   1   7
ATOM      7  C1  UNL d   1      -1.291   0.347   0.733  0.00  0.00     0.055 C 
ATOM      8  C   UNL d   1      -1.156   0.876   2.154  0.00  0.00     0.019 C 
ENDBRANCH   1   7
TORSDOF 1
ENDMDL
