MODEL 1
REMARK minimizedAffinity -3.01424837
REMARK minimizedRMSD -1
REMARK  1 active torsions:
REMARK  status: ('A' for Active; 'I' for Inactive)
REMARK    1  A    between atoms: C1_2  and  C2_3 
ROOT
ATOM      1  C2  UNL d   1      -0.716  -0.093   0.439  0.00  0.00    -0.077 A 
ATOM      2  C3  UNL d   1      -0.525  -1.471   0.265  0.00  0.00     0.002 A 
ATOM      3  C4  UNL d   1       0.657  -1.956  -0.298  0.00  0.00     0.002 A 
ATOM      4  C5  UNL d   1       1.659  -1.069  -0.688  0.00  0.00    -0.004 A 
ATOM      5  C6  UNL d   1       1.478   0.303  -0.522  0.00  0.00     0.002 A 
ATOM      6  C7  UNL d   1       0.296   0.789   0.040  0.00  0.00     0.002 A 
ENDROOT
BRANCH   1   7
ATOM      7  C1  UNL d   1      -1.970   0.428   1.091  0.00  0.00     0.055 C 
ATOM      8  C   UNL d   1      -1.752   0.697   2.573  0.00  0.00     0.019 C 
ENDBRANCH   1   7
TORSDOF 1
ENDMDL
