MODEL 1
REMARK minimizedAffinity -3.88997889
REMARK minimizedRMSD -1
REMARK  1 active torsions:
REMARK  status: ('A' for Active; 'I' for Inactive)
REMARK    1  A    between atoms: C1_2  and  C2_3 
ROOT
ATOM      1  C2  UNL d   1      -0.033   0.428   0.046  0.00  0.00    -0.077 A 
ATOM      2  C3  UNL d   1       0.349   1.541  -0.717  0.00  0.00     0.002 A 
ATOM      3  C4  UNL d   1       1.548   1.529  -1.432  0.00  0.00     0.002 A 
ATOM      4  C5  UNL d   1       2.372   0.407  -1.396  0.00  0.00    -0.004 A 
ATOM      5  C6  UNL d   1       2.002  -0.704  -0.639  0.00  0.00     0.002 A 
ATOM      6  C7  UNL d   1       0.804  -0.694   0.078  0.00  0.00     0.002 A 
ENDROOT
BRANCH   1   7
ATOM      7  C1  UNL d   1      -1.349   0.420   0.779  0.00  0.00     0.055 C 
ATOM      8  C   UNL d   1      -1.177   0.845   2.230  0.00  0.00     0.019 C 
ENDBRANCH   1   7
TORSDOF 1
ENDMDL
