MODEL 1
REMARK minimizedAffinity -5.77746105
REMARK minimizedRMSD -1
REMARK  1 active torsions:
REMARK  status: ('A' for Active; 'I' for Inactive)
REMARK    1  A    between atoms: C1_2  and  C2_3 
ROOT
ATOM      1  C2  UNL d   1       1.049   0.282  -0.617  0.00  0.00    -0.077 A 
ATOM      2  C3  UNL d   1       0.196  -0.370   0.284  0.00  0.00     0.002 A 
ATOM      3  C4  UNL d   1      -1.163  -0.054   0.324  0.00  0.00     0.002 A 
ATOM      4  C5  UNL d   1      -1.682   0.909  -0.538  0.00  0.00    -0.004 A 
ATOM      5  C6  UNL d   1      -0.841   1.564  -1.437  0.00  0.00     0.002 A 
ATOM      6  C7  UNL d   1       0.518   1.251  -1.478  0.00  0.00     0.002 A 
ENDROOT
BRANCH   1   7
ATOM      7  C1  UNL d   1       2.507  -0.092  -0.696  0.00  0.00     0.055 C 
ATOM      8  C   UNL d   1       2.822  -0.820  -1.994  0.00  0.00     0.019 C 
ENDBRANCH   1   7
TORSDOF 1
ENDMDL
