MODEL 1
REMARK minimizedAffinity -5.7326479
REMARK minimizedRMSD -1
REMARK  1 active torsions:
REMARK  status: ('A' for Active; 'I' for Inactive)
REMARK    1  A    between atoms: C1_2  and  C2_3 
ROOT
ATOM      1  C2  UNL d   1       0.078  -0.110  -0.050  0.00  0.00    -0.077 A 
ATOM      2  C3  UNL d   1       0.545  -1.429  -0.135  0.00  0.00     0.002 A 
ATOM      3  C4  UNL d   1       1.814  -1.697  -0.651  0.00  0.00     0.002 A 
ATOM      4  C5  UNL d   1       2.627  -0.652  -1.083  0.00  0.00    -0.004 A 
ATOM      5  C6  UNL d   1       2.172   0.663  -1.004  0.00  0.00     0.002 A 
ATOM      6  C7  UNL d   1       0.903   0.933  -0.489  0.00  0.00     0.002 A 
ENDROOT
BRANCH   1   7
ATOM      7  C1  UNL d   1      -1.271   0.186   0.553  0.00  0.00     0.055 C 
ATOM      8  C   UNL d   1      -1.154   1.151   1.724  0.00  0.00     0.019 C 
ENDBRANCH   1   7
TORSDOF 1
ENDMDL
