MODEL 1
REMARK minimizedAffinity -4.65121508
REMARK minimizedRMSD -1
REMARK  1 active torsions:
REMARK  status: ('A' for Active; 'I' for Inactive)
REMARK    1  A    between atoms: C1_2  and  C2_3 
ROOT
ATOM      1  C2  UNL d   1       1.462  -0.498  -1.038  0.00  0.00    -0.077 A 
ATOM      2  C3  UNL d   1       0.550  -1.199  -0.238  0.00  0.00     0.002 A 
ATOM      3  C4  UNL d   1      -0.648  -0.601   0.159  0.00  0.00     0.002 A 
ATOM      4  C5  UNL d   1      -0.946   0.699  -0.243  0.00  0.00    -0.004 A 
ATOM      5  C6  UNL d   1      -0.044   1.406  -1.038  0.00  0.00     0.002 A 
ATOM      6  C7  UNL d   1       1.154   0.810  -1.434  0.00  0.00     0.002 A 
ENDROOT
BRANCH   1   7
ATOM      7  C1  UNL d   1       2.732  -1.159  -1.508  0.00  0.00     0.055 C 
ATOM      8  C   UNL d   1       3.523  -0.244  -2.431  0.00  0.00     0.019 C 
ENDBRANCH   1   7
TORSDOF 1
ENDMDL
