MODEL 1
REMARK minimizedAffinity -5.53863907
REMARK minimizedRMSD -1
REMARK  1 active torsions:
REMARK  status: ('A' for Active; 'I' for Inactive)
REMARK    1  A    between atoms: C1_2  and  C2_3 
ROOT
ATOM      1  C2  UNL d   1       0.001   0.085  -0.314  0.00  0.00    -0.077 A 
ATOM      2  C3  UNL d   1       0.276  -1.271  -0.091  0.00  0.00     0.002 A 
ATOM      3  C4  UNL d   1       1.460  -1.840  -0.566  0.00  0.00     0.002 A 
ATOM      4  C5  UNL d   1       2.380  -1.058  -1.262  0.00  0.00    -0.004 A 
ATOM      5  C6  UNL d   1       2.115   0.292  -1.490  0.00  0.00     0.002 A 
ATOM      6  C7  UNL d   1       0.932   0.861  -1.018  0.00  0.00     0.002 A 
ENDROOT
BRANCH   1   7
ATOM      7  C1  UNL d   1      -1.252   0.712   0.240  0.00  0.00     0.055 C 
ATOM      8  C   UNL d   1      -1.257   0.689   1.761  0.00  0.00     0.019 C 
ENDBRANCH   1   7
TORSDOF 1
ENDMDL
