MODEL 1
REMARK minimizedAffinity -4.74677324
REMARK minimizedRMSD -1
REMARK  1 active torsions:
REMARK  status: ('A' for Active; 'I' for Inactive)
REMARK    1  A    between atoms: C1_2  and  C2_3 
ROOT
ATOM      1  C2  UNL d   1      -0.248   0.075  -0.132  0.00  0.00    -0.077 A 
ATOM      2  C3  UNL d   1       0.767   0.836  -0.729  0.00  0.00     0.002 A 
ATOM      3  C4  UNL d   1       1.941   0.224  -1.173  0.00  0.00     0.002 A 
ATOM      4  C5  UNL d   1       2.109  -1.152  -1.029  0.00  0.00    -0.004 A 
ATOM      5  C6  UNL d   1       1.106  -1.917  -0.435  0.00  0.00     0.002 A 
ATOM      6  C7  UNL d   1      -0.067  -1.307   0.011  0.00  0.00     0.002 A 
ENDROOT
BRANCH   1   7
ATOM      7  C1  UNL d   1      -1.535   0.725   0.303  0.00  0.00     0.055 C 
ATOM      8  C   UNL d   1      -1.665   0.735   1.819  0.00  0.00     0.019 C 
ENDBRANCH   1   7
TORSDOF 1
ENDMDL
