MODEL 1
REMARK minimizedAffinity -4.16509628
REMARK minimizedRMSD -1
REMARK  1 active torsions:
REMARK  status: ('A' for Active; 'I' for Inactive)
REMARK    1  A    between atoms: C1_2  and  C2_3 
ROOT
ATOM      1  C2  UNL d   1      -1.079   0.362   0.614  0.00  0.00    -0.077 A 
ATOM      2  C3  UNL d   1      -0.149  -0.688   0.625  0.00  0.00     0.002 A 
ATOM      3  C4  UNL d   1       0.932  -0.682  -0.259  0.00  0.00     0.002 A 
ATOM      4  C5  UNL d   1       1.096   0.371  -1.155  0.00  0.00    -0.004 A 
ATOM      5  C6  UNL d   1       0.176   1.419  -1.175  0.00  0.00     0.002 A 
ATOM      6  C7  UNL d   1      -0.906   1.414  -0.294  0.00  0.00     0.002 A 
ENDROOT
BRANCH   1   7
ATOM      7  C1  UNL d   1      -2.218   0.382   1.599  0.00  0.00     0.055 C 
ATOM      8  C   UNL d   1      -1.834   1.119   2.874  0.00  0.00     0.019 C 
ENDBRANCH   1   7
TORSDOF 1
ENDMDL
