MODEL 1
REMARK minimizedAffinity 6.51804304
REMARK minimizedRMSD -1
REMARK  0 active torsions:
REMARK  status: ('A' for Active; 'I' for Inactive)
ROOT
ATOM      1  C1  DEN d   1      -2.909  -1.440   1.561  0.00  0.00     0.130 A 
ATOM      2  C2  DEN d   1      -4.228  -1.279   2.167  0.00  0.00    -0.031 A 
ATOM      3  C3  DEN d   1      -4.209  -0.047   2.980  0.00  0.00     0.027 A 
ATOM      4  C4  DEN d   1      -2.279   1.622   3.354  0.00  0.00     0.027 A 
ATOM      5  C5  DEN d   1      -0.963   1.902   3.056  0.00  0.00    -0.003 A 
ATOM      6  C6  DEN d   1      -0.200   1.077   2.273  0.00  0.00     0.001 A 
ATOM      7  C7  DEN d   1      -0.760  -0.046   1.724  0.00  0.00     0.017 A 
ATOM      8  C8  DEN d   1      -2.084  -0.339   2.026  0.00  0.00    -0.094 A 
ATOM      9  C9  DEN d   1      -2.842   0.514   2.809  0.00  0.00    -0.072 A 
ENDROOT
TORSDOF 0
ENDMDL
