MODEL 1
REMARK minimizedAffinity 13.4951801
REMARK minimizedRMSD -1
REMARK  0 active torsions:
REMARK  status: ('A' for Active; 'I' for Inactive)
ROOT
ATOM      1  C1  DEN d   1       4.770   0.957   1.256  0.00  0.00     0.130 A 
ATOM      2  C2  DEN d   1       4.002   2.123   0.827  0.00  0.00    -0.031 A 
ATOM      3  C3  DEN d   1       2.826   1.642   0.074  0.00  0.00     0.027 A 
ATOM      4  C4  DEN d   1       2.122  -0.780  -0.462  0.00  0.00     0.027 A 
ATOM      5  C5  DEN d   1       2.464  -2.107  -0.319  0.00  0.00    -0.003 A 
ATOM      6  C6  DEN d   1       3.608  -2.500   0.325  0.00  0.00     0.001 A 
ATOM      7  C7  DEN d   1       4.427  -1.559   0.889  0.00  0.00     0.017 A 
ATOM      8  C8  DEN d   1       4.092  -0.219   0.742  0.00  0.00    -0.094 A 
ATOM      9  C9  DEN d   1       2.926   0.158   0.098  0.00  0.00    -0.072 A 
ENDROOT
TORSDOF 0
ENDMDL
