MODEL 1
REMARK minimizedAffinity 16.3803692
REMARK minimizedRMSD -1
REMARK  0 active torsions:
REMARK  status: ('A' for Active; 'I' for Inactive)
ROOT
ATOM      1  C1  DEN d   1      -2.906   1.450   2.542  0.00  0.00     0.130 A 
ATOM      2  C2  DEN d   1      -1.608   0.974   3.012  0.00  0.00    -0.031 A 
ATOM      3  C3  DEN d   1      -1.477   1.339   4.437  0.00  0.00     0.027 A 
ATOM      4  C4  DEN d   1      -3.151   2.584   5.954  0.00  0.00     0.027 A 
ATOM      5  C5  DEN d   1      -4.384   3.196   5.999  0.00  0.00    -0.003 A 
ATOM      6  C6  DEN d   1      -5.190   3.298   4.896  0.00  0.00     0.001 A 
ATOM      7  C7  DEN d   1      -4.791   2.740   3.711  0.00  0.00     0.017 A 
ATOM      8  C8  DEN d   1      -3.546   2.128   3.655  0.00  0.00    -0.094 A 
ATOM      9  C9  DEN d   1      -2.751   2.024   4.784  0.00  0.00    -0.072 A 
ENDROOT
TORSDOF 0
ENDMDL
