MODEL 1
REMARK minimizedAffinity 11.9117107
REMARK minimizedRMSD -1
REMARK  0 active torsions:
REMARK  status: ('A' for Active; 'I' for Inactive)
ROOT
ATOM      1  C1  DEN d   1       2.582  -0.497  -0.198  0.00  0.00     0.130 A 
ATOM      2  C2  DEN d   1       1.937   0.351  -1.198  0.00  0.00    -0.031 A 
ATOM      3  C3  DEN d   1       1.363  -0.526  -2.238  0.00  0.00     0.027 A 
ATOM      4  C4  DEN d   1       1.405  -3.100  -2.396  0.00  0.00     0.027 A 
ATOM      5  C5  DEN d   1       1.845  -4.255  -1.788  0.00  0.00    -0.003 A 
ATOM      6  C6  DEN d   1       2.584  -4.237  -0.635  0.00  0.00     0.001 A 
ATOM      7  C7  DEN d   1       2.868  -3.041  -0.029  0.00  0.00     0.017 A 
ATOM      8  C8  DEN d   1       2.434  -1.872  -0.640  0.00  0.00    -0.094 A 
ATOM      9  C9  DEN d   1       1.677  -1.912  -1.799  0.00  0.00    -0.072 A 
ENDROOT
TORSDOF 0
ENDMDL
