MODEL 1
REMARK minimizedAffinity 9.07706451
REMARK minimizedRMSD -1
REMARK  0 active torsions:
REMARK  status: ('A' for Active; 'I' for Inactive)
ROOT
ATOM      1  C1  DEN d   1       0.770  -3.508  -2.893  0.00  0.00     0.130 A 
ATOM      2  C2  DEN d   1       0.997  -4.900  -3.272  0.00  0.00    -0.031 A 
ATOM      3  C3  DEN d   1       2.063  -5.441  -2.405  0.00  0.00     0.027 A 
ATOM      4  C4  DEN d   1       3.374  -4.266  -0.521  0.00  0.00     0.027 A 
ATOM      5  C5  DEN d   1       3.541  -3.080   0.160  0.00  0.00    -0.003 A 
ATOM      6  C6  DEN d   1       2.827  -1.954  -0.150  0.00  0.00     0.001 A 
ATOM      7  C7  DEN d   1       1.878  -2.002  -1.137  0.00  0.00     0.017 A 
ATOM      8  C8  DEN d   1       1.709  -3.192  -1.833  0.00  0.00    -0.094 A 
ATOM      9  C9  DEN d   1       2.433  -4.323  -1.496  0.00  0.00    -0.072 A 
ENDROOT
TORSDOF 0
ENDMDL
