MODEL 1
REMARK minimizedAffinity 9.73479652
REMARK minimizedRMSD -1
REMARK  0 active torsions:
REMARK  status: ('A' for Active; 'I' for Inactive)
ROOT
ATOM      1  C1  DEN d   1       1.671   2.061   3.063  0.00  0.00     0.130 A 
ATOM      2  C2  DEN d   1       0.497   1.261   2.722  0.00  0.00    -0.031 A 
ATOM      3  C3  DEN d   1       0.682   0.742   1.352  0.00  0.00     0.027 A 
ATOM      4  C4  DEN d   1       2.661   1.093  -0.264  0.00  0.00     0.027 A 
ATOM      5  C5  DEN d   1       3.884   1.707  -0.424  0.00  0.00    -0.003 A 
ATOM      6  C6  DEN d   1       4.435   2.502   0.545  0.00  0.00     0.001 A 
ATOM      7  C7  DEN d   1       3.782   2.670   1.738  0.00  0.00     0.017 A 
ATOM      8  C8  DEN d   1       2.545   2.060   1.904  0.00  0.00    -0.094 A 
ATOM      9  C9  DEN d   1       2.011   1.250   0.917  0.00  0.00    -0.072 A 
ENDROOT
TORSDOF 0
ENDMDL
