MODEL 1
REMARK minimizedAffinity 23.4387455
REMARK minimizedRMSD -1
REMARK  0 active torsions:
REMARK  status: ('A' for Active; 'I' for Inactive)
ROOT
ATOM      1  C1  DEN d   1      -2.810  -0.289   3.185  0.00  0.00     0.130 A 
ATOM      2  C2  DEN d   1      -3.897   0.683   3.098  0.00  0.00    -0.031 A 
ATOM      3  C3  DEN d   1      -3.301   2.015   2.871  0.00  0.00     0.027 A 
ATOM      4  C4  DEN d   1      -0.815   2.662   2.642  0.00  0.00     0.027 A 
ATOM      5  C5  DEN d   1       0.476   2.183   2.657  0.00  0.00    -0.003 A 
ATOM      6  C6  DEN d   1       0.761   0.862   2.880  0.00  0.00     0.001 A 
ATOM      7  C7  DEN d   1      -0.261  -0.034   3.054  0.00  0.00     0.017 A 
ATOM      8  C8  DEN d   1      -1.565   0.444   3.048  0.00  0.00    -0.094 A 
ATOM      9  C9  DEN d   1      -1.833   1.781   2.807  0.00  0.00    -0.072 A 
ENDROOT
TORSDOF 0
ENDMDL
