MODEL 1
REMARK minimizedAffinity 17.4950829
REMARK minimizedRMSD -1
REMARK  0 active torsions:
REMARK  status: ('A' for Active; 'I' for Inactive)
ROOT
ATOM      1  C1  DEN d   1      -2.706   1.148   2.262  0.00  0.00     0.130 A 
ATOM      2  C2  DEN d   1      -1.345   0.757   2.619  0.00  0.00    -0.031 A 
ATOM      3  C3  DEN d   1      -1.207   0.873   4.085  0.00  0.00     0.027 A 
ATOM      4  C4  DEN d   1      -2.961   1.610   5.827  0.00  0.00     0.027 A 
ATOM      5  C5  DEN d   1      -4.255   2.048   6.000  0.00  0.00    -0.003 A 
ATOM      6  C6  DEN d   1      -5.106   2.248   4.945  0.00  0.00     0.001 A 
ATOM      7  C7  DEN d   1      -4.687   1.966   3.672  0.00  0.00     0.017 A 
ATOM      8  C8  DEN d   1      -3.381   1.530   3.489  0.00  0.00    -0.094 A 
ATOM      9  C9  DEN d   1      -2.540   1.323   4.569  0.00  0.00    -0.072 A 
ENDROOT
TORSDOF 0
ENDMDL
