MODEL 1
REMARK minimizedAffinity 21.0209312
REMARK minimizedRMSD -1
REMARK  0 active torsions:
REMARK  status: ('A' for Active; 'I' for Inactive)
ROOT
ATOM      1  C1  DEN d   1       1.452  -2.608   0.153  0.00  0.00     0.130 A 
ATOM      2  C2  DEN d   1       1.766  -1.213  -0.142  0.00  0.00    -0.031 A 
ATOM      3  C3  DEN d   1       3.221  -1.110  -0.370  0.00  0.00     0.027 A 
ATOM      4  C4  DEN d   1       5.009  -2.968  -0.299  0.00  0.00     0.027 A 
ATOM      5  C5  DEN d   1       5.226  -4.310  -0.078  0.00  0.00    -0.003 A 
ATOM      6  C6  DEN d   1       4.213  -5.166   0.266  0.00  0.00     0.001 A 
ATOM      7  C7  DEN d   1       2.929  -4.697   0.355  0.00  0.00     0.017 A 
ATOM      8  C8  DEN d   1       2.704  -3.343   0.141  0.00  0.00    -0.094 A 
ATOM      9  C9  DEN d   1       3.739  -2.497  -0.218  0.00  0.00    -0.072 A 
ENDROOT
TORSDOF 0
ENDMDL
