MODEL 1
REMARK minimizedAffinity 12.233593
REMARK minimizedRMSD -1
REMARK  0 active torsions:
REMARK  status: ('A' for Active; 'I' for Inactive)
ROOT
ATOM      1  C1  DEN d   1       2.054  -2.794   0.068  0.00  0.00     0.130 A 
ATOM      2  C2  DEN d   1       3.169  -3.737   0.087  0.00  0.00    -0.031 A 
ATOM      3  C3  DEN d   1       4.345  -3.042   0.648  0.00  0.00     0.027 A 
ATOM      4  C4  DEN d   1       4.545  -0.612   1.490  0.00  0.00     0.027 A 
ATOM      5  C5  DEN d   1       3.869   0.575   1.663  0.00  0.00    -0.003 A 
ATOM      6  C6  DEN d   1       2.560   0.731   1.290  0.00  0.00     0.001 A 
ATOM      7  C7  DEN d   1       1.873  -0.331   0.764  0.00  0.00     0.017 A 
ATOM      8  C8  DEN d   1       2.551  -1.529   0.578  0.00  0.00    -0.094 A 
ATOM      9  C9  DEN d   1       3.870  -1.670   0.974  0.00  0.00    -0.072 A 
ENDROOT
TORSDOF 0
ENDMDL
