MODEL 1
REMARK minimizedAffinity 15.911972
REMARK minimizedRMSD -1
REMARK  0 active torsions:
REMARK  status: ('A' for Active; 'I' for Inactive)
ROOT
ATOM      1  C1  DEN d   1      -2.468  -3.440  -6.000  0.00  0.00     0.130 A 
ATOM      2  C2  DEN d   1      -3.895  -3.221  -5.776  0.00  0.00    -0.031 A 
ATOM      3  C3  DEN d   1      -4.228  -3.723  -4.428  0.00  0.00     0.027 A 
ATOM      4  C4  DEN d   1      -2.681  -4.808  -2.672  0.00  0.00     0.027 A 
ATOM      5  C5  DEN d   1      -1.392  -5.216  -2.411  0.00  0.00    -0.003 A 
ATOM      6  C6  DEN d   1      -0.386  -5.093  -3.333  0.00  0.00     0.001 A 
ATOM      7  C7  DEN d   1      -0.644  -4.507  -4.544  0.00  0.00     0.017 A 
ATOM      8  C8  DEN d   1      -1.943  -4.099  -4.818  0.00  0.00    -0.094 A 
ATOM      9  C9  DEN d   1      -2.943  -4.221  -3.868  0.00  0.00    -0.072 A 
ENDROOT
TORSDOF 0
ENDMDL
