MODEL 1
REMARK minimizedAffinity 13.9153099
REMARK minimizedRMSD -1
REMARK  0 active torsions:
REMARK  status: ('A' for Active; 'I' for Inactive)
ROOT
ATOM      1  C1  DEN d   1      -2.947  -0.909   5.999  0.00  0.00     0.130 A 
ATOM      2  C2  DEN d   1      -2.997  -2.071   5.116  0.00  0.00    -0.031 A 
ATOM      3  C3  DEN d   1      -3.526  -1.631   3.810  0.00  0.00     0.027 A 
ATOM      4  C4  DEN d   1      -4.265   0.727   3.070  0.00  0.00     0.027 A 
ATOM      5  C5  DEN d   1      -4.416   2.035   3.476  0.00  0.00    -0.003 A 
ATOM      6  C6  DEN d   1      -4.124   2.443   4.751  0.00  0.00     0.001 A 
ATOM      7  C7  DEN d   1      -3.621   1.543   5.653  0.00  0.00     0.017 A 
ATOM      8  C8  DEN d   1      -3.472   0.221   5.253  0.00  0.00    -0.094 A 
ATOM      9  C9  DEN d   1      -3.762  -0.169   3.957  0.00  0.00    -0.072 A 
ENDROOT
TORSDOF 0
ENDMDL
