MODEL 1
REMARK minimizedAffinity 4.16409349
REMARK minimizedRMSD -1
REMARK  0 active torsions:
REMARK  status: ('A' for Active; 'I' for Inactive)
ROOT
ATOM      1  C1  DEN d   1       3.167  -2.113  -1.018  0.00  0.00     0.130 A 
ATOM      2  C2  DEN d   1       2.263  -1.361  -1.884  0.00  0.00    -0.031 A 
ATOM      3  C3  DEN d   1       1.417  -2.329  -2.611  0.00  0.00     0.027 A 
ATOM      4  C4  DEN d   1       1.416  -4.905  -2.477  0.00  0.00     0.027 A 
ATOM      5  C5  DEN d   1       2.013  -5.998  -1.890  0.00  0.00    -0.003 A 
ATOM      6  C6  DEN d   1       3.051  -5.876  -1.004  0.00  0.00     0.001 A 
ATOM      7  C7  DEN d   1       3.494  -4.631  -0.645  0.00  0.00     0.017 A 
ATOM      8  C8  DEN d   1       2.902  -3.523  -1.239  0.00  0.00    -0.094 A 
ATOM      9  C9  DEN d   1       1.846  -3.667  -2.123  0.00  0.00    -0.072 A 
ENDROOT
TORSDOF 0
ENDMDL
