MODEL 1
REMARK minimizedAffinity 19.5757942
REMARK minimizedRMSD -1
REMARK  0 active torsions:
REMARK  status: ('A' for Active; 'I' for Inactive)
ROOT
ATOM      1  C1  DEN d   1       1.542   0.948   4.745  0.00  0.00     0.130 A 
ATOM      2  C2  DEN d   1       1.087   1.541   5.999  0.00  0.00    -0.031 A 
ATOM      3  C3  DEN d   1      -0.367   1.778   5.891  0.00  0.00     0.027 A 
ATOM      4  C4  DEN d   1      -1.949   1.285   3.915  0.00  0.00     0.027 A 
ATOM      5  C5  DEN d   1      -2.020   0.794   2.629  0.00  0.00    -0.003 A 
ATOM      6  C6  DEN d   1      -0.913   0.355   1.953  0.00  0.00     0.001 A 
ATOM      7  C7  DEN d   1       0.308   0.357   2.575  0.00  0.00     0.017 A 
ATOM      8  C8  DEN d   1       0.389   0.857   3.868  0.00  0.00    -0.094 A 
ATOM      9  C9  DEN d   1      -0.744   1.284   4.539  0.00  0.00    -0.072 A 
ENDROOT
TORSDOF 0
ENDMDL
