MODEL 1
REMARK minimizedAffinity 22.5466137
REMARK minimizedRMSD -1
REMARK  0 active torsions:
REMARK  status: ('A' for Active; 'I' for Inactive)
ROOT
ATOM      1  C1  DEN d   1      -2.617  -0.100   1.608  0.00  0.00     0.130 A 
ATOM      2  C2  DEN d   1      -3.522   0.607   2.510  0.00  0.00    -0.031 A 
ATOM      3  C3  DEN d   1      -2.704   1.401   3.448  0.00  0.00     0.027 A 
ATOM      4  C4  DEN d   1      -0.137   1.609   3.587  0.00  0.00     0.027 A 
ATOM      5  C5  DEN d   1       1.055   1.188   3.039  0.00  0.00    -0.003 A 
ATOM      6  C6  DEN d   1       1.107   0.290   2.007  0.00  0.00     0.001 A 
ATOM      7  C7  DEN d   1      -0.057  -0.183   1.459  0.00  0.00     0.017 A 
ATOM      8  C8  DEN d   1      -1.262   0.231   2.011  0.00  0.00    -0.094 A 
ATOM      9  C9  DEN d   1      -1.294   1.150   3.047  0.00  0.00    -0.072 A 
ENDROOT
TORSDOF 0
ENDMDL
