MODEL 1
REMARK minimizedAffinity -4.80349874
REMARK minimizedRMSD -1
REMARK  0 active torsions:
REMARK  status: ('A' for Active; 'I' for Inactive)
ROOT
ATOM      1  C   UNL d   1       1.498   1.543  -2.951  0.00  0.00     0.023 A 
ATOM      2  C1  UNL d   1       0.469   1.793  -2.043  0.00  0.00     0.003 A 
ATOM      3  C2  UNL d   1       0.121   0.826  -1.097  0.00  0.00     0.048 A 
ATOM      4  C3  UNL d   1       0.806  -0.388  -1.065  0.00  0.00     0.023 A 
ATOM      5  C4  UNL d   1       1.837  -0.641  -1.971  0.00  0.00     0.048 A 
ATOM      6  C5  UNL d   1       2.181   0.328  -2.915  0.00  0.00     0.003 A 
ATOM      7  I   UNL d   1       0.290  -1.828   0.342  0.00  0.00    -0.146 I 
ENDROOT
TORSDOF 0
ENDMDL
