MODEL 1
REMARK minimizedAffinity -2.9540422
REMARK minimizedRMSD -1
REMARK  0 active torsions:
REMARK  status: ('A' for Active; 'I' for Inactive)
ROOT
ATOM      1  C   UNL d   1       1.931  -0.102  -2.185  0.00  0.00     0.023 A 
ATOM      2  C1  UNL d   1       1.927  -1.018  -1.133  0.00  0.00     0.003 A 
ATOM      3  C2  UNL d   1       1.078  -0.825  -0.041  0.00  0.00     0.048 A 
ATOM      4  C3  UNL d   1       0.235   0.285  -0.009  0.00  0.00     0.023 A 
ATOM      5  C4  UNL d   1       0.235   1.203  -1.060  0.00  0.00     0.048 A 
ATOM      6  C5  UNL d   1       1.087   1.007  -2.149  0.00  0.00     0.003 A 
ATOM      7  I   UNL d   1      -1.031   0.574   1.614  0.00  0.00    -0.146 I 
ENDROOT
TORSDOF 0
ENDMDL
