MODEL 1
REMARK minimizedAffinity -4.09746361
REMARK minimizedRMSD -1
REMARK  0 active torsions:
REMARK  status: ('A' for Active; 'I' for Inactive)
ROOT
ATOM      1  C   UNL d   1       2.262  -0.879  -1.907  0.00  0.00     0.023 A 
ATOM      2  C1  UNL d   1       1.686  -1.872  -1.115  0.00  0.00     0.003 A 
ATOM      3  C2  UNL d   1       0.742  -1.532  -0.144  0.00  0.00     0.048 A 
ATOM      4  C3  UNL d   1       0.378  -0.197   0.029  0.00  0.00     0.023 A 
ATOM      5  C4  UNL d   1       0.952   0.800  -0.762  0.00  0.00     0.048 A 
ATOM      6  C5  UNL d   1       1.896   0.455  -1.731  0.00  0.00     0.003 A 
ATOM      7  I   UNL d   1      -1.027   0.312   1.474  0.00  0.00    -0.146 I 
ENDROOT
TORSDOF 0
ENDMDL
