MODEL 1
REMARK minimizedAffinity -4.32991362
REMARK minimizedRMSD -1
REMARK  0 active torsions:
REMARK  status: ('A' for Active; 'I' for Inactive)
ROOT
ATOM      1  C   UNL d   1       2.325  -0.970  -1.821  0.00  0.00     0.023 A 
ATOM      2  C1  UNL d   1       1.523  -1.881  -1.134  0.00  0.00     0.003 A 
ATOM      3  C2  UNL d   1       0.457  -1.426  -0.356  0.00  0.00     0.048 A 
ATOM      4  C3  UNL d   1       0.197  -0.059  -0.271  0.00  0.00     0.023 A 
ATOM      5  C4  UNL d   1       0.996   0.856  -0.958  0.00  0.00     0.048 A 
ATOM      6  C5  UNL d   1       2.062   0.397  -1.733  0.00  0.00     0.003 A 
ATOM      7  I   UNL d   1      -1.391   0.620   0.886  0.00  0.00    -0.146 I 
ENDROOT
TORSDOF 0
ENDMDL
