MODEL 1
REMARK minimizedAffinity -3.03461838
REMARK minimizedRMSD -1
REMARK  0 active torsions:
REMARK  status: ('A' for Active; 'I' for Inactive)
ROOT
ATOM      1  C   UNL d   1       2.528  -1.105  -1.568  0.00  0.00     0.023 A 
ATOM      2  C1  UNL d   1       1.302  -1.768  -1.509  0.00  0.00     0.003 A 
ATOM      3  C2  UNL d   1       0.276  -1.270  -0.704  0.00  0.00     0.048 A 
ATOM      4  C3  UNL d   1       0.481  -0.108   0.039  0.00  0.00     0.023 A 
ATOM      5  C4  UNL d   1       1.706   0.560  -0.018  0.00  0.00     0.048 A 
ATOM      6  C5  UNL d   1       2.730   0.058  -0.824  0.00  0.00     0.003 A 
ATOM      7  I   UNL d   1      -1.045   0.635   1.238  0.00  0.00    -0.146 I 
ENDROOT
TORSDOF 0
ENDMDL
