MODEL 1
REMARK minimizedAffinity -3.91896892
REMARK minimizedRMSD -1
REMARK  0 active torsions:
REMARK  status: ('A' for Active; 'I' for Inactive)
ROOT
ATOM      1  C   UNL d   1       1.893  -0.126  -2.347  0.00  0.00     0.023 A 
ATOM      2  C1  UNL d   1       1.637  -1.219  -1.519  0.00  0.00     0.003 A 
ATOM      3  C2  UNL d   1       0.590  -1.167  -0.596  0.00  0.00     0.048 A 
ATOM      4  C3  UNL d   1      -0.197  -0.020  -0.508  0.00  0.00     0.023 A 
ATOM      5  C4  UNL d   1       0.055   1.076  -1.335  0.00  0.00     0.048 A 
ATOM      6  C5  UNL d   1       1.103   1.020  -2.256  0.00  0.00     0.003 A 
ATOM      7  I   UNL d   1      -1.756   0.060   0.865  0.00  0.00    -0.146 I 
ENDROOT
TORSDOF 0
ENDMDL
