MODEL 1
REMARK minimizedAffinity -2.57250953
REMARK minimizedRMSD -1
REMARK  0 active torsions:
REMARK  status: ('A' for Active; 'I' for Inactive)
ROOT
ATOM      1  C   UNL d   1       1.892  -1.245  -1.336  0.00  0.00     0.023 A 
ATOM      2  C1  UNL d   1       1.853   0.115  -1.028  0.00  0.00     0.003 A 
ATOM      3  C2  UNL d   1       0.812   0.626  -0.251  0.00  0.00     0.048 A 
ATOM      4  C3  UNL d   1      -0.186  -0.228   0.216  0.00  0.00     0.023 A 
ATOM      5  C4  UNL d   1      -0.151  -1.590  -0.088  0.00  0.00     0.048 A 
ATOM      6  C5  UNL d   1       0.892  -2.096  -0.867  0.00  0.00     0.003 A 
ATOM      7  I   UNL d   1      -1.736   0.531   1.374  0.00  0.00    -0.146 I 
ENDROOT
TORSDOF 0
ENDMDL
