MODEL 1
REMARK minimizedAffinity -3.57272196
REMARK minimizedRMSD -1
REMARK  0 active torsions:
REMARK  status: ('A' for Active; 'I' for Inactive)
ROOT
ATOM      1  C   UNL d   1       3.210  -0.756  -1.603  0.00  0.00     0.023 A 
ATOM      2  C1  UNL d   1       2.977   0.390  -0.843  0.00  0.00     0.003 A 
ATOM      3  C2  UNL d   1       1.684   0.692  -0.412  0.00  0.00     0.048 A 
ATOM      4  C3  UNL d   1       0.628  -0.156  -0.744  0.00  0.00     0.023 A 
ATOM      5  C4  UNL d   1       0.856  -1.304  -1.504  0.00  0.00     0.048 A 
ATOM      6  C5  UNL d   1       2.151  -1.602  -1.933  0.00  0.00     0.003 A 
ATOM      7  I   UNL d   1      -1.297   0.293  -0.103  0.00  0.00    -0.146 I 
ENDROOT
TORSDOF 0
ENDMDL
