MODEL 1
REMARK minimizedAffinity 0.906352162
REMARK minimizedRMSD -1
REMARK  0 active torsions:
REMARK  status: ('A' for Active; 'I' for Inactive)
ROOT
ATOM      1  C   UNL d   1      -1.593   1.692   3.201  0.00  0.00     0.023 A 
ATOM      2  C1  UNL d   1      -2.251   0.468   3.074  0.00  0.00     0.003 A 
ATOM      3  C2  UNL d   1      -1.941  -0.386   2.014  0.00  0.00     0.048 A 
ATOM      4  C3  UNL d   1      -0.971  -0.012   1.085  0.00  0.00     0.023 A 
ATOM      5  C4  UNL d   1      -0.309   1.211   1.208  0.00  0.00     0.048 A 
ATOM      6  C5  UNL d   1      -0.623   2.063   2.269  0.00  0.00     0.003 A 
ATOM      7  I   UNL d   1      -0.508  -1.282  -0.494  0.00  0.00    -0.146 I 
ENDROOT
TORSDOF 0
ENDMDL
