MODEL 1
REMARK minimizedAffinity -3.41640329
REMARK minimizedRMSD -1
REMARK  0 active torsions:
REMARK  status: ('A' for Active; 'I' for Inactive)
ROOT
ATOM      1  C   UNL d   1       2.035  -1.718  -1.091  0.00  0.00     0.023 A 
ATOM      2  C1  UNL d   1       1.941  -0.327  -1.130  0.00  0.00     0.003 A 
ATOM      3  C2  UNL d   1       0.938   0.327  -0.411  0.00  0.00     0.048 A 
ATOM      4  C3  UNL d   1       0.034  -0.417   0.346  0.00  0.00     0.023 A 
ATOM      5  C4  UNL d   1       0.125  -1.809   0.389  0.00  0.00     0.048 A 
ATOM      6  C5  UNL d   1       1.129  -2.458  -0.332  0.00  0.00     0.003 A 
ATOM      7  I   UNL d   1      -1.460   0.554   1.418  0.00  0.00    -0.146 I 
ENDROOT
TORSDOF 0
ENDMDL
