MODEL 1
REMARK minimizedAffinity -2.32611227
REMARK minimizedRMSD -1
REMARK  0 active torsions:
REMARK  status: ('A' for Active; 'I' for Inactive)
ROOT
ATOM      1  C   UNL d   1       1.373   0.800  -0.740  0.00  0.00     0.023 A 
ATOM      2  C1  UNL d   1       0.250   0.469   0.019  0.00  0.00     0.003 A 
ATOM      3  C2  UNL d   1      -0.084  -0.871   0.227  0.00  0.00     0.048 A 
ATOM      4  C3  UNL d   1       0.710  -1.875  -0.327  0.00  0.00     0.023 A 
ATOM      5  C4  UNL d   1       1.834  -1.549  -1.086  0.00  0.00     0.048 A 
ATOM      6  C5  UNL d   1       2.164  -0.208  -1.292  0.00  0.00     0.003 A 
ATOM      7  I   UNL d   1       0.215  -3.870  -0.019  0.00  0.00    -0.146 I 
ENDROOT
TORSDOF 0
ENDMDL
