MODEL 1
REMARK minimizedAffinity 8.65449047
REMARK minimizedRMSD -1
REMARK  0 active torsions:
REMARK  status: ('A' for Active; 'I' for Inactive)
ROOT
ATOM      1  C   UNL d   1       1.370  -2.443  -1.447  0.00  0.00     0.023 A 
ATOM      2  C1  UNL d   1       0.059  -2.153  -1.825  0.00  0.00     0.003 A 
ATOM      3  C2  UNL d   1      -0.842  -1.642  -0.889  0.00  0.00     0.048 A 
ATOM      4  C3  UNL d   1      -0.426  -1.423   0.424  0.00  0.00     0.023 A 
ATOM      5  C4  UNL d   1       0.885  -1.711   0.807  0.00  0.00     0.048 A 
ATOM      6  C5  UNL d   1       1.783  -2.223  -0.133  0.00  0.00     0.003 A 
ATOM      7  I   UNL d   1      -1.766  -0.663   1.819  0.00  0.00    -0.146 I 
ENDROOT
TORSDOF 0
ENDMDL
