MODEL 1
REMARK minimizedAffinity -3.60430002
REMARK minimizedRMSD -1
REMARK  0 active torsions:
REMARK  status: ('A' for Active; 'I' for Inactive)
ROOT
ATOM      1  C   UNL d   1      -1.825   1.666   1.675  0.00  0.00     0.023 A 
ATOM      2  C1  UNL d   1      -1.998   0.448   1.017  0.00  0.00     0.003 A 
ATOM      3  C2  UNL d   1      -2.445  -0.671   1.723  0.00  0.00     0.048 A 
ATOM      4  C3  UNL d   1      -2.719  -0.565   3.086  0.00  0.00     0.023 A 
ATOM      5  C4  UNL d   1      -2.548   0.652   3.748  0.00  0.00     0.048 A 
ATOM      6  C5  UNL d   1      -2.099   1.768   3.039  0.00  0.00     0.003 A 
ATOM      7  I   UNL d   1      -3.385  -2.228   4.139  0.00  0.00    -0.146 I 
ENDROOT
TORSDOF 0
ENDMDL
