MODEL 1
REMARK minimizedAffinity 7.02008247
REMARK minimizedRMSD -1
REMARK  1 active torsions:
REMARK  status: ('A' for Active; 'I' for Inactive)
REMARK    1  A    between atoms: C1_2  and  C2_3 
ROOT
ATOM      1  C2  UNL d   1       3.754   2.194   2.995  0.00  0.00    -0.073 A 
ATOM      2  C3  UNL d   1       4.125   2.726   4.236  0.00  0.00    -0.002 A 
ATOM      3  C4  UNL d   1       4.501   4.065   4.345  0.00  0.00     0.004 A 
ATOM      4  C5  UNL d   1       4.504   4.887   3.218  0.00  0.00    -0.004 A 
ATOM      5  C6  UNL d   1       4.125   4.378   1.972  0.00  0.00    -0.075 A 
ATOM      6  C7  UNL d   1       4.125   5.249   0.750  0.00  0.00     0.076 C 
ATOM      7  C8  UNL d   1       3.751   3.031   1.870  0.00  0.00     0.001 A 
ENDROOT
BRANCH   1   8
ATOM      8  C1  UNL d   1       3.341   0.750   2.874  0.00  0.00     0.053 C 
ATOM      9  C   UNL d   1       1.924   0.518   3.375  0.00  0.00     0.018 C 
ENDBRANCH   1   8
TORSDOF 1
ENDMDL
