MODEL 1
REMARK minimizedAffinity 12.7667665
REMARK minimizedRMSD -1
REMARK  1 active torsions:
REMARK  status: ('A' for Active; 'I' for Inactive)
REMARK    1  A    between atoms: C1_2  and  C2_3 
ROOT
ATOM      1  C2  UNL d   1       2.684  -0.812  -5.231  0.00  0.00    -0.073 A 
ATOM      2  C3  UNL d   1       1.490  -0.169  -5.577  0.00  0.00    -0.002 A 
ATOM      3  C4  UNL d   1       0.375  -0.914  -5.963  0.00  0.00     0.004 A 
ATOM      4  C5  UNL d   1       0.439  -2.307  -6.000  0.00  0.00    -0.004 A 
ATOM      5  C6  UNL d   1       1.620  -2.968  -5.646  0.00  0.00    -0.075 A 
ATOM      6  C7  UNL d   1       1.706  -4.466  -5.683  0.00  0.00     0.076 C 
ATOM      7  C8  UNL d   1       2.737  -2.213  -5.263  0.00  0.00     0.001 A 
ENDROOT
BRANCH   1   8
ATOM      8  C1  UNL d   1       3.890  -0.013  -4.808  0.00  0.00     0.053 C 
ATOM      9  C   UNL d   1       4.707   0.460  -6.000  0.00  0.00     0.018 C 
ENDBRANCH   1   8
TORSDOF 1
ENDMDL
