MODEL 1
REMARK minimizedAffinity 15.3977451
REMARK minimizedRMSD -1
REMARK  1 active torsions:
REMARK  status: ('A' for Active; 'I' for Inactive)
REMARK    1  A    between atoms: C1_2  and  C2_3 
ROOT
ATOM      1  C2  UNL d   1      -1.126  -1.575   2.531  0.00  0.00    -0.073 A 
ATOM      2  C3  UNL d   1      -0.865  -0.202   2.456  0.00  0.00    -0.002 A 
ATOM      3  C4  UNL d   1       0.308   0.323   2.999  0.00  0.00     0.004 A 
ATOM      4  C5  UNL d   1       1.234  -0.518   3.615  0.00  0.00    -0.004 A 
ATOM      5  C6  UNL d   1       0.997  -1.894   3.690  0.00  0.00    -0.075 A 
ATOM      6  C7  UNL d   1       1.982  -2.812   4.352  0.00  0.00     0.076 C 
ATOM      7  C8  UNL d   1      -0.185  -2.414   3.145  0.00  0.00     0.001 A 
ENDROOT
BRANCH   1   8
ATOM      8  C1  UNL d   1      -2.389  -2.147   1.941  0.00  0.00     0.053 C 
ATOM      9  C   UNL d   1      -3.635  -1.578   2.599  0.00  0.00     0.018 C 
ENDBRANCH   1   8
TORSDOF 1
ENDMDL
