MODEL 1
REMARK minimizedAffinity 15.7441292
REMARK minimizedRMSD -1
REMARK  1 active torsions:
REMARK  status: ('A' for Active; 'I' for Inactive)
REMARK    1  A    between atoms: C1_2  and  C2_3 
ROOT
ATOM      1  C2  UNL d   1      -1.042  -3.019  -4.940  0.00  0.00    -0.073 A 
ATOM      2  C3  UNL d   1      -1.657  -3.076  -3.684  0.00  0.00    -0.002 A 
ATOM      3  C4  UNL d   1      -1.359  -2.123  -2.710  0.00  0.00     0.004 A 
ATOM      4  C5  UNL d   1      -0.450  -1.100  -2.982  0.00  0.00    -0.004 A 
ATOM      5  C6  UNL d   1       0.165  -1.019  -4.235  0.00  0.00    -0.075 A 
ATOM      6  C7  UNL d   1       1.147   0.073  -4.543  0.00  0.00     0.076 C 
ATOM      7  C8  UNL d   1      -0.137  -1.982  -5.208  0.00  0.00     0.001 A 
ENDROOT
BRANCH   1   8
ATOM      8  C1  UNL d   1      -1.366  -4.042  -5.998  0.00  0.00     0.053 C 
ATOM      9  C   UNL d   1      -2.826  -4.462  -5.957  0.00  0.00     0.018 C 
ENDBRANCH   1   8
TORSDOF 1
ENDMDL
