MODEL 1
REMARK minimizedAffinity 0.787169218
REMARK minimizedRMSD -1
REMARK  0 active torsions:
REMARK  status: ('A' for Active; 'I' for Inactive)
ROOT
ATOM      1  C   UNL d   1      -1.141  -0.505   3.359  0.00  0.00     0.023 A 
ATOM      2  C1  UNL d   1      -1.946  -0.545   2.220  0.00  0.00     0.003 A 
ATOM      3  C2  UNL d   1      -1.476  -0.025   1.012  0.00  0.00     0.048 A 
ATOM      4  C3  UNL d   1      -0.199   0.532   0.950  0.00  0.00     0.023 A 
ATOM      5  C4  UNL d   1       0.610   0.573   2.087  0.00  0.00     0.048 A 
ATOM      6  C5  UNL d   1       0.135   0.054   3.292  0.00  0.00     0.003 A 
ATOM      7  I   UNL d   1       0.503   1.306  -0.846  0.00  0.00    -0.146 I 
ENDROOT
TORSDOF 0
ENDMDL
