MODEL 1
REMARK minimizedAffinity 6.31446266
REMARK minimizedRMSD -1
REMARK  0 active torsions:
REMARK  status: ('A' for Active; 'I' for Inactive)
ROOT
ATOM      1  C   UNL d   1      -0.661  -0.803   4.076  0.00  0.00     0.023 A 
ATOM      2  C1  UNL d   1      -0.020   0.267   3.452  0.00  0.00     0.003 A 
ATOM      3  C2  UNL d   1      -0.238   0.520   2.096  0.00  0.00     0.048 A 
ATOM      4  C3  UNL d   1      -1.101  -0.301   1.370  0.00  0.00     0.023 A 
ATOM      5  C4  UNL d   1      -1.745  -1.372   1.990  0.00  0.00     0.048 A 
ATOM      6  C5  UNL d   1      -1.523  -1.622   3.345  0.00  0.00     0.003 A 
ATOM      7  I   UNL d   1      -1.428   0.074  -0.648  0.00  0.00    -0.146 I 
ENDROOT
TORSDOF 0
ENDMDL
