MODEL 1
REMARK minimizedAffinity 2.11466908
REMARK minimizedRMSD -1
REMARK  0 active torsions:
REMARK  status: ('A' for Active; 'I' for Inactive)
ROOT
ATOM      1  C   UNL d   1      -1.738  -0.532   2.653  0.00  0.00     0.023 A 
ATOM      2  C1  UNL d   1      -1.005  -1.606   3.156  0.00  0.00     0.003 A 
ATOM      3  C2  UNL d   1       0.390  -1.575   3.129  0.00  0.00     0.048 A 
ATOM      4  C3  UNL d   1       1.047  -0.465   2.597  0.00  0.00     0.023 A 
ATOM      5  C4  UNL d   1       0.317   0.612   2.092  0.00  0.00     0.048 A 
ATOM      6  C5  UNL d   1      -1.078   0.576   2.121  0.00  0.00     0.003 A 
ATOM      7  I   UNL d   1       3.124  -0.417   2.555  0.00  0.00    -0.146 I 
ENDROOT
TORSDOF 0
ENDMDL
