MODEL 1
REMARK minimizedAffinity -2.91854429
REMARK minimizedRMSD -1
REMARK  0 active torsions:
REMARK  status: ('A' for Active; 'I' for Inactive)
ROOT
ATOM      1  C   UNL d   1       5.999  -1.086   4.021  0.00  0.00     0.023 A 
ATOM      2  C1  UNL d   1       5.907  -1.802   2.827  0.00  0.00     0.003 A 
ATOM      3  C2  UNL d   1       5.811  -3.195   2.852  0.00  0.00     0.048 A 
ATOM      4  C3  UNL d   1       5.808  -3.865   4.074  0.00  0.00     0.023 A 
ATOM      5  C4  UNL d   1       5.900  -3.154   5.272  0.00  0.00     0.048 A 
ATOM      6  C5  UNL d   1       5.996  -1.761   5.242  0.00  0.00     0.003 A 
ATOM      7  I   UNL d   1       5.666  -5.939   4.114  0.00  0.00    -0.146 I 
ENDROOT
TORSDOF 0
ENDMDL
