MODEL 1
REMARK minimizedAffinity 9.56707859
REMARK minimizedRMSD -1
REMARK  0 active torsions:
REMARK  status: ('A' for Active; 'I' for Inactive)
ROOT
ATOM      1  C   UNL d   1      -0.027  -0.054   3.620  0.00  0.00     0.023 A 
ATOM      2  C1  UNL d   1      -1.057  -0.912   3.233  0.00  0.00     0.003 A 
ATOM      3  C2  UNL d   1      -1.672  -0.752   1.990  0.00  0.00     0.048 A 
ATOM      4  C3  UNL d   1      -1.251   0.268   1.137  0.00  0.00     0.023 A 
ATOM      5  C4  UNL d   1      -0.221   1.129   1.519  0.00  0.00     0.048 A 
ATOM      6  C5  UNL d   1       0.390   0.965   2.764  0.00  0.00     0.003 A 
ATOM      7  I   UNL d   1      -2.165   0.509  -0.714  0.00  0.00    -0.146 I 
ENDROOT
TORSDOF 0
ENDMDL
