MODEL 1
REMARK minimizedAffinity 9.68818665
REMARK minimizedRMSD -1
REMARK  0 active torsions:
REMARK  status: ('A' for Active; 'I' for Inactive)
ROOT
ATOM      1  C   UNL d   1       1.683  -0.124   2.547  0.00  0.00     0.023 A 
ATOM      2  C1  UNL d   1       1.739   0.488   1.294  0.00  0.00     0.003 A 
ATOM      3  C2  UNL d   1       0.574   0.651   0.543  0.00  0.00     0.048 A 
ATOM      4  C3  UNL d   1      -0.645   0.201   1.050  0.00  0.00     0.023 A 
ATOM      5  C4  UNL d   1      -0.706  -0.411   2.303  0.00  0.00     0.048 A 
ATOM      6  C5  UNL d   1       0.462  -0.573   3.050  0.00  0.00     0.003 A 
ATOM      7  I   UNL d   1      -2.381   0.443  -0.067  0.00  0.00    -0.146 I 
ENDROOT
TORSDOF 0
ENDMDL
