MODEL 1
REMARK minimizedAffinity 3.44690609
REMARK minimizedRMSD -1
REMARK  0 active torsions:
REMARK  status: ('A' for Active; 'I' for Inactive)
ROOT
ATOM      1  C   UNL d   1      -2.205  -1.155  -1.741  0.00  0.00     0.023 A 
ATOM      2  C1  UNL d   1      -2.990  -0.268  -1.004  0.00  0.00     0.003 A 
ATOM      3  C2  UNL d   1      -2.703  -0.031   0.342  0.00  0.00     0.048 A 
ATOM      4  C3  UNL d   1      -1.628  -0.684   0.945  0.00  0.00     0.023 A 
ATOM      5  C4  UNL d   1      -0.839  -1.572   0.212  0.00  0.00     0.048 A 
ATOM      6  C5  UNL d   1      -1.131  -1.806  -1.134  0.00  0.00     0.003 A 
ATOM      7  I   UNL d   1      -1.199  -0.333   2.948  0.00  0.00    -0.146 I 
ENDROOT
TORSDOF 0
ENDMDL
