MODEL 1
REMARK minimizedAffinity 6.83244753
REMARK minimizedRMSD -1
REMARK  0 active torsions:
REMARK  status: ('A' for Active; 'I' for Inactive)
ROOT
ATOM      1  C   UNL d   1      -2.608   1.015   3.056  0.00  0.00     0.023 A 
ATOM      2  C1  UNL d   1      -1.358   0.494   2.721  0.00  0.00     0.003 A 
ATOM      3  C2  UNL d   1      -1.127   0.001   1.435  0.00  0.00     0.048 A 
ATOM      4  C3  UNL d   1      -2.151   0.031   0.489  0.00  0.00     0.023 A 
ATOM      5  C4  UNL d   1      -3.403   0.552   0.819  0.00  0.00     0.048 A 
ATOM      6  C5  UNL d   1      -3.629   1.044   2.106  0.00  0.00     0.003 A 
ATOM      7  I   UNL d   1      -1.810  -0.703  -1.425  0.00  0.00    -0.146 I 
ENDROOT
TORSDOF 0
ENDMDL
