MODEL 1
REMARK minimizedAffinity 16.2409248
REMARK minimizedRMSD -1
REMARK  0 active torsions:
REMARK  status: ('A' for Active; 'I' for Inactive)
ROOT
ATOM      1  C   UNL d   1       2.219   5.145  -4.503  0.00  0.00     0.023 A 
ATOM      2  C1  UNL d   1       1.226   4.538  -5.272  0.00  0.00     0.003 A 
ATOM      3  C2  UNL d   1       1.383   3.219  -5.702  0.00  0.00     0.048 A 
ATOM      4  C3  UNL d   1       2.534   2.511  -5.357  0.00  0.00     0.023 A 
ATOM      5  C4  UNL d   1       3.530   3.114  -4.586  0.00  0.00     0.048 A 
ATOM      6  C5  UNL d   1       3.369   4.434  -4.160  0.00  0.00     0.003 A 
ATOM      7  I   UNL d   1       2.770   0.547  -5.994  0.00  0.00    -0.146 I 
ENDROOT
TORSDOF 0
ENDMDL
