MODEL 1
REMARK minimizedAffinity 0.202948987
REMARK minimizedRMSD -1
REMARK  0 active torsions:
REMARK  status: ('A' for Active; 'I' for Inactive)
ROOT
ATOM      1  C   UNL d   1       4.326   4.436  -4.867  0.00  0.00     0.023 A 
ATOM      2  C1  UNL d   1       3.135   5.035  -4.457  0.00  0.00     0.003 A 
ATOM      3  C2  UNL d   1       2.512   4.617  -3.279  0.00  0.00     0.048 A 
ATOM      4  C3  UNL d   1       3.086   3.601  -2.516  0.00  0.00     0.023 A 
ATOM      5  C4  UNL d   1       4.278   3.000  -2.922  0.00  0.00     0.048 A 
ATOM      6  C5  UNL d   1       4.897   3.420  -4.101  0.00  0.00     0.003 A 
ATOM      7  I   UNL d   1       2.160   2.979  -0.762  0.00  0.00    -0.146 I 
ENDROOT
TORSDOF 0
ENDMDL
