MODEL 1
REMARK minimizedAffinity 4.01860714
REMARK minimizedRMSD -1
REMARK  0 active torsions:
REMARK  status: ('A' for Active; 'I' for Inactive)
ROOT
ATOM      1  C   UNL d   1      -0.084   0.459   3.382  0.00  0.00     0.023 A 
ATOM      2  C1  UNL d   1      -1.089   1.312   3.837  0.00  0.00     0.003 A 
ATOM      3  C2  UNL d   1      -2.195   0.791   4.512  0.00  0.00     0.048 A 
ATOM      4  C3  UNL d   1      -2.289  -0.583   4.729  0.00  0.00     0.023 A 
ATOM      5  C4  UNL d   1      -1.284  -1.440   4.276  0.00  0.00     0.048 A 
ATOM      6  C5  UNL d   1      -0.181  -0.915   3.601  0.00  0.00     0.003 A 
ATOM      7  I   UNL d   1      -3.933  -1.361   5.734  0.00  0.00    -0.146 I 
ENDROOT
TORSDOF 0
ENDMDL
