MODEL 1
REMARK minimizedAffinity 2.49174023
REMARK minimizedRMSD -1
REMARK  0 active torsions:
REMARK  status: ('A' for Active; 'I' for Inactive)
ROOT
ATOM      1  C   UNL d   1      -1.233  -1.035   4.321  0.00  0.00     0.023 A 
ATOM      2  C1  UNL d   1      -0.022  -1.031   3.630  0.00  0.00     0.003 A 
ATOM      3  C2  UNL d   1       0.004  -0.737   2.265  0.00  0.00     0.048 A 
ATOM      4  C3  UNL d   1      -1.185  -0.447   1.597  0.00  0.00     0.023 A 
ATOM      5  C4  UNL d   1      -2.400  -0.449   2.285  0.00  0.00     0.048 A 
ATOM      6  C5  UNL d   1      -2.421  -0.744   3.649  0.00  0.00     0.003 A 
ATOM      7  I   UNL d   1      -1.149  -0.009  -0.434  0.00  0.00    -0.146 I 
ENDROOT
TORSDOF 0
ENDMDL
