MODEL 1
REMARK minimizedAffinity 7.92711067
REMARK minimizedRMSD -1
REMARK  0 active torsions:
REMARK  status: ('A' for Active; 'I' for Inactive)
ROOT
ATOM      1  C   UNL d   1      -0.807  -0.532   4.091  0.00  0.00     0.023 A 
ATOM      2  C1  UNL d   1      -1.875  -1.165   3.455  0.00  0.00     0.003 A 
ATOM      3  C2  UNL d   1      -2.092  -0.970   2.090  0.00  0.00     0.048 A 
ATOM      4  C3  UNL d   1      -1.236  -0.141   1.365  0.00  0.00     0.023 A 
ATOM      5  C4  UNL d   1      -0.166   0.494   1.996  0.00  0.00     0.048 A 
ATOM      6  C5  UNL d   1       0.047   0.297   3.362  0.00  0.00     0.003 A 
ATOM      7  I   UNL d   1      -1.557   0.150  -0.667  0.00  0.00    -0.146 I 
ENDROOT
TORSDOF 0
ENDMDL
