MODEL 1
REMARK minimizedAffinity 6.95327425
REMARK minimizedRMSD -1
REMARK  0 active torsions:
REMARK  status: ('A' for Active; 'I' for Inactive)
ROOT
ATOM      1  C   UNL d   1      -0.845   1.202   2.356  0.00  0.00     0.023 A 
ATOM      2  C1  UNL d   1       0.250   0.563   2.937  0.00  0.00     0.003 A 
ATOM      3  C2  UNL d   1       1.055  -0.282   2.170  0.00  0.00     0.048 A 
ATOM      4  C3  UNL d   1       0.759  -0.482   0.822  0.00  0.00     0.023 A 
ATOM      5  C4  UNL d   1      -0.335   0.156   0.236  0.00  0.00     0.048 A 
ATOM      6  C5  UNL d   1      -1.137   0.999   1.007  0.00  0.00     0.003 A 
ATOM      7  I   UNL d   1       1.956  -1.739  -0.322  0.00  0.00    -0.146 I 
ENDROOT
TORSDOF 0
ENDMDL
