MODEL 1
REMARK minimizedAffinity 9.82889462
REMARK minimizedRMSD -1
REMARK  0 active torsions:
REMARK  status: ('A' for Active; 'I' for Inactive)
ROOT
ATOM      1  C   UNL d   1       2.551   2.561   2.129  0.00  0.00     0.023 A 
ATOM      2  C1  UNL d   1       1.875   2.245   3.307  0.00  0.00     0.003 A 
ATOM      3  C2  UNL d   1       0.574   1.741   3.253  0.00  0.00     0.048 A 
ATOM      4  C3  UNL d   1      -0.044   1.554   2.017  0.00  0.00     0.023 A 
ATOM      5  C4  UNL d   1       0.629   1.867   0.835  0.00  0.00     0.048 A 
ATOM      6  C5  UNL d   1       1.929   2.372   0.894  0.00  0.00     0.003 A 
ATOM      7  I   UNL d   1      -1.981   0.803   1.934  0.00  0.00    -0.146 I 
ENDROOT
TORSDOF 0
ENDMDL
