MODEL 1
REMARK minimizedAffinity -1.76402926
REMARK minimizedRMSD -1
REMARK  0 active torsions:
REMARK  status: ('A' for Active; 'I' for Inactive)
ROOT
ATOM      1  O1  BZF d   1       3.892  -2.741  -0.175  0.00  0.00    -0.204 OA
ATOM      2  C2  BZF d   1       3.751  -4.109  -0.307  0.00  0.00     0.174 A 
ATOM      3  C3  BZF d   1       2.475  -4.482  -0.082  0.00  0.00    -0.012 A 
ATOM      4  C3A BZF d   1       1.756  -3.261   0.119  0.00  0.00    -0.107 A 
ATOM      5  C4  BZF d   1       0.445  -2.974   0.370  0.00  0.00     0.055 A 
ATOM      6  C5  BZF d   1       0.081  -1.683   0.588  0.00  0.00    -0.016 A 
ATOM      7  C6  BZF d   1       1.001  -0.656   0.566  0.00  0.00     0.022 A 
ATOM      8  C7  BZF d   1       2.313  -0.891   0.316  0.00  0.00     0.029 A 
ATOM      9  C7A BZF d   1       2.678  -2.190   0.064  0.00  0.00     0.058 A 
ENDROOT
TORSDOF 0
ENDMDL
