MODEL 1
REMARK minimizedAffinity 6.54497433
REMARK minimizedRMSD -1
REMARK  0 active torsions:
REMARK  status: ('A' for Active; 'I' for Inactive)
ROOT
ATOM      1  O1  BZF d   1       5.926   5.968   0.109  0.00  0.00    -0.204 OA
ATOM      2  C2  BZF d   1       5.568   5.502  -1.141  0.00  0.00     0.174 A 
ATOM      3  C3  BZF d   1       4.355   4.914  -1.103  0.00  0.00    -0.012 A 
ATOM      4  C3A BZF d   1       3.887   5.102   0.236  0.00  0.00    -0.107 A 
ATOM      5  C4  BZF d   1       2.738   4.754   0.886  0.00  0.00     0.055 A 
ATOM      6  C5  BZF d   1       2.624   5.021   2.214  0.00  0.00    -0.016 A 
ATOM      7  C6  BZF d   1       3.640   5.628   2.922  0.00  0.00     0.022 A 
ATOM      8  C7  BZF d   1       4.797   5.996   2.319  0.00  0.00     0.029 A 
ATOM      9  C7A BZF d   1       4.902   5.757   0.971  0.00  0.00     0.058 A 
ENDROOT
TORSDOF 0
ENDMDL
