MODEL 1
REMARK minimizedAffinity 0.941962898
REMARK minimizedRMSD -1
REMARK  0 active torsions:
REMARK  status: ('A' for Active; 'I' for Inactive)
ROOT
ATOM      1  O1  BZF d   1       2.454  -2.717  -0.315  0.00  0.00    -0.204 OA
ATOM      2  C2  BZF d   1       1.680  -3.716  -0.873  0.00  0.00     0.174 A 
ATOM      3  C3  BZF d   1       0.371  -3.499  -0.628  0.00  0.00    -0.012 A 
ATOM      4  C3A BZF d   1       0.319  -2.241   0.051  0.00  0.00    -0.107 A 
ATOM      5  C4  BZF d   1      -0.704  -1.481   0.542  0.00  0.00     0.055 A 
ATOM      6  C5  BZF d   1      -0.413  -0.337   1.216  0.00  0.00    -0.016 A 
ATOM      7  C6  BZF d   1       0.888   0.073   1.422  0.00  0.00     0.022 A 
ATOM      8  C7  BZF d   1       1.936  -0.646   0.950  0.00  0.00     0.029 A 
ATOM      9  C7A BZF d   1       1.644  -1.784   0.240  0.00  0.00     0.058 A 
ENDROOT
TORSDOF 0
ENDMDL
