MODEL 1
REMARK minimizedAffinity 1.93928373
REMARK minimizedRMSD -1
REMARK  0 active torsions:
REMARK  status: ('A' for Active; 'I' for Inactive)
ROOT
ATOM      1  O1  BZF d   1       3.119  -0.094   1.925  0.00  0.00    -0.204 OA
ATOM      2  C2  BZF d   1       4.082  -0.684   1.129  0.00  0.00     0.174 A 
ATOM      3  C3  BZF d   1       3.518  -1.526   0.240  0.00  0.00    -0.012 A 
ATOM      4  C3A BZF d   1       2.107  -1.388   0.434  0.00  0.00    -0.107 A 
ATOM      5  C4  BZF d   1       1.017  -1.955  -0.163  0.00  0.00     0.055 A 
ATOM      6  C5  BZF d   1      -0.222  -1.661   0.310  0.00  0.00    -0.016 A 
ATOM      7  C6  BZF d   1      -0.409  -0.811   1.380  0.00  0.00     0.022 A 
ATOM      8  C7  BZF d   1       0.641  -0.221   2.002  0.00  0.00     0.029 A 
ATOM      9  C7A BZF d   1       1.893  -0.490   1.505  0.00  0.00     0.058 A 
ENDROOT
TORSDOF 0
ENDMDL
