MODEL 1
REMARK minimizedAffinity 1.48761237
REMARK minimizedRMSD -1
REMARK  0 active torsions:
REMARK  status: ('A' for Active; 'I' for Inactive)
ROOT
ATOM      1  O1  BZF d   1       1.828  -4.447  -0.592  0.00  0.00    -0.204 OA
ATOM      2  C2  BZF d   1       3.192  -4.415  -0.375  0.00  0.00     0.174 A 
ATOM      3  C3  BZF d   1       3.559  -3.248   0.192  0.00  0.00    -0.012 A 
ATOM      4  C3A BZF d   1       2.337  -2.541   0.423  0.00  0.00    -0.107 A 
ATOM      5  C4  BZF d   1       2.045  -1.327   0.976  0.00  0.00     0.055 A 
ATOM      6  C5  BZF d   1       0.755  -0.898   0.985  0.00  0.00    -0.016 A 
ATOM      7  C6  BZF d   1      -0.265  -1.655   0.446  0.00  0.00     0.022 A 
ATOM      8  C7  BZF d   1      -0.025  -2.867  -0.109  0.00  0.00     0.029 A 
ATOM      9  C7A BZF d   1       1.273  -3.318  -0.090  0.00  0.00     0.058 A 
ENDROOT
TORSDOF 0
ENDMDL
