MODEL 1
REMARK minimizedAffinity -0.316979587
REMARK minimizedRMSD -1
REMARK  0 active torsions:
REMARK  status: ('A' for Active; 'I' for Inactive)
ROOT
ATOM      1  O1  BZF d   1       4.367   3.732  -1.293  0.00  0.00    -0.204 OA
ATOM      2  C2  BZF d   1       5.509   4.280  -1.844  0.00  0.00     0.174 A 
ATOM      3  C3  BZF d   1       6.000   5.258  -1.055  0.00  0.00    -0.012 A 
ATOM      4  C3A BZF d   1       5.160   5.262   0.104  0.00  0.00    -0.107 A 
ATOM      5  C4  BZF d   1       5.150   6.000   1.253  0.00  0.00     0.055 A 
ATOM      6  C5  BZF d   1       4.151   5.806   2.154  0.00  0.00    -0.016 A 
ATOM      7  C6  BZF d   1       3.144   4.888   1.935  0.00  0.00     0.022 A 
ATOM      8  C7  BZF d   1       3.115   4.130   0.813  0.00  0.00     0.029 A 
ATOM      9  C7A BZF d   1       4.141   4.300  -0.084  0.00  0.00     0.058 A 
ENDROOT
TORSDOF 0
ENDMDL
