MODEL 1
REMARK minimizedAffinity -4.98174286
REMARK minimizedRMSD -1
REMARK  0 active torsions:
REMARK  status: ('A' for Active; 'I' for Inactive)
ROOT
ATOM      1  O1  BZF d   1      -2.971  -0.314   0.370  0.00  0.00    -0.204 OA
ATOM      2  C2  BZF d   1      -2.841   0.891   1.032  0.00  0.00     0.174 A 
ATOM      3  C3  BZF d   1      -1.648   0.968   1.657  0.00  0.00    -0.012 A 
ATOM      4  C3A BZF d   1      -0.954  -0.229   1.291  0.00  0.00    -0.107 A 
ATOM      5  C4  BZF d   1       0.285  -0.723   1.584  0.00  0.00     0.055 A 
ATOM      6  C5  BZF d   1       0.630  -1.955   1.127  0.00  0.00    -0.016 A 
ATOM      7  C6  BZF d   1      -0.240  -2.722   0.380  0.00  0.00     0.022 A 
ATOM      8  C7  BZF d   1      -1.478  -2.273   0.059  0.00  0.00     0.029 A 
ATOM      9  C7A BZF d   1      -1.817  -1.014   0.492  0.00  0.00     0.058 A 
ENDROOT
TORSDOF 0
ENDMDL
