MODEL 1
REMARK minimizedAffinity -0.859573007
REMARK minimizedRMSD -1
REMARK  0 active torsions:
REMARK  status: ('A' for Active; 'I' for Inactive)
ROOT
ATOM      1  O1  BZF d   1       0.236   0.656   1.495  0.00  0.00    -0.204 OA
ATOM      2  C2  BZF d   1      -1.105   0.325   1.500  0.00  0.00     0.174 A 
ATOM      3  C3  BZF d   1      -1.289  -0.933   1.050  0.00  0.00    -0.012 A 
ATOM      4  C3A BZF d   1       0.026  -1.451   0.831  0.00  0.00    -0.107 A 
ATOM      5  C4  BZF d   1       0.501  -2.656   0.399  0.00  0.00     0.055 A 
ATOM      6  C5  BZF d   1       1.839  -2.816   0.225  0.00  0.00    -0.016 A 
ATOM      7  C6  BZF d   1       2.730  -1.790   0.468  0.00  0.00     0.022 A 
ATOM      8  C7  BZF d   1       2.307  -0.578   0.902  0.00  0.00     0.029 A 
ATOM      9  C7A BZF d   1       0.958  -0.425   1.111  0.00  0.00     0.058 A 
ENDROOT
TORSDOF 0
ENDMDL
