MODEL 1
REMARK minimizedAffinity -4.03252125
REMARK minimizedRMSD -1
REMARK  0 active torsions:
REMARK  status: ('A' for Active; 'I' for Inactive)
ROOT
ATOM      1  O1  BZF d   1       3.298  -3.134   0.094  0.00  0.00    -0.204 OA
ATOM      2  C2  BZF d   1       2.997  -4.455  -0.179  0.00  0.00     0.174 A 
ATOM      3  C3  BZF d   1       1.674  -4.680  -0.053  0.00  0.00    -0.012 A 
ATOM      4  C3A BZF d   1       1.100  -3.401   0.233  0.00  0.00    -0.107 A 
ATOM      5  C4  BZF d   1      -0.179  -2.973   0.449  0.00  0.00     0.055 A 
ATOM      6  C5  BZF d   1      -0.393  -1.671   0.776  0.00  0.00    -0.016 A 
ATOM      7  C6  BZF d   1       0.646  -0.773   0.900  0.00  0.00     0.022 A 
ATOM      8  C7  BZF d   1       1.931  -1.150   0.691  0.00  0.00     0.029 A 
ATOM      9  C7A BZF d   1       2.148  -2.457   0.328  0.00  0.00     0.058 A 
ENDROOT
TORSDOF 0
ENDMDL
