MODEL 1
REMARK minimizedAffinity -2.3841064
REMARK minimizedRMSD -1
REMARK  0 active torsions:
REMARK  status: ('A' for Active; 'I' for Inactive)
ROOT
ATOM      1  O1  BZF d   1       1.133  -0.102   1.118  0.00  0.00    -0.204 OA
ATOM      2  C2  BZF d   1      -0.208  -0.167   1.446  0.00  0.00     0.174 A 
ATOM      3  C3  BZF d   1      -0.722  -1.371   1.123  0.00  0.00    -0.012 A 
ATOM      4  C3A BZF d   1       0.387  -2.137   0.643  0.00  0.00    -0.107 A 
ATOM      5  C4  BZF d   1       0.516  -3.418   0.187  0.00  0.00     0.055 A 
ATOM      6  C5  BZF d   1       1.724  -3.836  -0.275  0.00  0.00    -0.016 A 
ATOM      7  C6  BZF d   1       2.821  -2.999  -0.301  0.00  0.00     0.022 A 
ATOM      8  C7  BZF d   1       2.743  -1.722   0.146  0.00  0.00     0.029 A 
ATOM      9  C7A BZF d   1       1.532  -1.307   0.645  0.00  0.00     0.058 A 
ENDROOT
TORSDOF 0
ENDMDL
