MODEL 1
REMARK minimizedAffinity 0.893040419
REMARK minimizedRMSD -1
REMARK  0 active torsions:
REMARK  status: ('A' for Active; 'I' for Inactive)
ROOT
ATOM      1  O1  BZF d   1       1.046  -4.023  -0.426  0.00  0.00    -0.204 OA
ATOM      2  C2  BZF d   1       2.383  -4.263  -0.174  0.00  0.00     0.174 A 
ATOM      3  C3  BZF d   1       2.956  -3.200   0.427  0.00  0.00    -0.012 A 
ATOM      4  C3A BZF d   1       1.890  -2.271   0.643  0.00  0.00    -0.107 A 
ATOM      5  C4  BZF d   1       1.825  -1.033   1.215  0.00  0.00     0.055 A 
ATOM      6  C5  BZF d   1       0.645  -0.360   1.202  0.00  0.00    -0.016 A 
ATOM      7  C6  BZF d   1      -0.488  -0.892   0.621  0.00  0.00     0.022 A 
ATOM      8  C7  BZF d   1      -0.474  -2.119   0.046  0.00  0.00     0.029 A 
ATOM      9  C7A BZF d   1       0.709  -2.815   0.087  0.00  0.00     0.058 A 
ENDROOT
TORSDOF 0
ENDMDL
