MODEL 1
REMARK minimizedAffinity 2.48117661
REMARK minimizedRMSD -1
REMARK  0 active torsions:
REMARK  status: ('A' for Active; 'I' for Inactive)
ROOT
ATOM      1  O1  BZF d   1       5.224   3.405  -1.122  0.00  0.00    -0.204 OA
ATOM      2  C2  BZF d   1       4.145   2.550  -1.234  0.00  0.00     0.174 A 
ATOM      3  C3  BZF d   1       3.231   2.805  -0.276  0.00  0.00    -0.012 A 
ATOM      4  C3A BZF d   1       3.729   3.948   0.425  0.00  0.00    -0.107 A 
ATOM      5  C4  BZF d   1       3.258   4.686   1.473  0.00  0.00     0.055 A 
ATOM      6  C5  BZF d   1       4.022   5.696   1.966  0.00  0.00    -0.016 A 
ATOM      7  C6  BZF d   1       5.262   5.992   1.440  0.00  0.00     0.022 A 
ATOM      8  C7  BZF d   1       5.769   5.292   0.396  0.00  0.00     0.029 A 
ATOM      9  C7A BZF d   1       4.986   4.292  -0.126  0.00  0.00     0.058 A 
ENDROOT
TORSDOF 0
ENDMDL
