MODEL 1
REMARK minimizedAffinity 2.37886548
REMARK minimizedRMSD -1
REMARK  0 active torsions:
REMARK  status: ('A' for Active; 'I' for Inactive)
ROOT
ATOM      1  O1  BZF d   1       0.125  -3.666   0.193  0.00  0.00    -0.204 OA
ATOM      2  C2  BZF d   1       1.385  -4.187   0.417  0.00  0.00     0.174 A 
ATOM      3  C3  BZF d   1       2.186  -3.270   0.995  0.00  0.00    -0.012 A 
ATOM      4  C3A BZF d   1       1.350  -2.132   1.226  0.00  0.00    -0.107 A 
ATOM      5  C4  BZF d   1       1.566  -0.906   1.789  0.00  0.00     0.055 A 
ATOM      6  C5  BZF d   1       0.558   0.004   1.796  0.00  0.00    -0.016 A 
ATOM      7  C6  BZF d   1      -0.676  -0.275   1.245  0.00  0.00     0.022 A 
ATOM      8  C7  BZF d   1      -0.940  -1.478   0.681  0.00  0.00     0.029 A 
ATOM      9  C7A BZF d   1       0.067  -2.412   0.702  0.00  0.00     0.058 A 
ENDROOT
TORSDOF 0
ENDMDL
