MODEL 1
REMARK minimizedAffinity -3.65107489
REMARK minimizedRMSD -1
REMARK  0 active torsions:
REMARK  status: ('A' for Active; 'I' for Inactive)
ROOT
ATOM      1  O1  BZF d   1       0.167  -3.630   0.551  0.00  0.00    -0.204 OA
ATOM      2  C2  BZF d   1      -0.680  -2.590   0.883  0.00  0.00     0.174 A 
ATOM      3  C3  BZF d   1      -0.014  -1.417   0.897  0.00  0.00    -0.012 A 
ATOM      4  C3A BZF d   1       1.312  -1.732   0.461  0.00  0.00    -0.107 A 
ATOM      5  C4  BZF d   1       2.434  -0.982   0.253  0.00  0.00     0.055 A 
ATOM      6  C5  BZF d   1       3.588  -1.606  -0.103  0.00  0.00    -0.016 A 
ATOM      7  C6  BZF d   1       3.656  -2.975  -0.255  0.00  0.00     0.022 A 
ATOM      8  C7  BZF d   1       2.567  -3.760  -0.065  0.00  0.00     0.029 A 
ATOM      9  C7A BZF d   1       1.392  -3.129   0.263  0.00  0.00     0.058 A 
ENDROOT
TORSDOF 0
ENDMDL
