MODEL 1
REMARK minimizedAffinity 7.31219721
REMARK minimizedRMSD -1
REMARK  0 active torsions:
REMARK  status: ('A' for Active; 'I' for Inactive)
ROOT
ATOM      1  O1  BZF d   1       0.421  -3.978   0.688  0.00  0.00    -0.204 OA
ATOM      2  C2  BZF d   1       1.694  -4.288   0.250  0.00  0.00     0.174 A 
ATOM      3  C3  BZF d   1       2.447  -3.174   0.139  0.00  0.00    -0.012 A 
ATOM      4  C3A BZF d   1       1.619  -2.111   0.621  0.00  0.00    -0.107 A 
ATOM      5  C4  BZF d   1       1.811  -0.768   0.776  0.00  0.00     0.055 A 
ATOM      6  C5  BZF d   1       0.776   0.002   1.204  0.00  0.00    -0.016 A 
ATOM      7  C6  BZF d   1      -0.463  -0.536   1.481  0.00  0.00     0.022 A 
ATOM      8  C7  BZF d   1      -0.700  -1.864   1.347  0.00  0.00     0.029 A 
ATOM      9  C7A BZF d   1       0.353  -2.650   0.947  0.00  0.00     0.058 A 
ENDROOT
TORSDOF 0
ENDMDL
