MODEL 1
REMARK minimizedAffinity 2.97313237
REMARK minimizedRMSD -1
REMARK  0 active torsions:
REMARK  status: ('A' for Active; 'I' for Inactive)
ROOT
ATOM      1  O1  BZF d   1       0.136  -3.495  -0.445  0.00  0.00    -0.204 OA
ATOM      2  C2  BZF d   1       1.474  -3.716  -0.709  0.00  0.00     0.174 A 
ATOM      3  C3  BZF d   1       2.225  -2.684  -0.271  0.00  0.00    -0.012 A 
ATOM      4  C3A BZF d   1       1.307  -1.804   0.385  0.00  0.00    -0.107 A 
ATOM      5  C4  BZF d   1       1.453  -0.613   1.038  0.00  0.00     0.055 A 
ATOM      6  C5  BZF d   1       0.347   0.026   1.501  0.00  0.00    -0.016 A 
ATOM      7  C6  BZF d   1      -0.919  -0.494   1.325  0.00  0.00     0.022 A 
ATOM      8  C7  BZF d   1      -1.113  -1.674   0.688  0.00  0.00     0.029 A 
ATOM      9  C7A BZF d   1       0.006  -2.338   0.248  0.00  0.00     0.058 A 
ENDROOT
TORSDOF 0
ENDMDL
