MODEL 1
REMARK minimizedAffinity 3.70534539
REMARK minimizedRMSD -1
REMARK  0 active torsions:
REMARK  status: ('A' for Active; 'I' for Inactive)
ROOT
ATOM      1  O1  BZF d   1       3.854  -2.632  -0.128  0.00  0.00    -0.204 OA
ATOM      2  C2  BZF d   1       3.646  -3.977  -0.367  0.00  0.00     0.174 A 
ATOM      3  C3  BZF d   1       2.348  -4.298  -0.195  0.00  0.00    -0.012 A 
ATOM      4  C3A BZF d   1       1.687  -3.060   0.085  0.00  0.00    -0.107 A 
ATOM      5  C4  BZF d   1       0.387  -2.725   0.333  0.00  0.00     0.055 A 
ATOM      6  C5  BZF d   1       0.084  -1.437   0.641  0.00  0.00    -0.016 A 
ATOM      7  C6  BZF d   1       1.056  -0.460   0.716  0.00  0.00     0.022 A 
ATOM      8  C7  BZF d   1       2.359  -0.744   0.473  0.00  0.00     0.029 A 
ATOM      9  C7A BZF d   1       2.663  -2.038   0.129  0.00  0.00     0.058 A 
ENDROOT
TORSDOF 0
ENDMDL
