MODEL 1
REMARK minimizedAffinity -2.04361463
REMARK minimizedRMSD -1
REMARK  0 active torsions:
REMARK  status: ('A' for Active; 'I' for Inactive)
ROOT
ATOM      1  C4' PXY d   1       3.755   2.253   0.859  0.00  0.00     0.077 C 
ATOM      2  C1' PXY d   1      -1.097  -0.496  -0.663  0.00  0.00     0.077 C 
ATOM      3  C1  PXY d   1       0.178   0.216  -0.255  0.00  0.00    -0.082 A 
ATOM      4  C2  PXY d   1       0.289   1.520  -0.447  0.00  0.00     0.003 A 
ATOM      5  C3  PXY d   1       1.447   2.174  -0.113  0.00  0.00     0.003 A 
ATOM      6  C4  PXY d   1       2.482   1.495   0.471  0.00  0.00    -0.082 A 
ATOM      7  C5  PXY d   1       2.373   0.166   0.680  0.00  0.00     0.003 A 
ATOM      8  C6  PXY d   1       1.204  -0.487   0.296  0.00  0.00     0.003 A 
ENDROOT
TORSDOF 0
ENDMDL
