MODEL 1
REMARK minimizedAffinity -2.23223519
REMARK minimizedRMSD -1
REMARK  0 active torsions:
REMARK  status: ('A' for Active; 'I' for Inactive)
ROOT
ATOM      1  C4' PXY d   1       2.282   1.172   0.413  0.00  0.00     0.077 C 
ATOM      2  C1' PXY d   1      -2.593  -1.656  -0.872  0.00  0.00     0.077 C 
ATOM      3  C1  PXY d   1      -1.315  -0.919  -0.523  0.00  0.00    -0.082 A 
ATOM      4  C2  PXY d   1      -0.941   0.122  -1.249  0.00  0.00     0.003 A 
ATOM      5  C3  PXY d   1       0.228   0.781  -0.967  0.00  0.00     0.003 A 
ATOM      6  C4  PXY d   1       0.995   0.403   0.102  0.00  0.00    -0.082 A 
ATOM      7  C5  PXY d   1       0.615  -0.651   0.855  0.00  0.00     0.003 A 
ATOM      8  C6  PXY d   1      -0.554  -1.332   0.527  0.00  0.00     0.003 A 
ENDROOT
TORSDOF 0
ENDMDL
