MODEL 1
REMARK minimizedAffinity -3.17081928
REMARK minimizedRMSD -1
REMARK  0 active torsions:
REMARK  status: ('A' for Active; 'I' for Inactive)
ROOT
ATOM      1  C4' PXY d   1      -1.949  -0.765  -1.282  0.00  0.00     0.077 C 
ATOM      2  C1' PXY d   1       3.293   1.529  -0.461  0.00  0.00     0.077 C 
ATOM      3  C1  PXY d   1       1.915   0.938  -0.683  0.00  0.00    -0.082 A 
ATOM      4  C2  PXY d   1       1.450   0.028   0.158  0.00  0.00     0.003 A 
ATOM      5  C3  PXY d   1       0.219  -0.540  -0.046  0.00  0.00     0.003 A 
ATOM      6  C4  PXY d   1      -0.566  -0.134  -1.091  0.00  0.00    -0.082 A 
ATOM      7  C5  PXY d   1      -0.104   0.801  -1.947  0.00  0.00     0.003 A 
ATOM      8  C6  PXY d   1       1.165   1.336  -1.746  0.00  0.00     0.003 A 
ENDROOT
TORSDOF 0
ENDMDL
