MODEL 1
REMARK minimizedAffinity -4.64744139
REMARK minimizedRMSD -1
REMARK  0 active torsions:
REMARK  status: ('A' for Active; 'I' for Inactive)
ROOT
ATOM      1  C4' PXY d   1      -0.639  -2.352   2.012  0.00  0.00     0.077 C 
ATOM      2  C1' PXY d   1      -1.045   1.012  -2.672  0.00  0.00     0.077 C 
ATOM      3  C1  PXY d   1      -0.926   0.128  -1.446  0.00  0.00    -0.082 A 
ATOM      4  C2  PXY d   1      -1.987  -0.530  -1.008  0.00  0.00     0.003 A 
ATOM      5  C3  PXY d   1      -1.904  -1.308   0.118  0.00  0.00     0.003 A 
ATOM      6  C4  PXY d   1      -0.711  -1.456   0.772  0.00  0.00    -0.082 A 
ATOM      7  C5  PXY d   1       0.379  -0.796   0.326  0.00  0.00     0.003 A 
ATOM      8  C6  PXY d   1       0.264   0.021  -0.795  0.00  0.00     0.003 A 
ENDROOT
TORSDOF 0
ENDMDL
