MODEL 1
REMARK minimizedAffinity 1.05922961
REMARK minimizedRMSD -1
REMARK  0 active torsions:
REMARK  status: ('A' for Active; 'I' for Inactive)
ROOT
ATOM      1  C4' PXY d   1       2.592   1.226  -0.396  0.00  0.00     0.077 C 
ATOM      2  C1' PXY d   1      -2.665  -0.996  -1.314  0.00  0.00     0.077 C 
ATOM      3  C1  PXY d   1      -1.288  -0.414  -1.060  0.00  0.00    -0.082 A 
ATOM      4  C2  PXY d   1      -0.720   0.348  -1.980  0.00  0.00     0.003 A 
ATOM      5  C3  PXY d   1       0.537   0.857  -1.781  0.00  0.00     0.003 A 
ATOM      6  C4  PXY d   1       1.200   0.625  -0.605  0.00  0.00    -0.082 A 
ATOM      7  C5  PXY d   1       0.623  -0.143   0.343  0.00  0.00     0.003 A 
ATOM      8  C6  PXY d   1      -0.637  -0.684   0.104  0.00  0.00     0.003 A 
ENDROOT
TORSDOF 0
ENDMDL
