MODEL 1
REMARK minimizedAffinity -3.93728495
REMARK minimizedRMSD -1
REMARK  0 active torsions:
REMARK  status: ('A' for Active; 'I' for Inactive)
ROOT
ATOM      1  C4' PXY d   1       4.941   3.848  -2.759  0.00  0.00     0.077 C 
ATOM      2  C1' PXY d   1       1.925   2.424   1.962  0.00  0.00     0.077 C 
ATOM      3  C1  PXY d   1       2.710   2.809   0.723  0.00  0.00    -0.082 A 
ATOM      4  C2  PXY d   1       3.231   1.863  -0.042  0.00  0.00     0.003 A 
ATOM      5  C3  PXY d   1       3.970   2.194  -1.148  0.00  0.00     0.003 A 
ATOM      6  C4  PXY d   1       4.134   3.506  -1.505  0.00  0.00    -0.082 A 
ATOM      7  C5  PXY d   1       3.596   4.476  -0.736  0.00  0.00     0.003 A 
ATOM      8  C6  PXY d   1       2.884   4.120   0.406  0.00  0.00     0.003 A 
ENDROOT
TORSDOF 0
ENDMDL
