MODEL 1
REMARK minimizedAffinity -2.28165531
REMARK minimizedRMSD -1
REMARK  0 active torsions:
REMARK  status: ('A' for Active; 'I' for Inactive)
ROOT
ATOM      1  C4' PXY d   1       0.686   0.384  -0.156  0.00  0.00     0.077 C 
ATOM      2  C1' PXY d   1       4.214   4.760   1.192  0.00  0.00     0.077 C 
ATOM      3  C1  PXY d   1       3.283   3.613   0.850  0.00  0.00    -0.082 A 
ATOM      4  C2  PXY d   1       3.655   2.714  -0.046  0.00  0.00     0.003 A 
ATOM      5  C3  PXY d   1       2.812   1.688  -0.390  0.00  0.00     0.003 A 
ATOM      6  C4  PXY d   1       1.598   1.553   0.227  0.00  0.00    -0.082 A 
ATOM      7  C5  PXY d   1       1.215   2.461   1.150  0.00  0.00     0.003 A 
ATOM      8  C6  PXY d   1       2.068   3.517   1.456  0.00  0.00     0.003 A 
ENDROOT
TORSDOF 0
ENDMDL
