MODEL 1
REMARK minimizedAffinity -2.37904477
REMARK minimizedRMSD -1
REMARK  0 active torsions:
REMARK  status: ('A' for Active; 'I' for Inactive)
ROOT
ATOM      1  C4' PXY d   1       2.216   1.909   0.788  0.00  0.00     0.077 C 
ATOM      2  C1' PXY d   1      -2.051  -1.205  -1.560  0.00  0.00     0.077 C 
ATOM      3  C1  PXY d   1      -0.932  -0.395  -0.933  0.00  0.00    -0.082 A 
ATOM      4  C2  PXY d   1      -0.703   0.838  -1.353  0.00  0.00     0.003 A 
ATOM      5  C3  PXY d   1       0.325   1.573  -0.820  0.00  0.00     0.003 A 
ATOM      6  C4  PXY d   1       1.092   1.059   0.191  0.00  0.00    -0.082 A 
ATOM      7  C5  PXY d   1       0.857  -0.195   0.633  0.00  0.00     0.003 A 
ATOM      8  C6  PXY d   1      -0.164  -0.939   0.050  0.00  0.00     0.003 A 
ENDROOT
TORSDOF 0
ENDMDL
