MODEL 1
REMARK minimizedAffinity -2.72139812
REMARK minimizedRMSD -1
REMARK  0 active torsions:
REMARK  status: ('A' for Active; 'I' for Inactive)
ROOT
ATOM      1  C4' PXY d   1       0.170  -1.843   1.722  0.00  0.00     0.077 C 
ATOM      2  C1' PXY d   1      -1.276   1.115  -3.029  0.00  0.00     0.077 C 
ATOM      3  C1  PXY d   1      -0.884   0.339  -1.787  0.00  0.00    -0.082 A 
ATOM      4  C2  PXY d   1      -1.800  -0.360  -1.137  0.00  0.00     0.003 A 
ATOM      5  C3  PXY d   1      -1.470  -1.042   0.006  0.00  0.00     0.003 A 
ATOM      6  C4  PXY d   1      -0.178  -1.052   0.458  0.00  0.00    -0.082 A 
ATOM      7  C5  PXY d   1       0.765  -0.350  -0.206  0.00  0.00     0.003 A 
ATOM      8  C6  PXY d   1       0.401   0.369  -1.341  0.00  0.00     0.003 A 
ENDROOT
TORSDOF 0
ENDMDL
