MODEL 1
REMARK minimizedAffinity 3.74405241
REMARK minimizedRMSD -1
REMARK  0 active torsions:
REMARK  status: ('A' for Active; 'I' for Inactive)
ROOT
ATOM      1  C4' PXY d   1      -1.272   1.850  -3.782  0.00  0.00     0.077 C 
ATOM      2  C1' PXY d   1      -2.878  -2.263  -0.050  0.00  0.00     0.077 C 
ATOM      3  C1  PXY d   1      -2.446  -1.191  -1.031  0.00  0.00    -0.082 A 
ATOM      4  C2  PXY d   1      -2.914   0.040  -0.903  0.00  0.00     0.003 A 
ATOM      5  C3  PXY d   1      -2.559   1.014  -1.801  0.00  0.00     0.003 A 
ATOM      6  C4  PXY d   1      -1.674   0.738  -2.808  0.00  0.00    -0.082 A 
ATOM      7  C5  PXY d   1      -1.183  -0.513  -2.939  0.00  0.00     0.003 A 
ATOM      8  C6  PXY d   1      -1.588  -1.497  -2.042  0.00  0.00     0.003 A 
ENDROOT
TORSDOF 0
ENDMDL
