MODEL 1
REMARK minimizedAffinity 0.242949292
REMARK minimizedRMSD -1
REMARK  0 active torsions:
REMARK  status: ('A' for Active; 'I' for Inactive)
ROOT
ATOM      1  C4' PXY d   1       2.818   1.272   0.314  0.00  0.00     0.077 C 
ATOM      2  C1' PXY d   1      -2.335  -0.739  -1.365  0.00  0.00     0.077 C 
ATOM      3  C1  PXY d   1      -0.987  -0.213  -0.912  0.00  0.00    -0.082 A 
ATOM      4  C2  PXY d   1      -0.292   0.580  -1.712  0.00  0.00     0.003 A 
ATOM      5  C3  PXY d   1       0.943   1.038  -1.331  0.00  0.00     0.003 A 
ATOM      6  C4  PXY d   1       1.448   0.725  -0.098  0.00  0.00    -0.082 A 
ATOM      7  C5  PXY d   1       0.741  -0.075   0.728  0.00  0.00     0.003 A 
ATOM      8  C6  PXY d   1      -0.493  -0.563   0.306  0.00  0.00     0.003 A 
ENDROOT
TORSDOF 0
ENDMDL
