MODEL 1
REMARK minimizedAffinity -3.94007206
REMARK minimizedRMSD -1
REMARK  0 active torsions:
REMARK  status: ('A' for Active; 'I' for Inactive)
ROOT
ATOM      1  C4' PXY d   1       4.512   4.224  -1.955  0.00  0.00     0.077 C 
ATOM      2  C1' PXY d   1       2.099   1.319   2.421  0.00  0.00     0.077 C 
ATOM      3  C1  PXY d   1       2.720   2.087   1.271  0.00  0.00    -0.082 A 
ATOM      4  C2  PXY d   1       3.777   1.590   0.648  0.00  0.00     0.003 A 
ATOM      5  C3  PXY d   1       4.371   2.287  -0.373  0.00  0.00     0.003 A 
ATOM      6  C4  PXY d   1       3.846   3.479  -0.795  0.00  0.00    -0.082 A 
ATOM      7  C5  PXY d   1       2.762   3.987  -0.172  0.00  0.00     0.003 A 
ATOM      8  C6  PXY d   1       2.198   3.284   0.889  0.00  0.00     0.003 A 
ENDROOT
TORSDOF 0
ENDMDL
