MODEL 1
REMARK minimizedAffinity -3.70039892
REMARK minimizedRMSD -1
REMARK  0 active torsions:
REMARK  status: ('A' for Active; 'I' for Inactive)
ROOT
ATOM      1  C4' PXY d   1       4.430   4.392  -1.633  0.00  0.00     0.077 C 
ATOM      2  C1' PXY d   1       2.019   1.534   2.776  0.00  0.00     0.077 C 
ATOM      3  C1  PXY d   1       2.659   2.274   1.617  0.00  0.00    -0.082 A 
ATOM      4  C2  PXY d   1       2.617   3.596   1.582  0.00  0.00     0.003 A 
ATOM      5  C3  PXY d   1       3.163   4.279   0.525  0.00  0.00     0.003 A 
ATOM      6  C4  PXY d   1       3.805   3.604  -0.478  0.00  0.00    -0.082 A 
ATOM      7  C5  PXY d   1       3.862   2.256  -0.444  0.00  0.00     0.003 A 
ATOM      8  C6  PXY d   1       3.266   1.579   0.616  0.00  0.00     0.003 A 
ENDROOT
TORSDOF 0
ENDMDL
