MODEL 1
REMARK minimizedAffinity -3.65311599
REMARK minimizedRMSD -1
REMARK  0 active torsions:
REMARK  status: ('A' for Active; 'I' for Inactive)
ROOT
ATOM      1  C4' PXY d   1      -3.170  -1.990  -0.523  0.00  0.00     0.077 C 
ATOM      2  C1' PXY d   1       1.742   0.953   0.264  0.00  0.00     0.077 C 
ATOM      3  C1  PXY d   1       0.460   0.171   0.061  0.00  0.00    -0.082 A 
ATOM      4  C2  PXY d   1      -0.452   0.618  -0.786  0.00  0.00     0.003 A 
ATOM      5  C3  PXY d   1      -1.632  -0.061  -0.957  0.00  0.00     0.003 A 
ATOM      6  C4  PXY d   1      -1.856  -1.237  -0.294  0.00  0.00    -0.082 A 
ATOM      7  C5  PXY d   1      -0.926  -1.706   0.564  0.00  0.00     0.003 A 
ATOM      8  C6  PXY d   1       0.247  -0.980   0.755  0.00  0.00     0.003 A 
ENDROOT
TORSDOF 0
ENDMDL
