MODEL 1
REMARK minimizedAffinity -1.77470553
REMARK minimizedRMSD -1
REMARK  0 active torsions:
REMARK  status: ('A' for Active; 'I' for Inactive)
ROOT
ATOM      1  C4' PXY d   1       2.466   1.581   0.009  0.00  0.00     0.077 C 
ATOM      2  C1' PXY d   1      -2.463  -1.114  -1.353  0.00  0.00     0.077 C 
ATOM      3  C1  PXY d   1      -1.172  -0.410  -0.984  0.00  0.00    -0.082 A 
ATOM      4  C2  PXY d   1      -0.697   0.540  -1.771  0.00  0.00     0.003 A 
ATOM      5  C3  PXY d   1       0.486   1.165  -1.469  0.00  0.00     0.003 A 
ATOM      6  C4  PXY d   1       1.161   0.850  -0.320  0.00  0.00    -0.082 A 
ATOM      7  C5  PXY d   1       0.677  -0.111   0.494  0.00  0.00     0.003 A 
ATOM      8  C6  PXY d   1      -0.503  -0.762   0.148  0.00  0.00     0.003 A 
ENDROOT
TORSDOF 0
ENDMDL
