MODEL 1
REMARK minimizedAffinity -4.43813229
REMARK minimizedRMSD -1
REMARK  0 active torsions:
REMARK  status: ('A' for Active; 'I' for Inactive)
ROOT
ATOM      1  C4' PXY d   1       3.008   1.502   0.011  0.00  0.00     0.077 C 
ATOM      2  C1' PXY d   1      -2.222  -0.733  -1.023  0.00  0.00     0.077 C 
ATOM      3  C1  PXY d   1      -0.852  -0.148  -0.739  0.00  0.00    -0.082 A 
ATOM      4  C2  PXY d   1      -0.280   0.643  -1.633  0.00  0.00     0.003 A 
ATOM      5  C3  PXY d   1       0.971   1.154  -1.406  0.00  0.00     0.003 A 
ATOM      6  C4  PXY d   1       1.623   0.897  -0.229  0.00  0.00    -0.082 A 
ATOM      7  C5  PXY d   1       1.042   0.099   0.692  0.00  0.00     0.003 A 
ATOM      8  C6  PXY d   1      -0.212  -0.444   0.425  0.00  0.00     0.003 A 
ENDROOT
TORSDOF 0
ENDMDL
