MODEL 1
REMARK minimizedAffinity -3.50794172
REMARK minimizedRMSD -1
REMARK  0 active torsions:
REMARK  status: ('A' for Active; 'I' for Inactive)
ROOT
ATOM      1  C4' PXY d   1       2.431   1.800   0.360  0.00  0.00     0.077 C 
ATOM      2  C1' PXY d   1      -2.472  -0.956  -0.974  0.00  0.00     0.077 C 
ATOM      3  C1  PXY d   1      -1.187  -0.237  -0.612  0.00  0.00    -0.082 A 
ATOM      4  C2  PXY d   1      -0.795   0.803  -1.329  0.00  0.00     0.003 A 
ATOM      5  C3  PXY d   1       0.381   1.445  -1.035  0.00  0.00     0.003 A 
ATOM      6  C4  PXY d   1       1.136   1.050   0.036  0.00  0.00    -0.082 A 
ATOM      7  C5  PXY d   1       0.738  -0.004   0.779  0.00  0.00     0.003 A 
ATOM      8  C6  PXY d   1      -0.438  -0.668   0.439  0.00  0.00     0.003 A 
ENDROOT
TORSDOF 0
ENDMDL
