MODEL 1
REMARK minimizedAffinity -2.62246847
REMARK minimizedRMSD -1
REMARK  0 active torsions:
REMARK  status: ('A' for Active; 'I' for Inactive)
ROOT
ATOM      1  C4' PXY d   1       2.701   1.833   0.392  0.00  0.00     0.077 C 
ATOM      2  C1' PXY d   1      -2.048  -0.920  -1.421  0.00  0.00     0.077 C 
ATOM      3  C1  PXY d   1      -0.804  -0.203  -0.934  0.00  0.00    -0.082 A 
ATOM      4  C2  PXY d   1      -0.408   0.904  -1.539  0.00  0.00     0.003 A 
ATOM      5  C3  PXY d   1       0.733   1.548  -1.132  0.00  0.00     0.003 A 
ATOM      6  C4  PXY d   1       1.446   1.082  -0.060  0.00  0.00    -0.082 A 
ATOM      7  C5  PXY d   1       1.042  -0.042   0.570  0.00  0.00     0.003 A 
ATOM      8  C6  PXY d   1      -0.095  -0.703   0.115  0.00  0.00     0.003 A 
ENDROOT
TORSDOF 0
ENDMDL
