MODEL 1
REMARK minimizedAffinity -1.034904
REMARK minimizedRMSD -1
REMARK  0 active torsions:
REMARK  status: ('A' for Active; 'I' for Inactive)
ROOT
ATOM      1  C4' PXY d   1       1.960   1.163   0.227  0.00  0.00     0.077 C 
ATOM      2  C1' PXY d   1      -2.873  -1.932  -0.466  0.00  0.00     0.077 C 
ATOM      3  C1  PXY d   1      -1.605  -1.118  -0.297  0.00  0.00    -0.082 A 
ATOM      4  C2  PXY d   1      -0.797  -1.369   0.720  0.00  0.00     0.003 A 
ATOM      5  C3  PXY d   1       0.337  -0.620   0.906  0.00  0.00     0.003 A 
ATOM      6  C4  PXY d   1       0.674   0.360   0.011  0.00  0.00    -0.082 A 
ATOM      7  C5  PXY d   1      -0.140   0.615  -1.035  0.00  0.00     0.003 A 
ATOM      8  C6  PXY d   1      -1.307  -0.129  -1.183  0.00  0.00     0.003 A 
ENDROOT
TORSDOF 0
ENDMDL
