MODEL 1
REMARK minimizedAffinity -2.18399167
REMARK minimizedRMSD -1
REMARK  0 active torsions:
REMARK  status: ('A' for Active; 'I' for Inactive)
ROOT
ATOM      1  C4' PXY d   1       4.689   3.791  -2.771  0.00  0.00     0.077 C 
ATOM      2  C1' PXY d   1       2.075   2.598   2.245  0.00  0.00     0.077 C 
ATOM      3  C1  PXY d   1       2.757   2.923   0.930  0.00  0.00    -0.082 A 
ATOM      4  C2  PXY d   1       2.969   1.961   0.048  0.00  0.00     0.003 A 
ATOM      5  C3  PXY d   1       3.613   2.231  -1.132  0.00  0.00     0.003 A 
ATOM      6  C4  PXY d   1       3.996   3.511  -1.435  0.00  0.00    -0.082 A 
ATOM      7  C5  PXY d   1       3.773   4.500  -0.544  0.00  0.00     0.003 A 
ATOM      8  C6  PXY d   1       3.155   4.197   0.666  0.00  0.00     0.003 A 
ENDROOT
TORSDOF 0
ENDMDL
