MODEL 1
REMARK minimizedAffinity 13.5110207
REMARK minimizedRMSD -1
REMARK  3 active torsions:
REMARK  status: ('A' for Active; 'I' for Inactive)
REMARK    1  A    between atoms: C3'_2  and  C2'_3 
REMARK    2  A    between atoms: C2'_3  and  C1'_4 
REMARK    3  A    between atoms: C1'_4  and  C1_5 
ROOT
ATOM      1  C1  N4B d   1       0.746  -2.791  -1.134  0.00  0.00    -0.075 A 
ATOM      2  C2  N4B d   1      -0.226  -2.517  -2.122  0.00  0.00     0.002 A 
ATOM      3  C3  N4B d   1      -0.845  -3.551  -2.781  0.00  0.00     0.002 A 
ATOM      4  C4  N4B d   1      -0.496  -4.860  -2.486  0.00  0.00    -0.004 A 
ATOM      5  C5  N4B d   1       0.425  -5.117  -1.513  0.00  0.00     0.002 A 
ATOM      6  C6  N4B d   1       1.052  -4.088  -0.839  0.00  0.00     0.002 A 
ENDROOT
BRANCH   1   7
ATOM      7  C1' N4B d   1       1.511  -1.694  -0.447  0.00  0.00     0.057 C 
BRANCH   7   8
ATOM      8  C2' N4B d   1       2.753  -2.286   0.213  0.00  0.00     0.009 C 
BRANCH   8   9
ATOM      9  C3' N4B d   1       4.034  -1.763  -0.414  0.00  0.00     0.004 C 
ATOM     10  C4' N4B d   1       4.980  -2.860  -0.803  0.00  0.00     0.003 C 
ENDBRANCH   8   9
ENDBRANCH   7   8
ENDBRANCH   1   7
TORSDOF 3
ENDMDL
