MODEL 1
REMARK minimizedAffinity 8.18468571
REMARK minimizedRMSD -1
REMARK  3 active torsions:
REMARK  status: ('A' for Active; 'I' for Inactive)
REMARK    1  A    between atoms: C3'_2  and  C2'_3 
REMARK    2  A    between atoms: C2'_3  and  C1'_4 
REMARK    3  A    between atoms: C1'_4  and  C1_5 
ROOT
ATOM      1  C1  N4B d   1      -0.011   4.133  -0.365  0.00  0.00    -0.075 A 
ATOM      2  C2  N4B d   1      -0.170   3.708  -1.703  0.00  0.00     0.002 A 
ATOM      3  C3  N4B d   1      -0.947   4.439  -2.567  0.00  0.00     0.002 A 
ATOM      4  C4  N4B d   1      -1.588   5.583  -2.114  0.00  0.00    -0.004 A 
ATOM      5  C5  N4B d   1      -1.409   6.000  -0.827  0.00  0.00     0.002 A 
ATOM      6  C6  N4B d   1      -0.627   5.277   0.052  0.00  0.00     0.002 A 
ENDROOT
BRANCH   1   7
ATOM      7  C1' N4B d   1       0.760   3.321   0.640  0.00  0.00     0.057 C 
BRANCH   7   8
ATOM      8  C2' N4B d   1      -0.221   2.542   1.512  0.00  0.00     0.009 C 
BRANCH   8   9
ATOM      9  C3' N4B d   1       0.269   2.415   2.944  0.00  0.00     0.004 C 
ATOM     10  C4' N4B d   1      -0.638   1.579   3.796  0.00  0.00     0.003 C 
ENDBRANCH   8   9
ENDBRANCH   7   8
ENDBRANCH   1   7
TORSDOF 3
ENDMDL
