MODEL 1
REMARK minimizedAffinity 10.2179823
REMARK minimizedRMSD -1
REMARK  3 active torsions:
REMARK  status: ('A' for Active; 'I' for Inactive)
REMARK    1  A    between atoms: C3'_2  and  C2'_3 
REMARK    2  A    between atoms: C2'_3  and  C1'_4 
REMARK    3  A    between atoms: C1'_4  and  C1_5 
ROOT
ATOM      1  C1  N4B d   1      -0.011   1.829   2.647  0.00  0.00    -0.075 A 
ATOM      2  C2  N4B d   1       1.329   2.226   2.855  0.00  0.00     0.002 A 
ATOM      3  C3  N4B d   1       1.972   2.991   1.914  0.00  0.00     0.002 A 
ATOM      4  C4  N4B d   1       1.305   3.354   0.753  0.00  0.00    -0.004 A 
ATOM      5  C5  N4B d   1       0.004   2.988   0.572  0.00  0.00     0.002 A 
ATOM      6  C6  N4B d   1      -0.657   2.222   1.511  0.00  0.00     0.002 A 
ENDROOT
BRANCH   1   7
ATOM      7  C1' N4B d   1      -0.728   0.920   3.608  0.00  0.00     0.057 C 
BRANCH   7   8
ATOM      8  C2' N4B d   1       0.288   0.001   4.280  0.00  0.00     0.009 C 
BRANCH   8   9
ATOM      9  C3' N4B d   1      -0.379  -0.996   5.213  0.00  0.00     0.004 C 
ATOM     10  C4' N4B d   1       0.609  -1.805   6.000  0.00  0.00     0.003 C 
ENDBRANCH   8   9
ENDBRANCH   7   8
ENDBRANCH   1   7
TORSDOF 3
ENDMDL
