MODEL 1
REMARK minimizedAffinity 6.74193716
REMARK minimizedRMSD -1
REMARK  3 active torsions:
REMARK  status: ('A' for Active; 'I' for Inactive)
REMARK    1  A    between atoms: C3'_2  and  C2'_3 
REMARK    2  A    between atoms: C2'_3  and  C1'_4 
REMARK    3  A    between atoms: C1'_4  and  C1_5 
ROOT
ATOM      1  C1  N4B d   1      -1.960   4.821  -2.258  0.00  0.00    -0.075 A 
ATOM      2  C2  N4B d   1      -1.664   6.000  -1.539  0.00  0.00     0.002 A 
ATOM      3  C3  N4B d   1      -0.657   5.999  -0.605  0.00  0.00     0.002 A 
ATOM      4  C4  N4B d   1       0.052   4.832  -0.361  0.00  0.00    -0.004 A 
ATOM      5  C5  N4B d   1      -0.224   3.705  -1.078  0.00  0.00     0.002 A 
ATOM      6  C6  N4B d   1      -1.230   3.692  -2.023  0.00  0.00     0.002 A 
ENDROOT
BRANCH   1   7
ATOM      7  C1' N4B d   1      -3.108   4.750  -3.228  0.00  0.00     0.057 C 
BRANCH   7   8
ATOM      8  C2' N4B d   1      -4.398   4.483  -2.458  0.00  0.00     0.009 C 
BRANCH   8   9
ATOM      9  C3' N4B d   1      -5.602   4.392  -3.380  0.00  0.00     0.004 C 
ATOM     10  C4' N4B d   1      -5.942   2.980  -3.753  0.00  0.00     0.003 C 
ENDBRANCH   8   9
ENDBRANCH   7   8
ENDBRANCH   1   7
TORSDOF 3
ENDMDL
