MODEL 1
REMARK minimizedAffinity 4.89151812
REMARK minimizedRMSD -1
REMARK  3 active torsions:
REMARK  status: ('A' for Active; 'I' for Inactive)
REMARK    1  A    between atoms: C3'_2  and  C2'_3 
REMARK    2  A    between atoms: C2'_3  and  C1'_4 
REMARK    3  A    between atoms: C1'_4  and  C1_5 
ROOT
ATOM      1  C1  N4B d   1      -3.353   4.375  -2.582  0.00  0.00    -0.075 A 
ATOM      2  C2  N4B d   1      -3.998   4.117  -3.812  0.00  0.00     0.002 A 
ATOM      3  C3  N4B d   1      -5.253   3.560  -3.826  0.00  0.00     0.002 A 
ATOM      4  C4  N4B d   1      -5.873   3.236  -2.629  0.00  0.00    -0.004 A 
ATOM      5  C5  N4B d   1      -5.254   3.512  -1.444  0.00  0.00     0.002 A 
ATOM      6  C6  N4B d   1      -3.994   4.075  -1.415  0.00  0.00     0.002 A 
ENDROOT
BRANCH   1   7
ATOM      7  C1' N4B d   1      -1.946   4.904  -2.519  0.00  0.00     0.057 C 
BRANCH   7   8
ATOM      8  C2' N4B d   1      -1.053   3.870  -1.840  0.00  0.00     0.009 C 
BRANCH   8   9
ATOM      9  C3' N4B d   1      -0.262   4.469  -0.690  0.00  0.00     0.004 C 
ATOM     10  C4' N4B d   1       0.136   3.450   0.335  0.00  0.00     0.003 C 
ENDBRANCH   8   9
ENDBRANCH   7   8
ENDBRANCH   1   7
TORSDOF 3
ENDMDL
