MODEL 1
REMARK minimizedAffinity 13.1560917
REMARK minimizedRMSD -1
REMARK  0 active torsions:
REMARK  status: ('A' for Active; 'I' for Inactive)
ROOT
ATOM      1  C   UNL d   1       0.792  -0.735   1.270  0.00  0.00     0.077 C 
ATOM      2  C1  UNL d   1      -0.005  -1.108   2.484  0.00  0.00    -0.074 A 
ATOM      3  C2  UNL d   1       0.365  -0.653   3.754  0.00  0.00    -0.005 A 
ATOM      4  C3  UNL d   1      -0.392  -1.000   4.873  0.00  0.00     0.006 A 
ATOM      5  C4  UNL d   1      -1.524  -1.805   4.734  0.00  0.00    -0.005 A 
ATOM      6  C5  UNL d   1      -1.909  -2.268   3.472  0.00  0.00    -0.074 A 
ATOM      7  C6  UNL d   1      -3.129  -3.125   3.303  0.00  0.00     0.077 C 
ATOM      8  C7  UNL d   1      -1.148  -1.909   2.351  0.00  0.00    -0.001 A 
ENDROOT
TORSDOF 0
ENDMDL
