MODEL 1
REMARK minimizedAffinity 13.3852453
REMARK minimizedRMSD -1
REMARK  0 active torsions:
REMARK  status: ('A' for Active; 'I' for Inactive)
ROOT
ATOM      1  C   UNL d   1       4.292   0.308   1.829  0.00  0.00     0.077 C 
ATOM      2  C1  UNL d   1       3.059  -0.494   2.122  0.00  0.00    -0.074 A 
ATOM      3  C2  UNL d   1       2.777  -1.664   1.410  0.00  0.00    -0.005 A 
ATOM      4  C3  UNL d   1       1.631  -2.405   1.701  0.00  0.00     0.006 A 
ATOM      5  C4  UNL d   1       0.758  -1.985   2.704  0.00  0.00    -0.005 A 
ATOM      6  C5  UNL d   1       1.024  -0.818   3.427  0.00  0.00    -0.074 A 
ATOM      7  C6  UNL d   1       0.101  -0.356   4.516  0.00  0.00     0.077 C 
ATOM      8  C7  UNL d   1       2.181  -0.082   3.134  0.00  0.00    -0.001 A 
ENDROOT
TORSDOF 0
ENDMDL
