MODEL 1
REMARK minimizedAffinity 6.8884058
REMARK minimizedRMSD -1
REMARK  0 active torsions:
REMARK  status: ('A' for Active; 'I' for Inactive)
ROOT
ATOM      1  C   UNL d   1      -5.635  -6.000  -0.814  0.00  0.00     0.077 C 
ATOM      2  C1  UNL d   1      -4.802  -5.011  -0.055  0.00  0.00    -0.074 A 
ATOM      3  C2  UNL d   1      -3.405  -5.065  -0.097  0.00  0.00    -0.005 A 
ATOM      4  C3  UNL d   1      -2.643  -4.133   0.607  0.00  0.00     0.006 A 
ATOM      5  C4  UNL d   1      -3.269  -3.138   1.359  0.00  0.00    -0.005 A 
ATOM      6  C5  UNL d   1      -4.665  -3.067   1.412  0.00  0.00    -0.074 A 
ATOM      7  C6  UNL d   1      -5.354  -1.998   2.208  0.00  0.00     0.077 C 
ATOM      8  C7  UNL d   1      -5.423  -4.003   0.697  0.00  0.00    -0.001 A 
ENDROOT
TORSDOF 0
ENDMDL
