MODEL 1
REMARK minimizedAffinity 4.61378479
REMARK minimizedRMSD -1
REMARK  0 active torsions:
REMARK  status: ('A' for Active; 'I' for Inactive)
ROOT
ATOM      1  C   UNL d   1      -0.319  -6.000  -6.000  0.00  0.00     0.077 C 
ATOM      2  C1  UNL d   1       0.490  -5.258  -4.978  0.00  0.00    -0.074 A 
ATOM      3  C2  UNL d   1       0.403  -5.582  -3.620  0.00  0.00    -0.005 A 
ATOM      4  C3  UNL d   1       1.168  -4.889  -2.681  0.00  0.00     0.006 A 
ATOM      5  C4  UNL d   1       2.027  -3.869  -3.091  0.00  0.00    -0.005 A 
ATOM      6  C5  UNL d   1       2.128  -3.532  -4.444  0.00  0.00    -0.074 A 
ATOM      7  C6  UNL d   1       3.054  -2.445  -4.902  0.00  0.00     0.077 C 
ATOM      8  C7  UNL d   1       1.361  -4.237  -5.382  0.00  0.00    -0.001 A 
ENDROOT
TORSDOF 0
ENDMDL
