MODEL 1
REMARK minimizedAffinity 11.7066851
REMARK minimizedRMSD -1
REMARK  0 active torsions:
REMARK  status: ('A' for Active; 'I' for Inactive)
ROOT
ATOM      1  C   UNL d   1      -1.127   2.982  -3.007  0.00  0.00     0.077 C 
ATOM      2  C1  UNL d   1      -2.337   2.983  -3.893  0.00  0.00    -0.074 A 
ATOM      3  C2  UNL d   1      -2.282   3.517  -5.184  0.00  0.00    -0.005 A 
ATOM      4  C3  UNL d   1      -3.413   3.503  -6.000  0.00  0.00     0.006 A 
ATOM      5  C4  UNL d   1      -4.609   2.956  -5.533  0.00  0.00    -0.005 A 
ATOM      6  C5  UNL d   1      -4.683   2.417  -4.245  0.00  0.00    -0.074 A 
ATOM      7  C6  UNL d   1      -5.958   1.816  -3.732  0.00  0.00     0.077 C 
ATOM      8  C7  UNL d   1      -3.540   2.428  -3.434  0.00  0.00    -0.001 A 
ENDROOT
TORSDOF 0
ENDMDL
