MODEL 1
REMARK minimizedAffinity 7.03128481
REMARK minimizedRMSD -1
REMARK  0 active torsions:
REMARK  status: ('A' for Active; 'I' for Inactive)
ROOT
ATOM      1  C   UNL d   1      -4.128  -5.625  -0.843  0.00  0.00     0.077 C 
ATOM      2  C1  UNL d   1      -4.134  -4.958   0.500  0.00  0.00    -0.074 A 
ATOM      3  C2  UNL d   1      -4.158  -3.564   0.611  0.00  0.00    -0.005 A 
ATOM      4  C3  UNL d   1      -4.174  -2.959   1.868  0.00  0.00     0.006 A 
ATOM      5  C4  UNL d   1      -4.166  -3.740   3.024  0.00  0.00    -0.005 A 
ATOM      6  C5  UNL d   1      -4.143  -5.135   2.933  0.00  0.00    -0.074 A 
ATOM      7  C6  UNL d   1      -4.144  -5.990   4.166  0.00  0.00     0.077 C 
ATOM      8  C7  UNL d   1      -4.134  -5.736   1.667  0.00  0.00    -0.001 A 
ENDROOT
TORSDOF 0
ENDMDL
