MODEL 1
REMARK minimizedAffinity 17.2199898
REMARK minimizedRMSD -1
REMARK  0 active torsions:
REMARK  status: ('A' for Active; 'I' for Inactive)
ROOT
ATOM      1  C   UNL d   1       1.625  -3.028   0.568  0.00  0.00     0.077 C 
ATOM      2  C1  UNL d   1       0.574  -2.362   1.405  0.00  0.00    -0.074 A 
ATOM      3  C2  UNL d   1       0.839  -1.159   2.068  0.00  0.00    -0.005 A 
ATOM      4  C3  UNL d   1      -0.151  -0.546   2.836  0.00  0.00     0.006 A 
ATOM      5  C4  UNL d   1      -1.414  -1.128   2.948  0.00  0.00    -0.005 A 
ATOM      6  C5  UNL d   1      -1.698  -2.330   2.291  0.00  0.00    -0.074 A 
ATOM      7  C6  UNL d   1      -3.054  -2.963   2.393  0.00  0.00     0.077 C 
ATOM      8  C7  UNL d   1      -0.700  -2.936   1.516  0.00  0.00    -0.001 A 
ENDROOT
TORSDOF 0
ENDMDL
