MODEL 1
REMARK minimizedAffinity 11.9537468
REMARK minimizedRMSD -1
REMARK  0 active torsions:
REMARK  status: ('A' for Active; 'I' for Inactive)
ROOT
ATOM      1  C   UNL d   1      -2.963  -2.976   2.960  0.00  0.00     0.077 C 
ATOM      2  C1  UNL d   1      -1.705  -2.226   2.639  0.00  0.00    -0.074 A 
ATOM      3  C2  UNL d   1      -1.406  -1.017   3.277  0.00  0.00    -0.005 A 
ATOM      4  C3  UNL d   1      -0.227  -0.336   2.975  0.00  0.00     0.006 A 
ATOM      5  C4  UNL d   1       0.663  -0.855   2.034  0.00  0.00    -0.005 A 
ATOM      6  C5  UNL d   1       0.382  -2.062   1.387  0.00  0.00    -0.074 A 
ATOM      7  C6  UNL d   1       1.333  -2.639   0.381  0.00  0.00     0.077 C 
ATOM      8  C7  UNL d   1      -0.801  -2.745   1.701  0.00  0.00    -0.001 A 
ENDROOT
TORSDOF 0
ENDMDL
