MODEL 1
REMARK minimizedAffinity 15.7291603
REMARK minimizedRMSD -1
REMARK  0 active torsions:
REMARK  status: ('A' for Active; 'I' for Inactive)
ROOT
ATOM      1  C   UNL d   1      -0.096  -0.946   1.737  0.00  0.00     0.077 C 
ATOM      2  C1  UNL d   1      -0.139  -0.751   3.224  0.00  0.00    -0.074 A 
ATOM      3  C2  UNL d   1       1.025  -0.467   3.945  0.00  0.00    -0.005 A 
ATOM      4  C3  UNL d   1       0.969  -0.280   5.326  0.00  0.00     0.006 A 
ATOM      5  C4  UNL d   1      -0.250  -0.374   5.998  0.00  0.00    -0.005 A 
ATOM      6  C5  UNL d   1      -1.424  -0.656   5.294  0.00  0.00    -0.074 A 
ATOM      7  C6  UNL d   1      -2.744  -0.752   6.000  0.00  0.00     0.077 C 
ATOM      8  C7  UNL d   1      -1.361  -0.837   3.905  0.00  0.00    -0.001 A 
ENDROOT
TORSDOF 0
ENDMDL
