MODEL 1
REMARK minimizedAffinity 6.71862698
REMARK minimizedRMSD -1
REMARK  0 active torsions:
REMARK  status: ('A' for Active; 'I' for Inactive)
ROOT
ATOM      1  C   UNL d   1       1.285  -3.431   0.052  0.00  0.00     0.077 C 
ATOM      2  C1  UNL d   1       1.279  -2.513   1.237  0.00  0.00    -0.074 A 
ATOM      3  C2  UNL d   1       0.148  -2.401   2.054  0.00  0.00    -0.005 A 
ATOM      4  C3  UNL d   1       0.160  -1.550   3.158  0.00  0.00     0.006 A 
ATOM      5  C4  UNL d   1       1.300  -0.803   3.458  0.00  0.00    -0.005 A 
ATOM      6  C5  UNL d   1       2.440  -0.903   2.654  0.00  0.00    -0.074 A 
ATOM      7  C6  UNL d   1       3.677  -0.115   2.967  0.00  0.00     0.077 C 
ATOM      8  C7  UNL d   1       2.423  -1.765   1.549  0.00  0.00    -0.001 A 
ENDROOT
TORSDOF 0
ENDMDL
