MODEL 1
REMARK minimizedAffinity 10.710557
REMARK minimizedRMSD -1
REMARK  0 active torsions:
REMARK  status: ('A' for Active; 'I' for Inactive)
ROOT
ATOM      1  C   UNL d   1       5.249  -0.693   2.519  0.00  0.00     0.077 C 
ATOM      2  C1  UNL d   1       3.963  -0.263   1.879  0.00  0.00    -0.074 A 
ATOM      3  C2  UNL d   1       3.850   0.988   1.262  0.00  0.00    -0.005 A 
ATOM      4  C3  UNL d   1       2.651   1.370   0.662  0.00  0.00     0.006 A 
ATOM      5  C4  UNL d   1       1.553   0.508   0.673  0.00  0.00    -0.005 A 
ATOM      6  C5  UNL d   1       1.648  -0.746   1.284  0.00  0.00    -0.074 A 
ATOM      7  C6  UNL d   1       0.481  -1.689   1.296  0.00  0.00     0.077 C 
ATOM      8  C7  UNL d   1       2.859  -1.126   1.879  0.00  0.00    -0.001 A 
ENDROOT
TORSDOF 0
ENDMDL
