MODEL 1
REMARK minimizedAffinity 0.577105999
REMARK minimizedRMSD -1
REMARK  0 active torsions:
REMARK  status: ('A' for Active; 'I' for Inactive)
ROOT
ATOM      1  C   UNL d   1      -3.912  -6.000  -0.372  0.00  0.00     0.077 C 
ATOM      2  C1  UNL d   1      -4.111  -5.268   0.923  0.00  0.00    -0.074 A 
ATOM      3  C2  UNL d   1      -3.756  -3.922   1.050  0.00  0.00    -0.005 A 
ATOM      4  C3  UNL d   1      -3.956  -3.253   2.257  0.00  0.00     0.006 A 
ATOM      5  C4  UNL d   1      -4.512  -3.922   3.348  0.00  0.00    -0.005 A 
ATOM      6  C5  UNL d   1      -4.875  -5.268   3.239  0.00  0.00    -0.074 A 
ATOM      7  C6  UNL d   1      -5.483  -6.000   4.399  0.00  0.00     0.077 C 
ATOM      8  C7  UNL d   1      -4.677  -5.932   2.020  0.00  0.00    -0.001 A 
ENDROOT
TORSDOF 0
ENDMDL
