MODEL 1
REMARK minimizedAffinity -2.06724262
REMARK minimizedRMSD -1
REMARK  0 active torsions:
REMARK  status: ('A' for Active; 'I' for Inactive)
ROOT
ATOM      1  C   UNL d   1      -5.303  -5.041   1.698  0.00  0.00     0.077 C 
ATOM      2  C1  UNL d   1      -5.300  -5.026   3.198  0.00  0.00    -0.074 A 
ATOM      3  C2  UNL d   1      -6.000  -5.992   3.928  0.00  0.00    -0.005 A 
ATOM      4  C3  UNL d   1      -5.981  -5.971   5.322  0.00  0.00     0.006 A 
ATOM      5  C4  UNL d   1      -5.263  -4.984   6.000  0.00  0.00    -0.005 A 
ATOM      6  C5  UNL d   1      -4.557  -4.010   5.287  0.00  0.00    -0.074 A 
ATOM      7  C6  UNL d   1      -3.773  -2.949   6.000  0.00  0.00     0.077 C 
ATOM      8  C7  UNL d   1      -4.576  -4.042   3.886  0.00  0.00    -0.001 A 
ENDROOT
TORSDOF 0
ENDMDL
