MODEL 1
REMARK minimizedAffinity 16.1524563
REMARK minimizedRMSD -1
REMARK  0 active torsions:
REMARK  status: ('A' for Active; 'I' for Inactive)
ROOT
ATOM      1  C   UNL d   1      -1.656   5.515  -3.827  0.00  0.00     0.077 C 
ATOM      2  C1  UNL d   1      -1.276   4.305  -3.026  0.00  0.00    -0.074 A 
ATOM      3  C2  UNL d   1      -1.933   3.085  -3.211  0.00  0.00    -0.005 A 
ATOM      4  C3  UNL d   1      -1.562   1.966  -2.466  0.00  0.00     0.006 A 
ATOM      5  C4  UNL d   1      -0.531   2.055  -1.530  0.00  0.00    -0.005 A 
ATOM      6  C5  UNL d   1       0.139   3.267  -1.332  0.00  0.00    -0.074 A 
ATOM      7  C6  UNL d   1       1.255   3.378  -0.337  0.00  0.00     0.077 C 
ATOM      8  C7  UNL d   1      -0.236   4.385  -2.090  0.00  0.00    -0.001 A 
ENDROOT
TORSDOF 0
ENDMDL
