MODEL 1
REMARK minimizedAffinity 9.79888916
REMARK minimizedRMSD -1
REMARK  0 active torsions:
REMARK  status: ('A' for Active; 'I' for Inactive)
ROOT
ATOM      1  C   UNL d   1       0.597  -3.437  -2.229  0.00  0.00     0.077 C 
ATOM      2  C1  UNL d   1       1.229  -4.008  -3.464  0.00  0.00    -0.074 A 
ATOM      3  C2  UNL d   1       0.829  -5.250  -3.967  0.00  0.00    -0.005 A 
ATOM      4  C3  UNL d   1       1.420  -5.764  -5.122  0.00  0.00     0.006 A 
ATOM      5  C4  UNL d   1       2.414  -5.042  -5.783  0.00  0.00    -0.005 A 
ATOM      6  C5  UNL d   1       2.826  -3.798  -5.295  0.00  0.00    -0.074 A 
ATOM      7  C6  UNL d   1       3.886  -3.005  -6.000  0.00  0.00     0.077 C 
ATOM      8  C7  UNL d   1       2.223  -3.285  -4.139  0.00  0.00    -0.001 A 
ENDROOT
TORSDOF 0
ENDMDL
