MODEL 1
REMARK minimizedAffinity 18.6844082
REMARK minimizedRMSD -1
REMARK  0 active torsions:
REMARK  status: ('A' for Active; 'I' for Inactive)
ROOT
ATOM      1  C   UNL d   1      -1.118   2.615  -2.626  0.00  0.00     0.077 C 
ATOM      2  C1  UNL d   1      -2.531   3.000  -2.302  0.00  0.00    -0.074 A 
ATOM      3  C2  UNL d   1      -2.832   4.265  -1.787  0.00  0.00    -0.005 A 
ATOM      4  C3  UNL d   1      -4.152   4.612  -1.500  0.00  0.00     0.006 A 
ATOM      5  C4  UNL d   1      -5.183   3.699  -1.725  0.00  0.00    -0.005 A 
ATOM      6  C5  UNL d   1      -4.902   2.430  -2.240  0.00  0.00    -0.074 A 
ATOM      7  C6  UNL d   1      -6.000   1.441  -2.497  0.00  0.00     0.077 C 
ATOM      8  C7  UNL d   1      -3.574   2.091  -2.533  0.00  0.00    -0.001 A 
ENDROOT
TORSDOF 0
ENDMDL
