MODEL 1
REMARK minimizedAffinity -3.18216896
REMARK minimizedRMSD -1
REMARK  0 active torsions:
REMARK  status: ('A' for Active; 'I' for Inactive)
ROOT
ATOM      1  C   UNL d   1       0.275   0.356  -0.233  0.00  0.00     0.172 C 
ATOM      2  N   UNL d   1      -0.846   1.093  -0.765  0.00  0.00    -0.070 N 
ATOM      3  C1  UNL d   1      -1.762   1.796  -0.028  0.00  0.00    -0.004 A 
ATOM      4  C2  UNL d   1      -2.669   2.354  -0.903  0.00  0.00    -0.047 A 
ATOM      5  C3  UNL d   1      -2.285   1.974  -2.211  0.00  0.00    -0.047 A 
ATOM      6  C4  UNL d   1      -1.154   1.193  -2.096  0.00  0.00    -0.004 A 
ENDROOT
TORSDOF 0
ENDMDL
