MODEL 1
REMARK minimizedAffinity 1.16428339
REMARK minimizedRMSD -1
REMARK  0 active torsions:
REMARK  status: ('A' for Active; 'I' for Inactive)
ROOT
ATOM      1  C   UNL d   1      -4.179   4.944  -2.808  0.00  0.00     0.172 C 
ATOM      2  N   UNL d   1      -4.916   4.899  -4.049  0.00  0.00    -0.070 N 
ATOM      3  C1  UNL d   1      -5.333   3.762  -4.689  0.00  0.00    -0.004 A 
ATOM      4  C2  UNL d   1      -6.000   4.142  -5.833  0.00  0.00    -0.047 A 
ATOM      5  C3  UNL d   1      -5.982   5.557  -5.883  0.00  0.00    -0.047 A 
ATOM      6  C4  UNL d   1      -5.305   5.999  -4.767  0.00  0.00    -0.004 A 
ENDROOT
TORSDOF 0
ENDMDL
