MODEL 1
REMARK minimizedAffinity 0.42044431
REMARK minimizedRMSD -1
REMARK  0 active torsions:
REMARK  status: ('A' for Active; 'I' for Inactive)
ROOT
ATOM      1  C   UNL d   1      -4.797   4.539  -2.532  0.00  0.00     0.172 C 
ATOM      2  N   UNL d   1      -5.256   4.767  -3.883  0.00  0.00    -0.070 N 
ATOM      3  C1  UNL d   1      -5.627   3.796  -4.774  0.00  0.00    -0.004 A 
ATOM      4  C2  UNL d   1      -6.000   4.419  -5.946  0.00  0.00    -0.047 A 
ATOM      5  C3  UNL d   1      -5.847   5.813  -5.751  0.00  0.00    -0.047 A 
ATOM      6  C4  UNL d   1      -5.385   6.000  -4.465  0.00  0.00    -0.004 A 
ENDROOT
TORSDOF 0
ENDMDL
