MODEL 1
REMARK minimizedAffinity 2.15664315
REMARK minimizedRMSD -1
REMARK  0 active torsions:
REMARK  status: ('A' for Active; 'I' for Inactive)
ROOT
ATOM      1  C   UNL d   1      -0.372   1.481  -1.849  0.00  0.00     0.172 C 
ATOM      2  N   UNL d   1      -0.703   2.002  -0.544  0.00  0.00    -0.070 N 
ATOM      3  C1  UNL d   1       0.126   2.009   0.547  0.00  0.00    -0.004 A 
ATOM      4  C2  UNL d   1      -0.558   2.590   1.592  0.00  0.00    -0.047 A 
ATOM      5  C3  UNL d   1      -1.842   2.945   1.114  0.00  0.00    -0.047 A 
ATOM      6  C4  UNL d   1      -1.904   2.570  -0.211  0.00  0.00    -0.004 A 
ENDROOT
TORSDOF 0
ENDMDL
