MODEL 1
REMARK minimizedAffinity 1.39448607
REMARK minimizedRMSD -1
REMARK  0 active torsions:
REMARK  status: ('A' for Active; 'I' for Inactive)
ROOT
ATOM      1  C   UNL d   1      -0.374   1.919  -1.603  0.00  0.00     0.172 C 
ATOM      2  N   UNL d   1      -0.727   2.251  -0.243  0.00  0.00    -0.070 N 
ATOM      3  C1  UNL d   1      -1.979   2.590   0.197  0.00  0.00    -0.004 A 
ATOM      4  C2  UNL d   1      -1.899   2.832   1.552  0.00  0.00    -0.047 A 
ATOM      5  C3  UNL d   1      -0.552   2.633   1.938  0.00  0.00    -0.047 A 
ATOM      6  C4  UNL d   1       0.151   2.274   0.808  0.00  0.00    -0.004 A 
ENDROOT
TORSDOF 0
ENDMDL
