MODEL 1
REMARK minimizedAffinity -3.49703646
REMARK minimizedRMSD -1
REMARK  0 active torsions:
REMARK  status: ('A' for Active; 'I' for Inactive)
ROOT
ATOM      1  C   UNL d   1       0.004   0.014  -0.013  0.00  0.00     0.172 C 
ATOM      2  N   UNL d   1      -0.043   1.442   0.199  0.00  0.00    -0.070 N 
ATOM      3  C1  UNL d   1      -0.169   2.390  -0.781  0.00  0.00    -0.004 A 
ATOM      4  C2  UNL d   1      -0.173   3.627  -0.172  0.00  0.00    -0.047 A 
ATOM      5  C3  UNL d   1      -0.044   3.414   1.221  0.00  0.00    -0.047 A 
ATOM      6  C4  UNL d   1       0.035   2.052   1.423  0.00  0.00    -0.004 A 
ENDROOT
TORSDOF 0
ENDMDL
