MODEL 1
REMARK minimizedAffinity 15.4175415
REMARK minimizedRMSD -1
REMARK  0 active torsions:
REMARK  status: ('A' for Active; 'I' for Inactive)
ROOT
ATOM      1  C   UNL d   1      -3.352   1.239  -3.003  0.00  0.00     0.124 A 
ATOM      2  C1  UNL d   1      -4.383   1.451  -3.907  0.00  0.00     0.062 A 
ATOM      3  C2  UNL d   1      -5.006   0.370  -4.525  0.00  0.00     0.162 A 
ATOM      4  C3  UNL d   1      -4.599  -0.933  -4.241  0.00  0.00    -0.034 A 
ATOM      5  C4  UNL d   1      -3.560  -1.139  -3.331  0.00  0.00     0.162 A 
ATOM      6  C5  UNL d   1      -2.942  -0.055  -2.716  0.00  0.00     0.062 A 
ATOM      7  F   UNL d   1      -1.945  -0.263  -1.842  0.00  0.00    -0.097 F 
ATOM      8  F1  UNL d   1      -3.144  -2.379  -3.034  0.00  0.00    -0.096 F 
ATOM      9  I   UNL d   1      -5.527  -2.552  -5.163  0.00  0.00    -0.060 I 
ATOM     10  F2  UNL d   1      -6.000   0.605  -5.395  0.00  0.00    -0.096 F 
ATOM     11  F3  UNL d   1      -4.781   2.700  -4.187  0.00  0.00    -0.097 F 
ATOM     12  F4  UNL d   1      -2.754   2.280  -2.410  0.00  0.00    -0.092 F 
ENDROOT
TORSDOF 0
ENDMDL
