MODEL 1
REMARK minimizedAffinity 13.9368639
REMARK minimizedRMSD -1
REMARK  0 active torsions:
REMARK  status: ('A' for Active; 'I' for Inactive)
ROOT
ATOM      1  C   UNL d   1       3.705  -5.863  -2.759  0.00  0.00     0.124 A 
ATOM      2  C1  UNL d   1       2.374  -5.931  -2.371  0.00  0.00     0.062 A 
ATOM      3  C2  UNL d   1       2.037  -5.932  -1.020  0.00  0.00     0.162 A 
ATOM      4  C3  UNL d   1       3.034  -5.862  -0.047  0.00  0.00    -0.034 A 
ATOM      5  C4  UNL d   1       4.370  -5.794  -0.444  0.00  0.00     0.162 A 
ATOM      6  C5  UNL d   1       4.701  -5.794  -1.795  0.00  0.00     0.062 A 
ATOM      7  F   UNL d   1       5.988  -5.728  -2.168  0.00  0.00    -0.097 F 
ATOM      8  F1  UNL d   1       5.354  -5.726   0.465  0.00  0.00    -0.096 F 
ATOM      9  I   UNL d   1       2.535  -5.863   1.974  0.00  0.00    -0.060 I 
ATOM     10  F2  UNL d   1       0.743  -5.999  -0.674  0.00  0.00    -0.096 F 
ATOM     11  F3  UNL d   1       1.409  -5.999  -3.299  0.00  0.00    -0.097 F 
ATOM     12  F4  UNL d   1       4.025  -5.863  -4.059  0.00  0.00    -0.092 F 
ENDROOT
TORSDOF 0
ENDMDL
