MODEL 1
REMARK minimizedAffinity 25.9869404
REMARK minimizedRMSD -1
REMARK  0 active torsions:
REMARK  status: ('A' for Active; 'I' for Inactive)
ROOT
ATOM      1  C   UNL d   1       2.373  -2.496   2.623  0.00  0.00     0.124 A 
ATOM      2  C1  UNL d   1       1.490  -1.937   3.536  0.00  0.00     0.062 A 
ATOM      3  C2  UNL d   1       0.828  -2.745   4.456  0.00  0.00     0.162 A 
ATOM      4  C3  UNL d   1       1.048  -4.122   4.468  0.00  0.00    -0.034 A 
ATOM      5  C4  UNL d   1       1.937  -4.678   3.547  0.00  0.00     0.162 A 
ATOM      6  C5  UNL d   1       2.596  -3.866   2.629  0.00  0.00     0.062 A 
ATOM      7  F   UNL d   1       3.449  -4.409   1.748  0.00  0.00    -0.097 F 
ATOM      8  F1  UNL d   1       2.171  -5.999   3.531  0.00  0.00    -0.096 F 
ATOM      9  I   UNL d   1       0.061  -5.334   5.842  0.00  0.00    -0.060 I 
ATOM     10  F2  UNL d   1      -0.019  -2.177   5.326  0.00  0.00    -0.096 F 
ATOM     11  F3  UNL d   1       1.272  -0.613   3.531  0.00  0.00    -0.097 F 
ATOM     12  F4  UNL d   1       3.008  -1.717   1.738  0.00  0.00    -0.092 F 
ENDROOT
TORSDOF 0
ENDMDL
