MODEL 1
REMARK minimizedAffinity 17.9080486
REMARK minimizedRMSD -1
REMARK  0 active torsions:
REMARK  status: ('A' for Active; 'I' for Inactive)
ROOT
ATOM      1  C   UNL d   1       1.894  -2.449   2.052  0.00  0.00     0.124 A 
ATOM      2  C1  UNL d   1       1.974  -3.744   2.547  0.00  0.00     0.062 A 
ATOM      3  C2  UNL d   1       2.522  -4.759   1.768  0.00  0.00     0.162 A 
ATOM      4  C3  UNL d   1       2.996  -4.483   0.486  0.00  0.00    -0.034 A 
ATOM      5  C4  UNL d   1       2.912  -3.179  -0.006  0.00  0.00     0.162 A 
ATOM      6  C5  UNL d   1       2.363  -2.168   0.777  0.00  0.00     0.062 A 
ATOM      7  F   UNL d   1       2.287  -0.919   0.297  0.00  0.00    -0.097 F 
ATOM      8  F1  UNL d   1       3.358  -2.880  -1.235  0.00  0.00    -0.096 F 
ATOM      9  I   UNL d   1       3.817  -5.998  -0.682  0.00  0.00    -0.060 I 
ATOM     10  F2  UNL d   1       2.586  -6.000   2.272  0.00  0.00    -0.096 F 
ATOM     11  F3  UNL d   1       1.520  -4.018   3.779  0.00  0.00    -0.097 F 
ATOM     12  F4  UNL d   1       1.365  -1.475   2.803  0.00  0.00    -0.092 F 
ENDROOT
TORSDOF 0
ENDMDL
