MODEL 1
REMARK minimizedAffinity 11.4209681
REMARK minimizedRMSD -1
REMARK  0 active torsions:
REMARK  status: ('A' for Active; 'I' for Inactive)
ROOT
ATOM      1  C   UNL d   1       2.781  -5.788  -0.901  0.00  0.00     0.124 A 
ATOM      2  C1  UNL d   1       1.704  -5.873  -1.772  0.00  0.00     0.062 A 
ATOM      3  C2  UNL d   1       1.916  -5.910  -3.147  0.00  0.00     0.162 A 
ATOM      4  C3  UNL d   1       3.212  -5.864  -3.660  0.00  0.00    -0.034 A 
ATOM      5  C4  UNL d   1       4.291  -5.777  -2.779  0.00  0.00     0.162 A 
ATOM      6  C5  UNL d   1       4.073  -5.740  -1.405  0.00  0.00     0.062 A 
ATOM      7  F   UNL d   1       5.116  -5.658  -0.566  0.00  0.00    -0.097 F 
ATOM      8  F1  UNL d   1       5.550  -5.731  -3.239  0.00  0.00    -0.096 F 
ATOM      9  I   UNL d   1       3.533  -5.919  -5.716  0.00  0.00    -0.060 I 
ATOM     10  F2  UNL d   1       0.856  -5.992  -3.965  0.00  0.00    -0.096 F 
ATOM     11  F3  UNL d   1       0.454  -5.918  -1.287  0.00  0.00    -0.097 F 
ATOM     12  F4  UNL d   1       2.574  -5.751   0.421  0.00  0.00    -0.092 F 
ENDROOT
TORSDOF 0
ENDMDL
