MODEL 1
REMARK minimizedAffinity 18.282299
REMARK minimizedRMSD -1
REMARK  0 active torsions:
REMARK  status: ('A' for Active; 'I' for Inactive)
ROOT
ATOM      1  C   UNL d   1       1.054  -3.719   3.016  0.00  0.00     0.124 A 
ATOM      2  C1  UNL d   1       1.639  -4.694   3.812  0.00  0.00     0.062 A 
ATOM      3  C2  UNL d   1       2.915  -4.498   4.334  0.00  0.00     0.162 A 
ATOM      4  C3  UNL d   1       3.614  -3.322   4.063  0.00  0.00    -0.034 A 
ATOM      5  C4  UNL d   1       3.019  -2.347   3.260  0.00  0.00     0.162 A 
ATOM      6  C5  UNL d   1       1.744  -2.547   2.741  0.00  0.00     0.062 A 
ATOM      7  F   UNL d   1       1.180  -1.604   1.972  0.00  0.00    -0.097 F 
ATOM      8  F1  UNL d   1       3.663  -1.204   2.979  0.00  0.00    -0.096 F 
ATOM      9  I   UNL d   1       5.521  -3.026   4.842  0.00  0.00    -0.060 I 
ATOM     10  F2  UNL d   1       3.456  -5.457   5.101  0.00  0.00    -0.096 F 
ATOM     11  F3  UNL d   1       0.975  -5.828   4.079  0.00  0.00    -0.097 F 
ATOM     12  F4  UNL d   1      -0.173  -3.910   2.514  0.00  0.00    -0.092 F 
ENDROOT
TORSDOF 0
ENDMDL
