MODEL 1
REMARK minimizedAffinity 17.4440269
REMARK minimizedRMSD -1
REMARK  0 active torsions:
REMARK  status: ('A' for Active; 'I' for Inactive)
ROOT
ATOM      1  C   UNL d   1       2.043  -2.856   3.775  0.00  0.00     0.124 A 
ATOM      2  C1  UNL d   1       1.822  -1.839   4.694  0.00  0.00     0.062 A 
ATOM      3  C2  UNL d   1       1.743  -0.516   4.269  0.00  0.00     0.162 A 
ATOM      4  C3  UNL d   1       1.883  -0.202   2.917  0.00  0.00    -0.034 A 
ATOM      5  C4  UNL d   1       2.106  -1.230   1.999  0.00  0.00     0.162 A 
ATOM      6  C5  UNL d   1       2.185  -2.550   2.429  0.00  0.00     0.062 A 
ATOM      7  F   UNL d   1       2.398  -3.531   1.540  0.00  0.00    -0.097 F 
ATOM      8  F1  UNL d   1       2.246  -0.963   0.692  0.00  0.00    -0.096 F 
ATOM      9  I   UNL d   1       1.766   1.775   2.277  0.00  0.00    -0.060 I 
ATOM     10  F2  UNL d   1       1.528   0.446   5.179  0.00  0.00    -0.096 F 
ATOM     11  F3  UNL d   1       1.685  -2.132   5.996  0.00  0.00    -0.097 F 
ATOM     12  F4  UNL d   1       2.119  -4.128   4.188  0.00  0.00    -0.092 F 
ENDROOT
TORSDOF 0
ENDMDL
