MODEL 1
REMARK minimizedAffinity 5.82654333
REMARK minimizedRMSD -1
REMARK  0 active torsions:
REMARK  status: ('A' for Active; 'I' for Inactive)
ROOT
ATOM      1  C4' PXY d   1       0.322   3.413   1.551  0.00  0.00     0.077 C 
ATOM      2  C1' PXY d   1       0.337  -1.207  -1.924  0.00  0.00     0.077 C 
ATOM      3  C1  PXY d   1       0.325  -0.002  -1.005  0.00  0.00    -0.082 A 
ATOM      4  C2  PXY d   1       0.594   1.198  -1.495  0.00  0.00     0.003 A 
ATOM      5  C3  PXY d   1       0.619   2.294  -0.671  0.00  0.00     0.003 A 
ATOM      6  C4  PXY d   1       0.314   2.169   0.658  0.00  0.00    -0.082 A 
ATOM      7  C5  PXY d   1       0.028   0.950   1.163  0.00  0.00     0.003 A 
ATOM      8  C6  PXY d   1       0.048  -0.156   0.319  0.00  0.00     0.003 A 
ENDROOT
TORSDOF 0
ENDMDL
