MODEL 1
REMARK minimizedAffinity -2.37750578
REMARK minimizedRMSD -1
REMARK  0 active torsions:
REMARK  status: ('A' for Active; 'I' for Inactive)
ROOT
ATOM      1  C4' PXY d   1       0.065   2.648  -0.742  0.00  0.00     0.077 C 
ATOM      2  C1' PXY d   1      -0.876  -2.874   0.685  0.00  0.00     0.077 C 
ATOM      3  C1  PXY d   1      -0.618  -1.429   0.304  0.00  0.00    -0.082 A 
ATOM      4  C2  PXY d   1      -1.150  -0.458   1.028  0.00  0.00     0.003 A 
ATOM      5  C3  PXY d   1      -0.954   0.854   0.679  0.00  0.00     0.003 A 
ATOM      6  C4  PXY d   1      -0.161   1.175  -0.390  0.00  0.00    -0.082 A 
ATOM      7  C5  PXY d   1       0.395   0.190  -1.126  0.00  0.00     0.003 A 
ATOM      8  C6  PXY d   1       0.149  -1.136  -0.780  0.00  0.00     0.003 A 
ENDROOT
TORSDOF 0
ENDMDL
