MODEL 1
REMARK minimizedAffinity 0.990738451
REMARK minimizedRMSD -1
REMARK  0 active torsions:
REMARK  status: ('A' for Active; 'I' for Inactive)
ROOT
ATOM      1  C4' PXY d   1       2.788   1.430  -1.404  0.00  0.00     0.077 C 
ATOM      2  C1' PXY d   1      -1.964  -0.236   1.434  0.00  0.00     0.077 C 
ATOM      3  C1  PXY d   1      -0.722   0.196   0.679  0.00  0.00    -0.082 A 
ATOM      4  C2  PXY d   1       0.409   0.390   1.336  0.00  0.00     0.003 A 
ATOM      5  C3  PXY d   1       1.533   0.811   0.674  0.00  0.00     0.003 A 
ATOM      6  C4  PXY d   1       1.513   0.985  -0.684  0.00  0.00    -0.082 A 
ATOM      7  C5  PXY d   1       0.365   0.779  -1.364  0.00  0.00     0.003 A 
ATOM      8  C6  PXY d   1      -0.776   0.391  -0.667  0.00  0.00     0.003 A 
ENDROOT
TORSDOF 0
ENDMDL
