MODEL 1
REMARK minimizedAffinity 6.31705046
REMARK minimizedRMSD -1
REMARK  0 active torsions:
REMARK  status: ('A' for Active; 'I' for Inactive)
ROOT
ATOM      1  C4' PXY d   1       3.471   0.158  -1.351  0.00  0.00     0.077 C 
ATOM      2  C1' PXY d   1       1.636   4.262   2.283  0.00  0.00     0.077 C 
ATOM      3  C1  PXY d   1       2.124   3.194   1.323  0.00  0.00    -0.082 A 
ATOM      4  C2  PXY d   1       1.450   2.062   1.207  0.00  0.00     0.003 A 
ATOM      5  C3  PXY d   1       1.894   1.073   0.367  0.00  0.00     0.003 A 
ATOM      6  C4  PXY d   1       3.011   1.267  -0.401  0.00  0.00    -0.082 A 
ATOM      7  C5  PXY d   1       3.698   2.424  -0.296  0.00  0.00     0.003 A 
ATOM      8  C6  PXY d   1       3.254   3.398   0.593  0.00  0.00     0.003 A 
ENDROOT
TORSDOF 0
ENDMDL
