MODEL 1
REMARK minimizedAffinity 4.0711441
REMARK minimizedRMSD -1
REMARK  0 active torsions:
REMARK  status: ('A' for Active; 'I' for Inactive)
ROOT
ATOM      1  C4' PXY d   1       0.004   3.016   1.299  0.00  0.00     0.077 C 
ATOM      2  C1' PXY d   1      -1.942  -2.420   1.029  0.00  0.00     0.077 C 
ATOM      3  C1  PXY d   1      -1.424  -0.997   1.090  0.00  0.00    -0.082 A 
ATOM      4  C2  PXY d   1      -1.545  -0.304   2.211  0.00  0.00     0.003 A 
ATOM      5  C3  PXY d   1      -1.110   0.995   2.273  0.00  0.00     0.003 A 
ATOM      6  C4  PXY d   1      -0.497   1.573   1.194  0.00  0.00    -0.082 A 
ATOM      7  C5  PXY d   1      -0.359   0.869   0.051  0.00  0.00     0.003 A 
ATOM      8  C6  PXY d   1      -0.845  -0.434  -0.005  0.00  0.00     0.003 A 
ENDROOT
TORSDOF 0
ENDMDL
