MODEL 1
REMARK minimizedAffinity -0.135270581
REMARK minimizedRMSD -1
REMARK  0 active torsions:
REMARK  status: ('A' for Active; 'I' for Inactive)
ROOT
ATOM      1  C4' PXY d   1       1.104  -1.206  -3.298  0.00  0.00     0.077 C 
ATOM      2  C1' PXY d   1      -1.057  -0.434   2.007  0.00  0.00     0.077 C 
ATOM      3  C1  PXY d   1      -0.491  -0.623   0.614  0.00  0.00    -0.082 A 
ATOM      4  C2  PXY d   1      -0.636  -1.787   0.001  0.00  0.00     0.003 A 
ATOM      5  C3  PXY d   1      -0.103  -1.986  -1.246  0.00  0.00     0.003 A 
ATOM      6  C4  PXY d   1       0.541  -0.966  -1.895  0.00  0.00    -0.082 A 
ATOM      7  C5  PXY d   1       0.684   0.227  -1.281  0.00  0.00     0.003 A 
ATOM      8  C6  PXY d   1       0.171   0.396   0.002  0.00  0.00     0.003 A 
ENDROOT
TORSDOF 0
ENDMDL
