MODEL 1
REMARK minimizedAffinity 3.84933901
REMARK minimizedRMSD -1
REMARK  0 active torsions:
REMARK  status: ('A' for Active; 'I' for Inactive)
ROOT
ATOM      1  C4' PXY d   1       1.619   3.489   1.723  0.00  0.00     0.077 C 
ATOM      2  C1' PXY d   1       0.478  -0.380  -2.418  0.00  0.00     0.077 C 
ATOM      3  C1  PXY d   1       0.765   0.638  -1.332  0.00  0.00    -0.082 A 
ATOM      4  C2  PXY d   1       1.987   1.126  -1.199  0.00  0.00     0.003 A 
ATOM      5  C3  PXY d   1       2.271   2.023  -0.201  0.00  0.00     0.003 A 
ATOM      6  C4  PXY d   1       1.282   2.466   0.634  0.00  0.00    -0.082 A 
ATOM      7  C5  PXY d   1       0.029   1.981   0.498  0.00  0.00     0.003 A 
ATOM      8  C6  PXY d   1      -0.229   1.040  -0.494  0.00  0.00     0.003 A 
ENDROOT
TORSDOF 0
ENDMDL
