MODEL 1
REMARK minimizedAffinity 1.88364542
REMARK minimizedRMSD -1
REMARK  0 active torsions:
REMARK  status: ('A' for Active; 'I' for Inactive)
ROOT
ATOM      1  C4' PXY d   1       1.202   2.141   0.776  0.00  0.00     0.077 C 
ATOM      2  C1' PXY d   1      -1.264  -3.079   0.471  0.00  0.00     0.077 C 
ATOM      3  C1  PXY d   1      -0.620  -1.710   0.563  0.00  0.00    -0.082 A 
ATOM      4  C2  PXY d   1      -0.569  -0.936  -0.509  0.00  0.00     0.003 A 
ATOM      5  C3  PXY d   1       0.039   0.291  -0.451  0.00  0.00     0.003 A 
ATOM      6  C4  PXY d   1       0.552   0.755   0.731  0.00  0.00    -0.082 A 
ATOM      7  C5  PXY d   1       0.495  -0.024   1.832  0.00  0.00     0.003 A 
ATOM      8  C6  PXY d   1      -0.090  -1.284   1.742  0.00  0.00     0.003 A 
ENDROOT
TORSDOF 0
ENDMDL
