MODEL 1
REMARK minimizedAffinity 1.08905363
REMARK minimizedRMSD -1
REMARK  0 active torsions:
REMARK  status: ('A' for Active; 'I' for Inactive)
ROOT
ATOM      1  C4' PXY d   1       0.971   1.809   1.264  0.00  0.00     0.077 C 
ATOM      2  C1' PXY d   1      -0.875  -3.524   0.013  0.00  0.00     0.077 C 
ATOM      3  C1  PXY d   1      -0.382  -2.126   0.332  0.00  0.00    -0.082 A 
ATOM      4  C2  PXY d   1      -0.561  -1.630   1.545  0.00  0.00     0.003 A 
ATOM      5  C3  PXY d   1      -0.150  -0.356   1.841  0.00  0.00     0.003 A 
ATOM      6  C4  PXY d   1       0.498   0.399   0.900  0.00  0.00    -0.082 A 
ATOM      7  C5  PXY d   1       0.694  -0.104  -0.337  0.00  0.00     0.003 A 
ATOM      8  C6  PXY d   1       0.233  -1.384  -0.629  0.00  0.00     0.003 A 
ENDROOT
TORSDOF 0
ENDMDL
