MODEL 1
REMARK minimizedAffinity 0.808854818
REMARK minimizedRMSD -1
REMARK  0 active torsions:
REMARK  status: ('A' for Active; 'I' for Inactive)
ROOT
ATOM      1  C4' PXY d   1      -1.860  -3.072   0.641  0.00  0.00     0.077 C 
ATOM      2  C1' PXY d   1       2.096   0.078  -2.160  0.00  0.00     0.077 C 
ATOM      3  C1  PXY d   1       1.056  -0.737  -1.418  0.00  0.00    -0.082 A 
ATOM      4  C2  PXY d   1       1.177  -2.054  -1.359  0.00  0.00     0.003 A 
ATOM      5  C3  PXY d   1       0.228  -2.809  -0.720  0.00  0.00     0.003 A 
ATOM      6  C4  PXY d   1      -0.828  -2.207  -0.089  0.00  0.00    -0.082 A 
ATOM      7  C5  PXY d   1      -0.953  -0.864  -0.136  0.00  0.00     0.003 A 
ATOM      8  C6  PXY d   1      -0.001  -0.118  -0.825  0.00  0.00     0.003 A 
ENDROOT
TORSDOF 0
ENDMDL
