MODEL 1
REMARK minimizedAffinity -2.18285584
REMARK minimizedRMSD -1
REMARK  0 active torsions:
REMARK  status: ('A' for Active; 'I' for Inactive)
ROOT
ATOM      1  C4' PXY d   1       1.061  -3.430   0.855  0.00  0.00     0.077 C 
ATOM      2  C1' PXY d   1      -1.304   1.550  -0.882  0.00  0.00     0.077 C 
ATOM      3  C1  PXY d   1      -0.692   0.244  -0.416  0.00  0.00    -0.082 A 
ATOM      4  C2  PXY d   1       0.544  -0.064  -0.775  0.00  0.00     0.003 A 
ATOM      5  C3  PXY d   1       1.101  -1.256  -0.389  0.00  0.00     0.003 A 
ATOM      6  C4  PXY d   1       0.406  -2.118   0.416  0.00  0.00    -0.082 A 
ATOM      7  C5  PXY d   1      -0.852  -1.806   0.795  0.00  0.00     0.003 A 
ATOM      8  C6  PXY d   1      -1.414  -0.610   0.359  0.00  0.00     0.003 A 
ENDROOT
TORSDOF 0
ENDMDL
