MODEL 1
REMARK minimizedAffinity -5.64130306
REMARK minimizedRMSD -1
REMARK  0 active torsions:
REMARK  status: ('A' for Active; 'I' for Inactive)
ROOT
ATOM      1  C4' PXY d   1       0.338   2.047  -0.097  0.00  0.00     0.077 C 
ATOM      2  C1' PXY d   1      -0.215  -3.704  -0.279  0.00  0.00     0.077 C 
ATOM      3  C1  PXY d   1      -0.082  -2.195  -0.225  0.00  0.00    -0.082 A 
ATOM      4  C2  PXY d   1       0.707  -1.577  -1.089  0.00  0.00     0.003 A 
ATOM      5  C3  PXY d   1       0.865  -0.216  -1.034  0.00  0.00     0.003 A 
ATOM      6  C4  PXY d   1       0.166   0.526  -0.120  0.00  0.00    -0.082 A 
ATOM      7  C5  PXY d   1      -0.650  -0.096   0.758  0.00  0.00     0.003 A 
ATOM      8  C6  PXY d   1      -0.764  -1.482   0.712  0.00  0.00     0.003 A 
ENDROOT
TORSDOF 0
ENDMDL
