MODEL 1
REMARK minimizedAffinity 0.110000059
REMARK minimizedRMSD -1
REMARK  0 active torsions:
REMARK  status: ('A' for Active; 'I' for Inactive)
ROOT
ATOM      1  C4' PXY d   1      -0.997  -3.315  -1.362  0.00  0.00     0.077 C 
ATOM      2  C1' PXY d   1       0.305   1.983   0.547  0.00  0.00     0.077 C 
ATOM      3  C1  PXY d   1      -0.035   0.598   0.034  0.00  0.00    -0.082 A 
ATOM      4  C2  PXY d   1      -0.730  -0.230   0.797  0.00  0.00     0.003 A 
ATOM      5  C3  PXY d   1      -1.019  -1.498   0.362  0.00  0.00     0.003 A 
ATOM      6  C4  PXY d   1      -0.639  -1.904  -0.889  0.00  0.00    -0.082 A 
ATOM      7  C5  PXY d   1       0.060  -1.061  -1.679  0.00  0.00     0.003 A 
ATOM      8  C6  PXY d   1       0.379   0.207  -1.202  0.00  0.00     0.003 A 
ENDROOT
TORSDOF 0
ENDMDL
