MODEL 1
REMARK minimizedAffinity 6.55788279
REMARK minimizedRMSD -1
REMARK  0 active torsions:
REMARK  status: ('A' for Active; 'I' for Inactive)
ROOT
ATOM      1  C4' PXY d   1      -3.328  -2.858   1.161  0.00  0.00     0.077 C 
ATOM      2  C1' PXY d   1       0.357   1.549   1.803  0.00  0.00     0.077 C 
ATOM      3  C1  PXY d   1      -0.617   0.399   1.643  0.00  0.00    -0.082 A 
ATOM      4  C2  PXY d   1      -0.178  -0.777   1.226  0.00  0.00     0.003 A 
ATOM      5  C3  PXY d   1      -1.051  -1.819   1.045  0.00  0.00     0.003 A 
ATOM      6  C4  PXY d   1      -2.379  -1.671   1.346  0.00  0.00    -0.082 A 
ATOM      7  C5  PXY d   1      -2.833  -0.477   1.782  0.00  0.00     0.003 A 
ATOM      8  C6  PXY d   1      -1.937   0.580   1.919  0.00  0.00     0.003 A 
ENDROOT
TORSDOF 0
ENDMDL
