MODEL 1
REMARK minimizedAffinity -1.72984493
REMARK minimizedRMSD -1
REMARK  0 active torsions:
REMARK  status: ('A' for Active; 'I' for Inactive)
ROOT
ATOM      1  C4' PXY d   1       2.456  -1.142  -1.525  0.00  0.00     0.077 C 
ATOM      2  C1' PXY d   1      -2.444  -2.755   1.083  0.00  0.00     0.077 C 
ATOM      3  C1  PXY d   1      -1.152  -2.340   0.407  0.00  0.00    -0.082 A 
ATOM      4  C2  PXY d   1      -1.073  -1.159  -0.183  0.00  0.00     0.003 A 
ATOM      5  C3  PXY d   1       0.077  -0.780  -0.827  0.00  0.00     0.003 A 
ATOM      6  C4  PXY d   1       1.175  -1.598  -0.822  0.00  0.00    -0.082 A 
ATOM      7  C5  PXY d   1       1.106  -2.801  -0.213  0.00  0.00     0.003 A 
ATOM      8  C6  PXY d   1      -0.084  -3.184   0.399  0.00  0.00     0.003 A 
ENDROOT
TORSDOF 0
ENDMDL
