MODEL 1
REMARK minimizedAffinity -4.41215658
REMARK minimizedRMSD -1
REMARK  0 active torsions:
REMARK  status: ('A' for Active; 'I' for Inactive)
ROOT
ATOM      1  C4' PXY d   1      -0.061  -4.685  -0.315  0.00  0.00     0.077 C 
ATOM      2  C1' PXY d   1      -0.543   1.075  -0.367  0.00  0.00     0.077 C 
ATOM      3  C1  PXY d   1      -0.416  -0.435  -0.340  0.00  0.00    -0.082 A 
ATOM      4  C2  PXY d   1       0.041  -1.072  -1.406  0.00  0.00     0.003 A 
ATOM      5  C3  PXY d   1       0.132  -2.440  -1.411  0.00  0.00     0.003 A 
ATOM      6  C4  PXY d   1      -0.197  -3.160  -0.294  0.00  0.00    -0.082 A 
ATOM      7  C5  PXY d   1      -0.654  -2.517   0.802  0.00  0.00     0.003 A 
ATOM      8  C6  PXY d   1      -0.778  -1.131   0.772  0.00  0.00     0.003 A 
ENDROOT
TORSDOF 0
ENDMDL
