MODEL 1
REMARK minimizedAffinity -5.68272448
REMARK minimizedRMSD -1
REMARK  0 active torsions:
REMARK  status: ('A' for Active; 'I' for Inactive)
ROOT
ATOM      1  C4' PXY d   1       0.467   2.099  -0.388  0.00  0.00     0.077 C 
ATOM      2  C1' PXY d   1      -0.085  -3.642  -0.778  0.00  0.00     0.077 C 
ATOM      3  C1  PXY d   1       0.051  -2.136  -0.667  0.00  0.00    -0.082 A 
ATOM      4  C2  PXY d   1       0.541  -1.446  -1.684  0.00  0.00     0.003 A 
ATOM      5  C3  PXY d   1       0.700  -0.088  -1.588  0.00  0.00     0.003 A 
ATOM      6  C4  PXY d   1       0.304   0.578  -0.459  0.00  0.00    -0.082 A 
ATOM      7  C5  PXY d   1      -0.207  -0.117   0.579  0.00  0.00     0.003 A 
ATOM      8  C6  PXY d   1      -0.322  -1.500   0.477  0.00  0.00     0.003 A 
ENDROOT
TORSDOF 0
ENDMDL
