MODEL 1
REMARK minimizedAffinity -5.60562325
REMARK minimizedRMSD -1
REMARK  0 active torsions:
REMARK  status: ('A' for Active; 'I' for Inactive)
ROOT
ATOM      1  C4' PXY d   1      -0.053   3.560   0.080  0.00  0.00     0.077 C 
ATOM      2  C1' PXY d   1       0.326  -1.732  -2.216  0.00  0.00     0.077 C 
ATOM      3  C1  PXY d   1       0.228  -0.339  -1.626  0.00  0.00    -0.082 A 
ATOM      4  C2  PXY d   1       0.495  -0.152  -0.343  0.00  0.00     0.003 A 
ATOM      5  C3  PXY d   1       0.380   1.096   0.214  0.00  0.00     0.003 A 
ATOM      6  C4  PXY d   1       0.041   2.173  -0.561  0.00  0.00    -0.082 A 
ATOM      7  C5  PXY d   1      -0.222   1.992  -1.872  0.00  0.00     0.003 A 
ATOM      8  C6  PXY d   1      -0.140   0.710  -2.410  0.00  0.00     0.003 A 
ENDROOT
TORSDOF 0
ENDMDL
