MODEL 1
REMARK minimizedAffinity -3.73837852
REMARK minimizedRMSD -1
REMARK  0 active torsions:
REMARK  status: ('A' for Active; 'I' for Inactive)
ROOT
ATOM      1  C4' PXY d   1       1.702  -1.792   2.655  0.00  0.00     0.077 C 
ATOM      2  C1' PXY d   1      -1.062   1.006  -1.580  0.00  0.00     0.077 C 
ATOM      3  C1  PXY d   1      -0.343   0.280  -0.461  0.00  0.00    -0.082 A 
ATOM      4  C2  PXY d   1       0.792  -0.351  -0.713  0.00  0.00     0.003 A 
ATOM      5  C3  PXY d   1       1.439  -1.039   0.280  0.00  0.00     0.003 A 
ATOM      6  C4  PXY d   1       0.947  -1.038   1.558  0.00  0.00    -0.082 A 
ATOM      7  C5  PXY d   1      -0.206  -0.388   1.826  0.00  0.00     0.003 A 
ATOM      8  C6  PXY d   1      -0.869   0.270   0.794  0.00  0.00     0.003 A 
ENDROOT
TORSDOF 0
ENDMDL
