MODEL 1
REMARK minimizedAffinity -4.54371595
REMARK minimizedRMSD -1
REMARK  0 active torsions:
REMARK  status: ('A' for Active; 'I' for Inactive)
ROOT
ATOM      1  C4' PXY d   1      -0.857   0.332  -1.713  0.00  0.00     0.077 C 
ATOM      2  C1' PXY d   1       2.019  -0.914   3.144  0.00  0.00     0.077 C 
ATOM      3  C1  PXY d   1       1.254  -0.591   1.877  0.00  0.00    -0.082 A 
ATOM      4  C2  PXY d   1       1.874  -0.634   0.709  0.00  0.00     0.003 A 
ATOM      5  C3  PXY d   1       1.205  -0.313  -0.444  0.00  0.00     0.003 A 
ATOM      6  C4  PXY d   1      -0.126   0.004  -0.408  0.00  0.00    -0.082 A 
ATOM      7  C5  PXY d   1      -0.769   0.040   0.779  0.00  0.00     0.003 A 
ATOM      8  C6  PXY d   1      -0.062  -0.249   1.942  0.00  0.00     0.003 A 
ENDROOT
TORSDOF 0
ENDMDL
