MODEL 1
REMARK minimizedAffinity -5.38596249
REMARK minimizedRMSD -1
REMARK  0 active torsions:
REMARK  status: ('A' for Active; 'I' for Inactive)
ROOT
ATOM      1  C4' PXY d   1       2.755  -1.860   3.165  0.00  0.00     0.077 C 
ATOM      2  C1' PXY d   1      -0.886  -0.155  -0.988  0.00  0.00     0.077 C 
ATOM      3  C1  PXY d   1       0.074  -0.611   0.093  0.00  0.00    -0.082 A 
ATOM      4  C2  PXY d   1      -0.236  -0.422   1.365  0.00  0.00     0.003 A 
ATOM      5  C3  PXY d   1       0.635  -0.799   2.355  0.00  0.00     0.003 A 
ATOM      6  C4  PXY d   1       1.812  -1.425   2.040  0.00  0.00    -0.082 A 
ATOM      7  C5  PXY d   1       2.130  -1.630   0.745  0.00  0.00     0.003 A 
ATOM      8  C6  PXY d   1       1.251  -1.203  -0.246  0.00  0.00     0.003 A 
ENDROOT
TORSDOF 0
ENDMDL
