MODEL 1
REMARK minimizedAffinity -5.19139767
REMARK minimizedRMSD -1
REMARK  0 active torsions:
REMARK  status: ('A' for Active; 'I' for Inactive)
ROOT
ATOM      1  C4' PXY d   1      -0.775   0.735  -1.138  0.00  0.00     0.077 C 
ATOM      2  C1' PXY d   1       2.216  -1.493   3.279  0.00  0.00     0.077 C 
ATOM      3  C1  PXY d   1       1.421  -0.910   2.127  0.00  0.00    -0.082 A 
ATOM      4  C2  PXY d   1       1.911  -0.965   0.899  0.00  0.00     0.003 A 
ATOM      5  C3  PXY d   1       1.219  -0.414  -0.149  0.00  0.00     0.003 A 
ATOM      6  C4  PXY d   1      -0.011   0.151   0.054  0.00  0.00    -0.082 A 
ATOM      7  C5  PXY d   1      -0.523   0.202   1.302  0.00  0.00     0.003 A 
ATOM      8  C6  PXY d   1       0.214  -0.326   2.358  0.00  0.00     0.003 A 
ENDROOT
TORSDOF 0
ENDMDL
