MODEL 1
REMARK minimizedAffinity -5.17329025
REMARK minimizedRMSD -1
REMARK  0 active torsions:
REMARK  status: ('A' for Active; 'I' for Inactive)
ROOT
ATOM      1  C4' PXY d   1       1.465  -1.061   3.120  0.00  0.00     0.077 C 
ATOM      2  C1' PXY d   1      -0.944   0.763  -1.808  0.00  0.00     0.077 C 
ATOM      3  C1  PXY d   1      -0.320   0.292  -0.509  0.00  0.00    -0.082 A 
ATOM      4  C2  PXY d   1       0.910  -0.193  -0.513  0.00  0.00     0.003 A 
ATOM      5  C3  PXY d   1       1.478  -0.653   0.648  0.00  0.00     0.003 A 
ATOM      6  C4  PXY d   1       0.799  -0.566   1.833  0.00  0.00    -0.082 A 
ATOM      7  C5  PXY d   1      -0.454  -0.062   1.847  0.00  0.00     0.003 A 
ATOM      8  C6  PXY d   1      -1.027   0.361   0.651  0.00  0.00     0.003 A 
ENDROOT
TORSDOF 0
ENDMDL
