MODEL 1
REMARK minimizedAffinity -5.22139502
REMARK minimizedRMSD -1
REMARK  0 active torsions:
REMARK  status: ('A' for Active; 'I' for Inactive)
ROOT
ATOM      1  C4' PXY d   1      -0.751   0.468  -1.191  0.00  0.00     0.077 C 
ATOM      2  C1' PXY d   1       2.066  -1.406   3.496  0.00  0.00     0.077 C 
ATOM      3  C1  PXY d   1       1.316  -0.915   2.273  0.00  0.00    -0.082 A 
ATOM      4  C2  PXY d   1       1.822  -1.123   1.068  0.00  0.00     0.003 A 
ATOM      5  C3  PXY d   1       1.173  -0.657  -0.046  0.00  0.00     0.003 A 
ATOM      6  C4  PXY d   1      -0.033  -0.019   0.070  0.00  0.00    -0.082 A 
ATOM      7  C5  PXY d   1      -0.560   0.188   1.296  0.00  0.00     0.003 A 
ATOM      8  C6  PXY d   1       0.134  -0.256   2.417  0.00  0.00     0.003 A 
ENDROOT
TORSDOF 0
ENDMDL
