MODEL 1
REMARK minimizedAffinity 16.4490967
REMARK minimizedRMSD -1
REMARK  0 active torsions:
REMARK  status: ('A' for Active; 'I' for Inactive)
ROOT
ATOM      1  C   UNL d   1       0.400   2.139  -0.678  0.00  0.00     0.124 A 
ATOM      2  C1  UNL d   1      -0.092   3.053   0.243  0.00  0.00     0.062 A 
ATOM      3  C2  UNL d   1       0.567   3.253   1.452  0.00  0.00     0.162 A 
ATOM      4  C3  UNL d   1       1.726   2.536   1.748  0.00  0.00    -0.034 A 
ATOM      5  C4  UNL d   1       2.215   1.618   0.818  0.00  0.00     0.162 A 
ATOM      6  C5  UNL d   1       1.553   1.422  -0.390  0.00  0.00     0.062 A 
ATOM      7  F   UNL d   1       2.030   0.538  -1.278  0.00  0.00    -0.097 F 
ATOM      8  F1  UNL d   1       3.328   0.912   1.070  0.00  0.00    -0.096 F 
ATOM      9  I   UNL d   1       2.715   2.832   3.556  0.00  0.00    -0.060 I 
ATOM     10  F2  UNL d   1       0.068   4.143   2.323  0.00  0.00    -0.096 F 
ATOM     11  F3  UNL d   1      -1.206   3.747  -0.033  0.00  0.00    -0.097 F 
ATOM     12  F4  UNL d   1      -0.236   1.948  -1.841  0.00  0.00    -0.092 F 
ENDROOT
TORSDOF 0
ENDMDL
