MODEL 1
REMARK minimizedAffinity 8.47352695
REMARK minimizedRMSD -1
REMARK  0 active torsions:
REMARK  status: ('A' for Active; 'I' for Inactive)
ROOT
ATOM      1  C   UNL d   1       1.336  -1.853   2.748  0.00  0.00     0.124 A 
ATOM      2  C1  UNL d   1       2.066  -0.701   3.005  0.00  0.00     0.062 A 
ATOM      3  C2  UNL d   1       1.984   0.387   2.140  0.00  0.00     0.162 A 
ATOM      4  C3  UNL d   1       1.170   0.327   1.009  0.00  0.00    -0.034 A 
ATOM      5  C4  UNL d   1       0.440  -0.836   0.757  0.00  0.00     0.162 A 
ATOM      6  C5  UNL d   1       0.525  -1.920   1.624  0.00  0.00     0.062 A 
ATOM      7  F   UNL d   1      -0.181  -3.033   1.374  0.00  0.00    -0.097 F 
ATOM      8  F1  UNL d   1      -0.353  -0.927  -0.321  0.00  0.00    -0.096 F 
ATOM      9  I   UNL d   1       1.046   1.951  -0.287  0.00  0.00    -0.060 I 
ATOM     10  F2  UNL d   1       2.700   1.488   2.413  0.00  0.00    -0.096 F 
ATOM     11  F3  UNL d   1       2.851  -0.634   4.090  0.00  0.00    -0.097 F 
ATOM     12  F4  UNL d   1       1.417  -2.898   3.582  0.00  0.00    -0.092 F 
ENDROOT
TORSDOF 0
ENDMDL
