MODEL 1
REMARK minimizedAffinity 8.78057384
REMARK minimizedRMSD -1
REMARK  0 active torsions:
REMARK  status: ('A' for Active; 'I' for Inactive)
ROOT
ATOM      1  C   UNL d   1       0.580   1.236  -0.467  0.00  0.00     0.124 A 
ATOM      2  C1  UNL d   1       0.106  -0.030  -0.153  0.00  0.00     0.062 A 
ATOM      3  C2  UNL d   1       0.477  -0.640   1.042  0.00  0.00     0.162 A 
ATOM      4  C3  UNL d   1       1.326   0.016   1.933  0.00  0.00    -0.034 A 
ATOM      5  C4  UNL d   1       1.799   1.289   1.610  0.00  0.00     0.162 A 
ATOM      6  C5  UNL d   1       1.426   1.894   0.415  0.00  0.00     0.062 A 
ATOM      7  F   UNL d   1       1.885   3.117   0.113  0.00  0.00    -0.097 F 
ATOM      8  F1  UNL d   1       2.617   1.948   2.444  0.00  0.00    -0.096 F 
ATOM      9  I   UNL d   1       1.882  -0.893   3.721  0.00  0.00    -0.060 I 
ATOM     10  F2  UNL d   1       0.003  -1.864   1.319  0.00  0.00    -0.096 F 
ATOM     11  F3  UNL d   1      -0.711  -0.669  -1.003  0.00  0.00    -0.097 F 
ATOM     12  F4  UNL d   1       0.223   1.820  -1.618  0.00  0.00    -0.092 F 
ENDROOT
TORSDOF 0
ENDMDL
