MODEL 1
REMARK minimizedAffinity 0.631293654
REMARK minimizedRMSD -1
REMARK  0 active torsions:
REMARK  status: ('A' for Active; 'I' for Inactive)
ROOT
ATOM      1  C   UNL d   1       1.910   1.703   0.824  0.00  0.00     0.124 A 
ATOM      2  C1  UNL d   1       0.614   1.975   0.406  0.00  0.00     0.062 A 
ATOM      3  C2  UNL d   1      -0.329   0.954   0.345  0.00  0.00     0.162 A 
ATOM      4  C3  UNL d   1       0.018  -0.349   0.703  0.00  0.00    -0.034 A 
ATOM      5  C4  UNL d   1       1.323  -0.614   1.122  0.00  0.00     0.162 A 
ATOM      6  C5  UNL d   1       2.263   0.410   1.182  0.00  0.00     0.062 A 
ATOM      7  F   UNL d   1       3.514   0.146   1.586  0.00  0.00    -0.097 F 
ATOM      8  F1  UNL d   1       1.691  -1.855   1.473  0.00  0.00    -0.096 F 
ATOM      9  I   UNL d   1      -1.390  -1.878   0.612  0.00  0.00    -0.060 I 
ATOM     10  F2  UNL d   1      -1.574   1.245  -0.063  0.00  0.00    -0.096 F 
ATOM     11  F3  UNL d   1       0.271   3.224   0.060  0.00  0.00    -0.097 F 
ATOM     12  F4  UNL d   1       2.816   2.688   0.882  0.00  0.00    -0.092 F 
ENDROOT
TORSDOF 0
ENDMDL
