MODEL 1
REMARK minimizedAffinity 14.1177921
REMARK minimizedRMSD -1
REMARK  0 active torsions:
REMARK  status: ('A' for Active; 'I' for Inactive)
ROOT
ATOM      1  C   UNL d   1       1.023   1.982  -0.006  0.00  0.00     0.124 A 
ATOM      2  C1  UNL d   1       2.226   1.724   0.637  0.00  0.00     0.062 A 
ATOM      3  C2  UNL d   1       2.365   0.590   1.433  0.00  0.00     0.162 A 
ATOM      4  C3  UNL d   1       1.299  -0.294   1.591  0.00  0.00    -0.034 A 
ATOM      5  C4  UNL d   1       0.092  -0.028   0.942  0.00  0.00     0.162 A 
ATOM      6  C5  UNL d   1      -0.043   1.106   0.148  0.00  0.00     0.062 A 
ATOM      7  F   UNL d   1      -1.206   1.354  -0.472  0.00  0.00    -0.097 F 
ATOM      8  F1  UNL d   1      -0.954  -0.857   1.072  0.00  0.00    -0.096 F 
ATOM      9  I   UNL d   1       1.503  -1.990   2.780  0.00  0.00    -0.060 I 
ATOM     10  F2  UNL d   1       3.539   0.366   2.042  0.00  0.00    -0.096 F 
ATOM     11  F3  UNL d   1       3.257   2.568   0.491  0.00  0.00    -0.097 F 
ATOM     12  F4  UNL d   1       0.891   3.073  -0.770  0.00  0.00    -0.092 F 
ENDROOT
TORSDOF 0
ENDMDL
