MODEL 1
REMARK minimizedAffinity 4.02369881
REMARK minimizedRMSD -1
REMARK  0 active torsions:
REMARK  status: ('A' for Active; 'I' for Inactive)
ROOT
ATOM      1  C   UNL d   1       1.045   1.527   0.238  0.00  0.00     0.124 A 
ATOM      2  C1  UNL d   1       2.053   1.965   1.085  0.00  0.00     0.062 A 
ATOM      3  C2  UNL d   1       2.386   1.226   2.216  0.00  0.00     0.162 A 
ATOM      4  C3  UNL d   1       1.711   0.041   2.508  0.00  0.00    -0.034 A 
ATOM      5  C4  UNL d   1       0.697  -0.392   1.652  0.00  0.00     0.162 A 
ATOM      6  C5  UNL d   1       0.368   0.349   0.522  0.00  0.00     0.062 A 
ATOM      7  F   UNL d   1      -0.607  -0.075  -0.295  0.00  0.00    -0.097 F 
ATOM      8  F1  UNL d   1       0.027  -1.527   1.902  0.00  0.00    -0.096 F 
ATOM      9  I   UNL d   1       2.206  -1.066   4.199  0.00  0.00    -0.060 I 
ATOM     10  F2  UNL d   1       3.365   1.673   3.017  0.00  0.00    -0.096 F 
ATOM     11  F3  UNL d   1       2.708   3.103   0.813  0.00  0.00    -0.097 F 
ATOM     12  F4  UNL d   1       0.725   2.240  -0.850  0.00  0.00    -0.092 F 
ENDROOT
TORSDOF 0
ENDMDL
