MODEL 1
REMARK minimizedAffinity 2.01700282
REMARK minimizedRMSD -1
REMARK  0 active torsions:
REMARK  status: ('A' for Active; 'I' for Inactive)
ROOT
ATOM      1  C   UNL d   1       2.120   1.974   1.842  0.00  0.00     0.124 A 
ATOM      2  C1  UNL d   1       2.331   0.739   2.440  0.00  0.00     0.062 A 
ATOM      3  C2  UNL d   1       1.522  -0.345   2.113  0.00  0.00     0.162 A 
ATOM      4  C3  UNL d   1       0.494  -0.200   1.182  0.00  0.00    -0.034 A 
ATOM      5  C4  UNL d   1       0.287   1.045   0.585  0.00  0.00     0.162 A 
ATOM      6  C5  UNL d   1       1.098   2.125   0.915  0.00  0.00     0.062 A 
ATOM      7  F   UNL d   1       0.892   3.317   0.336  0.00  0.00    -0.097 F 
ATOM      8  F1  UNL d   1      -0.693   1.219  -0.315  0.00  0.00    -0.096 F 
ATOM      9  I   UNL d   1      -0.718  -1.819   0.690  0.00  0.00    -0.060 I 
ATOM     10  F2  UNL d   1       1.749  -1.526   2.707  0.00  0.00    -0.096 F 
ATOM     11  F3  UNL d   1       3.317   0.591   3.337  0.00  0.00    -0.097 F 
ATOM     12  F4  UNL d   1       2.899   3.016   2.159  0.00  0.00    -0.092 F 
ENDROOT
TORSDOF 0
ENDMDL
