MODEL 1
REMARK minimizedAffinity 14.3890867
REMARK minimizedRMSD -1
REMARK  0 active torsions:
REMARK  status: ('A' for Active; 'I' for Inactive)
ROOT
ATOM      1  C   UNL d   1       1.350   0.630   0.054  0.00  0.00     0.124 A 
ATOM      2  C1  UNL d   1       2.170   1.426   0.843  0.00  0.00     0.062 A 
ATOM      3  C2  UNL d   1       1.766   2.709   1.200  0.00  0.00     0.162 A 
ATOM      4  C3  UNL d   1       0.535   3.205   0.769  0.00  0.00    -0.034 A 
ATOM      5  C4  UNL d   1      -0.283   2.400  -0.025  0.00  0.00     0.162 A 
ATOM      6  C5  UNL d   1       0.125   1.118  -0.380  0.00  0.00     0.062 A 
ATOM      7  F   UNL d   1      -0.668   0.351  -1.142  0.00  0.00    -0.097 F 
ATOM      8  F1  UNL d   1      -1.472   2.845  -0.457  0.00  0.00    -0.096 F 
ATOM      9  I   UNL d   1      -0.072   5.123   1.301  0.00  0.00    -0.060 I 
ATOM     10  F2  UNL d   1       2.577   3.456   1.963  0.00  0.00    -0.096 F 
ATOM     11  F3  UNL d   1       3.354   0.958   1.262  0.00  0.00    -0.097 F 
ATOM     12  F4  UNL d   1       1.742  -0.604  -0.289  0.00  0.00    -0.092 F 
ENDROOT
TORSDOF 0
ENDMDL
