MODEL 1
REMARK minimizedAffinity 0.303029805
REMARK minimizedRMSD -1
REMARK  1 active torsions:
REMARK  status: ('A' for Active; 'I' for Inactive)
REMARK    1  A    between atoms: C1_2  and  C2_3 
ROOT
ATOM      1  C2  UNL d   1      -1.436   3.043   0.614  0.00  0.00    -0.077 A 
ATOM      2  C3  UNL d   1      -0.548   2.645  -0.395  0.00  0.00     0.002 A 
ATOM      3  C4  UNL d   1       0.186   3.596  -1.105  0.00  0.00     0.002 A 
ATOM      4  C5  UNL d   1       0.042   4.951  -0.812  0.00  0.00    -0.004 A 
ATOM      5  C6  UNL d   1      -0.840   5.357   0.188  0.00  0.00     0.002 A 
ATOM      6  C7  UNL d   1      -1.575   4.407   0.899  0.00  0.00     0.002 A 
ENDROOT
BRANCH   1   7
ATOM      7  C1  UNL d   1      -2.192   2.015   1.416  0.00  0.00     0.055 C 
ATOM      8  C   UNL d   1      -1.335   1.449   2.539  0.00  0.00     0.019 C 
ENDBRANCH   1   7
TORSDOF 1
ENDMDL
