MODEL 1
REMARK minimizedAffinity 0.98638314
REMARK minimizedRMSD -1
REMARK  1 active torsions:
REMARK  status: ('A' for Active; 'I' for Inactive)
REMARK    1  A    between atoms: C1_2  and  C2_3 
ROOT
ATOM      1  C2  UNL d   1       0.251   1.585  -1.117  0.00  0.00    -0.077 A 
ATOM      2  C3  UNL d   1       0.760   2.634  -1.896  0.00  0.00     0.002 A 
ATOM      3  C4  UNL d   1       0.489   3.961  -1.556  0.00  0.00     0.002 A 
ATOM      4  C5  UNL d   1      -0.286   4.251  -0.436  0.00  0.00    -0.004 A 
ATOM      5  C6  UNL d   1      -0.798   3.215   0.344  0.00  0.00     0.002 A 
ATOM      6  C7  UNL d   1      -0.530   1.888   0.006  0.00  0.00     0.002 A 
ENDROOT
BRANCH   1   7
ATOM      7  C1  UNL d   1       0.583   0.154  -1.453  0.00  0.00     0.055 C 
ATOM      8  C   UNL d   1      -0.548  -0.509  -2.225  0.00  0.00     0.019 C 
ENDBRANCH   1   7
TORSDOF 1
ENDMDL
