MODEL 1
REMARK minimizedAffinity 9.0133419
REMARK minimizedRMSD -1
REMARK  1 active torsions:
REMARK  status: ('A' for Active; 'I' for Inactive)
REMARK    1  A    between atoms: C1_2  and  C2_3 
ROOT
ATOM      1  C2  UNL d   1      -0.697   1.285  -0.617  0.00  0.00    -0.077 A 
ATOM      2  C3  UNL d   1       0.475   0.829  -1.237  0.00  0.00     0.002 A 
ATOM      3  C4  UNL d   1       0.419  -0.189  -2.191  0.00  0.00     0.002 A 
ATOM      4  C5  UNL d   1      -0.805  -0.755  -2.537  0.00  0.00    -0.004 A 
ATOM      5  C6  UNL d   1      -1.976  -0.310  -1.925  0.00  0.00     0.002 A 
ATOM      6  C7  UNL d   1      -1.922   0.706  -0.970  0.00  0.00     0.002 A 
ENDROOT
BRANCH   1   7
ATOM      7  C1  UNL d   1      -0.644   2.416   0.377  0.00  0.00     0.055 C 
ATOM      8  C   UNL d   1      -1.086   1.958   1.759  0.00  0.00     0.019 C 
ENDBRANCH   1   7
TORSDOF 1
ENDMDL
