MODEL 1
REMARK minimizedAffinity 3.85824323
REMARK minimizedRMSD -1
REMARK  1 active torsions:
REMARK  status: ('A' for Active; 'I' for Inactive)
REMARK    1  A    between atoms: C1_2  and  C2_3 
ROOT
ATOM      1  C2  UNL d   1      -0.982   3.048   0.353  0.00  0.00    -0.077 A 
ATOM      2  C3  UNL d   1       0.025   3.303   1.294  0.00  0.00     0.002 A 
ATOM      3  C4  UNL d   1      -0.097   2.833   2.603  0.00  0.00     0.002 A 
ATOM      4  C5  UNL d   1      -1.221   2.102   2.981  0.00  0.00    -0.004 A 
ATOM      5  C6  UNL d   1      -2.229   1.844   2.052  0.00  0.00     0.002 A 
ATOM      6  C7  UNL d   1      -2.109   2.314   0.744  0.00  0.00     0.002 A 
ENDROOT
BRANCH   1   7
ATOM      7  C1  UNL d   1      -0.829   3.512  -1.072  0.00  0.00     0.055 C 
ATOM      8  C   UNL d   1       0.625   3.812  -1.404  0.00  0.00     0.019 C 
ENDBRANCH   1   7
TORSDOF 1
ENDMDL
