MODEL 1
REMARK minimizedAffinity 6.07211447
REMARK minimizedRMSD -1
REMARK  1 active torsions:
REMARK  status: ('A' for Active; 'I' for Inactive)
REMARK    1  A    between atoms: C1_2  and  C2_3 
ROOT
ATOM      1  C2  UNL d   1       0.210   1.168   1.110  0.00  0.00    -0.077 A 
ATOM      2  C3  UNL d   1       0.941   0.717   2.218  0.00  0.00     0.002 A 
ATOM      3  C4  UNL d   1       2.086  -0.061   2.040  0.00  0.00     0.002 A 
ATOM      4  C5  UNL d   1       2.513  -0.391   0.755  0.00  0.00    -0.004 A 
ATOM      5  C6  UNL d   1       1.792   0.050  -0.353  0.00  0.00     0.002 A 
ATOM      6  C7  UNL d   1       0.646   0.827  -0.177  0.00  0.00     0.002 A 
ENDROOT
BRANCH   1   7
ATOM      7  C1  UNL d   1      -0.998   2.048   1.298  0.00  0.00     0.055 C 
ATOM      8  C   UNL d   1      -0.755   3.446   0.747  0.00  0.00     0.019 C 
ENDBRANCH   1   7
TORSDOF 1
ENDMDL
