MODEL 1
REMARK minimizedAffinity 3.97146058
REMARK minimizedRMSD -1
REMARK  1 active torsions:
REMARK  status: ('A' for Active; 'I' for Inactive)
REMARK    1  A    between atoms: C1_2  and  C2_3 
ROOT
ATOM      1  C2  UNL d   1       3.048  -3.314   0.459  0.00  0.00    -0.077 A 
ATOM      2  C3  UNL d   1       4.428  -3.509   0.605  0.00  0.00     0.002 A 
ATOM      3  C4  UNL d   1       5.311  -2.436   0.469  0.00  0.00     0.002 A 
ATOM      4  C5  UNL d   1       4.823  -1.161   0.190  0.00  0.00    -0.004 A 
ATOM      5  C6  UNL d   1       3.452  -0.958   0.040  0.00  0.00     0.002 A 
ATOM      6  C7  UNL d   1       2.568  -2.029   0.175  0.00  0.00     0.002 A 
ENDROOT
BRANCH   1   7
ATOM      7  C1  UNL d   1       2.090  -4.460   0.655  0.00  0.00     0.055 C 
ATOM      8  C   UNL d   1       1.493  -4.915  -0.669  0.00  0.00     0.019 C 
ENDBRANCH   1   7
TORSDOF 1
ENDMDL
