MODEL 1
REMARK minimizedAffinity 8.00359058
REMARK minimizedRMSD -1
REMARK  1 active torsions:
REMARK  status: ('A' for Active; 'I' for Inactive)
REMARK    1  A    between atoms: C1_2  and  C2_3 
ROOT
ATOM      1  C2  UNL d   1      -1.160   2.889   1.038  0.00  0.00    -0.077 A 
ATOM      2  C3  UNL d   1      -0.168   2.252   1.798  0.00  0.00     0.002 A 
ATOM      3  C4  UNL d   1      -0.516   1.305   2.763  0.00  0.00     0.002 A 
ATOM      4  C5  UNL d   1      -1.855   0.983   2.974  0.00  0.00    -0.004 A 
ATOM      5  C6  UNL d   1      -2.849   1.612   2.226  0.00  0.00     0.002 A 
ATOM      6  C7  UNL d   1      -2.503   2.560   1.262  0.00  0.00     0.002 A 
ENDROOT
BRANCH   1   7
ATOM      7  C1  UNL d   1      -0.784   3.874  -0.037  0.00  0.00     0.055 C 
ATOM      8  C   UNL d   1      -0.171   3.173  -1.241  0.00  0.00     0.019 C 
ENDBRANCH   1   7
TORSDOF 1
ENDMDL
