MODEL 1
REMARK minimizedAffinity 3.14327765
REMARK minimizedRMSD -1
REMARK  1 active torsions:
REMARK  status: ('A' for Active; 'I' for Inactive)
REMARK    1  A    between atoms: C1_2  and  C2_3 
ROOT
ATOM      1  C2  UNL d   1       0.157   1.794  -1.118  0.00  0.00    -0.077 A 
ATOM      2  C3  UNL d   1       0.548   3.053  -1.596  0.00  0.00     0.002 A 
ATOM      3  C4  UNL d   1       0.294   4.203  -0.846  0.00  0.00     0.002 A 
ATOM      4  C5  UNL d   1      -0.347   4.105   0.387  0.00  0.00    -0.004 A 
ATOM      5  C6  UNL d   1      -0.741   2.858   0.870  0.00  0.00     0.002 A 
ATOM      6  C7  UNL d   1      -0.489   1.708   0.122  0.00  0.00     0.002 A 
ENDROOT
BRANCH   1   7
ATOM      7  C1  UNL d   1       0.474   0.548  -1.903  0.00  0.00     0.055 C 
ATOM      8  C   UNL d   1      -0.777  -0.037  -2.542  0.00  0.00     0.019 C 
ENDBRANCH   1   7
TORSDOF 1
ENDMDL
