MODEL 1
REMARK minimizedAffinity 1.0494554
REMARK minimizedRMSD -1
REMARK  1 active torsions:
REMARK  status: ('A' for Active; 'I' for Inactive)
REMARK    1  A    between atoms: C1_2  and  C2_3 
ROOT
ATOM      1  C2  UNL d   1      -1.317   1.543   1.949  0.00  0.00    -0.077 A 
ATOM      2  C3  UNL d   1      -2.685   1.836   1.858  0.00  0.00     0.002 A 
ATOM      3  C4  UNL d   1      -3.155   2.720   0.884  0.00  0.00     0.002 A 
ATOM      4  C5  UNL d   1      -2.265   3.313  -0.008  0.00  0.00    -0.004 A 
ATOM      5  C6  UNL d   1      -0.902   3.029   0.075  0.00  0.00     0.002 A 
ATOM      6  C7  UNL d   1      -0.431   2.147   1.049  0.00  0.00     0.002 A 
ENDROOT
BRANCH   1   7
ATOM      7  C1  UNL d   1      -0.815   0.552   2.967  0.00  0.00     0.055 C 
ATOM      8  C   UNL d   1      -1.842  -0.539   3.231  0.00  0.00     0.019 C 
ENDBRANCH   1   7
TORSDOF 1
ENDMDL
