MODEL 1
REMARK minimizedAffinity 1.72783244
REMARK minimizedRMSD -1
REMARK  1 active torsions:
REMARK  status: ('A' for Active; 'I' for Inactive)
REMARK    1  A    between atoms: C1_2  and  C2_3 
ROOT
ATOM      1  C2  UNL d   1      -2.817   1.920   1.608  0.00  0.00    -0.077 A 
ATOM      2  C3  UNL d   1      -3.438   3.166   1.769  0.00  0.00     0.002 A 
ATOM      3  C4  UNL d   1      -2.932   4.296   1.124  0.00  0.00     0.002 A 
ATOM      4  C5  UNL d   1      -1.804   4.190   0.313  0.00  0.00    -0.004 A 
ATOM      5  C6  UNL d   1      -1.178   2.956   0.148  0.00  0.00     0.002 A 
ATOM      6  C7  UNL d   1      -1.682   1.825   0.792  0.00  0.00     0.002 A 
ENDROOT
BRANCH   1   7
ATOM      7  C1  UNL d   1      -3.391   0.690   2.263  0.00  0.00     0.055 C 
ATOM      8  C   UNL d   1      -2.315  -0.104   2.989  0.00  0.00     0.019 C 
ENDBRANCH   1   7
TORSDOF 1
ENDMDL
