MODEL 1
REMARK minimizedAffinity 5.24300814
REMARK minimizedRMSD -1
REMARK  1 active torsions:
REMARK  status: ('A' for Active; 'I' for Inactive)
REMARK    1  A    between atoms: C1_2  and  C2_3 
ROOT
ATOM      1  C2  UNL d   1       0.268   1.206  -1.269  0.00  0.00    -0.077 A 
ATOM      2  C3  UNL d   1       0.566   2.258  -2.147  0.00  0.00     0.002 A 
ATOM      3  C4  UNL d   1       0.267   3.577  -1.796  0.00  0.00     0.002 A 
ATOM      4  C5  UNL d   1      -0.327   3.855  -0.567  0.00  0.00    -0.004 A 
ATOM      5  C6  UNL d   1      -0.629   2.816   0.311  0.00  0.00     0.002 A 
ATOM      6  C7  UNL d   1      -0.332   1.497  -0.037  0.00  0.00     0.002 A 
ENDROOT
BRANCH   1   7
ATOM      7  C1  UNL d   1       0.635  -0.211  -1.624  0.00  0.00     0.055 C 
ATOM      8  C   UNL d   1      -0.435  -0.859  -2.491  0.00  0.00     0.019 C 
ENDBRANCH   1   7
TORSDOF 1
ENDMDL
