MODEL 1
REMARK minimizedAffinity 2.80534053
REMARK minimizedRMSD -1
REMARK  0 active torsions:
REMARK  status: ('A' for Active; 'I' for Inactive)
ROOT
ATOM      1  C   UNL d   1      -0.961  -0.331   3.215  0.00  0.00     0.023 A 
ATOM      2  C1  UNL d   1       0.340   0.104   3.468  0.00  0.00     0.003 A 
ATOM      3  C2  UNL d   1       1.412  -0.448   2.765  0.00  0.00     0.048 A 
ATOM      4  C3  UNL d   1       1.177  -1.435   1.808  0.00  0.00     0.023 A 
ATOM      5  C4  UNL d   1      -0.123  -1.873   1.551  0.00  0.00     0.048 A 
ATOM      6  C5  UNL d   1      -1.192  -1.319   2.257  0.00  0.00     0.003 A 
ATOM      7  I   UNL d   1       2.771  -2.258   0.760  0.00  0.00    -0.146 I 
ENDROOT
TORSDOF 0
ENDMDL
