MODEL 1
REMARK minimizedAffinity 3.07831144
REMARK minimizedRMSD -1
REMARK  0 active torsions:
REMARK  status: ('A' for Active; 'I' for Inactive)
ROOT
ATOM      1  C   UNL d   1      -0.479  -0.271   3.137  0.00  0.00     0.023 A 
ATOM      2  C1  UNL d   1      -0.901  -1.128   2.120  0.00  0.00     0.003 A 
ATOM      3  C2  UNL d   1       0.039  -1.759   1.303  0.00  0.00     0.048 A 
ATOM      4  C3  UNL d   1       1.399  -1.530   1.508  0.00  0.00     0.023 A 
ATOM      5  C4  UNL d   1       1.826  -0.674   2.525  0.00  0.00     0.048 A 
ATOM      6  C5  UNL d   1       0.882  -0.045   3.339  0.00  0.00     0.003 A 
ATOM      7  I   UNL d   1       2.799  -2.469   0.293  0.00  0.00    -0.146 I 
ENDROOT
TORSDOF 0
ENDMDL
