MODEL 1
REMARK minimizedAffinity 9.61640072
REMARK minimizedRMSD -1
REMARK  0 active torsions:
REMARK  status: ('A' for Active; 'I' for Inactive)
ROOT
ATOM      1  C   UNL d   1       3.154  -2.305  -0.151  0.00  0.00     0.023 A 
ATOM      2  C1  UNL d   1       2.361  -1.192  -0.430  0.00  0.00     0.003 A 
ATOM      3  C2  UNL d   1       1.315  -0.845   0.427  0.00  0.00     0.048 A 
ATOM      4  C3  UNL d   1       1.068  -1.616   1.563  0.00  0.00     0.023 A 
ATOM      5  C4  UNL d   1       1.859  -2.730   1.847  0.00  0.00     0.048 A 
ATOM      6  C5  UNL d   1       2.903  -3.073   0.986  0.00  0.00     0.003 A 
ATOM      7  I   UNL d   1      -0.489  -1.101   2.840  0.00  0.00    -0.146 I 
ENDROOT
TORSDOF 0
ENDMDL
