MODEL 1
REMARK minimizedAffinity 10.0264921
REMARK minimizedRMSD -1
REMARK  0 active torsions:
REMARK  status: ('A' for Active; 'I' for Inactive)
ROOT
ATOM      1  C   UNL d   1       1.739   1.898  -1.291  0.00  0.00     0.023 A 
ATOM      2  C1  UNL d   1       2.261   2.036  -0.005  0.00  0.00     0.003 A 
ATOM      3  C2  UNL d   1       2.335   0.928   0.842  0.00  0.00     0.048 A 
ATOM      4  C3  UNL d   1       1.887  -0.315   0.395  0.00  0.00     0.023 A 
ATOM      5  C4  UNL d   1       1.365  -0.457  -0.891  0.00  0.00     0.048 A 
ATOM      6  C5  UNL d   1       1.292   0.654  -1.734  0.00  0.00     0.003 A 
ATOM      7  I   UNL d   1       1.996  -1.965   1.654  0.00  0.00    -0.146 I 
ENDROOT
TORSDOF 0
ENDMDL
