MODEL 1
REMARK minimizedAffinity 4.2061367
REMARK minimizedRMSD -1
REMARK  0 active torsions:
REMARK  status: ('A' for Active; 'I' for Inactive)
ROOT
ATOM      1  C   UNL d   1       2.495   2.333  -2.369  0.00  0.00     0.023 A 
ATOM      2  C1  UNL d   1       2.928   2.388  -1.044  0.00  0.00     0.003 A 
ATOM      3  C2  UNL d   1       2.992   1.220  -0.281  0.00  0.00     0.048 A 
ATOM      4  C3  UNL d   1       2.623   0.002  -0.849  0.00  0.00     0.023 A 
ATOM      5  C4  UNL d   1       2.190  -0.058  -2.174  0.00  0.00     0.048 A 
ATOM      6  C5  UNL d   1       2.127   1.112  -2.933  0.00  0.00     0.003 A 
ATOM      7  I   UNL d   1       2.718  -1.737   0.286  0.00  0.00    -0.146 I 
ENDROOT
TORSDOF 0
ENDMDL
