MODEL 1
REMARK minimizedAffinity 2.73891616
REMARK minimizedRMSD -1
REMARK  0 active torsions:
REMARK  status: ('A' for Active; 'I' for Inactive)
ROOT
ATOM      1  C   UNL d   1      -0.883  -0.216   2.487  0.00  0.00     0.023 A 
ATOM      2  C1  UNL d   1      -1.036  -0.915   1.290  0.00  0.00     0.003 A 
ATOM      3  C2  UNL d   1       0.064  -1.541   0.700  0.00  0.00     0.048 A 
ATOM      4  C3  UNL d   1       1.314  -1.466   1.314  0.00  0.00     0.023 A 
ATOM      5  C4  UNL d   1       1.472  -0.768   2.512  0.00  0.00     0.048 A 
ATOM      6  C5  UNL d   1       0.369  -0.142   3.098  0.00  0.00     0.003 A 
ATOM      7  I   UNL d   1       2.952  -2.398   0.438  0.00  0.00    -0.146 I 
ENDROOT
TORSDOF 0
ENDMDL
