MODEL 1
REMARK minimizedAffinity 7.32333469
REMARK minimizedRMSD -1
REMARK  0 active torsions:
REMARK  status: ('A' for Active; 'I' for Inactive)
ROOT
ATOM      1  C   UNL d   1       1.869   2.705  -1.021  0.00  0.00     0.023 A 
ATOM      2  C1  UNL d   1       1.675   1.700  -1.968  0.00  0.00     0.003 A 
ATOM      3  C2  UNL d   1       2.110   0.399  -1.706  0.00  0.00     0.048 A 
ATOM      4  C3  UNL d   1       2.737   0.111  -0.495  0.00  0.00     0.023 A 
ATOM      5  C4  UNL d   1       2.933   1.113   0.457  0.00  0.00     0.048 A 
ATOM      6  C5  UNL d   1       2.497   2.413   0.190  0.00  0.00     0.003 A 
ATOM      7  I   UNL d   1       3.386  -1.825  -0.102  0.00  0.00    -0.146 I 
ENDROOT
TORSDOF 0
ENDMDL
