MODEL 1
REMARK minimizedAffinity -1.29300201
REMARK minimizedRMSD -1
REMARK  0 active torsions:
REMARK  status: ('A' for Active; 'I' for Inactive)
ROOT
ATOM      1  C   UNL d   1       2.824  -2.199   1.527  0.00  0.00     0.023 A 
ATOM      2  C1  UNL d   1       3.244  -1.313   0.534  0.00  0.00     0.003 A 
ATOM      3  C2  UNL d   1       3.194   0.064   0.760  0.00  0.00     0.048 A 
ATOM      4  C3  UNL d   1       2.724   0.548   1.980  0.00  0.00     0.023 A 
ATOM      5  C4  UNL d   1       2.305  -0.335   2.976  0.00  0.00     0.048 A 
ATOM      6  C5  UNL d   1       2.355  -1.711   2.746  0.00  0.00     0.003 A 
ATOM      7  I   UNL d   1       2.650   2.598   2.318  0.00  0.00    -0.146 I 
ENDROOT
TORSDOF 0
ENDMDL
