MODEL 1
REMARK minimizedAffinity 0.820039034
REMARK minimizedRMSD -1
REMARK  0 active torsions:
REMARK  status: ('A' for Active; 'I' for Inactive)
ROOT
ATOM      1  C   UNL d   1       2.560   2.002  -2.524  0.00  0.00     0.023 A 
ATOM      2  C1  UNL d   1       2.495   0.667  -2.923  0.00  0.00     0.003 A 
ATOM      3  C2  UNL d   1       2.376  -0.344  -1.966  0.00  0.00     0.048 A 
ATOM      4  C3  UNL d   1       2.320  -0.012  -0.613  0.00  0.00     0.023 A 
ATOM      5  C4  UNL d   1       2.383   1.323  -0.210  0.00  0.00     0.048 A 
ATOM      6  C5  UNL d   1       2.504   2.330  -1.169  0.00  0.00     0.003 A 
ATOM      7  I   UNL d   1       2.141  -1.514   0.812  0.00  0.00    -0.146 I 
ENDROOT
TORSDOF 0
ENDMDL
