MODEL 1
REMARK minimizedAffinity 4.21421528
REMARK minimizedRMSD -1
REMARK  0 active torsions:
REMARK  status: ('A' for Active; 'I' for Inactive)
ROOT
ATOM      1  C   UNL d   1       3.351  -2.160   0.782  0.00  0.00     0.023 A 
ATOM      2  C1  UNL d   1       2.316  -1.552   0.071  0.00  0.00     0.003 A 
ATOM      3  C2  UNL d   1       1.161  -1.135   0.735  0.00  0.00     0.048 A 
ATOM      4  C3  UNL d   1       1.048  -1.327   2.112  0.00  0.00     0.023 A 
ATOM      5  C4  UNL d   1       2.081  -1.933   2.828  0.00  0.00     0.048 A 
ATOM      6  C5  UNL d   1       3.233  -2.350   2.159  0.00  0.00     0.003 A 
ATOM      7  I   UNL d   1      -0.670  -0.706   3.103  0.00  0.00    -0.146 I 
ENDROOT
TORSDOF 0
ENDMDL
