MODEL 1
REMARK minimizedAffinity -3.36635232
REMARK minimizedRMSD -1
REMARK  1 active torsions:
REMARK  status: ('A' for Active; 'I' for Inactive)
REMARK    1  A    between atoms: N_2  and  C1_3 
ROOT
ATOM      1  C1  UNL d   1      -0.007   0.257   1.059  0.00  0.00     0.143 A 
ATOM      2  C2  UNL d   1      -0.023   0.236   2.457  0.00  0.00    -0.057 A 
ATOM      3  C3  UNL d   1      -1.200  -0.033   3.166  0.00  0.00     0.033 A 
ATOM      4  C4  UNL d   1      -2.393  -0.257   2.486  0.00  0.00    -0.042 A 
ATOM      5  C5  UNL d   1      -2.406  -0.217   1.097  0.00  0.00     0.033 A 
ATOM      6  C6  UNL d   1      -1.225   0.045   0.394  0.00  0.00    -0.057 A 
ENDROOT
BRANCH   1   7
ATOM      7  N   UNL d   1       1.109   0.614   0.299  0.00  0.00    -0.732 N 
ATOM      8  C   UNL d   1       2.255   1.241   0.922  0.00  0.00     0.284 C 
ATOM      9  H3  UNL d   1       1.347  -0.089  -0.397  0.00  0.00     0.395 HD
ENDBRANCH   1   7
TORSDOF 1
ENDMDL
