MODEL 1
REMARK minimizedAffinity -3.06695771
REMARK minimizedRMSD -1
REMARK  1 active torsions:
REMARK  status: ('A' for Active; 'I' for Inactive)
REMARK    1  A    between atoms: N_2  and  C1_3 
ROOT
ATOM      1  C1  UNL d   1       0.870   0.056  -1.718  0.00  0.00     0.143 A 
ATOM      2  C2  UNL d   1       1.946   0.395  -2.546  0.00  0.00    -0.057 A 
ATOM      3  C3  UNL d   1       2.228  -0.337  -3.705  0.00  0.00     0.033 A 
ATOM      4  C4  UNL d   1       1.455  -1.442  -4.043  0.00  0.00    -0.042 A 
ATOM      5  C5  UNL d   1       0.396  -1.813  -3.222  0.00  0.00     0.033 A 
ATOM      6  C6  UNL d   1       0.114  -1.074  -2.069  0.00  0.00    -0.057 A 
ENDROOT
BRANCH   1   7
ATOM      7  N   UNL d   1       0.597   0.684  -0.500  0.00  0.00    -0.732 N 
ATOM      8  C   UNL d   1       0.846   0.003   0.752  0.00  0.00     0.284 C 
ATOM      9  H3  UNL d   1       0.866   1.665  -0.501  0.00  0.00     0.395 HD
ENDBRANCH   1   7
TORSDOF 1
ENDMDL
