MODEL 1
REMARK minimizedAffinity -3.19763708
REMARK minimizedRMSD -1
REMARK  1 active torsions:
REMARK  status: ('A' for Active; 'I' for Inactive)
REMARK    1  A    between atoms: N_2  and  C1_3 
ROOT
ATOM      1  C1  UNL d   1      -0.319   0.200   0.081  0.00  0.00     0.143 A 
ATOM      2  C2  UNL d   1       1.006   0.250   0.529  0.00  0.00    -0.057 A 
ATOM      3  C3  UNL d   1       1.313   0.188   1.893  0.00  0.00     0.033 A 
ATOM      4  C4  UNL d   1       0.296   0.104   2.839  0.00  0.00    -0.042 A 
ATOM      5  C5  UNL d   1      -1.029   0.078   2.417  0.00  0.00     0.033 A 
ATOM      6  C6  UNL d   1      -1.329   0.134   1.053  0.00  0.00    -0.057 A 
ENDROOT
BRANCH   1   7
ATOM      7  N   UNL d   1      -0.694   0.356  -1.256  0.00  0.00    -0.732 N 
ATOM      8  C   UNL d   1       0.036  -0.316  -2.310  0.00  0.00     0.284 C 
ATOM      9  H3  UNL d   1      -1.704   0.349  -1.379  0.00  0.00     0.395 HD
ENDBRANCH   1   7
TORSDOF 1
ENDMDL
