MODEL 1
REMARK minimizedAffinity -3.42143321
REMARK minimizedRMSD -1
REMARK  1 active torsions:
REMARK  status: ('A' for Active; 'I' for Inactive)
REMARK    1  A    between atoms: N_2  and  C1_3 
ROOT
ATOM      1  C1  UNL d   1       0.283  -0.168  -1.436  0.00  0.00     0.143 A 
ATOM      2  C2  UNL d   1       1.502   0.024  -2.096  0.00  0.00    -0.057 A 
ATOM      3  C3  UNL d   1       1.779  -0.616  -3.310  0.00  0.00     0.033 A 
ATOM      4  C4  UNL d   1       0.851  -1.486  -3.872  0.00  0.00    -0.042 A 
ATOM      5  C5  UNL d   1      -0.357  -1.711  -3.222  0.00  0.00     0.033 A 
ATOM      6  C6  UNL d   1      -0.631  -1.064  -2.013  0.00  0.00    -0.057 A 
ENDROOT
BRANCH   1   7
ATOM      7  N   UNL d   1      -0.013   0.363  -0.178  0.00  0.00    -0.732 N 
ATOM      8  C   UNL d   1       0.989   0.387   0.866  0.00  0.00     0.284 C 
ATOM      9  H3  UNL d   1      -0.573   1.210  -0.236  0.00  0.00     0.395 HD
ENDBRANCH   1   7
TORSDOF 1
ENDMDL
