MODEL 1
REMARK minimizedAffinity -2.86684012
REMARK minimizedRMSD -1
REMARK  1 active torsions:
REMARK  status: ('A' for Active; 'I' for Inactive)
REMARK    1  A    between atoms: N_2  and  C1_3 
ROOT
ATOM      1  C1  UNL d   1       0.502  -0.065  -1.004  0.00  0.00     0.143 A 
ATOM      2  C2  UNL d   1      -0.427  -0.924  -1.601  0.00  0.00    -0.057 A 
ATOM      3  C3  UNL d   1      -0.294  -1.323  -2.937  0.00  0.00     0.033 A 
ATOM      4  C4  UNL d   1       0.758  -0.843  -3.710  0.00  0.00    -0.042 A 
ATOM      5  C5  UNL d   1       1.679   0.032  -3.145  0.00  0.00     0.033 A 
ATOM      6  C6  UNL d   1       1.545   0.421  -1.809  0.00  0.00    -0.057 A 
ENDROOT
BRANCH   1   7
ATOM      7  N   UNL d   1       0.370   0.445   0.289  0.00  0.00    -0.732 N 
ATOM      8  C   UNL d   1       1.350   0.135   1.308  0.00  0.00     0.284 C 
ATOM      9  H3  UNL d   1       0.057   1.413   0.295  0.00  0.00     0.395 HD
ENDBRANCH   1   7
TORSDOF 1
ENDMDL
