MODEL 1
REMARK minimizedAffinity -4.13811731
REMARK minimizedRMSD -1
REMARK  1 active torsions:
REMARK  status: ('A' for Active; 'I' for Inactive)
REMARK    1  A    between atoms: N_2  and  C1_3 
ROOT
ATOM      1  C1  UNL d   1       0.115   0.336  -0.395  0.00  0.00     0.143 A 
ATOM      2  C2  UNL d   1      -0.857  -0.182   0.468  0.00  0.00    -0.057 A 
ATOM      3  C3  UNL d   1      -0.558  -0.484   1.802  0.00  0.00     0.033 A 
ATOM      4  C4  UNL d   1       0.732  -0.301   2.290  0.00  0.00    -0.042 A 
ATOM      5  C5  UNL d   1       1.720   0.189   1.444  0.00  0.00     0.033 A 
ATOM      6  C6  UNL d   1       1.414   0.495   0.115  0.00  0.00    -0.057 A 
ENDROOT
BRANCH   1   7
ATOM      7  N   UNL d   1      -0.095   0.563  -1.757  0.00  0.00    -0.732 N 
ATOM      8  C   UNL d   1       0.868   0.109  -2.738  0.00  0.00     0.284 C 
ATOM      9  H3  UNL d   1      -1.065   0.420  -2.030  0.00  0.00     0.395 HD
ENDBRANCH   1   7
TORSDOF 1
ENDMDL
