MODEL 1
REMARK minimizedAffinity -4.054914
REMARK minimizedRMSD -1
REMARK  1 active torsions:
REMARK  status: ('A' for Active; 'I' for Inactive)
REMARK    1  A    between atoms: N_2  and  C1_3 
ROOT
ATOM      1  C1  UNL d   1      -0.074   0.715  -0.296  0.00  0.00     0.143 A 
ATOM      2  C2  UNL d   1       0.544   0.607   0.955  0.00  0.00    -0.057 A 
ATOM      3  C3  UNL d   1      -0.202   0.637   2.139  0.00  0.00     0.033 A 
ATOM      4  C4  UNL d   1      -1.582   0.804   2.094  0.00  0.00    -0.042 A 
ATOM      5  C5  UNL d   1      -2.216   0.938   0.864  0.00  0.00     0.033 A 
ATOM      6  C6  UNL d   1      -1.465   0.901  -0.316  0.00  0.00    -0.057 A 
ENDROOT
BRANCH   1   7
ATOM      7  N   UNL d   1       0.623   0.792  -1.504  0.00  0.00    -0.732 N 
ATOM      8  C   UNL d   1       0.866  -0.398  -2.292  0.00  0.00     0.284 C 
ATOM      9  H3  UNL d   1       0.360   1.607  -2.053  0.00  0.00     0.395 HD
ENDBRANCH   1   7
TORSDOF 1
ENDMDL
