MODEL 1
REMARK minimizedAffinity -2.4354949
REMARK minimizedRMSD -1
REMARK  1 active torsions:
REMARK  status: ('A' for Active; 'I' for Inactive)
REMARK    1  A    between atoms: N_2  and  C1_3 
ROOT
ATOM      1  C1  UNL d   1       0.310   0.218  -0.914  0.00  0.00     0.143 A 
ATOM      2  C2  UNL d   1      -1.055   0.141  -0.620  0.00  0.00    -0.057 A 
ATOM      3  C3  UNL d   1      -1.522   0.249   0.695  0.00  0.00     0.033 A 
ATOM      4  C4  UNL d   1      -0.626   0.407   1.747  0.00  0.00    -0.042 A 
ATOM      5  C5  UNL d   1       0.738   0.461   1.481  0.00  0.00     0.033 A 
ATOM      6  C6  UNL d   1       1.197   0.360   0.164  0.00  0.00    -0.057 A 
ENDROOT
BRANCH   1   7
ATOM      7  N   UNL d   1       0.844   0.020  -2.190  0.00  0.00    -0.732 N 
ATOM      8  C   UNL d   1       0.530  -1.176  -2.942  0.00  0.00     0.284 C 
ATOM      9  H3  UNL d   1       0.848   0.872  -2.746  0.00  0.00     0.395 HD
ENDBRANCH   1   7
TORSDOF 1
ENDMDL
