MODEL 1
REMARK minimizedAffinity -3.65531349
REMARK minimizedRMSD -1
REMARK  1 active torsions:
REMARK  status: ('A' for Active; 'I' for Inactive)
REMARK    1  A    between atoms: N_2  and  C1_3 
ROOT
ATOM      1  C1  UNL d   1      -0.070   0.163  -0.031  0.00  0.00     0.143 A 
ATOM      2  C2  UNL d   1       1.028  -0.056   0.807  0.00  0.00    -0.057 A 
ATOM      3  C3  UNL d   1       0.883  -0.102   2.198  0.00  0.00     0.033 A 
ATOM      4  C4  UNL d   1      -0.365   0.101   2.780  0.00  0.00    -0.042 A 
ATOM      5  C5  UNL d   1      -1.466   0.345   1.968  0.00  0.00     0.033 A 
ATOM      6  C6  UNL d   1      -1.315   0.383   0.579  0.00  0.00    -0.057 A 
ENDROOT
BRANCH   1   7
ATOM      7  N   UNL d   1       0.026   0.317  -1.416  0.00  0.00    -0.732 N 
ATOM      8  C   UNL d   1       0.069  -0.839  -2.286  0.00  0.00     0.284 C 
ATOM      9  H3  UNL d   1      -0.554   1.078  -1.764  0.00  0.00     0.395 HD
ENDBRANCH   1   7
TORSDOF 1
ENDMDL
