MODEL 1
REMARK minimizedAffinity -5.68853569
REMARK minimizedRMSD -1
REMARK  2 active torsions:
REMARK  status: ('A' for Active; 'I' for Inactive)
REMARK    1  A    between atoms: C1_2  and  C2_3 
REMARK    2  A    between atoms: C2_3  and  C3_4 
ROOT
ATOM      1  C3  UNL d   1      -0.349  -0.204   0.328  0.00  0.00    -0.075 A 
ATOM      2  C4  UNL d   1       0.438  -1.145   1.008  0.00  0.00     0.002 A 
ATOM      3  C5  UNL d   1       1.787  -0.890   1.260  0.00  0.00     0.002 A 
ATOM      4  C6  UNL d   1       2.366   0.301   0.829  0.00  0.00    -0.004 A 
ATOM      5  C7  UNL d   1       1.597   1.235   0.138  0.00  0.00     0.002 A 
ATOM      6  C8  UNL d   1       0.247   0.985  -0.112  0.00  0.00     0.002 A 
ENDROOT
BRANCH   1   7
ATOM      7  C2  UNL d   1      -1.816  -0.462   0.078  0.00  0.00     0.056 C 
BRANCH   7   8
ATOM      8  C1  UNL d   1      -2.352   0.184  -1.204  0.00  0.00     0.007 C 
ATOM      9  C   UNL d   1      -2.338  -0.757  -2.402  0.00  0.00     0.009 C 
ENDBRANCH   7   8
ENDBRANCH   1   7
TORSDOF 2
ENDMDL
