MODEL 1
REMARK minimizedAffinity -3.67959094
REMARK minimizedRMSD -1
REMARK  2 active torsions:
REMARK  status: ('A' for Active; 'I' for Inactive)
REMARK    1  A    between atoms: C1_2  and  C2_3 
REMARK    2  A    between atoms: C2_3  and  C3_4 
ROOT
ATOM      1  C3  UNL d   1       1.011  -0.105   0.925  0.00  0.00    -0.075 A 
ATOM      2  C4  UNL d   1       2.176   0.450   1.475  0.00  0.00     0.002 A 
ATOM      3  C5  UNL d   1       2.793  -0.146   2.575  0.00  0.00     0.002 A 
ATOM      4  C6  UNL d   1       2.250  -1.296   3.145  0.00  0.00    -0.004 A 
ATOM      5  C7  UNL d   1       1.084  -1.846   2.617  0.00  0.00     0.002 A 
ATOM      6  C8  UNL d   1       0.467  -1.255   1.514  0.00  0.00     0.002 A 
ENDROOT
BRANCH   1   7
ATOM      7  C2  UNL d   1       0.354   0.518  -0.283  0.00  0.00     0.056 C 
BRANCH   7   8
ATOM      8  C1  UNL d   1      -1.151   0.250  -0.383  0.00  0.00     0.007 C 
ATOM      9  C   UNL d   1      -1.618  -0.035  -1.804  0.00  0.00     0.009 C 
ENDBRANCH   7   8
ENDBRANCH   1   7
TORSDOF 2
ENDMDL
