MODEL 1
REMARK minimizedAffinity -4.56481647
REMARK minimizedRMSD -1
REMARK  2 active torsions:
REMARK  status: ('A' for Active; 'I' for Inactive)
REMARK    1  A    between atoms: C1_2  and  C2_3 
REMARK    2  A    between atoms: C2_3  and  C3_4 
ROOT
ATOM      1  C3  UNL d   1      -1.240   0.162  -1.135  0.00  0.00    -0.075 A 
ATOM      2  C4  UNL d   1      -2.573   0.570  -0.986  0.00  0.00     0.002 A 
ATOM      3  C5  UNL d   1      -3.462   0.490  -2.059  0.00  0.00     0.002 A 
ATOM      4  C6  UNL d   1      -3.028   0.013  -3.293  0.00  0.00    -0.004 A 
ATOM      5  C7  UNL d   1      -1.701  -0.380  -3.457  0.00  0.00     0.002 A 
ATOM      6  C8  UNL d   1      -0.811  -0.305  -2.384  0.00  0.00     0.002 A 
ENDROOT
BRANCH   1   7
ATOM      7  C2  UNL d   1      -0.280   0.218   0.030  0.00  0.00     0.056 C 
BRANCH   7   8
ATOM      8  C1  UNL d   1       0.865   1.219  -0.153  0.00  0.00     0.007 C 
ATOM      9  C   UNL d   1       2.073   0.916   0.723  0.00  0.00     0.009 C 
ENDBRANCH   7   8
ENDBRANCH   1   7
TORSDOF 2
ENDMDL
