MODEL 1
REMARK minimizedAffinity -4.81900978
REMARK minimizedRMSD -1
REMARK  2 active torsions:
REMARK  status: ('A' for Active; 'I' for Inactive)
REMARK    1  A    between atoms: C1_2  and  C2_3 
REMARK    2  A    between atoms: C2_3  and  C3_4 
ROOT
ATOM      1  C3  UNL d   1      -0.305   0.124   0.228  0.00  0.00    -0.075 A 
ATOM      2  C4  UNL d   1       0.549   1.210  -0.010  0.00  0.00     0.002 A 
ATOM      3  C5  UNL d   1       1.828   1.240   0.548  0.00  0.00     0.002 A 
ATOM      4  C6  UNL d   1       2.263   0.193   1.357  0.00  0.00    -0.004 A 
ATOM      5  C7  UNL d   1       1.416  -0.883   1.614  0.00  0.00     0.002 A 
ATOM      6  C8  UNL d   1       0.138  -0.918   1.053  0.00  0.00     0.002 A 
ENDROOT
BRANCH   1   7
ATOM      7  C2  UNL d   1      -1.679   0.070  -0.397  0.00  0.00     0.056 C 
BRANCH   7   8
ATOM      8  C1  UNL d   1      -1.691  -0.463  -1.834  0.00  0.00     0.007 C 
ATOM      9  C   UNL d   1      -2.964  -0.113  -2.593  0.00  0.00     0.009 C 
ENDBRANCH   7   8
ENDBRANCH   1   7
TORSDOF 2
ENDMDL
