MODEL 1
REMARK minimizedAffinity 0.972892642
REMARK minimizedRMSD -1
REMARK  2 active torsions:
REMARK  status: ('A' for Active; 'I' for Inactive)
REMARK    1  A    between atoms: C1_2  and  C2_3 
REMARK    2  A    between atoms: C2_3  and  C3_4 
ROOT
ATOM      1  C3  UNL d   1      -0.080   0.334   0.136  0.00  0.00    -0.075 A 
ATOM      2  C4  UNL d   1       0.564  -0.125   1.294  0.00  0.00     0.002 A 
ATOM      3  C5  UNL d   1       1.893   0.214   1.547  0.00  0.00     0.002 A 
ATOM      4  C6  UNL d   1       2.597   1.007   0.643  0.00  0.00    -0.004 A 
ATOM      5  C7  UNL d   1       1.972   1.455  -0.519  0.00  0.00     0.002 A 
ATOM      6  C8  UNL d   1       0.641   1.120  -0.773  0.00  0.00     0.002 A 
ENDROOT
BRANCH   1   7
ATOM      7  C2  UNL d   1      -1.528  -0.005  -0.129  0.00  0.00     0.056 C 
BRANCH   7   8
ATOM      8  C1  UNL d   1      -2.150   0.780  -1.289  0.00  0.00     0.007 C 
ATOM      9  C   UNL d   1      -2.528  -0.099  -2.474  0.00  0.00     0.009 C 
ENDBRANCH   7   8
ENDBRANCH   1   7
TORSDOF 2
ENDMDL
