MODEL 1
REMARK minimizedAffinity -4.40782022
REMARK minimizedRMSD -1
REMARK  2 active torsions:
REMARK  status: ('A' for Active; 'I' for Inactive)
REMARK    1  A    between atoms: C1_2  and  C2_3 
REMARK    2  A    between atoms: C2_3  and  C3_4 
ROOT
ATOM      1  C3  UNL d   1       0.333  -0.807   0.865  0.00  0.00    -0.075 A 
ATOM      2  C4  UNL d   1       0.898  -1.759   1.726  0.00  0.00     0.002 A 
ATOM      3  C5  UNL d   1       2.172  -1.562   2.261  0.00  0.00     0.002 A 
ATOM      4  C6  UNL d   1       2.898  -0.419   1.936  0.00  0.00    -0.004 A 
ATOM      5  C7  UNL d   1       2.353   0.525   1.069  0.00  0.00     0.002 A 
ATOM      6  C8  UNL d   1       1.078   0.333   0.535  0.00  0.00     0.002 A 
ENDROOT
BRANCH   1   7
ATOM      7  C2  UNL d   1      -1.057  -0.999   0.306  0.00  0.00     0.056 C 
BRANCH   7   8
ATOM      8  C1  UNL d   1      -1.588   0.208  -0.474  0.00  0.00     0.007 C 
ATOM      9  C   UNL d   1      -2.310  -0.178  -1.758  0.00  0.00     0.009 C 
ENDBRANCH   7   8
ENDBRANCH   1   7
TORSDOF 2
ENDMDL
