MODEL 1
REMARK minimizedAffinity -3.82324505
REMARK minimizedRMSD -1
REMARK  2 active torsions:
REMARK  status: ('A' for Active; 'I' for Inactive)
REMARK    1  A    between atoms: C1_2  and  C2_3 
REMARK    2  A    between atoms: C2_3  and  C3_4 
ROOT
ATOM      1  C3  UNL d   1       0.856  -0.195   0.551  0.00  0.00    -0.075 A 
ATOM      2  C4  UNL d   1       2.050   0.406   0.973  0.00  0.00     0.002 A 
ATOM      3  C5  UNL d   1       2.774  -0.128   2.039  0.00  0.00     0.002 A 
ATOM      4  C6  UNL d   1       2.310  -1.263   2.701  0.00  0.00    -0.004 A 
ATOM      5  C7  UNL d   1       1.116  -1.859   2.301  0.00  0.00     0.002 A 
ATOM      6  C8  UNL d   1       0.392  -1.329   1.232  0.00  0.00     0.002 A 
ENDROOT
BRANCH   1   7
ATOM      7  C2  UNL d   1       0.083   0.361  -0.621  0.00  0.00     0.056 C 
BRANCH   7   8
ATOM      8  C1  UNL d   1      -1.423   0.081  -0.564  0.00  0.00     0.007 C 
ATOM      9  C   UNL d   1      -2.067  -0.019  -1.940  0.00  0.00     0.009 C 
ENDBRANCH   7   8
ENDBRANCH   1   7
TORSDOF 2
ENDMDL
