MODEL 1
REMARK minimizedAffinity 0.651973844
REMARK minimizedRMSD -1
REMARK  1 active torsions:
REMARK  status: ('A' for Active; 'I' for Inactive)
REMARK    1  A    between atoms: C1_2  and  C2_3 
ROOT
ATOM      1  C2  UNL d   1       5.912   2.396   3.400  0.00  0.00    -0.081 A 
ATOM      2  C3  UNL d   1       5.944   1.104   2.860  0.00  0.00     0.006 A 
ATOM      3  C4  UNL d   1       5.956  -0.013   3.698  0.00  0.00     0.002 A 
ATOM      4  C5  UNL d   1       5.930   0.141   5.088  0.00  0.00    -0.080 A 
ATOM      5  C6  UNL d   1       5.912  -1.050   5.998  0.00  0.00     0.076 C 
ATOM      6  C7  UNL d   1       5.916   1.432   5.628  0.00  0.00     0.002 A 
ATOM      7  C8  UNL d   1       5.904   2.550   4.791  0.00  0.00     0.006 A 
ENDROOT
BRANCH   1   8
ATOM      8  C1  UNL d   1       5.834   3.602   2.499  0.00  0.00     0.054 C 
ATOM      9  C   UNL d   1       5.999   4.893   3.287  0.00  0.00     0.018 C 
ENDBRANCH   1   8
TORSDOF 1
ENDMDL
