MODEL 1
REMARK minimizedAffinity -2.23600912
REMARK minimizedRMSD -1
REMARK  1 active torsions:
REMARK  status: ('A' for Active; 'I' for Inactive)
REMARK    1  A    between atoms: C1_2  and  C2_3 
ROOT
ATOM      1  C2  UNL d   1       5.892   2.098   4.383  0.00  0.00    -0.081 A 
ATOM      2  C3  UNL d   1       5.811   2.150   2.986  0.00  0.00     0.006 A 
ATOM      3  C4  UNL d   1       5.829   3.379   2.321  0.00  0.00     0.002 A 
ATOM      4  C5  UNL d   1       5.937   4.574   3.040  0.00  0.00    -0.080 A 
ATOM      5  C6  UNL d   1       5.988   5.897   2.336  0.00  0.00     0.076 C 
ATOM      6  C7  UNL d   1       6.000   4.523   4.437  0.00  0.00     0.002 A 
ATOM      7  C8  UNL d   1       5.981   3.295   5.102  0.00  0.00     0.006 A 
ENDROOT
BRANCH   1   8
ATOM      8  C1  UNL d   1       5.937   0.773   5.099  0.00  0.00     0.054 C 
ATOM      9  C   UNL d   1       4.902  -0.193   4.542  0.00  0.00     0.018 C 
ENDBRANCH   1   8
TORSDOF 1
ENDMDL
