MODEL 1
REMARK minimizedAffinity -1.49037158
REMARK minimizedRMSD -1
REMARK  1 active torsions:
REMARK  status: ('A' for Active; 'I' for Inactive)
REMARK    1  A    between atoms: C1_2  and  C2_3 
ROOT
ATOM      1  C2  UNL d   1       5.626   0.533   5.123  0.00  0.00    -0.081 A 
ATOM      2  C3  UNL d   1       5.296   0.574   3.763  0.00  0.00     0.006 A 
ATOM      3  C4  UNL d   1       5.323   1.784   3.065  0.00  0.00     0.002 A 
ATOM      4  C5  UNL d   1       5.687   2.969   3.712  0.00  0.00    -0.080 A 
ATOM      5  C6  UNL d   1       5.749   4.269   2.966  0.00  0.00     0.076 C 
ATOM      6  C7  UNL d   1       6.000   2.931   5.075  0.00  0.00     0.002 A 
ATOM      7  C8  UNL d   1       5.973   1.722   5.774  0.00  0.00     0.006 A 
ENDROOT
BRANCH   1   8
ATOM      8  C1  UNL d   1       5.661  -0.780   5.864  0.00  0.00     0.054 C 
ATOM      9  C   UNL d   1       5.685  -1.958   4.901  0.00  0.00     0.018 C 
ENDBRANCH   1   8
TORSDOF 1
ENDMDL
