MODEL 1
REMARK minimizedAffinity -2.63684535
REMARK minimizedRMSD -1
REMARK  1 active torsions:
REMARK  status: ('A' for Active; 'I' for Inactive)
REMARK    1  A    between atoms: C1_2  and  C2_3 
ROOT
ATOM      1  C2  UNL d   1       6.000   2.066   3.765  0.00  0.00    -0.081 A 
ATOM      2  C3  UNL d   1       5.987   0.842   3.085  0.00  0.00     0.006 A 
ATOM      3  C4  UNL d   1       5.952  -0.362   3.793  0.00  0.00     0.002 A 
ATOM      4  C5  UNL d   1       5.922  -0.362   5.191  0.00  0.00    -0.080 A 
ATOM      5  C6  UNL d   1       5.855  -1.647   5.963  0.00  0.00     0.076 C 
ATOM      6  C7  UNL d   1       5.953   0.860   5.872  0.00  0.00     0.002 A 
ATOM      7  C8  UNL d   1       5.988   2.064   5.165  0.00  0.00     0.006 A 
ENDROOT
BRANCH   1   8
ATOM      8  C1  UNL d   1       5.971   3.366   3.004  0.00  0.00     0.054 C 
ATOM      9  C   UNL d   1       5.998   4.560   3.948  0.00  0.00     0.018 C 
ENDBRANCH   1   8
TORSDOF 1
ENDMDL
