MODEL 1
REMARK minimizedAffinity 4.7600832
REMARK minimizedRMSD -1
REMARK  1 active torsions:
REMARK  status: ('A' for Active; 'I' for Inactive)
REMARK    1  A    between atoms: C1_2  and  C2_3 
ROOT
ATOM      1  C2  UNL d   1       5.942   1.655   3.916  0.00  0.00    -0.081 A 
ATOM      2  C3  UNL d   1       5.978   1.158   5.225  0.00  0.00     0.006 A 
ATOM      3  C4  UNL d   1       5.984  -0.220   5.459  0.00  0.00     0.002 A 
ATOM      4  C5  UNL d   1       5.963  -1.122   4.390  0.00  0.00    -0.080 A 
ATOM      5  C6  UNL d   1       6.000  -2.602   4.627  0.00  0.00     0.076 C 
ATOM      6  C7  UNL d   1       5.909  -0.625   3.083  0.00  0.00     0.002 A 
ATOM      7  C8  UNL d   1       5.902   0.752   2.848  0.00  0.00     0.006 A 
ENDROOT
BRANCH   1   8
ATOM      8  C1  UNL d   1       6.000   3.139   3.658  0.00  0.00     0.054 C 
ATOM      9  C   UNL d   1       4.725   3.635   2.991  0.00  0.00     0.018 C 
ENDBRANCH   1   8
TORSDOF 1
ENDMDL
