MODEL 1
REMARK minimizedAffinity 5.09655046
REMARK minimizedRMSD -1
REMARK  1 active torsions:
REMARK  status: ('A' for Active; 'I' for Inactive)
REMARK    1  A    between atoms: C1_2  and  C2_3 
ROOT
ATOM      1  C2  UNL d   1       5.922   1.978   4.831  0.00  0.00    -0.081 A 
ATOM      2  C3  UNL d   1       5.956   3.359   5.058  0.00  0.00     0.006 A 
ATOM      3  C4  UNL d   1       5.994   4.253   3.985  0.00  0.00     0.002 A 
ATOM      4  C5  UNL d   1       5.990   3.781   2.668  0.00  0.00    -0.080 A 
ATOM      5  C6  UNL d   1       6.000   4.731   1.507  0.00  0.00     0.076 C 
ATOM      6  C7  UNL d   1       5.973   2.401   2.441  0.00  0.00     0.002 A 
ATOM      7  C8  UNL d   1       5.936   1.507   3.513  0.00  0.00     0.006 A 
ENDROOT
BRANCH   1   8
ATOM      8  C1  UNL d   1       5.816   1.014   5.984  0.00  0.00     0.054 C 
ATOM      9  C   UNL d   1       4.468   0.307   5.993  0.00  0.00     0.018 C 
ENDBRANCH   1   8
TORSDOF 1
ENDMDL
