MODEL 1
REMARK minimizedAffinity -3.07473922
REMARK minimizedRMSD -1
REMARK  1 active torsions:
REMARK  status: ('A' for Active; 'I' for Inactive)
REMARK    1  A    between atoms: C1_2  and  C2_3 
ROOT
ATOM      1  C2  UNL d   1       5.939   2.816   3.027  0.00  0.00    -0.081 A 
ATOM      2  C3  UNL d   1       5.927   2.695   4.422  0.00  0.00     0.006 A 
ATOM      3  C4  UNL d   1       5.934   1.435   5.024  0.00  0.00     0.002 A 
ATOM      4  C5  UNL d   1       5.961   0.275   4.242  0.00  0.00    -0.080 A 
ATOM      5  C6  UNL d   1       5.999  -1.084   4.875  0.00  0.00     0.076 C 
ATOM      6  C7  UNL d   1       5.956   0.395   2.848  0.00  0.00     0.002 A 
ATOM      7  C8  UNL d   1       5.948   1.656   2.246  0.00  0.00     0.006 A 
ENDROOT
BRANCH   1   8
ATOM      8  C1  UNL d   1       5.998   4.174   2.376  0.00  0.00     0.054 C 
ATOM      9  C   UNL d   1       5.448   5.254   3.298  0.00  0.00     0.018 C 
ENDBRANCH   1   8
TORSDOF 1
ENDMDL
