MODEL 1
REMARK minimizedAffinity 0.610747516
REMARK minimizedRMSD -1
REMARK  1 active torsions:
REMARK  status: ('A' for Active; 'I' for Inactive)
REMARK    1  A    between atoms: C1_2  and  C2_3 
ROOT
ATOM      1  C2  UNL d   1       5.985   2.107   3.567  0.00  0.00    -0.081 A 
ATOM      2  C3  UNL d   1       5.993   2.124   4.967  0.00  0.00     0.006 A 
ATOM      3  C4  UNL d   1       6.000   3.337   5.661  0.00  0.00     0.002 A 
ATOM      4  C5  UNL d   1       5.990   4.551   4.967  0.00  0.00    -0.080 A 
ATOM      5  C6  UNL d   1       5.966   5.860   5.699  0.00  0.00     0.076 C 
ATOM      6  C7  UNL d   1       6.000   4.535   3.568  0.00  0.00     0.002 A 
ATOM      7  C8  UNL d   1       5.994   3.323   2.874  0.00  0.00     0.006 A 
ENDROOT
BRANCH   1   8
ATOM      8  C1  UNL d   1       5.913   0.802   2.817  0.00  0.00     0.054 C 
ATOM      9  C   UNL d   1       5.819  -0.380   3.771  0.00  0.00     0.018 C 
ENDBRANCH   1   8
TORSDOF 1
ENDMDL
