MODEL 1
REMARK minimizedAffinity -1.42883539
REMARK minimizedRMSD -1
REMARK  1 active torsions:
REMARK  status: ('A' for Active; 'I' for Inactive)
REMARK    1  A    between atoms: C1_2  and  C2_3 
ROOT
ATOM      1  C2  UNL d   1       5.938   0.154   4.887  0.00  0.00    -0.081 A 
ATOM      2  C3  UNL d   1       5.992   0.048   3.492  0.00  0.00     0.006 A 
ATOM      3  C4  UNL d   1       5.999   1.196   2.695  0.00  0.00     0.002 A 
ATOM      4  C5  UNL d   1       5.960   2.466   3.279  0.00  0.00    -0.080 A 
ATOM      5  C6  UNL d   1       5.998   3.706   2.436  0.00  0.00     0.076 C 
ATOM      6  C7  UNL d   1       5.889   2.571   4.672  0.00  0.00     0.002 A 
ATOM      7  C8  UNL d   1       5.881   1.425   5.470  0.00  0.00     0.006 A 
ENDROOT
BRANCH   1   8
ATOM      8  C1  UNL d   1       5.996  -1.080   5.752  0.00  0.00     0.054 C 
ATOM      9  C   UNL d   1       5.999  -2.347   4.909  0.00  0.00     0.018 C 
ENDBRANCH   1   8
TORSDOF 1
ENDMDL
