MODEL 1
REMARK minimizedAffinity 0.911884129
REMARK minimizedRMSD -1
REMARK  1 active torsions:
REMARK  status: ('A' for Active; 'I' for Inactive)
REMARK    1  A    between atoms: C1_2  and  C2_3 
ROOT
ATOM      1  C2  UNL d   1       5.938   2.578   4.204  0.00  0.00    -0.081 A 
ATOM      2  C3  UNL d   1       5.888   1.441   5.020  0.00  0.00     0.006 A 
ATOM      3  C4  UNL d   1       5.895   0.163   4.456  0.00  0.00     0.002 A 
ATOM      4  C5  UNL d   1       5.959   0.001   3.068  0.00  0.00    -0.080 A 
ATOM      5  C6  UNL d   1       5.998  -1.366   2.450  0.00  0.00     0.076 C 
ATOM      6  C7  UNL d   1       5.991   1.136   2.251  0.00  0.00     0.002 A 
ATOM      7  C8  UNL d   1       5.984   2.414   2.815  0.00  0.00     0.006 A 
ENDROOT
BRANCH   1   8
ATOM      8  C1  UNL d   1       5.996   3.956   4.812  0.00  0.00     0.054 C 
ATOM      9  C   UNL d   1       5.996   5.035   3.739  0.00  0.00     0.018 C 
ENDBRANCH   1   8
TORSDOF 1
ENDMDL
