MODEL 1
REMARK minimizedAffinity 2.25813508
REMARK minimizedRMSD -1
REMARK  1 active torsions:
REMARK  status: ('A' for Active; 'I' for Inactive)
REMARK    1  A    between atoms: C1_2  and  C2_3 
ROOT
ATOM      1  C2  UNL d   1       5.922   0.737   4.270  0.00  0.00    -0.081 A 
ATOM      2  C3  UNL d   1       5.986   1.724   3.279  0.00  0.00     0.006 A 
ATOM      3  C4  UNL d   1       5.999   3.077   3.627  0.00  0.00     0.002 A 
ATOM      4  C5  UNL d   1       5.956   3.465   4.970  0.00  0.00    -0.080 A 
ATOM      5  C6  UNL d   1       6.000   4.913   5.358  0.00  0.00     0.076 C 
ATOM      6  C7  UNL d   1       5.874   2.480   5.959  0.00  0.00     0.002 A 
ATOM      7  C8  UNL d   1       5.861   1.127   5.613  0.00  0.00     0.006 A 
ENDROOT
BRANCH   1   8
ATOM      8  C1  UNL d   1       5.973  -0.724   3.902  0.00  0.00     0.054 C 
ATOM      9  C   UNL d   1       4.891  -1.514   4.623  0.00  0.00     0.018 C 
ENDBRANCH   1   8
TORSDOF 1
ENDMDL
