MODEL 1
REMARK minimizedAffinity -2.48757792
REMARK minimizedRMSD -1
REMARK  1 active torsions:
REMARK  status: ('A' for Active; 'I' for Inactive)
REMARK    1  A    between atoms: C1_2  and  C2_3 
ROOT
ATOM      1  C2  UNL d   1       5.993   2.346   3.316  0.00  0.00    -0.081 A 
ATOM      2  C3  UNL d   1       5.997   1.049   2.787  0.00  0.00     0.006 A 
ATOM      3  C4  UNL d   1       5.995  -0.061   3.635  0.00  0.00     0.002 A 
ATOM      4  C5  UNL d   1       5.981   0.107   5.024  0.00  0.00    -0.080 A 
ATOM      5  C6  UNL d   1       5.948  -1.077   5.945  0.00  0.00     0.076 C 
ATOM      6  C7  UNL d   1       5.995   1.402   5.552  0.00  0.00     0.002 A 
ATOM      7  C8  UNL d   1       5.998   2.512   4.705  0.00  0.00     0.006 A 
ENDROOT
BRANCH   1   8
ATOM      8  C1  UNL d   1       5.930   3.544   2.404  0.00  0.00     0.054 C 
ATOM      9  C   UNL d   1       5.978   4.844   3.194  0.00  0.00     0.018 C 
ENDBRANCH   1   8
TORSDOF 1
ENDMDL
