MODEL 1
REMARK minimizedAffinity -1.98891115
REMARK minimizedRMSD -1
REMARK  1 active torsions:
REMARK  status: ('A' for Active; 'I' for Inactive)
REMARK    1  A    between atoms: C1_2  and  C2_3 
ROOT
ATOM      1  C2  UNL d   1       0.158   3.148   0.510  0.00  0.00    -0.076 A 
ATOM      2  C3  UNL d   1      -1.078   3.610   0.995  0.00  0.00     0.004 A 
ATOM      3  C4  UNL d   1      -1.140   4.604   1.970  0.00  0.00    -0.003 A 
ATOM      4  C5  UNL d   1       0.033   5.152   2.476  0.00  0.00     0.000 A 
ATOM      5  C6  UNL d   1       1.267   4.719   1.994  0.00  0.00     0.000 A 
ATOM      6  C7  UNL d   1       1.347   3.730   0.999  0.00  0.00    -0.073 A 
ATOM      7  C8  UNL d   1       2.705   3.295   0.519  0.00  0.00     0.078 C 
ENDROOT
BRANCH   1   8
ATOM      8  C1  UNL d   1       0.163   2.049  -0.529  0.00  0.00     0.053 C 
ATOM      9  C   UNL d   1       0.229   0.662   0.091  0.00  0.00     0.018 C 
ENDBRANCH   1   8
TORSDOF 1
ENDMDL
