MODEL 1
REMARK minimizedAffinity -4.38002825
REMARK minimizedRMSD -1
REMARK  1 active torsions:
REMARK  status: ('A' for Active; 'I' for Inactive)
REMARK    1  A    between atoms: C1_2  and  C2_3 
ROOT
ATOM      1  C2  UNL d   1      -0.355   0.150   0.821  0.00  0.00    -0.076 A 
ATOM      2  C3  UNL d   1      -0.868   0.373   2.110  0.00  0.00     0.004 A 
ATOM      3  C4  UNL d   1      -1.433  -0.667   2.847  0.00  0.00    -0.003 A 
ATOM      4  C5  UNL d   1      -1.493  -1.946   2.307  0.00  0.00     0.000 A 
ATOM      5  C6  UNL d   1      -0.972  -2.190   1.037  0.00  0.00     0.000 A 
ATOM      6  C7  UNL d   1      -0.384  -1.156   0.287  0.00  0.00    -0.073 A 
ATOM      7  C8  UNL d   1       0.156  -1.474  -1.080  0.00  0.00     0.078 C 
ENDROOT
BRANCH   1   8
ATOM      8  C1  UNL d   1       0.222   1.321   0.058  0.00  0.00     0.053 C 
ATOM      9  C   UNL d   1       1.616   1.698   0.535  0.00  0.00     0.018 C 
ENDBRANCH   1   8
TORSDOF 1
ENDMDL
