MODEL 1
REMARK minimizedAffinity -4.40578032
REMARK minimizedRMSD -1
REMARK  1 active torsions:
REMARK  status: ('A' for Active; 'I' for Inactive)
REMARK    1  A    between atoms: C1_2  and  C2_3 
ROOT
ATOM      1  C2  UNL d   1      -0.200  -0.750  -0.695  0.00  0.00    -0.076 A 
ATOM      2  C3  UNL d   1       0.269  -0.382  -1.968  0.00  0.00     0.004 A 
ATOM      3  C4  UNL d   1       0.323  -1.309  -3.008  0.00  0.00    -0.003 A 
ATOM      4  C5  UNL d   1      -0.091  -2.618  -2.792  0.00  0.00     0.000 A 
ATOM      5  C6  UNL d   1      -0.575  -2.996  -1.540  0.00  0.00     0.000 A 
ATOM      6  C7  UNL d   1      -0.652  -2.071  -0.486  0.00  0.00    -0.073 A 
ATOM      7  C8  UNL d   1      -1.177  -2.534   0.846  0.00  0.00     0.078 C 
ENDROOT
BRANCH   1   8
ATOM      8  C1  UNL d   1      -0.210   0.291   0.402  0.00  0.00     0.053 C 
ATOM      9  C   UNL d   1       0.038   1.695  -0.126  0.00  0.00     0.018 C 
ENDBRANCH   1   8
TORSDOF 1
ENDMDL
