MODEL 1
REMARK minimizedAffinity -2.03926134
REMARK minimizedRMSD -1
REMARK  1 active torsions:
REMARK  status: ('A' for Active; 'I' for Inactive)
REMARK    1  A    between atoms: C1_2  and  C2_3 
ROOT
ATOM      1  C2  UNL d   1       0.235   0.744  -0.288  0.00  0.00    -0.076 A 
ATOM      2  C3  UNL d   1       0.840   0.058  -1.355  0.00  0.00     0.004 A 
ATOM      3  C4  UNL d   1       0.882  -1.335  -1.381  0.00  0.00    -0.003 A 
ATOM      4  C5  UNL d   1       0.320  -2.065  -0.340  0.00  0.00     0.000 A 
ATOM      5  C6  UNL d   1      -0.300  -1.401   0.719  0.00  0.00     0.000 A 
ATOM      6  C7  UNL d   1      -0.366   0.002   0.752  0.00  0.00    -0.073 A 
ATOM      7  C8  UNL d   1      -1.041   0.666   1.921  0.00  0.00     0.078 C 
ENDROOT
BRANCH   1   8
ATOM      8  C1  UNL d   1       0.243   2.256  -0.301  0.00  0.00     0.053 C 
ATOM      9  C   UNL d   1       1.594   2.835   0.093  0.00  0.00     0.018 C 
ENDBRANCH   1   8
TORSDOF 1
ENDMDL
