MODEL 1
REMARK minimizedAffinity -4.00596762
REMARK minimizedRMSD -1
REMARK  1 active torsions:
REMARK  status: ('A' for Active; 'I' for Inactive)
REMARK    1  A    between atoms: C1_2  and  C2_3 
ROOT
ATOM      1  C2  UNL d   1      -0.000  -0.368   0.595  0.00  0.00    -0.076 A 
ATOM      2  C3  UNL d   1       1.082  -1.123   0.109  0.00  0.00     0.004 A 
ATOM      3  C4  UNL d   1       1.075  -2.515   0.180  0.00  0.00    -0.003 A 
ATOM      4  C5  UNL d   1      -0.014  -3.175   0.737  0.00  0.00     0.000 A 
ATOM      5  C6  UNL d   1      -1.104  -2.443   1.208  0.00  0.00     0.000 A 
ATOM      6  C7  UNL d   1      -1.120  -1.040   1.129  0.00  0.00    -0.073 A 
ATOM      7  C8  UNL d   1      -2.319  -0.301   1.658  0.00  0.00     0.078 C 
ENDROOT
BRANCH   1   8
ATOM      8  C1  UNL d   1       0.075   1.140   0.515  0.00  0.00     0.053 C 
ATOM      9  C   UNL d   1       0.212   1.642  -0.913  0.00  0.00     0.018 C 
ENDBRANCH   1   8
TORSDOF 1
ENDMDL
