MODEL 1
REMARK minimizedAffinity -4.52661991
REMARK minimizedRMSD -1
REMARK  1 active torsions:
REMARK  status: ('A' for Active; 'I' for Inactive)
REMARK    1  A    between atoms: C1_2  and  C2_3 
ROOT
ATOM      1  C2  UNL d   1      -0.150  -0.456  -0.368  0.00  0.00    -0.076 A 
ATOM      2  C3  UNL d   1       0.304  -1.135  -1.513  0.00  0.00     0.004 A 
ATOM      3  C4  UNL d   1       0.349  -2.527  -1.551  0.00  0.00    -0.003 A 
ATOM      4  C5  UNL d   1      -0.060  -3.264  -0.445  0.00  0.00     0.000 A 
ATOM      5  C6  UNL d   1      -0.529  -2.608   0.693  0.00  0.00     0.000 A 
ATOM      6  C7  UNL d   1      -0.596  -1.205   0.742  0.00  0.00    -0.073 A 
ATOM      7  C8  UNL d   1      -1.105  -0.550   1.996  0.00  0.00     0.078 C 
ENDROOT
BRANCH   1   8
ATOM      8  C1  UNL d   1      -0.150   1.056  -0.375  0.00  0.00     0.053 C 
ATOM      9  C   UNL d   1      -0.501   1.632  -1.738  0.00  0.00     0.018 C 
ENDBRANCH   1   8
TORSDOF 1
ENDMDL
