MODEL 1
REMARK minimizedAffinity -1.26162529
REMARK minimizedRMSD -1
REMARK  1 active torsions:
REMARK  status: ('A' for Active; 'I' for Inactive)
REMARK    1  A    between atoms: C1_2  and  C2_3 
ROOT
ATOM      1  C2  UNL d   1       0.233   2.235   0.360  0.00  0.00    -0.076 A 
ATOM      2  C3  UNL d   1      -0.781   1.367   0.799  0.00  0.00     0.004 A 
ATOM      3  C4  UNL d   1      -0.682  -0.010   0.606  0.00  0.00    -0.003 A 
ATOM      4  C5  UNL d   1       0.435  -0.541  -0.029  0.00  0.00     0.000 A 
ATOM      5  C6  UNL d   1       1.459   0.303  -0.456  0.00  0.00     0.000 A 
ATOM      6  C7  UNL d   1       1.382   1.692  -0.255  0.00  0.00    -0.073 A 
ATOM      7  C8  UNL d   1       2.513   2.556  -0.741  0.00  0.00     0.078 C 
ENDROOT
BRANCH   1   8
ATOM      8  C1  UNL d   1       0.058   3.721   0.573  0.00  0.00     0.053 C 
ATOM      9  C   UNL d   1       0.781   4.222   1.814  0.00  0.00     0.018 C 
ENDBRANCH   1   8
TORSDOF 1
ENDMDL
