MODEL 1
REMARK minimizedAffinity -5.41600466
REMARK minimizedRMSD -1
REMARK  1 active torsions:
REMARK  status: ('A' for Active; 'I' for Inactive)
REMARK    1  A    between atoms: C1_2  and  C2_3 
ROOT
ATOM      1  C2  UNL d   1      -0.212  -0.497  -0.687  0.00  0.00    -0.076 A 
ATOM      2  C3  UNL d   1       0.164  -1.155  -1.870  0.00  0.00     0.004 A 
ATOM      3  C4  UNL d   1       0.224  -2.547  -1.929  0.00  0.00    -0.003 A 
ATOM      4  C5  UNL d   1      -0.093  -3.302  -0.805  0.00  0.00     0.000 A 
ATOM      5  C6  UNL d   1      -0.485  -2.666   0.372  0.00  0.00     0.000 A 
ATOM      6  C7  UNL d   1      -0.566  -1.264   0.443  0.00  0.00    -0.073 A 
ATOM      7  C8  UNL d   1      -0.989  -0.631   1.740  0.00  0.00     0.078 C 
ENDROOT
BRANCH   1   8
ATOM      8  C1  UNL d   1      -0.232   1.015  -0.675  0.00  0.00     0.053 C 
ATOM      9  C   UNL d   1       0.996   1.609  -0.000  0.00  0.00     0.018 C 
ENDBRANCH   1   8
TORSDOF 1
ENDMDL
