MODEL 1
REMARK minimizedAffinity -1.68329585
REMARK minimizedRMSD -1
REMARK  1 active torsions:
REMARK  status: ('A' for Active; 'I' for Inactive)
REMARK    1  A    between atoms: C1_2  and  C2_3 
ROOT
ATOM      1  C2  UNL d   1       0.381   0.318   0.364  0.00  0.00    -0.076 A 
ATOM      2  C3  UNL d   1       1.381  -0.532  -0.139  0.00  0.00     0.004 A 
ATOM      3  C4  UNL d   1       1.281  -1.916  -0.004  0.00  0.00    -0.003 A 
ATOM      4  C5  UNL d   1       0.179  -2.472   0.637  0.00  0.00     0.000 A 
ATOM      5  C6  UNL d   1      -0.831  -1.644   1.127  0.00  0.00     0.000 A 
ATOM      6  C7  UNL d   1      -0.753  -0.248   0.984  0.00  0.00    -0.073 A 
ATOM      7  C8  UNL d   1      -1.868   0.597   1.537  0.00  0.00     0.078 C 
ENDROOT
BRANCH   1   8
ATOM      8  C1  UNL d   1       0.557   1.812   0.212  0.00  0.00     0.053 C 
ATOM      9  C   UNL d   1       2.009   2.245   0.346  0.00  0.00     0.018 C 
ENDBRANCH   1   8
TORSDOF 1
ENDMDL
