MODEL 1
REMARK minimizedAffinity -4.3270731
REMARK minimizedRMSD -1
REMARK  1 active torsions:
REMARK  status: ('A' for Active; 'I' for Inactive)
REMARK    1  A    between atoms: C1_2  and  C2_3 
ROOT
ATOM      1  C2  UNL d   1      -0.081  -0.411   0.123  0.00  0.00    -0.076 A 
ATOM      2  C3  UNL d   1      -0.518   0.308  -1.003  0.00  0.00     0.004 A 
ATOM      3  C4  UNL d   1      -0.188  -0.107  -2.292  0.00  0.00    -0.003 A 
ATOM      4  C5  UNL d   1       0.584  -1.249  -2.476  0.00  0.00     0.000 A 
ATOM      5  C6  UNL d   1       1.011  -1.984  -1.371  0.00  0.00     0.000 A 
ATOM      6  C7  UNL d   1       0.673  -1.589  -0.065  0.00  0.00    -0.073 A 
ATOM      7  C8  UNL d   1       1.166  -2.416   1.090  0.00  0.00     0.078 C 
ENDROOT
BRANCH   1   8
ATOM      8  C1  UNL d   1      -0.447   0.103   1.497  0.00  0.00     0.053 C 
ATOM      9  C   UNL d   1      -1.816   0.765   1.526  0.00  0.00     0.018 C 
ENDBRANCH   1   8
TORSDOF 1
ENDMDL
