MODEL 1
REMARK minimizedAffinity -4.85739899
REMARK minimizedRMSD -1
REMARK  1 active torsions:
REMARK  status: ('A' for Active; 'I' for Inactive)
REMARK    1  A    between atoms: C1_2  and  C2_3 
ROOT
ATOM      1  C2  UNL d   1      -0.017  -0.568  -0.314  0.00  0.00    -0.076 A 
ATOM      2  C3  UNL d   1       0.381  -1.440  -1.342  0.00  0.00     0.004 A 
ATOM      3  C4  UNL d   1       0.082  -2.800  -1.286  0.00  0.00    -0.003 A 
ATOM      4  C5  UNL d   1      -0.621  -3.310  -0.200  0.00  0.00     0.000 A 
ATOM      5  C6  UNL d   1      -1.038  -2.457   0.821  0.00  0.00     0.000 A 
ATOM      6  C7  UNL d   1      -0.759  -1.080   0.772  0.00  0.00    -0.073 A 
ATOM      7  C8  UNL d   1      -1.228  -0.207   1.903  0.00  0.00     0.078 C 
ENDROOT
BRANCH   1   8
ATOM      8  C1  UNL d   1       0.360   0.893  -0.416  0.00  0.00     0.053 C 
ATOM      9  C   UNL d   1      -0.056   1.510  -1.743  0.00  0.00     0.018 C 
ENDBRANCH   1   8
TORSDOF 1
ENDMDL
