MODEL 1
REMARK minimizedAffinity -4.95345545
REMARK minimizedRMSD -1
REMARK  1 active torsions:
REMARK  status: ('A' for Active; 'I' for Inactive)
REMARK    1  A    between atoms: C1_2  and  C2_3 
ROOT
ATOM      1  C2  UNL d   1       0.045  -0.939  -0.431  0.00  0.00    -0.076 A 
ATOM      2  C3  UNL d   1       0.454  -0.687  -1.752  0.00  0.00     0.004 A 
ATOM      3  C4  UNL d   1       0.490  -1.709  -2.699  0.00  0.00    -0.003 A 
ATOM      4  C5  UNL d   1       0.117  -3.000  -2.340  0.00  0.00     0.000 A 
ATOM      5  C6  UNL d   1      -0.307  -3.264  -1.039  0.00  0.00     0.000 A 
ATOM      6  C7  UNL d   1      -0.365  -2.242  -0.076  0.00  0.00    -0.073 A 
ATOM      7  C8  UNL d   1      -0.826  -2.585   1.314  0.00  0.00     0.078 C 
ENDROOT
BRANCH   1   8
ATOM      8  C1  UNL d   1       0.052   0.203   0.560  0.00  0.00     0.053 C 
ATOM      9  C   UNL d   1       0.392   1.536  -0.090  0.00  0.00     0.018 C 
ENDBRANCH   1   8
TORSDOF 1
ENDMDL
