MODEL 1
REMARK minimizedAffinity -3.6861949
REMARK minimizedRMSD -1
REMARK  1 active torsions:
REMARK  status: ('A' for Active; 'I' for Inactive)
REMARK    1  A    between atoms: C1_2  and  C2_3 
ROOT
ATOM      1  C2  UNL d   1       0.917   1.409   0.297  0.00  0.00    -0.076 A 
ATOM      2  C3  UNL d   1       1.135   0.803   1.546  0.00  0.00     0.004 A 
ATOM      3  C4  UNL d   1       0.405  -0.319   1.935  0.00  0.00    -0.003 A 
ATOM      4  C5  UNL d   1      -0.553  -0.853   1.081  0.00  0.00     0.000 A 
ATOM      5  C6  UNL d   1      -0.770  -0.275  -0.169  0.00  0.00     0.000 A 
ATOM      6  C7  UNL d   1      -0.031   0.847  -0.584  0.00  0.00    -0.073 A 
ATOM      7  C8  UNL d   1      -0.310   1.433  -1.940  0.00  0.00     0.078 C 
ENDROOT
BRANCH   1   8
ATOM      8  C1  UNL d   1       1.720   2.640  -0.060  0.00  0.00     0.053 C 
ATOM      9  C   UNL d   1       1.509   3.779   0.926  0.00  0.00     0.018 C 
ENDBRANCH   1   8
TORSDOF 1
ENDMDL
