MODEL 1
REMARK minimizedAffinity -4.45873594
REMARK minimizedRMSD -1
REMARK  0 active torsions:
REMARK  status: ('A' for Active; 'I' for Inactive)
ROOT
ATOM      1  C1  BNZ d   1      -0.736  -0.075   0.069  0.00  0.00     0.000 A 
ATOM      2  C2  BNZ d   1      -0.795   0.690   1.203  0.00  0.00     0.000 A 
ATOM      3  C3  BNZ d   1       0.284   0.790   2.036  0.00  0.00     0.000 A 
ATOM      4  C4  BNZ d   1       1.405   0.095   1.756  0.00  0.00     0.000 A 
ATOM      5  C5  BNZ d   1       1.477  -0.688   0.621  0.00  0.00     0.000 A 
ATOM      6  C6  BNZ d   1       0.402  -0.756  -0.236  0.00  0.00     0.000 A 
ENDROOT
TORSDOF 0
ENDMDL
