MODEL 1
REMARK minimizedAffinity -4.96063423
REMARK minimizedRMSD -1
REMARK  0 active torsions:
REMARK  status: ('A' for Active; 'I' for Inactive)
ROOT
ATOM      1  C1  BNZ d   1      -0.769   0.977   2.981  0.00  0.00     0.000 A 
ATOM      2  C2  BNZ d   1       0.254   0.446   3.721  0.00  0.00     0.000 A 
ATOM      3  C3  BNZ d   1       1.388  -0.017   3.114  0.00  0.00     0.000 A 
ATOM      4  C4  BNZ d   1       1.481   0.013   1.769  0.00  0.00     0.000 A 
ATOM      5  C5  BNZ d   1       0.453   0.536   1.010  0.00  0.00     0.000 A 
ATOM      6  C6  BNZ d   1      -0.670   1.037   1.626  0.00  0.00     0.000 A 
ENDROOT
TORSDOF 0
ENDMDL
