MODEL 1
REMARK minimizedAffinity -4.9395051
REMARK minimizedRMSD -1
REMARK  0 active torsions:
REMARK  status: ('A' for Active; 'I' for Inactive)
ROOT
ATOM      1  C1  BNZ d   1       1.013  -0.261   1.015  0.00  0.00     0.000 A 
ATOM      2  C2  BNZ d   1       0.031  -0.482   0.086  0.00  0.00     0.000 A 
ATOM      3  C3  BNZ d   1      -1.263  -0.118   0.334  0.00  0.00     0.000 A 
ATOM      4  C4  BNZ d   1      -1.580   0.429   1.525  0.00  0.00     0.000 A 
ATOM      5  C5  BNZ d   1      -0.604   0.650   2.476  0.00  0.00     0.000 A 
ATOM      6  C6  BNZ d   1       0.704   0.318   2.207  0.00  0.00     0.000 A 
ENDROOT
TORSDOF 0
ENDMDL
