MODEL 1
REMARK minimizedAffinity -3.92330027
REMARK minimizedRMSD -1
REMARK  0 active torsions:
REMARK  status: ('A' for Active; 'I' for Inactive)
ROOT
ATOM      1  C1  BNZ d   1      -0.421  -0.265  -4.826  0.00  0.00     0.000 A 
ATOM      2  C2  BNZ d   1       0.305   0.437  -5.751  0.00  0.00     0.000 A 
ATOM      3  C3  BNZ d   1       1.354   1.224  -5.366  0.00  0.00     0.000 A 
ATOM      4  C4  BNZ d   1       1.650   1.340  -4.055  0.00  0.00     0.000 A 
ATOM      5  C5  BNZ d   1       0.921   0.646  -3.110  0.00  0.00     0.000 A 
ATOM      6  C6  BNZ d   1      -0.109  -0.176  -3.504  0.00  0.00     0.000 A 
ENDROOT
TORSDOF 0
ENDMDL
