MODEL 1
REMARK minimizedAffinity -3.96299624
REMARK minimizedRMSD -1
REMARK  0 active torsions:
REMARK  status: ('A' for Active; 'I' for Inactive)
ROOT
ATOM      1  C1  BNZ d   1      -1.029  -0.979   0.820  0.00  0.00     0.000 A 
ATOM      2  C2  BNZ d   1      -1.042   0.022   1.755  0.00  0.00     0.000 A 
ATOM      3  C3  BNZ d   1       0.060   0.804   1.958  0.00  0.00     0.000 A 
ATOM      4  C4  BNZ d   1       1.185   0.560   1.256  0.00  0.00     0.000 A 
ATOM      5  C5  BNZ d   1       1.217  -0.452   0.316  0.00  0.00     0.000 A 
ATOM      6  C6  BNZ d   1       0.094  -1.212   0.087  0.00  0.00     0.000 A 
ENDROOT
TORSDOF 0
ENDMDL
