MODEL 1
REMARK minimizedAffinity 4.45794582
REMARK minimizedRMSD -1
REMARK  1 active torsions:
REMARK  status: ('A' for Active; 'I' for Inactive)
REMARK    1  A    between atoms: C1_2  and  C2_3 
ROOT
ATOM      1  C2  UNL d   1       0.377   0.384   1.436  0.00  0.00    -0.073 A 
ATOM      2  C3  UNL d   1       0.602   0.177   2.802  0.00  0.00    -0.002 A 
ATOM      3  C4  UNL d   1       1.426  -0.866   3.230  0.00  0.00     0.004 A 
ATOM      4  C5  UNL d   1       2.037  -1.705   2.299  0.00  0.00    -0.004 A 
ATOM      5  C6  UNL d   1       1.834  -1.506   0.930  0.00  0.00    -0.075 A 
ATOM      6  C7  UNL d   1       2.483  -2.401  -0.085  0.00  0.00     0.076 C 
ATOM      7  C8  UNL d   1       1.004  -0.459   0.508  0.00  0.00     0.001 A 
ENDROOT
BRANCH   1   8
ATOM      8  C1  UNL d   1      -0.506   1.512   0.969  0.00  0.00     0.053 C 
ATOM      9  C   UNL d   1      -0.182   1.938  -0.454  0.00  0.00     0.018 C 
ENDBRANCH   1   8
TORSDOF 1
ENDMDL
