MODEL 1
REMARK minimizedAffinity 5.9592185
REMARK minimizedRMSD -1
REMARK  1 active torsions:
REMARK  status: ('A' for Active; 'I' for Inactive)
REMARK    1  A    between atoms: C1_2  and  C2_3 
ROOT
ATOM      1  C2  UNL d   1       1.160  -2.158   1.585  0.00  0.00    -0.073 A 
ATOM      2  C3  UNL d   1       1.381  -0.862   2.063  0.00  0.00    -0.002 A 
ATOM      3  C4  UNL d   1       0.352   0.081   2.046  0.00  0.00     0.004 A 
ATOM      4  C5  UNL d   1      -0.908  -0.265   1.558  0.00  0.00    -0.004 A 
ATOM      5  C6  UNL d   1      -1.152  -1.559   1.087  0.00  0.00    -0.075 A 
ATOM      6  C7  UNL d   1      -2.502  -1.946   0.557  0.00  0.00     0.076 C 
ATOM      7  C8  UNL d   1      -0.113  -2.499   1.105  0.00  0.00     0.001 A 
ENDROOT
BRANCH   1   8
ATOM      8  C1  UNL d   1       2.266  -3.181   1.608  0.00  0.00     0.053 C 
ATOM      9  C   UNL d   1       2.303  -3.952   2.918  0.00  0.00     0.018 C 
ENDBRANCH   1   8
TORSDOF 1
ENDMDL
