MODEL 1
REMARK minimizedAffinity 3.18577647
REMARK minimizedRMSD -1
REMARK  1 active torsions:
REMARK  status: ('A' for Active; 'I' for Inactive)
REMARK    1  A    between atoms: C1_2  and  C2_3 
ROOT
ATOM      1  C2  UNL d   1      -5.956   4.119  -0.034  0.00  0.00    -0.073 A 
ATOM      2  C3  UNL d   1      -5.949   2.792  -0.479  0.00  0.00    -0.002 A 
ATOM      3  C4  UNL d   1      -5.965   2.506  -1.845  0.00  0.00     0.004 A 
ATOM      4  C5  UNL d   1      -5.981   3.542  -2.779  0.00  0.00    -0.004 A 
ATOM      5  C6  UNL d   1      -5.976   4.874  -2.354  0.00  0.00    -0.075 A 
ATOM      6  C7  UNL d   1      -5.995   6.000  -3.346  0.00  0.00     0.076 C 
ATOM      7  C8  UNL d   1      -5.963   5.153  -0.981  0.00  0.00     0.001 A 
ENDROOT
BRANCH   1   8
ATOM      8  C1  UNL d   1      -5.932   4.432   1.439  0.00  0.00     0.053 C 
ATOM      9  C   UNL d   1      -5.998   3.175   2.291  0.00  0.00     0.018 C 
ENDBRANCH   1   8
TORSDOF 1
ENDMDL
