MODEL 1
REMARK minimizedAffinity 8.13520432
REMARK minimizedRMSD -1
REMARK  1 active torsions:
REMARK  status: ('A' for Active; 'I' for Inactive)
REMARK    1  A    between atoms: C1_2  and  C2_3 
ROOT
ATOM      1  C2  UNL d   1       1.418  -1.113   3.284  0.00  0.00    -0.073 A 
ATOM      2  C3  UNL d   1       2.298  -1.961   2.602  0.00  0.00    -0.002 A 
ATOM      3  C4  UNL d   1       2.321  -1.980   1.207  0.00  0.00     0.004 A 
ATOM      4  C5  UNL d   1       1.470  -1.147   0.480  0.00  0.00    -0.004 A 
ATOM      5  C6  UNL d   1       0.593  -0.284   1.143  0.00  0.00    -0.075 A 
ATOM      6  C7  UNL d   1      -0.330   0.617   0.375  0.00  0.00     0.076 C 
ATOM      7  C8  UNL d   1       0.574  -0.272   2.544  0.00  0.00     0.001 A 
ENDROOT
BRANCH   1   8
ATOM      8  C1  UNL d   1       1.395  -1.084   4.790  0.00  0.00     0.053 C 
ATOM      9  C   UNL d   1       1.801  -2.420   5.392  0.00  0.00     0.018 C 
ENDBRANCH   1   8
TORSDOF 1
ENDMDL
