MODEL 1
REMARK minimizedAffinity 4.21898317
REMARK minimizedRMSD -1
REMARK  1 active torsions:
REMARK  status: ('A' for Active; 'I' for Inactive)
REMARK    1  A    between atoms: C1_2  and  C2_3 
ROOT
ATOM      1  C2  UNL d   1       0.703  -2.436   1.246  0.00  0.00    -0.073 A 
ATOM      2  C3  UNL d   1      -0.408  -3.237   0.958  0.00  0.00    -0.002 A 
ATOM      3  C4  UNL d   1      -1.668  -2.662   0.788  0.00  0.00     0.004 A 
ATOM      4  C5  UNL d   1      -1.829  -1.281   0.897  0.00  0.00    -0.004 A 
ATOM      5  C6  UNL d   1      -0.730  -0.462   1.172  0.00  0.00    -0.075 A 
ATOM      6  C7  UNL d   1      -0.887   1.026   1.295  0.00  0.00     0.076 C 
ATOM      7  C8  UNL d   1       0.532  -1.047   1.344  0.00  0.00     0.001 A 
ENDROOT
BRANCH   1   8
ATOM      8  C1  UNL d   1       2.066  -3.052   1.423  0.00  0.00     0.053 C 
ATOM      9  C   UNL d   1       2.027  -4.271   2.331  0.00  0.00     0.018 C 
ENDBRANCH   1   8
TORSDOF 1
ENDMDL
