MODEL 1
REMARK minimizedAffinity 0.808120728
REMARK minimizedRMSD -1
REMARK  1 active torsions:
REMARK  status: ('A' for Active; 'I' for Inactive)
REMARK    1  A    between atoms: C1_2  and  C2_3 
ROOT
ATOM      1  C2  UNL d   1       2.415  -1.918   2.817  0.00  0.00    -0.073 A 
ATOM      2  C3  UNL d   1       1.503  -0.982   3.318  0.00  0.00    -0.002 A 
ATOM      3  C4  UNL d   1       1.186  -0.964   4.677  0.00  0.00     0.004 A 
ATOM      4  C5  UNL d   1       1.783  -1.875   5.549  0.00  0.00    -0.004 A 
ATOM      5  C6  UNL d   1       2.705  -2.810   5.069  0.00  0.00    -0.075 A 
ATOM      6  C7  UNL d   1       3.354  -3.798   5.993  0.00  0.00     0.076 C 
ATOM      7  C8  UNL d   1       3.016  -2.823   3.702  0.00  0.00     0.001 A 
ENDROOT
BRANCH   1   8
ATOM      8  C1  UNL d   1       2.764  -1.937   1.351  0.00  0.00     0.053 C 
ATOM      9  C   UNL d   1       2.585  -3.318   0.740  0.00  0.00     0.018 C 
ENDBRANCH   1   8
TORSDOF 1
ENDMDL
