MODEL 1
REMARK minimizedAffinity -4.45330429
REMARK minimizedRMSD -1
REMARK  2 active torsions:
REMARK  status: ('A' for Active; 'I' for Inactive)
REMARK    1  A    between atoms: C2'_3  and  C1'_4 
REMARK    2  A    between atoms: C1'_4  and  C1_5 
ROOT
ATOM      1  C1  I4B d   1      -0.688  -0.602  -0.233  0.00  0.00    -0.075 A 
ATOM      2  C2  I4B d   1       0.000   0.447  -0.792  0.00  0.00     0.003 A 
ATOM      3  C3  I4B d   1       0.538   1.466   0.032  0.00  0.00     0.002 A 
ATOM      4  C4  I4B d   1       0.323   1.423   1.394  0.00  0.00    -0.004 A 
ATOM      5  C5  I4B d   1      -0.355   0.347   1.961  0.00  0.00     0.002 A 
ATOM      6  C6  I4B d   1      -0.853  -0.678   1.143  0.00  0.00     0.003 A 
ENDROOT
BRANCH   1   7
ATOM      7  C1' I4B d   1      -1.271  -1.643  -1.135  0.00  0.00     0.060 C 
BRANCH   7   8
ATOM      8  C2' I4B d   1      -1.848  -0.940  -2.347  0.00  0.00    -0.013 C 
ATOM      9  C4' I4B d   1      -1.253  -1.476  -3.623  0.00  0.00     0.013 C 
ATOM     10  C3' I4B d   1      -3.336  -1.125  -2.325  0.00  0.00     0.013 C 
ENDBRANCH   7   8
ENDBRANCH   1   7
TORSDOF 2
ENDMDL
