MODEL 1
REMARK minimizedAffinity -2.27096415
REMARK minimizedRMSD -1
REMARK  2 active torsions:
REMARK  status: ('A' for Active; 'I' for Inactive)
REMARK    1  A    between atoms: C2'_3  and  C1'_4 
REMARK    2  A    between atoms: C1'_4  and  C1_5 
ROOT
ATOM      1  C1  I4B d   1       0.385   0.611   0.319  0.00  0.00    -0.075 A 
ATOM      2  C2  I4B d   1       1.693   0.404  -0.045  0.00  0.00     0.003 A 
ATOM      3  C3  I4B d   1       2.745   0.904   0.760  0.00  0.00     0.002 A 
ATOM      4  C4  I4B d   1       2.446   1.644   1.887  0.00  0.00    -0.004 A 
ATOM      5  C5  I4B d   1       1.120   1.833   2.267  0.00  0.00     0.002 A 
ATOM      6  C6  I4B d   1       0.083   1.303   1.485  0.00  0.00     0.003 A 
ENDROOT
BRANCH   1   7
ATOM      7  C1' I4B d   1      -0.701   0.098  -0.571  0.00  0.00     0.060 C 
BRANCH   7   8
ATOM      8  C2' I4B d   1      -0.276  -1.261  -1.090  0.00  0.00    -0.013 C 
ATOM      9  C4' I4B d   1      -0.572  -2.345  -0.087  0.00  0.00     0.013 C 
ATOM     10  C3' I4B d   1      -0.995  -1.509  -2.383  0.00  0.00     0.013 C 
ENDBRANCH   7   8
ENDBRANCH   1   7
TORSDOF 2
ENDMDL
