MODEL 1
REMARK minimizedAffinity -4.02890825
REMARK minimizedRMSD -1
REMARK  2 active torsions:
REMARK  status: ('A' for Active; 'I' for Inactive)
REMARK    1  A    between atoms: C2'_3  and  C1'_4 
REMARK    2  A    between atoms: C1'_4  and  C1_5 
ROOT
ATOM      1  C1  I4B d   1      -0.052  -0.465  -0.074  0.00  0.00    -0.075 A 
ATOM      2  C2  I4B d   1      -0.663  -0.411   1.154  0.00  0.00     0.003 A 
ATOM      3  C3  I4B d   1      -0.575   0.761   1.944  0.00  0.00     0.002 A 
ATOM      4  C4  I4B d   1       0.171   1.831   1.491  0.00  0.00    -0.004 A 
ATOM      5  C5  I4B d   1       0.770   1.783   0.236  0.00  0.00     0.002 A 
ATOM      6  C6  I4B d   1       0.648   0.633  -0.557  0.00  0.00     0.003 A 
ENDROOT
BRANCH   1   7
ATOM      7  C1' I4B d   1      -0.137  -1.730  -0.866  0.00  0.00     0.060 C 
BRANCH   7   8
ATOM      8  C2' I4B d   1      -1.283  -1.590  -1.847  0.00  0.00    -0.013 C 
ATOM      9  C4' I4B d   1      -0.791  -1.626  -3.270  0.00  0.00     0.013 C 
ATOM     10  C3' I4B d   1      -2.257  -2.700  -1.583  0.00  0.00     0.013 C 
ENDBRANCH   7   8
ENDBRANCH   1   7
TORSDOF 2
ENDMDL
