MODEL 1
REMARK minimizedAffinity -2.82641554
REMARK minimizedRMSD -1
REMARK  2 active torsions:
REMARK  status: ('A' for Active; 'I' for Inactive)
REMARK    1  A    between atoms: C2'_3  and  C1'_4 
REMARK    2  A    between atoms: C1'_4  and  C1_5 
ROOT
ATOM      1  C1  I4B d   1      -0.033  -0.186   0.182  0.00  0.00    -0.075 A 
ATOM      2  C2  I4B d   1      -0.427   0.032   1.479  0.00  0.00     0.003 A 
ATOM      3  C3  I4B d   1       0.007   1.188   2.172  0.00  0.00     0.002 A 
ATOM      4  C4  I4B d   1       0.869   2.068   1.551  0.00  0.00    -0.004 A 
ATOM      5  C5  I4B d   1       1.249   1.858   0.229  0.00  0.00     0.002 A 
ATOM      6  C6  I4B d   1       0.785   0.731  -0.465  0.00  0.00     0.003 A 
ENDROOT
BRANCH   1   7
ATOM      7  C1' I4B d   1      -0.484  -1.434  -0.508  0.00  0.00     0.060 C 
BRANCH   7   8
ATOM      8  C2' I4B d   1      -1.543  -1.050  -1.521  0.00  0.00    -0.013 C 
ATOM      9  C4' I4B d   1      -1.161  -1.500  -2.907  0.00  0.00     0.013 C 
ATOM     10  C3' I4B d   1      -2.841  -1.666  -1.091  0.00  0.00     0.013 C 
ENDBRANCH   7   8
ENDBRANCH   1   7
TORSDOF 2
ENDMDL
