MODEL 1
REMARK minimizedAffinity -1.53679657
REMARK minimizedRMSD -1
REMARK  2 active torsions:
REMARK  status: ('A' for Active; 'I' for Inactive)
REMARK    1  A    between atoms: C2'_3  and  C1'_4 
REMARK    2  A    between atoms: C1'_4  and  C1_5 
ROOT
ATOM      1  C1  I4B d   1       0.108  -0.407  -0.389  0.00  0.00    -0.075 A 
ATOM      2  C2  I4B d   1      -0.701  -0.399   0.720  0.00  0.00     0.003 A 
ATOM      3  C3  I4B d   1      -0.540   0.598   1.712  0.00  0.00     0.002 A 
ATOM      4  C4  I4B d   1       0.469   1.530   1.581  0.00  0.00    -0.004 A 
ATOM      5  C5  I4B d   1       1.273   1.534   0.445  0.00  0.00     0.002 A 
ATOM      6  C6  I4B d   1       1.084   0.567  -0.553  0.00  0.00     0.003 A 
ENDROOT
BRANCH   1   7
ATOM      7  C1' I4B d   1      -0.068  -1.494  -1.402  0.00  0.00     0.060 C 
BRANCH   7   8
ATOM      8  C2' I4B d   1      -1.246  -1.126  -2.281  0.00  0.00    -0.013 C 
ATOM      9  C4' I4B d   1      -0.853  -1.099  -3.735  0.00  0.00     0.013 C 
ATOM     10  C3' I4B d   1      -2.338  -2.124  -2.034  0.00  0.00     0.013 C 
ENDBRANCH   7   8
ENDBRANCH   1   7
TORSDOF 2
ENDMDL
