MODEL 1
REMARK minimizedAffinity -2.36217976
REMARK minimizedRMSD -1
REMARK  2 active torsions:
REMARK  status: ('A' for Active; 'I' for Inactive)
REMARK    1  A    between atoms: C2'_3  and  C1'_4 
REMARK    2  A    between atoms: C1'_4  and  C1_5 
ROOT
ATOM      1  C1  I4B d   1      -1.311  -1.547  -1.652  0.00  0.00    -0.075 A 
ATOM      2  C2  I4B d   1      -2.497  -2.075  -1.205  0.00  0.00     0.003 A 
ATOM      3  C3  I4B d   1      -3.636  -2.083  -2.046  0.00  0.00     0.002 A 
ATOM      4  C4  I4B d   1      -3.559  -1.512  -3.299  0.00  0.00    -0.004 A 
ATOM      5  C5  I4B d   1      -2.351  -0.998  -3.760  0.00  0.00     0.002 A 
ATOM      6  C6  I4B d   1      -1.216  -1.026  -2.936  0.00  0.00     0.003 A 
ENDROOT
BRANCH   1   7
ATOM      7  C1' I4B d   1      -0.137  -1.525  -0.726  0.00  0.00     0.060 C 
BRANCH   7   8
ATOM      8  C2' I4B d   1       0.224  -0.077  -0.465  0.00  0.00    -0.013 C 
ATOM      9  C4' I4B d   1      -0.280   0.376   0.880  0.00  0.00     0.013 C 
ATOM     10  C3' I4B d   1       1.716   0.051  -0.555  0.00  0.00     0.013 C 
ENDBRANCH   7   8
ENDBRANCH   1   7
TORSDOF 2
ENDMDL
