MODEL 1
REMARK minimizedAffinity -2.58525181
REMARK minimizedRMSD -1
REMARK  2 active torsions:
REMARK  status: ('A' for Active; 'I' for Inactive)
REMARK    1  A    between atoms: C2'_3  and  C1'_4 
REMARK    2  A    between atoms: C1'_4  and  C1_5 
ROOT
ATOM      1  C1  I4B d   1      -0.127  -0.231   0.143  0.00  0.00    -0.075 A 
ATOM      2  C2  I4B d   1       1.106   0.369   0.212  0.00  0.00     0.003 A 
ATOM      3  C3  I4B d   1       1.295   1.515   1.023  0.00  0.00     0.002 A 
ATOM      4  C4  I4B d   1       0.221   2.052   1.702  0.00  0.00    -0.004 A 
ATOM      5  C5  I4B d   1      -1.022   1.429   1.648  0.00  0.00     0.002 A 
ATOM      6  C6  I4B d   1      -1.195   0.272   0.873  0.00  0.00     0.003 A 
ENDROOT
BRANCH   1   7
ATOM      7  C1' I4B d   1      -0.299  -1.420  -0.749  0.00  0.00     0.060 C 
BRANCH   7   8
ATOM      8  C2' I4B d   1      -1.728  -1.421  -1.253  0.00  0.00    -0.013 C 
ATOM      9  C4' I4B d   1      -1.778  -1.282  -2.752  0.00  0.00     0.013 C 
ATOM     10  C3' I4B d   1      -2.376  -2.698  -0.806  0.00  0.00     0.013 C 
ENDBRANCH   7   8
ENDBRANCH   1   7
TORSDOF 2
ENDMDL
