MODEL 1
REMARK minimizedAffinity -4.07359838
REMARK minimizedRMSD -1
REMARK  2 active torsions:
REMARK  status: ('A' for Active; 'I' for Inactive)
REMARK    1  A    between atoms: C2'_3  and  C1'_4 
REMARK    2  A    between atoms: C1'_4  and  C1_5 
ROOT
ATOM      1  C1  I4B d   1      -1.077  -1.525  -1.607  0.00  0.00    -0.075 A 
ATOM      2  C2  I4B d   1      -1.203  -0.826  -2.782  0.00  0.00     0.003 A 
ATOM      3  C3  I4B d   1      -2.275  -1.103  -3.664  0.00  0.00     0.002 A 
ATOM      4  C4  I4B d   1      -3.162  -2.114  -3.359  0.00  0.00    -0.004 A 
ATOM      5  C5  I4B d   1      -3.046  -2.807  -2.157  0.00  0.00     0.002 A 
ATOM      6  C6  I4B d   1      -2.004  -2.502  -1.270  0.00  0.00     0.003 A 
ENDROOT
BRANCH   1   7
ATOM      7  C1' I4B d   1       0.086  -1.230  -0.714  0.00  0.00     0.060 C 
BRANCH   7   8
ATOM      8  C2' I4B d   1      -0.093   0.170  -0.162  0.00  0.00    -0.013 C 
ATOM      9  C4' I4B d   1      -0.727   0.139   1.204  0.00  0.00     0.013 C 
ATOM     10  C3' I4B d   1       1.254   0.827  -0.119  0.00  0.00     0.013 C 
ENDBRANCH   7   8
ENDBRANCH   1   7
TORSDOF 2
ENDMDL
