MODEL 1
REMARK minimizedAffinity -1.15905619
REMARK minimizedRMSD -1
REMARK  0 active torsions:
REMARK  status: ('A' for Active; 'I' for Inactive)
ROOT
ATOM      1  C   UNL d   1       3.294  -2.230   1.343  0.00  0.00    -0.002 A 
ATOM      2  C1  UNL d   1       3.193  -1.864   0.009  0.00  0.00     0.010 A 
ATOM      3  C2  UNL d   1       2.069  -1.179  -0.457  0.00  0.00     0.041 A 
ATOM      4  C3  UNL d   1       1.038  -0.864   0.450  0.00  0.00    -0.075 A 
ATOM      5  S   UNL d   1      -0.431  -0.031   0.106  0.00  0.00     0.015 SA
ATOM      6  C4  UNL d   1      -0.960  -0.141   1.723  0.00  0.00     0.022 A 
ATOM      7  C5  UNL d   1      -0.050  -0.795   2.519  0.00  0.00     0.026 A 
ATOM      8  C6  UNL d   1       1.117  -1.222   1.799  0.00  0.00    -0.082 A 
ATOM      9  C7  UNL d   1       2.269  -1.916   2.240  0.00  0.00     0.045 A 
ENDROOT
TORSDOF 0
ENDMDL
