MODEL 1
REMARK minimizedAffinity -2.09120846
REMARK minimizedRMSD -1
REMARK  0 active torsions:
REMARK  status: ('A' for Active; 'I' for Inactive)
ROOT
ATOM      1  C   UNL d   1       1.411  -1.322   2.950  0.00  0.00    -0.002 A 
ATOM      2  C1  UNL d   1       2.373  -1.823   2.085  0.00  0.00     0.010 A 
ATOM      3  C2  UNL d   1       2.277  -1.600   0.710  0.00  0.00     0.041 A 
ATOM      4  C3  UNL d   1       1.188  -0.857   0.214  0.00  0.00    -0.075 A 
ATOM      5  S   UNL d   1       0.864  -0.458  -1.432  0.00  0.00     0.015 SA
ATOM      6  C4  UNL d   1      -0.559   0.387  -1.025  0.00  0.00     0.022 A 
ATOM      7  C5  UNL d   1      -0.797   0.374   0.329  0.00  0.00     0.026 A 
ATOM      8  C6  UNL d   1       0.206  -0.342   1.066  0.00  0.00    -0.082 A 
ATOM      9  C7  UNL d   1       0.331  -0.586   2.455  0.00  0.00     0.045 A 
ENDROOT
TORSDOF 0
ENDMDL
