MODEL 1
REMARK minimizedAffinity -5.20326567
REMARK minimizedRMSD -1
REMARK  0 active torsions:
REMARK  status: ('A' for Active; 'I' for Inactive)
ROOT
ATOM      1  C   UNL d   1       1.989  -1.573   2.314  0.00  0.00    -0.002 A 
ATOM      2  C1  UNL d   1       2.746  -1.804   1.174  0.00  0.00     0.010 A 
ATOM      3  C2  UNL d   1       2.253  -1.464  -0.087  0.00  0.00     0.041 A 
ATOM      4  C3  UNL d   1       0.974  -0.881  -0.184  0.00  0.00    -0.075 A 
ATOM      5  S   UNL d   1       0.166  -0.381  -1.623  0.00  0.00     0.015 SA
ATOM      6  C4  UNL d   1      -1.203   0.151  -0.758  0.00  0.00     0.022 A 
ATOM      7  C5  UNL d   1      -1.064  -0.040   0.597  0.00  0.00     0.026 A 
ATOM      8  C6  UNL d   1       0.194  -0.637   0.950  0.00  0.00    -0.082 A 
ATOM      9  C7  UNL d   1       0.722  -0.994   2.214  0.00  0.00     0.045 A 
ENDROOT
TORSDOF 0
ENDMDL
