MODEL 1
REMARK minimizedAffinity -5.40363216
REMARK minimizedRMSD -1
REMARK  0 active torsions:
REMARK  status: ('A' for Active; 'I' for Inactive)
ROOT
ATOM      1  C   UNL d   1       1.688  -1.120   2.627  0.00  0.00    -0.002 A 
ATOM      2  C1  UNL d   1       2.644  -1.362   1.651  0.00  0.00     0.010 A 
ATOM      3  C2  UNL d   1       2.339  -1.186   0.300  0.00  0.00     0.041 A 
ATOM      4  C3  UNL d   1       1.046  -0.757  -0.057  0.00  0.00    -0.075 A 
ATOM      5  S   UNL d   1       0.447  -0.473  -1.649  0.00  0.00     0.015 SA
ATOM      6  C4  UNL d   1      -1.092  -0.023  -1.070  0.00  0.00     0.022 A 
ATOM      7  C5  UNL d   1      -1.165  -0.082   0.302  0.00  0.00     0.026 A 
ATOM      8  C6  UNL d   1       0.066  -0.506   0.908  0.00  0.00    -0.082 A 
ATOM      9  C7  UNL d   1       0.406  -0.695   2.270  0.00  0.00     0.045 A 
ENDROOT
TORSDOF 0
ENDMDL
