MODEL 1
REMARK minimizedAffinity -2.25009537
REMARK minimizedRMSD -1
REMARK  0 active torsions:
REMARK  status: ('A' for Active; 'I' for Inactive)
ROOT
ATOM      1  C   UNL d   1       2.762  -1.624   1.575  0.00  0.00    -0.002 A 
ATOM      2  C1  UNL d   1       1.913  -1.501   2.666  0.00  0.00     0.010 A 
ATOM      3  C2  UNL d   1       0.656  -0.911   2.524  0.00  0.00     0.041 A 
ATOM      4  C3  UNL d   1       0.261  -0.445   1.255  0.00  0.00    -0.075 A 
ATOM      5  S   UNL d   1      -1.233   0.310   0.843  0.00  0.00     0.015 SA
ATOM      6  C4  UNL d   1      -0.781   0.486  -0.790  0.00  0.00     0.022 A 
ATOM      7  C5  UNL d   1       0.477  -0.014  -1.033  0.00  0.00     0.026 A 
ATOM      8  C6  UNL d   1       1.098  -0.559   0.141  0.00  0.00    -0.082 A 
ATOM      9  C7  UNL d   1       2.367  -1.161   0.318  0.00  0.00     0.045 A 
ENDROOT
TORSDOF 0
ENDMDL
