MODEL 1
REMARK minimizedAffinity 14.2507963
REMARK minimizedRMSD -1
REMARK  1 active torsions:
REMARK  status: ('A' for Active; 'I' for Inactive)
REMARK    1  A    between atoms: C1_2  and  C2_3 
ROOT
ATOM      1  C2  UNL d   1       1.050  -1.914   2.867  0.00  0.00    -0.076 A 
ATOM      2  C3  UNL d   1       1.792  -2.729   1.995  0.00  0.00     0.004 A 
ATOM      3  C4  UNL d   1       2.526  -2.176   0.947  0.00  0.00    -0.003 A 
ATOM      4  C5  UNL d   1       2.530  -0.799   0.754  0.00  0.00     0.000 A 
ATOM      5  C6  UNL d   1       1.813   0.026   1.620  0.00  0.00     0.000 A 
ATOM      6  C7  UNL d   1       1.082  -0.514   2.692  0.00  0.00    -0.073 A 
ATOM      7  C8  UNL d   1       0.322   0.422   3.591  0.00  0.00     0.078 C 
ENDROOT
BRANCH   1   8
ATOM      8  C1  UNL d   1       0.251  -2.572   3.970  0.00  0.00     0.053 C 
ATOM      9  C   UNL d   1       1.132  -3.097   5.093  0.00  0.00     0.018 C 
ENDBRANCH   1   8
TORSDOF 1
ENDMDL
