MODEL 1
REMARK minimizedAffinity 16.4927959
REMARK minimizedRMSD -1
REMARK  1 active torsions:
REMARK  status: ('A' for Active; 'I' for Inactive)
REMARK    1  A    between atoms: C1_2  and  C2_3 
ROOT
ATOM      1  C2  UNL d   1       2.945   3.056   0.904  0.00  0.00    -0.076 A 
ATOM      2  C3  UNL d   1       2.877   2.811  -0.478  0.00  0.00     0.004 A 
ATOM      3  C4  UNL d   1       2.347   1.620  -0.971  0.00  0.00    -0.003 A 
ATOM      4  C5  UNL d   1       1.876   0.654  -0.088  0.00  0.00     0.000 A 
ATOM      5  C6  UNL d   1       1.920   0.887   1.286  0.00  0.00     0.000 A 
ATOM      6  C7  UNL d   1       2.436   2.090   1.798  0.00  0.00    -0.073 A 
ATOM      7  C8  UNL d   1       2.465   2.286   3.289  0.00  0.00     0.078 C 
ENDROOT
BRANCH   1   8
ATOM      8  C1  UNL d   1       3.556   4.355   1.381  0.00  0.00     0.053 C 
ATOM      9  C   UNL d   1       4.699   4.822   0.493  0.00  0.00     0.018 C 
ENDBRANCH   1   8
TORSDOF 1
ENDMDL
