MODEL 1
REMARK minimizedAffinity 6.72839975
REMARK minimizedRMSD -1
REMARK  1 active torsions:
REMARK  status: ('A' for Active; 'I' for Inactive)
REMARK    1  A    between atoms: C1_2  and  C2_3 
ROOT
ATOM      1  C2  UNL d   1       1.391  -1.112  -0.502  0.00  0.00    -0.076 A 
ATOM      2  C3  UNL d   1       1.038   0.048   0.209  0.00  0.00     0.004 A 
ATOM      3  C4  UNL d   1       1.853   1.179   0.189  0.00  0.00    -0.003 A 
ATOM      4  C5  UNL d   1       3.035   1.168  -0.545  0.00  0.00     0.000 A 
ATOM      5  C6  UNL d   1       3.391   0.032  -1.271  0.00  0.00     0.000 A 
ATOM      6  C7  UNL d   1       2.572  -1.110  -1.274  0.00  0.00    -0.073 A 
ATOM      7  C8  UNL d   1       3.009  -2.310  -2.070  0.00  0.00     0.078 C 
ENDROOT
BRANCH   1   8
ATOM      8  C1  UNL d   1       0.481  -2.316  -0.420  0.00  0.00     0.053 C 
ATOM      9  C   UNL d   1      -0.765  -2.165  -1.279  0.00  0.00     0.018 C 
ENDBRANCH   1   8
TORSDOF 1
ENDMDL
