MODEL 1
REMARK minimizedAffinity 2.95950603
REMARK minimizedRMSD -1
REMARK  1 active torsions:
REMARK  status: ('A' for Active; 'I' for Inactive)
REMARK    1  A    between atoms: C1_2  and  C2_3 
ROOT
ATOM      1  C2  UNL d   1       1.343  -0.803  -0.453  0.00  0.00    -0.076 A 
ATOM      2  C3  UNL d   1       1.286   0.541  -0.044  0.00  0.00     0.004 A 
ATOM      3  C4  UNL d   1       2.321   1.426  -0.342  0.00  0.00    -0.003 A 
ATOM      4  C5  UNL d   1       3.430   0.982  -1.054  0.00  0.00     0.000 A 
ATOM      5  C6  UNL d   1       3.495  -0.344  -1.482  0.00  0.00     0.000 A 
ATOM      6  C7  UNL d   1       2.453  -1.245  -1.205  0.00  0.00    -0.073 A 
ATOM      7  C8  UNL d   1       2.579  -2.664  -1.686  0.00  0.00     0.078 C 
ENDROOT
BRANCH   1   8
ATOM      8  C1  UNL d   1       0.204  -1.723  -0.078  0.00  0.00     0.053 C 
ATOM      9  C   UNL d   1      -0.801  -1.896  -1.206  0.00  0.00     0.018 C 
ENDBRANCH   1   8
TORSDOF 1
ENDMDL
