MODEL 1
REMARK minimizedAffinity 12.2722244
REMARK minimizedRMSD -1
REMARK  1 active torsions:
REMARK  status: ('A' for Active; 'I' for Inactive)
REMARK    1  A    between atoms: C1_2  and  C2_3 
ROOT
ATOM      1  C2  UNL d   1      -3.767   0.219  -1.244  0.00  0.00    -0.076 A 
ATOM      2  C3  UNL d   1      -3.511  -0.256  -2.542  0.00  0.00     0.004 A 
ATOM      3  C4  UNL d   1      -2.206  -0.402  -3.007  0.00  0.00    -0.003 A 
ATOM      4  C5  UNL d   1      -1.135  -0.077  -2.182  0.00  0.00     0.000 A 
ATOM      5  C6  UNL d   1      -1.370   0.378  -0.885  0.00  0.00     0.000 A 
ATOM      6  C7  UNL d   1      -2.680   0.516  -0.395  0.00  0.00    -0.073 A 
ATOM      7  C8  UNL d   1      -2.876   1.017   1.010  0.00  0.00     0.078 C 
ENDROOT
BRANCH   1   8
ATOM      8  C1  UNL d   1      -5.205   0.382  -0.803  0.00  0.00     0.053 C 
ATOM      9  C   UNL d   1      -5.999   1.289  -1.731  0.00  0.00     0.018 C 
ENDBRANCH   1   8
TORSDOF 1
ENDMDL
