MODEL 1
REMARK minimizedAffinity 2.13965583
REMARK minimizedRMSD -1
REMARK  0 active torsions:
REMARK  status: ('A' for Active; 'I' for Inactive)
ROOT
ATOM      1  C1  DEN d   1       1.915   1.493  -1.574  0.00  0.00     0.130 A 
ATOM      2  C2  DEN d   1       2.159   2.320  -0.396  0.00  0.00    -0.031 A 
ATOM      3  C3  DEN d   1       1.316   1.808   0.704  0.00  0.00     0.027 A 
ATOM      4  C4  DEN d   1      -0.329  -0.178   0.696  0.00  0.00     0.027 A 
ATOM      5  C5  DEN d   1      -0.882  -1.175  -0.077  0.00  0.00    -0.003 A 
ATOM      6  C6  DEN d   1      -0.570  -1.330  -1.402  0.00  0.00     0.001 A 
ATOM      7  C7  DEN d   1       0.355  -0.502  -1.982  0.00  0.00     0.017 A 
ATOM      8  C8  DEN d   1       0.911   0.510  -1.211  0.00  0.00    -0.094 A 
ATOM      9  C9  DEN d   1       0.591   0.642   0.130  0.00  0.00    -0.072 A 
ENDROOT
TORSDOF 0
ENDMDL
