MODEL 1
REMARK minimizedAffinity -2.62629056
REMARK minimizedRMSD -1
REMARK  0 active torsions:
REMARK  status: ('A' for Active; 'I' for Inactive)
ROOT
ATOM      1  C1  DEN d   1      -3.099   2.412  -5.950  0.00  0.00     0.130 A 
ATOM      2  C2  DEN d   1      -4.314   3.221  -5.977  0.00  0.00    -0.031 A 
ATOM      3  C3  DEN d   1      -5.472   2.304  -6.000  0.00  0.00     0.027 A 
ATOM      4  C4  DEN d   1      -5.500  -0.275  -5.992  0.00  0.00     0.027 A 
ATOM      5  C5  DEN d   1      -4.714  -1.406  -5.984  0.00  0.00    -0.003 A 
ATOM      6  C6  DEN d   1      -3.346  -1.344  -5.999  0.00  0.00     0.001 A 
ATOM      7  C7  DEN d   1      -2.721  -0.125  -5.977  0.00  0.00     0.017 A 
ATOM      8  C8  DEN d   1      -3.506   1.019  -5.992  0.00  0.00    -0.094 A 
ATOM      9  C9  DEN d   1      -4.888   0.936  -5.964  0.00  0.00    -0.072 A 
ENDROOT
TORSDOF 0
ENDMDL
