MODEL 1
REMARK minimizedAffinity 1.47880244
REMARK minimizedRMSD -1
REMARK  0 active torsions:
REMARK  status: ('A' for Active; 'I' for Inactive)
ROOT
ATOM      1  C1  DEN d   1      -5.953   3.713  -5.998  0.00  0.00     0.130 A 
ATOM      2  C2  DEN d   1      -5.387   5.059  -5.965  0.00  0.00    -0.031 A 
ATOM      3  C3  DEN d   1      -3.916   4.935  -5.950  0.00  0.00     0.027 A 
ATOM      4  C4  DEN d   1      -2.467   2.801  -5.981  0.00  0.00     0.027 A 
ATOM      5  C5  DEN d   1      -2.497   1.424  -5.999  0.00  0.00    -0.003 A 
ATOM      6  C6  DEN d   1      -3.671   0.719  -5.983  0.00  0.00     0.001 A 
ATOM      7  C7  DEN d   1      -4.865   1.389  -5.994  0.00  0.00     0.017 A 
ATOM      8  C8  DEN d   1      -4.843   2.778  -5.970  0.00  0.00    -0.094 A 
ATOM      9  C9  DEN d   1      -3.646   3.472  -5.998  0.00  0.00    -0.072 A 
ENDROOT
TORSDOF 0
ENDMDL
