MODEL 1
REMARK minimizedAffinity -2.05181456
REMARK minimizedRMSD -1
REMARK  0 active torsions:
REMARK  status: ('A' for Active; 'I' for Inactive)
ROOT
ATOM      1  C1  DEN d   1      -2.638   2.181  -5.996  0.00  0.00     0.130 A 
ATOM      2  C2  DEN d   1      -3.373   0.919  -6.000  0.00  0.00    -0.031 A 
ATOM      3  C3  DEN d   1      -4.816   1.232  -5.984  0.00  0.00     0.027 A 
ATOM      4  C4  DEN d   1      -5.977   3.535  -5.959  0.00  0.00     0.027 A 
ATOM      5  C5  DEN d   1      -5.770   4.896  -5.938  0.00  0.00    -0.003 A 
ATOM      6  C6  DEN d   1      -4.514   5.443  -5.902  0.00  0.00     0.001 A 
ATOM      7  C7  DEN d   1      -3.416   4.624  -5.930  0.00  0.00     0.017 A 
ATOM      8  C8  DEN d   1      -3.617   3.250  -5.943  0.00  0.00    -0.094 A 
ATOM      9  C9  DEN d   1      -4.894   2.717  -5.992  0.00  0.00    -0.072 A 
ENDROOT
TORSDOF 0
ENDMDL
