MODEL 1
REMARK minimizedAffinity -0.313044935
REMARK minimizedRMSD -1
REMARK  0 active torsions:
REMARK  status: ('A' for Active; 'I' for Inactive)
ROOT
ATOM      1  C1  DEN d   1      -2.599   2.713  -5.995  0.00  0.00     0.130 A 
ATOM      2  C2  DEN d   1      -3.311   1.439  -5.966  0.00  0.00    -0.031 A 
ATOM      3  C3  DEN d   1      -4.759   1.726  -5.948  0.00  0.00     0.027 A 
ATOM      4  C4  DEN d   1      -5.962   4.007  -5.969  0.00  0.00     0.027 A 
ATOM      5  C5  DEN d   1      -5.779   5.373  -5.981  0.00  0.00    -0.003 A 
ATOM      6  C6  DEN d   1      -4.534   5.943  -5.964  0.00  0.00     0.001 A 
ATOM      7  C7  DEN d   1      -3.421   5.144  -5.980  0.00  0.00     0.017 A 
ATOM      8  C8  DEN d   1      -3.598   3.766  -5.961  0.00  0.00    -0.094 A 
ATOM      9  C9  DEN d   1      -4.865   3.209  -5.990  0.00  0.00    -0.072 A 
ENDROOT
TORSDOF 0
ENDMDL
