MODEL 1
REMARK minimizedAffinity 2.66878438
REMARK minimizedRMSD -1
REMARK  0 active torsions:
REMARK  status: ('A' for Active; 'I' for Inactive)
ROOT
ATOM      1  C1  DEN d   1      -5.717   4.025  -5.983  0.00  0.00     0.130 A 
ATOM      2  C2  DEN d   1      -4.532   4.879  -5.962  0.00  0.00    -0.031 A 
ATOM      3  C3  DEN d   1      -3.341   4.006  -5.958  0.00  0.00     0.027 A 
ATOM      4  C4  DEN d   1      -3.217   1.430  -5.989  0.00  0.00     0.027 A 
ATOM      5  C5  DEN d   1      -3.961   0.270  -5.998  0.00  0.00    -0.003 A 
ATOM      6  C6  DEN d   1      -5.330   0.280  -5.969  0.00  0.00     0.001 A 
ATOM      7  C7  DEN d   1      -6.000   1.475  -5.974  0.00  0.00     0.017 A 
ATOM      8  C8  DEN d   1      -5.257   2.649  -5.958  0.00  0.00    -0.094 A 
ATOM      9  C9  DEN d   1      -3.874   2.617  -6.000  0.00  0.00    -0.072 A 
ENDROOT
TORSDOF 0
ENDMDL
