MODEL 1
REMARK minimizedAffinity -2.84076786
REMARK minimizedRMSD -1
REMARK  0 active torsions:
REMARK  status: ('A' for Active; 'I' for Inactive)
ROOT
ATOM      1  C1  DEN d   1      -2.899  -0.442  -5.979  0.00  0.00     0.130 A 
ATOM      2  C2  DEN d   1      -4.197  -1.111  -5.985  0.00  0.00    -0.031 A 
ATOM      3  C3  DEN d   1      -5.246  -0.074  -5.924  0.00  0.00     0.027 A 
ATOM      4  C4  DEN d   1      -4.988   2.491  -5.826  0.00  0.00     0.027 A 
ATOM      5  C5  DEN d   1      -4.082   3.527  -5.787  0.00  0.00    -0.003 A 
ATOM      6  C6  DEN d   1      -2.729   3.314  -5.775  0.00  0.00     0.001 A 
ATOM      7  C7  DEN d   1      -2.243   2.035  -5.848  0.00  0.00     0.017 A 
ATOM      8  C8  DEN d   1      -3.150   0.985  -5.880  0.00  0.00    -0.094 A 
ATOM      9  C9  DEN d   1      -4.514   1.221  -5.904  0.00  0.00    -0.072 A 
ENDROOT
TORSDOF 0
ENDMDL
