MODEL 1
REMARK minimizedAffinity 0.48487705
REMARK minimizedRMSD -1
REMARK  0 active torsions:
REMARK  status: ('A' for Active; 'I' for Inactive)
ROOT
ATOM      1  C1  DEN d   1      -5.997  -0.873  -5.933  0.00  0.00     0.130 A 
ATOM      2  C2  DEN d   1      -5.066  -1.997  -5.891  0.00  0.00    -0.031 A 
ATOM      3  C3  DEN d   1      -3.694  -1.452  -5.858  0.00  0.00     0.027 A 
ATOM      4  C4  DEN d   1      -2.925   1.009  -5.864  0.00  0.00     0.027 A 
ATOM      5  C5  DEN d   1      -3.351   2.319  -5.905  0.00  0.00    -0.003 A 
ATOM      6  C6  DEN d   1      -4.676   2.653  -5.992  0.00  0.00     0.001 A 
ATOM      7  C7  DEN d   1      -5.626   1.665  -5.995  0.00  0.00     0.017 A 
ATOM      8  C8  DEN d   1      -5.204   0.343  -5.961  0.00  0.00    -0.094 A 
ATOM      9  C9  DEN d   1      -3.860   0.026  -5.861  0.00  0.00    -0.072 A 
ENDROOT
TORSDOF 0
ENDMDL
