MODEL 1
REMARK minimizedAffinity -0.461628228
REMARK minimizedRMSD -1
REMARK  0 active torsions:
REMARK  status: ('A' for Active; 'I' for Inactive)
ROOT
ATOM      1  C1  DEN d   1      -5.300   3.951  -5.998  0.00  0.00     0.130 A 
ATOM      2  C2  DEN d   1      -4.836   5.335  -5.929  0.00  0.00    -0.031 A 
ATOM      3  C3  DEN d   1      -3.361   5.320  -5.876  0.00  0.00     0.027 A 
ATOM      4  C4  DEN d   1      -1.757   3.300  -5.900  0.00  0.00     0.027 A 
ATOM      5  C5  DEN d   1      -1.683   1.925  -5.938  0.00  0.00    -0.003 A 
ATOM      6  C6  DEN d   1      -2.802   1.135  -5.965  0.00  0.00     0.001 A 
ATOM      7  C7  DEN d   1      -4.042   1.715  -6.000  0.00  0.00     0.017 A 
ATOM      8  C8  DEN d   1      -4.124   3.100  -5.953  0.00  0.00    -0.094 A 
ATOM      9  C9  DEN d   1      -2.982   3.882  -5.939  0.00  0.00    -0.072 A 
ENDROOT
TORSDOF 0
ENDMDL
