MODEL 1
REMARK minimizedAffinity -3.56865525
REMARK minimizedRMSD -1
REMARK  0 active torsions:
REMARK  status: ('A' for Active; 'I' for Inactive)
ROOT
ATOM      1  C1  DEN d   1      -3.728   4.078  -5.903  0.00  0.00     0.130 A 
ATOM      2  C2  DEN d   1      -5.125   4.500  -5.929  0.00  0.00    -0.031 A 
ATOM      3  C3  DEN d   1      -5.968   3.288  -5.973  0.00  0.00     0.027 A 
ATOM      4  C4  DEN d   1      -5.248   0.812  -5.996  0.00  0.00     0.027 A 
ATOM      5  C5  DEN d   1      -4.168  -0.043  -5.996  0.00  0.00    -0.003 A 
ATOM      6  C6  DEN d   1      -2.876   0.412  -6.000  0.00  0.00     0.001 A 
ATOM      7  C7  DEN d   1      -2.631   1.759  -5.957  0.00  0.00     0.017 A 
ATOM      8  C8  DEN d   1      -3.714   2.627  -5.964  0.00  0.00    -0.094 A 
ATOM      9  C9  DEN d   1      -5.013   2.147  -5.949  0.00  0.00    -0.072 A 
ENDROOT
TORSDOF 0
ENDMDL
