MODEL 1
REMARK minimizedAffinity 2.81675553
REMARK minimizedRMSD -1
REMARK  0 active torsions:
REMARK  status: ('A' for Active; 'I' for Inactive)
ROOT
ATOM      1  C1  DEN d   1      -3.467  -0.670  -5.980  0.00  0.00     0.130 A 
ATOM      2  C2  DEN d   1      -4.871  -1.072  -5.955  0.00  0.00    -0.031 A 
ATOM      3  C3  DEN d   1      -5.696   0.152  -5.950  0.00  0.00     0.027 A 
ATOM      4  C4  DEN d   1      -4.941   2.618  -5.985  0.00  0.00     0.027 A 
ATOM      5  C5  DEN d   1      -3.849   3.458  -5.997  0.00  0.00    -0.003 A 
ATOM      6  C6  DEN d   1      -2.564   2.985  -5.971  0.00  0.00     0.001 A 
ATOM      7  C7  DEN d   1      -2.338   1.633  -5.976  0.00  0.00     0.017 A 
ATOM      8  C8  DEN d   1      -3.434   0.781  -5.956  0.00  0.00    -0.094 A 
ATOM      9  C9  DEN d   1      -4.725   1.279  -5.995  0.00  0.00    -0.072 A 
ENDROOT
TORSDOF 0
ENDMDL
