MODEL 1
REMARK minimizedAffinity 7.59467745
REMARK minimizedRMSD -1
REMARK  0 active torsions:
REMARK  status: ('A' for Active; 'I' for Inactive)
ROOT
ATOM      1  C1  DEN d   1       1.846   1.003   0.015  0.00  0.00     0.130 A 
ATOM      2  C2  DEN d   1       1.050   0.844   1.229  0.00  0.00    -0.031 A 
ATOM      3  C3  DEN d   1      -0.040  -0.109   0.939  0.00  0.00     0.027 A 
ATOM      4  C4  DEN d   1      -0.567  -1.352  -1.259  0.00  0.00     0.027 A 
ATOM      5  C5  DEN d   1      -0.180  -1.530  -2.568  0.00  0.00    -0.003 A 
ATOM      6  C6  DEN d   1       0.881  -0.856  -3.114  0.00  0.00     0.001 A 
ATOM      7  C7  DEN d   1       1.619  -0.006  -2.333  0.00  0.00     0.017 A 
ATOM      8  C8  DEN d   1       1.229   0.185  -1.014  0.00  0.00    -0.094 A 
ATOM      9  C9  DEN d   1       0.162  -0.515  -0.478  0.00  0.00    -0.072 A 
ENDROOT
TORSDOF 0
ENDMDL
