MODEL 1
REMARK minimizedAffinity 1.42908406
REMARK minimizedRMSD -1
REMARK  0 active torsions:
REMARK  status: ('A' for Active; 'I' for Inactive)
ROOT
ATOM      1  C1  DEN d   1       2.585   2.011   0.011  0.00  0.00     0.130 A 
ATOM      2  C2  DEN d   1       1.765   2.439   1.140  0.00  0.00    -0.031 A 
ATOM      3  C3  DEN d   1       0.502   1.674   1.103  0.00  0.00     0.027 A 
ATOM      4  C4  DEN d   1      -0.256  -0.126  -0.581  0.00  0.00     0.027 A 
ATOM      5  C5  DEN d   1       0.096  -0.819  -1.719  0.00  0.00    -0.003 A 
ATOM      6  C6  DEN d   1       1.278  -0.594  -2.373  0.00  0.00     0.001 A 
ATOM      7  C7  DEN d   1       2.171   0.315  -1.870  0.00  0.00     0.017 A 
ATOM      8  C8  DEN d   1       1.820   1.022  -0.727  0.00  0.00    -0.094 A 
ATOM      9  C9  DEN d   1       0.626   0.772  -0.073  0.00  0.00    -0.072 A 
ENDROOT
TORSDOF 0
ENDMDL
