MODEL 1
REMARK minimizedAffinity 0.243414074
REMARK minimizedRMSD -1
REMARK  0 active torsions:
REMARK  status: ('A' for Active; 'I' for Inactive)
ROOT
ATOM      1  C1  DEN d   1      -2.178   1.155  -5.999  0.00  0.00     0.130 A 
ATOM      2  C2  DEN d   1      -3.407   0.367  -6.000  0.00  0.00    -0.031 A 
ATOM      3  C3  DEN d   1      -4.550   1.302  -5.984  0.00  0.00     0.027 A 
ATOM      4  C4  DEN d   1      -4.535   3.881  -5.963  0.00  0.00     0.027 A 
ATOM      5  C5  DEN d   1      -3.731   4.999  -5.945  0.00  0.00    -0.003 A 
ATOM      6  C6  DEN d   1      -2.364   4.915  -5.910  0.00  0.00     0.001 A 
ATOM      7  C7  DEN d   1      -1.759   3.686  -5.937  0.00  0.00     0.017 A 
ATOM      8  C8  DEN d   1      -2.563   2.554  -5.947  0.00  0.00    -0.094 A 
ATOM      9  C9  DEN d   1      -3.943   2.660  -5.995  0.00  0.00    -0.072 A 
ENDROOT
TORSDOF 0
ENDMDL
