MODEL 1
REMARK minimizedAffinity 22.3498669
REMARK minimizedRMSD -1
REMARK  1 active torsions:
REMARK  status: ('A' for Active; 'I' for Inactive)
REMARK    1  A    between atoms: C1_2  and  C2_3 
ROOT
ATOM      1  C2  UNL d   1       0.305  -2.527  -1.728  0.00  0.00    -0.081 A 
ATOM      2  C3  UNL d   1       1.183  -1.968  -2.664  0.00  0.00     0.006 A 
ATOM      3  C4  UNL d   1       2.100  -0.987  -2.278  0.00  0.00     0.002 A 
ATOM      4  C5  UNL d   1       2.159  -0.555  -0.948  0.00  0.00    -0.080 A 
ATOM      5  C6  UNL d   1       3.158   0.475  -0.514  0.00  0.00     0.076 C 
ATOM      6  C7  UNL d   1       1.269  -1.101  -0.017  0.00  0.00     0.002 A 
ATOM      7  C8  UNL d   1       0.352  -2.081  -0.403  0.00  0.00     0.006 A 
ENDROOT
BRANCH   1   8
ATOM      8  C1  UNL d   1      -0.641  -3.630  -2.128  0.00  0.00     0.054 C 
ATOM      9  C   UNL d   1      -2.015  -3.080  -2.483  0.00  0.00     0.018 C 
ENDBRANCH   1   8
TORSDOF 1
ENDMDL
