MODEL 1
REMARK minimizedAffinity 12.7001963
REMARK minimizedRMSD -1
REMARK  1 active torsions:
REMARK  status: ('A' for Active; 'I' for Inactive)
REMARK    1  A    between atoms: C1_2  and  C2_3 
ROOT
ATOM      1  C2  UNL d   1       1.901  -0.673  -1.050  0.00  0.00    -0.081 A 
ATOM      2  C3  UNL d   1       1.813  -1.733  -0.140  0.00  0.00     0.006 A 
ATOM      3  C4  UNL d   1       0.936  -2.795  -0.372  0.00  0.00     0.002 A 
ATOM      4  C5  UNL d   1       0.139  -2.819  -1.521  0.00  0.00    -0.080 A 
ATOM      5  C6  UNL d   1      -0.785  -3.968  -1.798  0.00  0.00     0.076 C 
ATOM      6  C7  UNL d   1       0.214  -1.751  -2.422  0.00  0.00     0.002 A 
ATOM      7  C8  UNL d   1       1.090  -0.689  -2.190  0.00  0.00     0.006 A 
ENDROOT
BRANCH   1   8
ATOM      8  C1  UNL d   1       2.893   0.442  -0.835  0.00  0.00     0.054 C 
ATOM      9  C   UNL d   1       3.118   0.704   0.647  0.00  0.00     0.018 C 
ENDBRANCH   1   8
TORSDOF 1
ENDMDL
