MODEL 1
REMARK minimizedAffinity 14.9941692
REMARK minimizedRMSD -1
REMARK  1 active torsions:
REMARK  status: ('A' for Active; 'I' for Inactive)
REMARK    1  A    between atoms: C1_2  and  C2_3 
ROOT
ATOM      1  C2  UNL d   1       2.997   0.302  -1.003  0.00  0.00    -0.081 A 
ATOM      2  C3  UNL d   1       1.879   0.284  -1.846  0.00  0.00     0.006 A 
ATOM      3  C4  UNL d   1       1.179  -0.905  -2.068  0.00  0.00     0.002 A 
ATOM      4  C5  UNL d   1       1.581  -2.092  -1.447  0.00  0.00    -0.080 A 
ATOM      5  C6  UNL d   1       0.821  -3.368  -1.654  0.00  0.00     0.076 C 
ATOM      6  C7  UNL d   1       2.709  -2.078  -0.619  0.00  0.00     0.002 A 
ATOM      7  C8  UNL d   1       3.409  -0.890  -0.397  0.00  0.00     0.006 A 
ENDROOT
BRANCH   1   8
ATOM      8  C1  UNL d   1       3.715   1.595  -0.710  0.00  0.00     0.054 C 
ATOM      9  C   UNL d   1       5.068   1.646  -1.404  0.00  0.00     0.018 C 
ENDBRANCH   1   8
TORSDOF 1
ENDMDL
