MODEL 1
REMARK minimizedAffinity 18.4907303
REMARK minimizedRMSD -1
REMARK  1 active torsions:
REMARK  status: ('A' for Active; 'I' for Inactive)
REMARK    1  A    between atoms: C1_2  and  C2_3 
ROOT
ATOM      1  C2  UNL d   1      -3.605   0.756   3.353  0.00  0.00    -0.081 A 
ATOM      2  C3  UNL d   1      -3.864   0.835   4.726  0.00  0.00     0.006 A 
ATOM      3  C4  UNL d   1      -2.939   1.430   5.588  0.00  0.00     0.002 A 
ATOM      4  C5  UNL d   1      -1.745   1.963   5.090  0.00  0.00    -0.080 A 
ATOM      5  C6  UNL d   1      -0.758   2.631   6.000  0.00  0.00     0.076 C 
ATOM      6  C7  UNL d   1      -1.479   1.868   3.720  0.00  0.00     0.002 A 
ATOM      7  C8  UNL d   1      -2.402   1.272   2.858  0.00  0.00     0.006 A 
ENDROOT
BRANCH   1   8
ATOM      8  C1  UNL d   1      -4.629   0.173   2.412  0.00  0.00     0.054 C 
ATOM      9  C   UNL d   1      -5.249  -1.094   2.985  0.00  0.00     0.018 C 
ENDBRANCH   1   8
TORSDOF 1
ENDMDL
