MODEL 1
REMARK minimizedAffinity 19.2762833
REMARK minimizedRMSD -1
REMARK  1 active torsions:
REMARK  status: ('A' for Active; 'I' for Inactive)
REMARK    1  A    between atoms: C1_2  and  C2_3 
ROOT
ATOM      1  C2  UNL d   1       0.175  -1.814  -1.408  0.00  0.00    -0.081 A 
ATOM      2  C3  UNL d   1      -0.185  -3.139  -1.133  0.00  0.00     0.006 A 
ATOM      3  C4  UNL d   1      -1.418  -3.640  -1.556  0.00  0.00     0.002 A 
ATOM      4  C5  UNL d   1      -2.308  -2.828  -2.268  0.00  0.00    -0.080 A 
ATOM      5  C6  UNL d   1      -3.622  -3.362  -2.755  0.00  0.00     0.076 C 
ATOM      6  C7  UNL d   1      -1.955  -1.499  -2.528  0.00  0.00     0.002 A 
ATOM      7  C8  UNL d   1      -0.723  -0.997  -2.104  0.00  0.00     0.006 A 
ENDROOT
BRANCH   1   8
ATOM      8  C1  UNL d   1       1.531  -1.290  -1.009  0.00  0.00     0.054 C 
ATOM      9  C   UNL d   1       2.177  -0.506  -2.143  0.00  0.00     0.018 C 
ENDBRANCH   1   8
TORSDOF 1
ENDMDL
