MODEL 1
REMARK minimizedAffinity 4.61456442
REMARK minimizedRMSD -1
REMARK  1 active torsions:
REMARK  status: ('A' for Active; 'I' for Inactive)
REMARK    1  A    between atoms: C1_2  and  C2_3 
ROOT
ATOM      1  C2  UNL d   1      -4.942   1.676   5.313  0.00  0.00    -0.081 A 
ATOM      2  C3  UNL d   1      -4.356   1.660   4.041  0.00  0.00     0.006 A 
ATOM      3  C4  UNL d   1      -4.124   0.450   3.383  0.00  0.00     0.002 A 
ATOM      4  C5  UNL d   1      -4.481  -0.763   3.982  0.00  0.00    -0.080 A 
ATOM      5  C6  UNL d   1      -4.265  -2.067   3.273  0.00  0.00     0.076 C 
ATOM      6  C7  UNL d   1      -5.051  -0.748   5.259  0.00  0.00     0.002 A 
ATOM      7  C8  UNL d   1      -5.282   0.461   5.918  0.00  0.00     0.006 A 
ENDROOT
BRANCH   1   8
ATOM      8  C1  UNL d   1      -5.253   2.983   5.998  0.00  0.00     0.054 C 
ATOM      9  C   UNL d   1      -5.990   3.934   5.066  0.00  0.00     0.018 C 
ENDBRANCH   1   8
TORSDOF 1
ENDMDL
