MODEL 1
REMARK minimizedAffinity 17.4915886
REMARK minimizedRMSD -1
REMARK  1 active torsions:
REMARK  status: ('A' for Active; 'I' for Inactive)
REMARK    1  A    between atoms: C1_2  and  C2_3 
ROOT
ATOM      1  C2  UNL d   1      -4.625   1.352   4.489  0.00  0.00    -0.081 A 
ATOM      2  C3  UNL d   1      -4.944   0.160   3.828  0.00  0.00     0.006 A 
ATOM      3  C4  UNL d   1      -4.153  -0.297   2.771  0.00  0.00     0.002 A 
ATOM      4  C5  UNL d   1      -3.027   0.426   2.363  0.00  0.00    -0.080 A 
ATOM      5  C6  UNL d   1      -2.152  -0.069   1.249  0.00  0.00     0.076 C 
ATOM      6  C7  UNL d   1      -2.718   1.626   3.012  0.00  0.00     0.002 A 
ATOM      7  C8  UNL d   1      -3.509   2.083   4.068  0.00  0.00     0.006 A 
ENDROOT
BRANCH   1   8
ATOM      8  C1  UNL d   1      -5.438   1.814   5.671  0.00  0.00     0.054 C 
ATOM      9  C   UNL d   1      -5.158   3.273   6.000  0.00  0.00     0.018 C 
ENDBRANCH   1   8
TORSDOF 1
ENDMDL
