MODEL 1
REMARK minimizedAffinity 5.17791796
REMARK minimizedRMSD -1
REMARK  1 active torsions:
REMARK  status: ('A' for Active; 'I' for Inactive)
REMARK    1  A    between atoms: C1_2  and  C2_3 
ROOT
ATOM      1  C2  UNL d   1      -3.352  -5.258  -3.324  0.00  0.00    -0.081 A 
ATOM      2  C3  UNL d   1      -3.337  -3.858  -3.374  0.00  0.00     0.006 A 
ATOM      3  C4  UNL d   1      -4.184  -3.172  -4.248  0.00  0.00     0.002 A 
ATOM      4  C5  UNL d   1      -5.064  -3.872  -5.079  0.00  0.00    -0.080 A 
ATOM      5  C6  UNL d   1      -6.000  -3.147  -6.000  0.00  0.00     0.076 C 
ATOM      6  C7  UNL d   1      -5.066  -5.271  -5.042  0.00  0.00     0.002 A 
ATOM      7  C8  UNL d   1      -4.219  -5.958  -4.169  0.00  0.00     0.006 A 
ENDROOT
BRANCH   1   8
ATOM      8  C1  UNL d   1      -2.486  -5.998  -2.337  0.00  0.00     0.054 C 
ATOM      9  C   UNL d   1      -3.107  -5.999  -0.947  0.00  0.00     0.018 C 
ENDBRANCH   1   8
TORSDOF 1
ENDMDL
