MODEL 1
REMARK minimizedAffinity 11.8487043
REMARK minimizedRMSD -1
REMARK  1 active torsions:
REMARK  status: ('A' for Active; 'I' for Inactive)
REMARK    1  A    between atoms: C1_2  and  C2_3 
ROOT
ATOM      1  C2  UNL d   1      -3.865   1.108   3.382  0.00  0.00    -0.081 A 
ATOM      2  C3  UNL d   1      -3.827  -0.274   3.162  0.00  0.00     0.006 A 
ATOM      3  C4  UNL d   1      -2.630  -0.903   2.813  0.00  0.00     0.002 A 
ATOM      4  C5  UNL d   1      -1.450  -0.162   2.686  0.00  0.00    -0.080 A 
ATOM      5  C6  UNL d   1      -0.152  -0.829   2.341  0.00  0.00     0.076 C 
ATOM      6  C7  UNL d   1      -1.491   1.222   2.889  0.00  0.00     0.002 A 
ATOM      7  C8  UNL d   1      -2.688   1.851   3.237  0.00  0.00     0.006 A 
ENDROOT
BRANCH   1   8
ATOM      8  C1  UNL d   1      -5.141   1.780   3.822  0.00  0.00     0.054 C 
ATOM      9  C   UNL d   1      -4.936   3.273   4.034  0.00  0.00     0.018 C 
ENDBRANCH   1   8
TORSDOF 1
ENDMDL
