MODEL 1
REMARK minimizedAffinity 11.1335411
REMARK minimizedRMSD -1
REMARK  1 active torsions:
REMARK  status: ('A' for Active; 'I' for Inactive)
REMARK    1  A    between atoms: C1_2  and  C2_3 
ROOT
ATOM      1  C2  UNL d   1      -0.355  -2.115  -2.151  0.00  0.00    -0.081 A 
ATOM      2  C3  UNL d   1      -0.705  -3.469  -2.086  0.00  0.00     0.006 A 
ATOM      3  C4  UNL d   1      -1.779  -3.960  -2.832  0.00  0.00     0.002 A 
ATOM      4  C5  UNL d   1      -2.517  -3.107  -3.659  0.00  0.00    -0.080 A 
ATOM      5  C6  UNL d   1      -3.654  -3.627  -4.488  0.00  0.00     0.076 C 
ATOM      6  C7  UNL d   1      -2.179  -1.750  -3.711  0.00  0.00     0.002 A 
ATOM      7  C8  UNL d   1      -1.105  -1.259  -2.966  0.00  0.00     0.006 A 
ENDROOT
BRANCH   1   8
ATOM      8  C1  UNL d   1       0.843  -1.595  -1.399  0.00  0.00     0.054 C 
ATOM      9  C   UNL d   1       1.252  -2.548  -0.284  0.00  0.00     0.018 C 
ENDBRANCH   1   8
TORSDOF 1
ENDMDL
