MODEL 1
REMARK minimizedAffinity 9.08889008
REMARK minimizedRMSD -1
REMARK  1 active torsions:
REMARK  status: ('A' for Active; 'I' for Inactive)
REMARK    1  A    between atoms: C1_2  and  C2_3 
ROOT
ATOM      1  C2  UNL d   1       3.434  -2.711  -3.379  0.00  0.00    -0.081 A 
ATOM      2  C3  UNL d   1       3.250  -3.448  -2.203  0.00  0.00     0.006 A 
ATOM      3  C4  UNL d   1       2.495  -2.925  -1.150  0.00  0.00     0.002 A 
ATOM      4  C5  UNL d   1       1.906  -1.661  -1.259  0.00  0.00    -0.080 A 
ATOM      5  C6  UNL d   1       1.068  -1.100  -0.149  0.00  0.00     0.076 C 
ATOM      6  C7  UNL d   1       2.104  -0.917  -2.427  0.00  0.00     0.002 A 
ATOM      7  C8  UNL d   1       2.860  -1.439  -3.480  0.00  0.00     0.006 A 
ENDROOT
BRANCH   1   8
ATOM      8  C1  UNL d   1       4.193  -3.299  -4.541  0.00  0.00     0.054 C 
ATOM      9  C   UNL d   1       3.836  -2.602  -5.846  0.00  0.00     0.018 C 
ENDBRANCH   1   8
TORSDOF 1
ENDMDL
