MODEL 1
REMARK minimizedAffinity 8.35010147
REMARK minimizedRMSD -1
REMARK  1 active torsions:
REMARK  status: ('A' for Active; 'I' for Inactive)
REMARK    1  A    between atoms: C1_2  and  C2_3 
ROOT
ATOM      1  C2  UNL d   1      -2.833   1.004   3.789  0.00  0.00    -0.081 A 
ATOM      2  C3  UNL d   1      -3.404   1.305   2.547  0.00  0.00     0.006 A 
ATOM      3  C4  UNL d   1      -4.417   0.501   2.020  0.00  0.00     0.002 A 
ATOM      4  C5  UNL d   1      -4.881  -0.612   2.728  0.00  0.00    -0.080 A 
ATOM      5  C6  UNL d   1      -5.989  -1.466   2.188  0.00  0.00     0.076 C 
ATOM      6  C7  UNL d   1      -4.298  -0.924   3.961  0.00  0.00     0.002 A 
ATOM      7  C8  UNL d   1      -3.284  -0.120   4.489  0.00  0.00     0.006 A 
ENDROOT
BRANCH   1   8
ATOM      8  C1  UNL d   1      -1.785   1.906   4.390  0.00  0.00     0.054 C 
ATOM      9  C   UNL d   1      -1.408   3.029   3.435  0.00  0.00     0.018 C 
ENDBRANCH   1   8
TORSDOF 1
ENDMDL
