MODEL 1
REMARK minimizedAffinity -2.08991098
REMARK minimizedRMSD -1
REMARK  1 active torsions:
REMARK  status: ('A' for Active; 'I' for Inactive)
REMARK    1  A    between atoms: C1_2  and  C2_3 
ROOT
ATOM      1  C2  UNL d   1       0.337  -0.969  -1.118  0.00  0.00    -0.081 A 
ATOM      2  C3  UNL d   1       0.406  -0.295   0.107  0.00  0.00     0.006 A 
ATOM      3  C4  UNL d   1       0.835   1.033   0.161  0.00  0.00     0.002 A 
ATOM      4  C5  UNL d   1       1.195   1.711  -1.008  0.00  0.00    -0.080 A 
ATOM      5  C6  UNL d   1       1.628   3.146  -0.968  0.00  0.00     0.076 C 
ATOM      6  C7  UNL d   1       1.143   1.032  -2.230  0.00  0.00     0.002 A 
ATOM      7  C8  UNL d   1       0.714  -0.296  -2.285  0.00  0.00     0.006 A 
ENDROOT
BRANCH   1   8
ATOM      8  C1  UNL d   1      -0.188  -2.381  -1.187  0.00  0.00     0.054 C 
ATOM      9  C   UNL d   1      -0.240  -3.020   0.193  0.00  0.00     0.018 C 
ENDBRANCH   1   8
TORSDOF 1
ENDMDL
