MODEL 1
REMARK minimizedAffinity 8.06828594
REMARK minimizedRMSD -1
REMARK  2 active torsions:
REMARK  status: ('A' for Active; 'I' for Inactive)
REMARK    1  A    between atoms: C1_2  and  C2_3 
REMARK    2  A    between atoms: C2_3  and  C3_4 
ROOT
ATOM      1  C3  UNL d   1       5.139   5.144   1.297  0.00  0.00    -0.075 A 
ATOM      2  C4  UNL d   1       5.513   3.831   1.616  0.00  0.00     0.002 A 
ATOM      3  C5  UNL d   1       5.456   3.378   2.934  0.00  0.00     0.002 A 
ATOM      4  C6  UNL d   1       5.035   4.233   3.950  0.00  0.00    -0.004 A 
ATOM      5  C7  UNL d   1       4.676   5.545   3.647  0.00  0.00     0.002 A 
ATOM      6  C8  UNL d   1       4.728   5.999   2.328  0.00  0.00     0.002 A 
ENDROOT
BRANCH   1   7
ATOM      7  C2  UNL d   1       5.170   5.631  -0.132  0.00  0.00     0.056 C 
BRANCH   7   8
ATOM      8  C1  UNL d   1       5.640   4.577  -1.140  0.00  0.00     0.007 C 
ATOM      9  C   UNL d   1       5.998   5.164  -2.499  0.00  0.00     0.009 C 
ENDBRANCH   7   8
ENDBRANCH   1   7
TORSDOF 2
ENDMDL
