MODEL 1
REMARK minimizedAffinity 10.0473261
REMARK minimizedRMSD -1
REMARK  2 active torsions:
REMARK  status: ('A' for Active; 'I' for Inactive)
REMARK    1  A    between atoms: C1_2  and  C2_3 
REMARK    2  A    between atoms: C2_3  and  C3_4 
ROOT
ATOM      1  C3  UNL d   1       0.761   2.320  -3.713  0.00  0.00    -0.075 A 
ATOM      2  C4  UNL d   1       1.732   1.310  -3.656  0.00  0.00     0.002 A 
ATOM      3  C5  UNL d   1       2.288   0.929  -2.434  0.00  0.00     0.002 A 
ATOM      4  C6  UNL d   1       1.889   1.559  -1.258  0.00  0.00    -0.004 A 
ATOM      5  C7  UNL d   1       0.937   2.576  -1.304  0.00  0.00     0.002 A 
ATOM      6  C8  UNL d   1       0.376   2.955  -2.525  0.00  0.00     0.002 A 
ENDROOT
BRANCH   1   7
ATOM      7  C2  UNL d   1       0.135   2.716  -5.028  0.00  0.00     0.056 C 
BRANCH   7   8
ATOM      8  C1  UNL d   1       1.102   3.403  -5.998  0.00  0.00     0.007 C 
ATOM      9  C   UNL d   1       0.974   4.921  -5.999  0.00  0.00     0.009 C 
ENDBRANCH   7   8
ENDBRANCH   1   7
TORSDOF 2
ENDMDL
