MODEL 1
REMARK minimizedAffinity 5.45303488
REMARK minimizedRMSD -1
REMARK  2 active torsions:
REMARK  status: ('A' for Active; 'I' for Inactive)
REMARK    1  A    between atoms: C1_2  and  C2_3 
REMARK    2  A    between atoms: C2_3  and  C3_4 
ROOT
ATOM      1  C3  UNL d   1       0.764   2.332  -3.747  0.00  0.00    -0.075 A 
ATOM      2  C4  UNL d   1       1.781   1.406  -4.022  0.00  0.00     0.002 A 
ATOM      3  C5  UNL d   1       2.456   0.765  -2.983  0.00  0.00     0.002 A 
ATOM      4  C6  UNL d   1       2.132   1.049  -1.658  0.00  0.00    -0.004 A 
ATOM      5  C7  UNL d   1       1.135   1.979  -1.373  0.00  0.00     0.002 A 
ATOM      6  C8  UNL d   1       0.454   2.618  -2.411  0.00  0.00     0.002 A 
ENDROOT
BRANCH   1   7
ATOM      7  C2  UNL d   1       0.009   3.007  -4.867  0.00  0.00     0.056 C 
BRANCH   7   8
ATOM      8  C1  UNL d   1       0.892   3.846  -5.797  0.00  0.00     0.007 C 
ATOM      9  C   UNL d   1       0.373   5.263  -5.999  0.00  0.00     0.009 C 
ENDBRANCH   7   8
ENDBRANCH   1   7
TORSDOF 2
ENDMDL
