MODEL 1
REMARK minimizedAffinity 9.03843784
REMARK minimizedRMSD -1
REMARK  2 active torsions:
REMARK  status: ('A' for Active; 'I' for Inactive)
REMARK    1  A    between atoms: C1_2  and  C2_3 
REMARK    2  A    between atoms: C2_3  and  C3_4 
ROOT
ATOM      1  C3  UNL d   1      -0.708   3.404  -5.201  0.00  0.00    -0.075 A 
ATOM      2  C4  UNL d   1      -0.770   4.800  -5.319  0.00  0.00     0.002 A 
ATOM      3  C5  UNL d   1      -1.954   5.426  -5.711  0.00  0.00     0.002 A 
ATOM      4  C6  UNL d   1      -3.085   4.665  -5.999  0.00  0.00    -0.004 A 
ATOM      5  C7  UNL d   1      -3.029   3.276  -5.901  0.00  0.00     0.002 A 
ATOM      6  C8  UNL d   1      -1.847   2.648  -5.505  0.00  0.00     0.002 A 
ENDROOT
BRANCH   1   7
ATOM      7  C2  UNL d   1       0.562   2.723  -4.748  0.00  0.00     0.056 C 
BRANCH   7   8
ATOM      8  C1  UNL d   1       0.937   3.007  -3.290  0.00  0.00     0.007 C 
ATOM      9  C   UNL d   1       1.255   1.747  -2.496  0.00  0.00     0.009 C 
ENDBRANCH   7   8
ENDBRANCH   1   7
TORSDOF 2
ENDMDL
