MODEL 1
REMARK minimizedAffinity 16.4915104
REMARK minimizedRMSD -1
REMARK  2 active torsions:
REMARK  status: ('A' for Active; 'I' for Inactive)
REMARK    1  A    between atoms: C1_2  and  C2_3 
REMARK    2  A    between atoms: C2_3  and  C3_4 
ROOT
ATOM      1  C3  UNL d   1       2.549   3.264  -1.258  0.00  0.00    -0.075 A 
ATOM      2  C4  UNL d   1       1.891   2.729  -0.141  0.00  0.00     0.002 A 
ATOM      3  C5  UNL d   1       1.307   1.463  -0.201  0.00  0.00     0.002 A 
ATOM      4  C6  UNL d   1       1.364   0.722  -1.380  0.00  0.00    -0.004 A 
ATOM      5  C7  UNL d   1       2.001   1.250  -2.501  0.00  0.00     0.002 A 
ATOM      6  C8  UNL d   1       2.590   2.515  -2.441  0.00  0.00     0.002 A 
ENDROOT
BRANCH   1   7
ATOM      7  C2  UNL d   1       3.208   4.620  -1.190  0.00  0.00     0.056 C 
BRANCH   7   8
ATOM      8  C1  UNL d   1       4.713   4.569  -0.902  0.00  0.00     0.007 C 
ATOM      9  C   UNL d   1       5.310   5.933  -0.582  0.00  0.00     0.009 C 
ENDBRANCH   7   8
ENDBRANCH   1   7
TORSDOF 2
ENDMDL
