MODEL 1
REMARK minimizedAffinity 8.08875084
REMARK minimizedRMSD -1
REMARK  2 active torsions:
REMARK  status: ('A' for Active; 'I' for Inactive)
REMARK    1  A    between atoms: C1_2  and  C2_3 
REMARK    2  A    between atoms: C2_3  and  C3_4 
ROOT
ATOM      1  C3  UNL d   1       5.208   5.349   3.092  0.00  0.00    -0.075 A 
ATOM      2  C4  UNL d   1       5.635   5.842   1.851  0.00  0.00     0.002 A 
ATOM      3  C5  UNL d   1       5.195   5.253   0.665  0.00  0.00     0.002 A 
ATOM      4  C6  UNL d   1       4.332   4.160   0.705  0.00  0.00    -0.004 A 
ATOM      5  C7  UNL d   1       3.915   3.651   1.933  0.00  0.00     0.002 A 
ATOM      6  C8  UNL d   1       4.350   4.241   3.121  0.00  0.00     0.002 A 
ENDROOT
BRANCH   1   7
ATOM      7  C2  UNL d   1       5.658   6.000   4.378  0.00  0.00     0.056 C 
BRANCH   7   8
ATOM      8  C1  UNL d   1       5.035   5.388   5.638  0.00  0.00     0.007 C 
ATOM      9  C   UNL d   1       3.687   5.999   5.998  0.00  0.00     0.009 C 
ENDBRANCH   7   8
ENDBRANCH   1   7
TORSDOF 2
ENDMDL
