MODEL 1
REMARK minimizedAffinity -2.02133727
REMARK minimizedRMSD -1
REMARK  2 active torsions:
REMARK  status: ('A' for Active; 'I' for Inactive)
REMARK    1  A    between atoms: C1_2  and  C2_3 
REMARK    2  A    between atoms: C2_3  and  C3_4 
ROOT
ATOM      1  C3  UNL d   1      -0.563   4.576  -5.907  0.00  0.00    -0.075 A 
ATOM      2  C4  UNL d   1      -1.400   3.451  -5.891  0.00  0.00     0.002 A 
ATOM      3  C5  UNL d   1      -2.786   3.599  -5.943  0.00  0.00     0.002 A 
ATOM      4  C6  UNL d   1      -3.352   4.871  -6.000  0.00  0.00    -0.004 A 
ATOM      5  C7  UNL d   1      -2.531   5.996  -5.999  0.00  0.00     0.002 A 
ATOM      6  C8  UNL d   1      -1.143   5.851  -5.952  0.00  0.00     0.002 A 
ENDROOT
BRANCH   1   7
ATOM      7  C2  UNL d   1       0.939   4.422  -5.881  0.00  0.00     0.056 C 
BRANCH   7   8
ATOM      8  C1  UNL d   1       1.556   4.554  -4.484  0.00  0.00     0.007 C 
ATOM      9  C   UNL d   1       2.007   3.222  -3.899  0.00  0.00     0.009 C 
ENDBRANCH   7   8
ENDBRANCH   1   7
TORSDOF 2
ENDMDL
