MODEL 1
REMARK minimizedAffinity 1.86146224
REMARK minimizedRMSD -1
REMARK  2 active torsions:
REMARK  status: ('A' for Active; 'I' for Inactive)
REMARK    1  A    between atoms: C1_2  and  C2_3 
REMARK    2  A    between atoms: C2_3  and  C3_4 
ROOT
ATOM      1  C3  UNL d   1      -0.795   3.568  -5.989  0.00  0.00    -0.075 A 
ATOM      2  C4  UNL d   1      -0.134   4.804  -6.000  0.00  0.00     0.002 A 
ATOM      3  C5  UNL d   1      -0.860   5.996  -5.997  0.00  0.00     0.002 A 
ATOM      4  C6  UNL d   1      -2.253   5.966  -5.994  0.00  0.00    -0.004 A 
ATOM      5  C7  UNL d   1      -2.920   4.743  -6.000  0.00  0.00     0.002 A 
ATOM      6  C8  UNL d   1      -2.197   3.550  -5.999  0.00  0.00     0.002 A 
ENDROOT
BRANCH   1   7
ATOM      7  C2  UNL d   1      -0.016   2.275  -5.963  0.00  0.00     0.056 C 
BRANCH   7   8
ATOM      8  C1  UNL d   1       1.240   2.322  -5.086  0.00  0.00     0.007 C 
ATOM      9  C   UNL d   1       2.534   2.330  -5.890  0.00  0.00     0.009 C 
ENDBRANCH   7   8
ENDBRANCH   1   7
TORSDOF 2
ENDMDL
