MODEL 1
REMARK minimizedAffinity 13.2690392
REMARK minimizedRMSD -1
REMARK  2 active torsions:
REMARK  status: ('A' for Active; 'I' for Inactive)
REMARK    1  A    between atoms: C1_2  and  C2_3 
REMARK    2  A    between atoms: C2_3  and  C3_4 
ROOT
ATOM      1  C3  UNL d   1       2.628   2.138  -4.210  0.00  0.00    -0.075 A 
ATOM      2  C4  UNL d   1       2.667   0.736  -4.204  0.00  0.00     0.002 A 
ATOM      3  C5  UNL d   1       2.326   0.022  -3.055  0.00  0.00     0.002 A 
ATOM      4  C6  UNL d   1       1.953   0.700  -1.896  0.00  0.00    -0.004 A 
ATOM      5  C7  UNL d   1       1.927   2.092  -1.885  0.00  0.00     0.002 A 
ATOM      6  C8  UNL d   1       2.264   2.809  -3.035  0.00  0.00     0.002 A 
ENDROOT
BRANCH   1   7
ATOM      7  C2  UNL d   1       2.968   2.915  -5.459  0.00  0.00     0.056 C 
BRANCH   7   8
ATOM      8  C1  UNL d   1       4.471   3.046  -5.723  0.00  0.00     0.007 C 
ATOM      9  C   UNL d   1       4.911   4.478  -5.993  0.00  0.00     0.009 C 
ENDBRANCH   7   8
ENDBRANCH   1   7
TORSDOF 2
ENDMDL
