MODEL 1
REMARK minimizedAffinity 7.05668211
REMARK minimizedRMSD -1
REMARK  2 active torsions:
REMARK  status: ('A' for Active; 'I' for Inactive)
REMARK    1  A    between atoms: C1_2  and  C2_3 
REMARK    2  A    between atoms: C2_3  and  C3_4 
ROOT
ATOM      1  C3  UNL d   1      -1.495  -3.377   3.328  0.00  0.00    -0.075 A 
ATOM      2  C4  UNL d   1      -1.843  -4.139   4.452  0.00  0.00     0.002 A 
ATOM      3  C5  UNL d   1      -2.988  -3.832   5.189  0.00  0.00     0.002 A 
ATOM      4  C6  UNL d   1      -3.790  -2.755   4.819  0.00  0.00    -0.004 A 
ATOM      5  C7  UNL d   1      -3.444  -1.981   3.713  0.00  0.00     0.002 A 
ATOM      6  C8  UNL d   1      -2.302  -2.289   2.971  0.00  0.00     0.002 A 
ENDROOT
BRANCH   1   7
ATOM      7  C2  UNL d   1      -0.274  -3.723   2.509  0.00  0.00     0.056 C 
BRANCH   7   8
ATOM      8  C1  UNL d   1       0.664  -4.731   3.182  0.00  0.00     0.007 C 
ATOM      9  C   UNL d   1       1.188  -5.794   2.226  0.00  0.00     0.009 C 
ENDBRANCH   7   8
ENDBRANCH   1   7
TORSDOF 2
ENDMDL
