MODEL 1
REMARK minimizedAffinity 10.8085546
REMARK minimizedRMSD -1
REMARK  2 active torsions:
REMARK  status: ('A' for Active; 'I' for Inactive)
REMARK    1  A    between atoms: C1_2  and  C2_3 
REMARK    2  A    between atoms: C2_3  and  C3_4 
ROOT
ATOM      1  C3  UNL d   1       3.780   3.264  -5.814  0.00  0.00    -0.075 A 
ATOM      2  C4  UNL d   1       5.171   3.118  -5.911  0.00  0.00     0.002 A 
ATOM      3  C5  UNL d   1       5.997   4.240  -5.996  0.00  0.00     0.002 A 
ATOM      4  C6  UNL d   1       5.444   5.518  -5.994  0.00  0.00    -0.004 A 
ATOM      5  C7  UNL d   1       4.062   5.675  -5.915  0.00  0.00     0.002 A 
ATOM      6  C8  UNL d   1       3.233   4.555  -5.826  0.00  0.00     0.002 A 
ENDROOT
BRANCH   1   7
ATOM      7  C2  UNL d   1       2.883   2.056  -5.693  0.00  0.00     0.056 C 
BRANCH   7   8
ATOM      8  C1  UNL d   1       2.269   1.872  -4.301  0.00  0.00     0.007 C 
ATOM      9  C   UNL d   1       1.708   0.475  -4.072  0.00  0.00     0.009 C 
ENDBRANCH   7   8
ENDBRANCH   1   7
TORSDOF 2
ENDMDL
