MODEL 1
REMARK minimizedAffinity 8.5024128
REMARK minimizedRMSD -1
REMARK  2 active torsions:
REMARK  status: ('A' for Active; 'I' for Inactive)
REMARK    1  A    between atoms: C1_2  and  C2_3 
REMARK    2  A    between atoms: C2_3  and  C3_4 
ROOT
ATOM      1  C3  UNL d   1      -0.265   2.501  -4.551  0.00  0.00    -0.075 A 
ATOM      2  C4  UNL d   1       0.364   3.697  -4.925  0.00  0.00     0.002 A 
ATOM      3  C5  UNL d   1      -0.334   4.671  -5.641  0.00  0.00     0.002 A 
ATOM      4  C6  UNL d   1      -1.663   4.457  -6.000  0.00  0.00    -0.004 A 
ATOM      5  C7  UNL d   1      -2.293   3.265  -5.647  0.00  0.00     0.002 A 
ATOM      6  C8  UNL d   1      -1.598   2.291  -4.928  0.00  0.00     0.002 A 
ENDROOT
BRANCH   1   7
ATOM      7  C2  UNL d   1       0.476   1.456  -3.751  0.00  0.00     0.056 C 
BRANCH   7   8
ATOM      8  C1  UNL d   1       1.937   1.268  -4.172  0.00  0.00     0.007 C 
ATOM      9  C   UNL d   1       2.679   0.244  -3.325  0.00  0.00     0.009 C 
ENDBRANCH   7   8
ENDBRANCH   1   7
TORSDOF 2
ENDMDL
