MODEL 1
REMARK minimizedAffinity 5.02623034
REMARK minimizedRMSD -1
REMARK  0 active torsions:
REMARK  status: ('A' for Active; 'I' for Inactive)
ROOT
ATOM      1  C   UNL d   1      -1.269  -2.369  -4.636  0.00  0.00     0.077 C 
ATOM      2  C1  UNL d   1      -2.017  -2.543  -3.348  0.00  0.00    -0.074 A 
ATOM      3  C2  UNL d   1      -1.578  -1.925  -2.173  0.00  0.00    -0.005 A 
ATOM      4  C3  UNL d   1      -2.289  -2.088  -0.984  0.00  0.00     0.006 A 
ATOM      5  C4  UNL d   1      -3.446  -2.869  -0.959  0.00  0.00    -0.005 A 
ATOM      6  C5  UNL d   1      -3.901  -3.493  -2.125  0.00  0.00    -0.074 A 
ATOM      7  C6  UNL d   1      -5.147  -4.328  -2.117  0.00  0.00     0.077 C 
ATOM      8  C7  UNL d   1      -3.184  -3.319  -3.316  0.00  0.00    -0.001 A 
ENDROOT
TORSDOF 0
ENDMDL
