MODEL 1
REMARK minimizedAffinity 0.586884081
REMARK minimizedRMSD -1
REMARK  0 active torsions:
REMARK  status: ('A' for Active; 'I' for Inactive)
ROOT
ATOM      1  C   UNL d   1       5.996  -0.750   2.670  0.00  0.00     0.077 C 
ATOM      2  C1  UNL d   1       5.309   0.331   1.890  0.00  0.00    -0.074 A 
ATOM      3  C2  UNL d   1       5.999   1.482   1.495  0.00  0.00    -0.005 A 
ATOM      4  C3  UNL d   1       5.349   2.475   0.762  0.00  0.00     0.006 A 
ATOM      5  C4  UNL d   1       4.005   2.327   0.417  0.00  0.00    -0.005 A 
ATOM      6  C5  UNL d   1       3.299   1.183   0.802  0.00  0.00    -0.074 A 
ATOM      7  C6  UNL d   1       1.857   1.004   0.431  0.00  0.00     0.077 C 
ATOM      8  C7  UNL d   1       3.961   0.187   1.533  0.00  0.00    -0.001 A 
ENDROOT
TORSDOF 0
ENDMDL
