MODEL 1
REMARK minimizedAffinity 15.7293043
REMARK minimizedRMSD -1
REMARK  0 active torsions:
REMARK  status: ('A' for Active; 'I' for Inactive)
ROOT
ATOM      1  C   UNL d   1       5.387  -1.607   4.704  0.00  0.00     0.077 C 
ATOM      2  C1  UNL d   1       4.790  -1.197   3.391  0.00  0.00    -0.074 A 
ATOM      3  C2  UNL d   1       5.564  -1.172   2.226  0.00  0.00    -0.005 A 
ATOM      4  C3  UNL d   1       4.993  -0.796   1.010  0.00  0.00     0.006 A 
ATOM      5  C4  UNL d   1       3.644  -0.443   0.947  0.00  0.00    -0.005 A 
ATOM      6  C5  UNL d   1       2.855  -0.463   2.101  0.00  0.00    -0.074 A 
ATOM      7  C6  UNL d   1       1.402  -0.095   2.048  0.00  0.00     0.077 C 
ATOM      8  C7  UNL d   1       3.435  -0.848   3.317  0.00  0.00    -0.001 A 
ENDROOT
TORSDOF 0
ENDMDL
