MODEL 1
REMARK minimizedAffinity 2.55914927
REMARK minimizedRMSD -1
REMARK  0 active torsions:
REMARK  status: ('A' for Active; 'I' for Inactive)
ROOT
ATOM      1  C   UNL d   1       0.748   5.260  -5.627  0.00  0.00     0.077 C 
ATOM      2  C1  UNL d   1       2.178   5.062  -5.221  0.00  0.00    -0.074 A 
ATOM      3  C2  UNL d   1       3.158   5.999  -5.563  0.00  0.00    -0.005 A 
ATOM      4  C3  UNL d   1       4.483   5.805  -5.170  0.00  0.00     0.006 A 
ATOM      5  C4  UNL d   1       4.839   4.675  -4.433  0.00  0.00    -0.005 A 
ATOM      6  C5  UNL d   1       3.872   3.728  -4.081  0.00  0.00    -0.074 A 
ATOM      7  C6  UNL d   1       4.237   2.513  -3.281  0.00  0.00     0.077 C 
ATOM      8  C7  UNL d   1       2.543   3.933  -4.474  0.00  0.00    -0.001 A 
ENDROOT
TORSDOF 0
ENDMDL
