MODEL 1
REMARK minimizedAffinity 11.3280506
REMARK minimizedRMSD -1
REMARK  0 active torsions:
REMARK  status: ('A' for Active; 'I' for Inactive)
ROOT
ATOM      1  C   UNL d   1       0.760   5.047  -6.000  0.00  0.00     0.077 C 
ATOM      2  C1  UNL d   1       1.925   4.887  -5.069  0.00  0.00    -0.074 A 
ATOM      3  C2  UNL d   1       2.643   6.000  -4.620  0.00  0.00    -0.005 A 
ATOM      4  C3  UNL d   1       3.719   5.837  -3.746  0.00  0.00     0.006 A 
ATOM      5  C4  UNL d   1       4.085   4.562  -3.314  0.00  0.00    -0.005 A 
ATOM      6  C5  UNL d   1       3.378   3.438  -3.752  0.00  0.00    -0.074 A 
ATOM      7  C6  UNL d   1       3.753   2.061  -3.289  0.00  0.00     0.077 C 
ATOM      8  C7  UNL d   1       2.294   3.610  -4.624  0.00  0.00    -0.001 A 
ENDROOT
TORSDOF 0
ENDMDL
