MODEL 1
REMARK minimizedAffinity 17.3589535
REMARK minimizedRMSD -1
REMARK  0 active torsions:
REMARK  status: ('A' for Active; 'I' for Inactive)
ROOT
ATOM      1  C   UNL d   1       5.824  -0.857   0.303  0.00  0.00     0.077 C 
ATOM      2  C1  UNL d   1       4.563  -0.430   0.994  0.00  0.00    -0.074 A 
ATOM      3  C2  UNL d   1       4.292  -0.829   2.307  0.00  0.00    -0.005 A 
ATOM      4  C3  UNL d   1       3.120  -0.416   2.940  0.00  0.00     0.006 A 
ATOM      5  C4  UNL d   1       2.208   0.399   2.267  0.00  0.00    -0.005 A 
ATOM      6  C5  UNL d   1       2.462   0.808   0.955  0.00  0.00    -0.074 A 
ATOM      7  C6  UNL d   1       1.497   1.692   0.221  0.00  0.00     0.077 C 
ATOM      8  C7  UNL d   1       3.646   0.395   0.328  0.00  0.00    -0.001 A 
ENDROOT
TORSDOF 0
ENDMDL
