MODEL 1
REMARK minimizedAffinity 15.3901272
REMARK minimizedRMSD -1
REMARK  0 active torsions:
REMARK  status: ('A' for Active; 'I' for Inactive)
ROOT
ATOM      1  C   UNL d   1      -3.393   0.563   2.724  0.00  0.00     0.077 C 
ATOM      2  C1  UNL d   1      -4.173  -0.006   3.872  0.00  0.00    -0.074 A 
ATOM      3  C2  UNL d   1      -4.587   0.807   4.932  0.00  0.00    -0.005 A 
ATOM      4  C3  UNL d   1      -5.320   0.266   5.988  0.00  0.00     0.006 A 
ATOM      5  C4  UNL d   1      -5.646  -1.090   5.995  0.00  0.00    -0.005 A 
ATOM      6  C5  UNL d   1      -5.242  -1.918   4.943  0.00  0.00    -0.074 A 
ATOM      7  C6  UNL d   1      -5.593  -3.377   4.930  0.00  0.00     0.077 C 
ATOM      8  C7  UNL d   1      -4.512  -1.366   3.882  0.00  0.00    -0.001 A 
ENDROOT
TORSDOF 0
ENDMDL
