MODEL 1
REMARK minimizedAffinity 7.75023174
REMARK minimizedRMSD -1
REMARK  0 active torsions:
REMARK  status: ('A' for Active; 'I' for Inactive)
ROOT
ATOM      1  C   UNL d   1       2.084   4.935  -4.802  0.00  0.00     0.077 C 
ATOM      2  C1  UNL d   1       3.092   3.916  -4.362  0.00  0.00    -0.074 A 
ATOM      3  C2  UNL d   1       4.082   4.240  -3.427  0.00  0.00    -0.005 A 
ATOM      4  C3  UNL d   1       5.006   3.278  -3.020  0.00  0.00     0.006 A 
ATOM      5  C4  UNL d   1       4.952   1.985  -3.542  0.00  0.00    -0.005 A 
ATOM      6  C5  UNL d   1       3.969   1.643  -4.476  0.00  0.00    -0.074 A 
ATOM      7  C6  UNL d   1       3.890   0.255  -5.039  0.00  0.00     0.077 C 
ATOM      8  C7  UNL d   1       3.039   2.612  -4.875  0.00  0.00    -0.001 A 
ENDROOT
TORSDOF 0
ENDMDL
