MODEL 1
REMARK minimizedAffinity -4.09548426
REMARK minimizedRMSD -1
REMARK  0 active torsions:
REMARK  status: ('A' for Active; 'I' for Inactive)
ROOT
ATOM      1  C   UNL d   1       2.304   5.756  -5.999  0.00  0.00     0.077 C 
ATOM      2  C1  UNL d   1       3.559   5.121  -5.479  0.00  0.00    -0.074 A 
ATOM      3  C2  UNL d   1       4.810   5.471  -6.000  0.00  0.00    -0.005 A 
ATOM      4  C3  UNL d   1       5.970   4.879  -5.500  0.00  0.00     0.006 A 
ATOM      5  C4  UNL d   1       5.891   3.933  -4.477  0.00  0.00    -0.005 A 
ATOM      6  C5  UNL d   1       4.650   3.572  -3.943  0.00  0.00    -0.074 A 
ATOM      7  C6  UNL d   1       4.549   2.565  -2.837  0.00  0.00     0.077 C 
ATOM      8  C7  UNL d   1       3.490   4.176  -4.446  0.00  0.00    -0.001 A 
ENDROOT
TORSDOF 0
ENDMDL
