MODEL 1
REMARK minimizedAffinity 11.8220778
REMARK minimizedRMSD -1
REMARK  0 active torsions:
REMARK  status: ('A' for Active; 'I' for Inactive)
ROOT
ATOM      1  C   UNL d   1      -1.529  -2.026   0.899  0.00  0.00     0.077 C 
ATOM      2  C1  UNL d   1      -1.752  -3.414   1.422  0.00  0.00    -0.074 A 
ATOM      3  C2  UNL d   1      -0.749  -4.086   2.129  0.00  0.00    -0.005 A 
ATOM      4  C3  UNL d   1      -0.975  -5.372   2.618  0.00  0.00     0.006 A 
ATOM      5  C4  UNL d   1      -2.203  -6.000   2.405  0.00  0.00    -0.005 A 
ATOM      6  C5  UNL d   1      -3.217  -5.344   1.701  0.00  0.00    -0.074 A 
ATOM      7  C6  UNL d   1      -4.547  -6.000   1.472  0.00  0.00     0.077 C 
ATOM      8  C7  UNL d   1      -2.986  -4.048   1.219  0.00  0.00    -0.001 A 
ENDROOT
TORSDOF 0
ENDMDL
