MODEL 1
REMARK minimizedAffinity 6.53858089
REMARK minimizedRMSD -1
REMARK  0 active torsions:
REMARK  status: ('A' for Active; 'I' for Inactive)
ROOT
ATOM      1  C   UNL d   1       4.162  -0.088   1.051  0.00  0.00     0.077 C 
ATOM      2  C1  UNL d   1       3.089   0.679   0.337  0.00  0.00    -0.074 A 
ATOM      3  C2  UNL d   1       1.893   1.011   0.982  0.00  0.00    -0.005 A 
ATOM      4  C3  UNL d   1       0.908   1.733   0.308  0.00  0.00     0.006 A 
ATOM      5  C4  UNL d   1       1.108   2.129  -1.015  0.00  0.00    -0.005 A 
ATOM      6  C5  UNL d   1       2.297   1.806  -1.676  0.00  0.00    -0.074 A 
ATOM      7  C6  UNL d   1       2.532   2.232  -3.095  0.00  0.00     0.077 C 
ATOM      8  C7  UNL d   1       3.285   1.087  -0.990  0.00  0.00    -0.001 A 
ENDROOT
TORSDOF 0
ENDMDL
