MODEL 1
REMARK minimizedAffinity 9.36510372
REMARK minimizedRMSD -1
REMARK  0 active torsions:
REMARK  status: ('A' for Active; 'I' for Inactive)
ROOT
ATOM      1  C   UNL d   1      -3.722   2.015   3.376  0.00  0.00     0.077 C 
ATOM      2  C1  UNL d   1      -4.514   3.288   3.439  0.00  0.00    -0.074 A 
ATOM      3  C2  UNL d   1      -5.237   3.739   2.330  0.00  0.00    -0.005 A 
ATOM      4  C3  UNL d   1      -5.976   4.920   2.406  0.00  0.00     0.006 A 
ATOM      5  C4  UNL d   1      -6.000   5.659   3.589  0.00  0.00    -0.005 A 
ATOM      6  C5  UNL d   1      -5.284   5.222   4.708  0.00  0.00    -0.074 A 
ATOM      7  C6  UNL d   1      -5.306   6.000   5.991  0.00  0.00     0.077 C 
ATOM      8  C7  UNL d   1      -4.549   4.032   4.626  0.00  0.00    -0.001 A 
ENDROOT
TORSDOF 0
ENDMDL
