MODEL 1
REMARK minimizedAffinity 0.568149209
REMARK minimizedRMSD -1
REMARK  0 active torsions:
REMARK  status: ('A' for Active; 'I' for Inactive)
ROOT
ATOM      1  C   UNL d   1       1.127   4.722  -5.953  0.00  0.00     0.077 C 
ATOM      2  C1  UNL d   1       2.232   3.801  -5.529  0.00  0.00    -0.074 A 
ATOM      3  C2  UNL d   1       1.967   2.672  -4.747  0.00  0.00    -0.005 A 
ATOM      4  C3  UNL d   1       3.004   1.819  -4.369  0.00  0.00     0.006 A 
ATOM      5  C4  UNL d   1       4.314   2.086  -4.767  0.00  0.00    -0.005 A 
ATOM      6  C5  UNL d   1       4.599   3.210  -5.549  0.00  0.00    -0.074 A 
ATOM      7  C6  UNL d   1       6.000   3.506  -5.993  0.00  0.00     0.077 C 
ATOM      8  C7  UNL d   1       3.550   4.058  -5.931  0.00  0.00    -0.001 A 
ENDROOT
TORSDOF 0
ENDMDL
