MODEL 1
REMARK minimizedAffinity 2.27706599
REMARK minimizedRMSD -1
REMARK  0 active torsions:
REMARK  status: ('A' for Active; 'I' for Inactive)
ROOT
ATOM      1  C   UNL d   1       6.000   1.871  -2.252  0.00  0.00     0.077 C 
ATOM      2  C1  UNL d   1       5.375   2.417  -3.501  0.00  0.00    -0.074 A 
ATOM      3  C2  UNL d   1       4.217   1.843  -4.036  0.00  0.00    -0.005 A 
ATOM      4  C3  UNL d   1       3.641   2.367  -5.193  0.00  0.00     0.006 A 
ATOM      5  C4  UNL d   1       4.216   3.469  -5.827  0.00  0.00    -0.005 A 
ATOM      6  C5  UNL d   1       5.374   4.058  -5.306  0.00  0.00    -0.074 A 
ATOM      7  C6  UNL d   1       5.999   5.249  -5.969  0.00  0.00     0.077 C 
ATOM      8  C7  UNL d   1       5.942   3.529  -4.139  0.00  0.00    -0.001 A 
ENDROOT
TORSDOF 0
ENDMDL
