MODEL 1
REMARK minimizedAffinity 6.84315491
REMARK minimizedRMSD -1
REMARK  0 active torsions:
REMARK  status: ('A' for Active; 'I' for Inactive)
ROOT
ATOM      1  C   UNL d   1       5.997   4.522  -5.997  0.00  0.00     0.077 C 
ATOM      2  C1  UNL d   1       5.531   3.502  -5.001  0.00  0.00    -0.074 A 
ATOM      3  C2  UNL d   1       6.000   3.517  -3.684  0.00  0.00    -0.005 A 
ATOM      4  C3  UNL d   1       5.550   2.567  -2.766  0.00  0.00     0.006 A 
ATOM      5  C4  UNL d   1       4.628   1.595  -3.156  0.00  0.00    -0.005 A 
ATOM      6  C5  UNL d   1       4.147   1.565  -4.469  0.00  0.00    -0.074 A 
ATOM      7  C6  UNL d   1       3.149   0.533  -4.903  0.00  0.00     0.077 C 
ATOM      8  C7  UNL d   1       4.599   2.527  -5.383  0.00  0.00    -0.001 A 
ENDROOT
TORSDOF 0
ENDMDL
