MODEL 1
REMARK minimizedAffinity -1.18472457
REMARK minimizedRMSD -1
REMARK  0 active torsions:
REMARK  status: ('A' for Active; 'I' for Inactive)
ROOT
ATOM      1  C   UNL d   1       3.953   1.837  -3.769  0.00  0.00     0.077 C 
ATOM      2  C1  UNL d   1       3.860   3.291  -4.125  0.00  0.00    -0.074 A 
ATOM      3  C2  UNL d   1       4.862   4.190  -3.747  0.00  0.00    -0.005 A 
ATOM      4  C3  UNL d   1       4.766   5.538  -4.094  0.00  0.00     0.006 A 
ATOM      5  C4  UNL d   1       3.668   5.999  -4.821  0.00  0.00    -0.005 A 
ATOM      6  C5  UNL d   1       2.657   5.115  -5.209  0.00  0.00    -0.074 A 
ATOM      7  C6  UNL d   1       1.475   5.593  -5.999  0.00  0.00     0.077 C 
ATOM      8  C7  UNL d   1       2.764   3.761  -4.863  0.00  0.00    -0.001 A 
ENDROOT
TORSDOF 0
ENDMDL
