MODEL 1
REMARK minimizedAffinity 12.1956997
REMARK minimizedRMSD -1
REMARK  0 active torsions:
REMARK  status: ('A' for Active; 'I' for Inactive)
ROOT
ATOM      1  N1  IND d   1       1.552  -1.873   3.776  0.00  0.00    -0.196 N 
ATOM      2  C2  IND d   1       2.214  -1.428   4.886  0.00  0.00     0.054 A 
ATOM      3  C3  IND d   1       1.993  -0.106   5.066  0.00  0.00    -0.031 A 
ATOM      4  C4  IND d   1       0.497   1.501   3.722  0.00  0.00     0.051 A 
ATOM      5  C5  IND d   1      -0.280   1.563   2.599  0.00  0.00    -0.031 A 
ATOM      6  C6  IND d   1      -0.493   0.461   1.797  0.00  0.00     0.015 A 
ATOM      7  C7  IND d   1       0.057  -0.754   2.095  0.00  0.00    -0.016 A 
ATOM      8  C8  IND d   1       0.852  -0.820   3.230  0.00  0.00    -0.047 A 
ATOM      9  C9  IND d   1       1.107   0.306   4.025  0.00  0.00    -0.096 A 
ATOM     10  HN1 IND d   1       1.569  -2.677   3.470  0.00  0.00     0.298 HD
ENDROOT
TORSDOF 0
ENDMDL
