MODEL 1
REMARK minimizedAffinity 12.6778936
REMARK minimizedRMSD -1
REMARK  0 active torsions:
REMARK  status: ('A' for Active; 'I' for Inactive)
ROOT
ATOM      1  N1  IND d   1       2.331   0.752  -5.169  0.00  0.00    -0.196 N 
ATOM      2  C2  IND d   1       3.629   0.332  -5.251  0.00  0.00     0.054 A 
ATOM      3  C3  IND d   1       3.678  -0.990  -5.532  0.00  0.00    -0.031 A 
ATOM      4  C4  IND d   1       1.754  -2.636  -5.996  0.00  0.00     0.051 A 
ATOM      5  C5  IND d   1       0.391  -2.726  -5.999  0.00  0.00    -0.031 A 
ATOM      6  C6  IND d   1      -0.412  -1.638  -5.723  0.00  0.00     0.015 A 
ATOM      7  C7  IND d   1       0.121  -0.412  -5.443  0.00  0.00    -0.016 A 
ATOM      8  C8  IND d   1       1.505  -0.319  -5.432  0.00  0.00    -0.047 A 
ATOM      9  C9  IND d   1       2.326  -1.429  -5.669  0.00  0.00    -0.096 A 
ATOM     10  HN1 IND d   1       2.073   1.552  -4.983  0.00  0.00     0.298 HD
ENDROOT
TORSDOF 0
ENDMDL
