MODEL 1
REMARK minimizedAffinity 3.25077558
REMARK minimizedRMSD -1
REMARK  0 active torsions:
REMARK  status: ('A' for Active; 'I' for Inactive)
ROOT
ATOM      1  N1  IND d   1       0.190  -1.432   3.995  0.00  0.00    -0.196 N 
ATOM      2  C2  IND d   1       1.249  -2.080   4.567  0.00  0.00     0.054 A 
ATOM      3  C3  IND d   1       2.388  -1.377   4.378  0.00  0.00    -0.031 A 
ATOM      4  C4  IND d   1       2.730   0.910   3.247  0.00  0.00     0.051 A 
ATOM      5  C5  IND d   1       2.065   1.873   2.542  0.00  0.00    -0.031 A 
ATOM      6  C6  IND d   1       0.712   1.784   2.282  0.00  0.00     0.015 A 
ATOM      7  C7  IND d   1      -0.030   0.728   2.730  0.00  0.00    -0.016 A 
ATOM      8  C8  IND d   1       0.643  -0.256   3.440  0.00  0.00    -0.047 A 
ATOM      9  C9  IND d   1       2.024  -0.191   3.670  0.00  0.00    -0.096 A 
ATOM     10  HN1 IND d   1      -0.623  -1.712   3.983  0.00  0.00     0.298 HD
ENDROOT
TORSDOF 0
ENDMDL
