MODEL 1
REMARK minimizedAffinity 18.7264423
REMARK minimizedRMSD -1
REMARK  0 active torsions:
REMARK  status: ('A' for Active; 'I' for Inactive)
ROOT
ATOM      1  N1  IND d   1       0.636  -0.067  -4.796  0.00  0.00    -0.196 N 
ATOM      2  C2  IND d   1       1.514  -0.676  -5.648  0.00  0.00     0.054 A 
ATOM      3  C3  IND d   1       1.057  -1.899  -5.999  0.00  0.00    -0.031 A 
ATOM      4  C4  IND d   1      -1.155  -3.059  -5.377  0.00  0.00     0.051 A 
ATOM      5  C5  IND d   1      -2.265  -2.912  -4.594  0.00  0.00    -0.031 A 
ATOM      6  C6  IND d   1      -2.471  -1.785  -3.824  0.00  0.00     0.015 A 
ATOM      7  C7  IND d   1      -1.575  -0.754  -3.818  0.00  0.00    -0.016 A 
ATOM      8  C8  IND d   1      -0.443  -0.902  -4.607  0.00  0.00    -0.047 A 
ATOM      9  C9  IND d   1      -0.208  -2.062  -5.357  0.00  0.00    -0.096 A 
ATOM     10  HN1 IND d   1       0.740   0.708  -4.438  0.00  0.00     0.298 HD
ENDROOT
TORSDOF 0
ENDMDL
