MODEL 1
REMARK minimizedAffinity 15.0700941
REMARK minimizedRMSD -1
REMARK  0 active torsions:
REMARK  status: ('A' for Active; 'I' for Inactive)
ROOT
ATOM      1  N1  IND d   1       3.343  -0.477   4.446  0.00  0.00    -0.196 N 
ATOM      2  C2  IND d   1       3.879   0.771   4.289  0.00  0.00     0.054 A 
ATOM      3  C3  IND d   1       2.981   1.598   3.708  0.00  0.00    -0.031 A 
ATOM      4  C4  IND d   1       0.542   1.143   3.023  0.00  0.00     0.051 A 
ATOM      5  C5  IND d   1      -0.383   0.141   2.935  0.00  0.00    -0.031 A 
ATOM      6  C6  IND d   1      -0.109  -1.144   3.358  0.00  0.00     0.015 A 
ATOM      7  C7  IND d   1       1.103  -1.473   3.897  0.00  0.00    -0.016 A 
ATOM      8  C8  IND d   1       2.047  -0.459   3.981  0.00  0.00    -0.047 A 
ATOM      9  C9  IND d   1       1.789   0.836   3.514  0.00  0.00    -0.096 A 
ATOM     10  HN1 IND d   1       3.748  -1.158   4.780  0.00  0.00     0.298 HD
ENDROOT
TORSDOF 0
ENDMDL
