MODEL 1
REMARK minimizedAffinity 14.4270401
REMARK minimizedRMSD -1
REMARK  0 active torsions:
REMARK  status: ('A' for Active; 'I' for Inactive)
ROOT
ATOM      1  N1  IND d   1       1.224  -1.806   3.787  0.00  0.00    -0.196 N 
ATOM      2  C2  IND d   1       0.938  -0.684   3.062  0.00  0.00     0.054 A 
ATOM      3  C3  IND d   1       1.848   0.284   3.314  0.00  0.00    -0.031 A 
ATOM      4  C4  IND d   1       3.947   0.208   4.802  0.00  0.00     0.051 A 
ATOM      5  C5  IND d   1       4.607  -0.590   5.693  0.00  0.00    -0.031 A 
ATOM      6  C6  IND d   1       4.166  -1.862   5.998  0.00  0.00     0.015 A 
ATOM      7  C7  IND d   1       3.050  -2.389   5.413  0.00  0.00    -0.016 A 
ATOM      8  C8  IND d   1       2.373  -1.578   4.513  0.00  0.00    -0.047 A 
ATOM      9  C9  IND d   1       2.792  -0.271   4.231  0.00  0.00    -0.096 A 
ATOM     10  HN1 IND d   1       0.765  -2.533   3.790  0.00  0.00     0.298 HD
ENDROOT
TORSDOF 0
ENDMDL
