MODEL 1
REMARK minimizedAffinity 10.8041849
REMARK minimizedRMSD -1
REMARK  0 active torsions:
REMARK  status: ('A' for Active; 'I' for Inactive)
ROOT
ATOM      1  N1  IND d   1      -4.010   0.009   2.759  0.00  0.00    -0.196 N 
ATOM      2  C2  IND d   1      -4.210  -1.291   3.133  0.00  0.00     0.054 A 
ATOM      3  C3  IND d   1      -3.035  -1.872   3.464  0.00  0.00    -0.031 A 
ATOM      4  C4  IND d   1      -0.675  -0.849   3.562  0.00  0.00     0.051 A 
ATOM      5  C5  IND d   1       0.016   0.295   3.276  0.00  0.00    -0.031 A 
ATOM      6  C6  IND d   1      -0.613   1.426   2.796  0.00  0.00     0.015 A 
ATOM      7  C7  IND d   1      -1.964   1.458   2.594  0.00  0.00    -0.016 A 
ATOM      8  C8  IND d   1      -2.667   0.296   2.876  0.00  0.00    -0.047 A 
ATOM      9  C9  IND d   1      -2.029  -0.868   3.323  0.00  0.00    -0.096 A 
ATOM     10  HN1 IND d   1      -4.619   0.555   2.495  0.00  0.00     0.298 HD
ENDROOT
TORSDOF 0
ENDMDL
