MODEL 1
REMARK minimizedAffinity 13.5957346
REMARK minimizedRMSD -1
REMARK  0 active torsions:
REMARK  status: ('A' for Active; 'I' for Inactive)
ROOT
ATOM      1  N1  IND d   1       3.168   1.365  -5.725  0.00  0.00    -0.196 N 
ATOM      2  C2  IND d   1       4.506   1.103  -5.630  0.00  0.00     0.054 A 
ATOM      3  C3  IND d   1       4.713  -0.213  -5.402  0.00  0.00    -0.031 A 
ATOM      4  C4  IND d   1       3.005  -2.134  -5.249  0.00  0.00     0.051 A 
ATOM      5  C5  IND d   1       1.662  -2.382  -5.236  0.00  0.00    -0.031 A 
ATOM      6  C6  IND d   1       0.732  -1.374  -5.391  0.00  0.00     0.015 A 
ATOM      7  C7  IND d   1       1.115  -0.076  -5.577  0.00  0.00    -0.016 A 
ATOM      8  C8  IND d   1       2.478   0.181  -5.584  0.00  0.00    -0.047 A 
ATOM      9  C9  IND d   1       3.425  -0.832  -5.385  0.00  0.00    -0.096 A 
ATOM     10  HN1 IND d   1       2.816   2.140  -5.851  0.00  0.00     0.298 HD
ENDROOT
TORSDOF 0
ENDMDL
