MODEL 1
REMARK minimizedAffinity 10.3399458
REMARK minimizedRMSD -1
REMARK  1 active torsions:
REMARK  status: ('A' for Active; 'I' for Inactive)
REMARK    1  A    between atoms: C1_2  and  C2_3 
ROOT
ATOM      1  C2  UNL d   1       1.419   3.619   2.400  0.00  0.00    -0.076 A 
ATOM      2  C3  UNL d   1       2.294   4.419   1.644  0.00  0.00     0.004 A 
ATOM      3  C4  UNL d   1       1.890   4.978   0.433  0.00  0.00    -0.003 A 
ATOM      4  C5  UNL d   1       0.603   4.746  -0.042  0.00  0.00     0.000 A 
ATOM      5  C6  UNL d   1      -0.284   3.970   0.703  0.00  0.00     0.000 A 
ATOM      6  C7  UNL d   1       0.103   3.413   1.934  0.00  0.00    -0.073 A 
ATOM      7  C8  UNL d   1      -0.893   2.579   2.693  0.00  0.00     0.078 C 
ENDROOT
BRANCH   1   8
ATOM      8  C1  UNL d   1       1.922   3.017   3.692  0.00  0.00     0.053 C 
ATOM      9  C   UNL d   1       3.002   3.863   4.348  0.00  0.00     0.018 C 
ENDBRANCH   1   8
TORSDOF 1
ENDMDL
