MODEL 1
REMARK minimizedAffinity 7.02203751
REMARK minimizedRMSD -1
REMARK  1 active torsions:
REMARK  status: ('A' for Active; 'I' for Inactive)
REMARK    1  A    between atoms: C1_2  and  C2_3 
ROOT
ATOM      1  C2  UNL d   1       0.001   3.791   1.090  0.00  0.00    -0.076 A 
ATOM      2  C3  UNL d   1      -0.060   5.192   1.187  0.00  0.00     0.004 A 
ATOM      3  C4  UNL d   1       0.137   5.998   0.066  0.00  0.00    -0.003 A 
ATOM      4  C5  UNL d   1       0.398   5.415  -1.169  0.00  0.00     0.000 A 
ATOM      5  C6  UNL d   1       0.445   4.027  -1.286  0.00  0.00     0.000 A 
ATOM      6  C7  UNL d   1       0.232   3.200  -0.170  0.00  0.00    -0.073 A 
ATOM      7  C8  UNL d   1       0.300   1.708  -0.353  0.00  0.00     0.078 C 
ENDROOT
BRANCH   1   8
ATOM      8  C1  UNL d   1      -0.194   2.970   2.345  0.00  0.00     0.053 C 
ATOM      9  C   UNL d   1       1.082   2.842   3.162  0.00  0.00     0.018 C 
ENDBRANCH   1   8
TORSDOF 1
ENDMDL
