MODEL 1
REMARK minimizedAffinity 15.3372517
REMARK minimizedRMSD -1
REMARK  1 active torsions:
REMARK  status: ('A' for Active; 'I' for Inactive)
REMARK    1  A    between atoms: C1_2  and  C2_3 
ROOT
ATOM      1  C2  UNL d   1       4.245  -2.459   5.393  0.00  0.00    -0.076 A 
ATOM      2  C3  UNL d   1       3.474  -1.452   5.999  0.00  0.00     0.004 A 
ATOM      3  C4  UNL d   1       2.229  -1.094   5.485  0.00  0.00    -0.003 A 
ATOM      4  C5  UNL d   1       1.734  -1.738   4.356  0.00  0.00     0.000 A 
ATOM      5  C6  UNL d   1       2.477  -2.752   3.753  0.00  0.00     0.000 A 
ATOM      6  C7  UNL d   1       3.727  -3.137   4.268  0.00  0.00    -0.073 A 
ATOM      7  C8  UNL d   1       4.488  -4.232   3.574  0.00  0.00     0.078 C 
ENDROOT
BRANCH   1   8
ATOM      8  C1  UNL d   1       5.600  -2.786   5.979  0.00  0.00     0.053 C 
ATOM      9  C   UNL d   1       5.881  -4.281   5.999  0.00  0.00     0.018 C 
ENDBRANCH   1   8
TORSDOF 1
ENDMDL
