MODEL 1
REMARK minimizedAffinity 11.3019609
REMARK minimizedRMSD -1
REMARK  1 active torsions:
REMARK  status: ('A' for Active; 'I' for Inactive)
REMARK    1  A    between atoms: C1_2  and  C2_3 
ROOT
ATOM      1  C2  UNL d   1      -0.387   3.715   1.400  0.00  0.00    -0.076 A 
ATOM      2  C3  UNL d   1      -0.800   5.016   1.739  0.00  0.00     0.004 A 
ATOM      3  C4  UNL d   1      -0.953   5.997   0.761  0.00  0.00    -0.003 A 
ATOM      4  C5  UNL d   1      -0.696   5.694  -0.572  0.00  0.00     0.000 A 
ATOM      5  C6  UNL d   1      -0.302   4.404  -0.928  0.00  0.00     0.000 A 
ATOM      6  C7  UNL d   1      -0.159   3.399   0.044  0.00  0.00    -0.073 A 
ATOM      7  C8  UNL d   1       0.274   2.027  -0.396  0.00  0.00     0.078 C 
ENDROOT
BRANCH   1   8
ATOM      8  C1  UNL d   1      -0.212   2.700   2.507  0.00  0.00     0.053 C 
ATOM      9  C   UNL d   1       1.246   2.505   2.894  0.00  0.00     0.018 C 
ENDBRANCH   1   8
TORSDOF 1
ENDMDL
