MODEL 1
REMARK minimizedAffinity 13.8843012
REMARK minimizedRMSD -1
REMARK  1 active torsions:
REMARK  status: ('A' for Active; 'I' for Inactive)
REMARK    1  A    between atoms: C1_2  and  C2_3 
ROOT
ATOM      1  C2  UNL d   1       0.149   1.226  -0.378  0.00  0.00    -0.076 A 
ATOM      2  C3  UNL d   1      -1.179   1.384  -0.813  0.00  0.00     0.004 A 
ATOM      3  C4  UNL d   1      -1.719   0.547  -1.787  0.00  0.00    -0.003 A 
ATOM      4  C5  UNL d   1      -0.941  -0.463  -2.343  0.00  0.00     0.000 A 
ATOM      5  C6  UNL d   1       0.373  -0.645  -1.912  0.00  0.00     0.000 A 
ATOM      6  C7  UNL d   1       0.928   0.180  -0.918  0.00  0.00    -0.073 A 
ATOM      7  C8  UNL d   1       2.351  -0.057  -0.495  0.00  0.00     0.078 C 
ENDROOT
BRANCH   1   8
ATOM      8  C1  UNL d   1       0.689   2.181   0.662  0.00  0.00     0.053 C 
ATOM      9  C   UNL d   1       0.279   3.622   0.399  0.00  0.00     0.018 C 
ENDBRANCH   1   8
TORSDOF 1
ENDMDL
