MODEL 1
REMARK minimizedAffinity 8.60349846
REMARK minimizedRMSD -1
REMARK  1 active torsions:
REMARK  status: ('A' for Active; 'I' for Inactive)
REMARK    1  A    between atoms: C1_2  and  C2_3 
ROOT
ATOM      1  C2  UNL d   1      -0.142   2.932  -0.106  0.00  0.00    -0.076 A 
ATOM      2  C3  UNL d   1      -0.516   3.735  -1.198  0.00  0.00     0.004 A 
ATOM      3  C4  UNL d   1      -0.336   5.117  -1.167  0.00  0.00    -0.003 A 
ATOM      4  C5  UNL d   1       0.222   5.718  -0.044  0.00  0.00     0.000 A 
ATOM      5  C6  UNL d   1       0.615   4.935   1.041  0.00  0.00     0.000 A 
ATOM      6  C7  UNL d   1       0.455   3.539   1.019  0.00  0.00    -0.073 A 
ATOM      7  C8  UNL d   1       0.890   2.744   2.220  0.00  0.00     0.078 C 
ENDROOT
BRANCH   1   8
ATOM      8  C1  UNL d   1      -0.387   1.442  -0.186  0.00  0.00     0.053 C 
ATOM      9  C   UNL d   1      -1.852   1.103  -0.410  0.00  0.00     0.018 C 
ENDBRANCH   1   8
TORSDOF 1
ENDMDL
