MODEL 1
REMARK minimizedAffinity 6.54728746
REMARK minimizedRMSD -1
REMARK  1 active torsions:
REMARK  status: ('A' for Active; 'I' for Inactive)
REMARK    1  A    between atoms: C1_2  and  C2_3 
ROOT
ATOM      1  C2  UNL d   1       0.025   3.736   1.421  0.00  0.00    -0.076 A 
ATOM      2  C3  UNL d   1      -0.192   5.115   1.582  0.00  0.00     0.004 A 
ATOM      3  C4  UNL d   1      -0.017   5.998   0.518  0.00  0.00    -0.003 A 
ATOM      4  C5  UNL d   1       0.377   5.516  -0.725  0.00  0.00     0.000 A 
ATOM      5  C6  UNL d   1       0.579   4.149  -0.908  0.00  0.00     0.000 A 
ATOM      6  C7  UNL d   1       0.391   3.243   0.150  0.00  0.00    -0.073 A 
ATOM      7  C8  UNL d   1       0.629   1.779  -0.102  0.00  0.00     0.078 C 
ENDROOT
BRANCH   1   8
ATOM      8  C1  UNL d   1      -0.154   2.829   2.618  0.00  0.00     0.053 C 
ATOM      9  C   UNL d   1       1.168   2.459   3.271  0.00  0.00     0.018 C 
ENDBRANCH   1   8
TORSDOF 1
ENDMDL
