MODEL 1
REMARK minimizedAffinity -1.69237733
REMARK minimizedRMSD -1
REMARK  1 active torsions:
REMARK  status: ('A' for Active; 'I' for Inactive)
REMARK    1  A    between atoms: C3_4  and  O_7 
ROOT
ATOM      1  C   UNL d   1      -3.822   4.792  -5.798  0.00  0.00    -0.033 A 
ATOM      2  C1  UNL d   1      -5.131   4.350  -5.999  0.00  0.00     0.039 A 
ATOM      3  C2  UNL d   1      -5.416   2.983  -5.999  0.00  0.00    -0.080 A 
ATOM      4  C3  UNL d   1      -4.385   2.070  -5.796  0.00  0.00     0.150 A 
ATOM      5  C4  UNL d   1      -3.079   2.503  -5.591  0.00  0.00    -0.007 A 
ATOM      6  C5  UNL d   1      -2.796   3.868  -5.592  0.00  0.00     0.039 A 
ENDROOT
BRANCH   4   7
ATOM      7  O   UNL d   1      -4.614   0.726  -5.792  0.00  0.00    -0.526 OA
ATOM      8  H5  UNL d   1      -5.556   0.574  -5.975  0.00  0.00     0.418 HD
ENDBRANCH   4   7
TORSDOF 1
ENDMDL
