MODEL 1
REMARK minimizedAffinity -4.17863703
REMARK minimizedRMSD -1
REMARK  1 active torsions:
REMARK  status: ('A' for Active; 'I' for Inactive)
REMARK    1  A    between atoms: C3_4  and  O_7 
ROOT
ATOM      1  C   UNL d   1       4.532  -1.258  -1.873  0.00  0.00    -0.033 A 
ATOM      2  C1  UNL d   1       4.357   0.086  -1.539  0.00  0.00     0.039 A 
ATOM      3  C2  UNL d   1       3.104   0.549  -1.133  0.00  0.00    -0.080 A 
ATOM      4  C3  UNL d   1       2.036  -0.342  -1.063  0.00  0.00     0.150 A 
ATOM      5  C4  UNL d   1       2.204  -1.683  -1.391  0.00  0.00    -0.007 A 
ATOM      6  C5  UNL d   1       3.456  -2.143  -1.798  0.00  0.00     0.039 A 
ENDROOT
BRANCH   4   7
ATOM      7  O   UNL d   1       0.793   0.064  -0.676  0.00  0.00    -0.526 OA
ATOM      8  H5  UNL d   1       0.821   1.021  -0.509  0.00  0.00     0.418 HD
ENDBRANCH   4   7
TORSDOF 1
ENDMDL
