MODEL 1
REMARK minimizedAffinity -0.744290471
REMARK minimizedRMSD -1
REMARK  1 active torsions:
REMARK  status: ('A' for Active; 'I' for Inactive)
REMARK    1  A    between atoms: C3_4  and  O_7 
ROOT
ATOM      1  C   UNL d   1      -4.795   4.776  -5.733  0.00  0.00    -0.033 A 
ATOM      2  C1  UNL d   1      -3.771   5.669  -5.410  0.00  0.00     0.039 A 
ATOM      3  C2  UNL d   1      -2.449   5.224  -5.342  0.00  0.00    -0.080 A 
ATOM      4  C3  UNL d   1      -2.165   3.886  -5.600  0.00  0.00     0.150 A 
ATOM      5  C4  UNL d   1      -3.179   2.991  -5.926  0.00  0.00    -0.007 A 
ATOM      6  C5  UNL d   1      -4.498   3.437  -5.993  0.00  0.00     0.039 A 
ENDROOT
BRANCH   4   7
ATOM      7  O   UNL d   1      -0.891   3.404  -5.541  0.00  0.00    -0.526 OA
ATOM      8  H5  UNL d   1      -0.300   4.128  -5.277  0.00  0.00     0.418 HD
ENDBRANCH   4   7
TORSDOF 1
ENDMDL
