MODEL 1
REMARK minimizedAffinity -3.32264829
REMARK minimizedRMSD -1
REMARK  1 active torsions:
REMARK  status: ('A' for Active; 'I' for Inactive)
REMARK    1  A    between atoms: C3_4  and  O_7 
ROOT
ATOM      1  C   UNL d   1      -5.259   1.866  -5.946  0.00  0.00    -0.033 A 
ATOM      2  C1  UNL d   1      -5.543   3.232  -5.997  0.00  0.00     0.039 A 
ATOM      3  C2  UNL d   1      -4.537   4.166  -5.742  0.00  0.00    -0.080 A 
ATOM      4  C3  UNL d   1      -3.253   3.721  -5.439  0.00  0.00     0.150 A 
ATOM      5  C4  UNL d   1      -2.962   2.362  -5.391  0.00  0.00    -0.007 A 
ATOM      6  C5  UNL d   1      -3.969   1.431  -5.645  0.00  0.00     0.039 A 
ENDROOT
BRANCH   4   7
ATOM      7  O   UNL d   1      -2.240   4.595  -5.178  0.00  0.00    -0.526 OA
ATOM      8  H5  UNL d   1      -2.594   5.499  -5.219  0.00  0.00     0.418 HD
ENDBRANCH   4   7
TORSDOF 1
ENDMDL
