MODEL 1
REMARK minimizedAffinity -3.24474645
REMARK minimizedRMSD -1
REMARK  1 active torsions:
REMARK  status: ('A' for Active; 'I' for Inactive)
REMARK    1  A    between atoms: C3_4  and  O_7 
ROOT
ATOM      1  C   UNL d   1      -5.377   4.506  -5.847  0.00  0.00    -0.033 A 
ATOM      2  C1  UNL d   1      -5.171   3.134  -6.000  0.00  0.00     0.039 A 
ATOM      3  C2  UNL d   1      -3.878   2.609  -5.937  0.00  0.00    -0.080 A 
ATOM      4  C3  UNL d   1      -2.803   3.466  -5.721  0.00  0.00     0.150 A 
ATOM      5  C4  UNL d   1      -3.002   4.834  -5.564  0.00  0.00    -0.007 A 
ATOM      6  C5  UNL d   1      -4.293   5.356  -5.628  0.00  0.00     0.039 A 
ENDROOT
BRANCH   4   7
ATOM      7  O   UNL d   1      -1.523   3.001  -5.657  0.00  0.00    -0.526 OA
ATOM      8  H5  UNL d   1      -1.536   2.042  -5.811  0.00  0.00     0.418 HD
ENDBRANCH   4   7
TORSDOF 1
ENDMDL
