MODEL 1
REMARK minimizedAffinity 0.113616109
REMARK minimizedRMSD -1
REMARK  1 active torsions:
REMARK  status: ('A' for Active; 'I' for Inactive)
REMARK    1  A    between atoms: C3_4  and  O_7 
ROOT
ATOM      1  C   UNL d   1       0.115   0.179  -3.000  0.00  0.00    -0.033 A 
ATOM      2  C1  UNL d   1      -0.695  -0.923  -2.717  0.00  0.00     0.039 A 
ATOM      3  C2  UNL d   1      -0.720  -1.461  -1.429  0.00  0.00    -0.080 A 
ATOM      4  C3  UNL d   1       0.067  -0.888  -0.434  0.00  0.00     0.150 A 
ATOM      5  C4  UNL d   1       0.873   0.212  -0.707  0.00  0.00    -0.007 A 
ATOM      6  C5  UNL d   1       0.897   0.748  -1.994  0.00  0.00     0.039 A 
ENDROOT
BRANCH   4   7
ATOM      7  O   UNL d   1       0.079  -1.381   0.837  0.00  0.00    -0.526 OA
ATOM      8  H5  UNL d   1      -0.503  -2.159   0.871  0.00  0.00     0.418 HD
ENDBRANCH   4   7
TORSDOF 1
ENDMDL
