MODEL 1
REMARK minimizedAffinity -2.99600863
REMARK minimizedRMSD -1
REMARK  1 active torsions:
REMARK  status: ('A' for Active; 'I' for Inactive)
REMARK    1  A    between atoms: C3_4  and  O_7 
ROOT
ATOM      1  C   UNL d   1      -1.863   3.999  -5.736  0.00  0.00    -0.033 A 
ATOM      2  C1  UNL d   1      -2.600   2.816  -5.654  0.00  0.00     0.039 A 
ATOM      3  C2  UNL d   1      -3.993   2.852  -5.743  0.00  0.00    -0.080 A 
ATOM      4  C3  UNL d   1      -4.636   4.075  -5.913  0.00  0.00     0.150 A 
ATOM      5  C4  UNL d   1      -3.907   5.257  -6.000  0.00  0.00    -0.007 A 
ATOM      6  C5  UNL d   1      -2.517   5.219  -5.910  0.00  0.00     0.039 A 
ENDROOT
BRANCH   4   7
ATOM      7  O   UNL d   1      -5.994   4.160  -6.000  0.00  0.00    -0.526 OA
ATOM      8  H5  UNL d   1      -6.365   3.269  -5.895  0.00  0.00     0.418 HD
ENDBRANCH   4   7
TORSDOF 1
ENDMDL
