MODEL 1
REMARK minimizedAffinity -3.63470912
REMARK minimizedRMSD -1
REMARK  1 active torsions:
REMARK  status: ('A' for Active; 'I' for Inactive)
REMARK    1  A    between atoms: C3_4  and  O_7 
ROOT
ATOM      1  C   UNL d   1      -5.697   3.615  -5.984  0.00  0.00    -0.033 A 
ATOM      2  C1  UNL d   1      -4.825   4.703  -5.936  0.00  0.00     0.039 A 
ATOM      3  C2  UNL d   1      -3.445   4.493  -5.900  0.00  0.00    -0.080 A 
ATOM      4  C3  UNL d   1      -2.951   3.192  -5.913  0.00  0.00     0.150 A 
ATOM      5  C4  UNL d   1      -3.815   2.102  -5.964  0.00  0.00    -0.007 A 
ATOM      6  C5  UNL d   1      -5.192   2.314  -5.999  0.00  0.00     0.039 A 
ENDROOT
BRANCH   4   7
ATOM      7  O   UNL d   1      -1.613   2.937  -5.873  0.00  0.00    -0.526 OA
ATOM      8  H5  UNL d   1      -1.140   3.784  -5.811  0.00  0.00     0.418 HD
ENDBRANCH   4   7
TORSDOF 1
ENDMDL
