MODEL 1
REMARK minimizedAffinity 0.940682054
REMARK minimizedRMSD -1
REMARK  1 active torsions:
REMARK  status: ('A' for Active; 'I' for Inactive)
REMARK    1  A    between atoms: C3_4  and  O_7 
ROOT
ATOM      1  C   UNL d   1      -1.763   5.374  -5.839  0.00  0.00    -0.033 A 
ATOM      2  C1  UNL d   1      -1.694   3.988  -5.682  0.00  0.00     0.039 A 
ATOM      3  C2  UNL d   1      -2.862   3.225  -5.681  0.00  0.00    -0.080 A 
ATOM      4  C3  UNL d   1      -4.092   3.857  -5.839  0.00  0.00     0.150 A 
ATOM      5  C4  UNL d   1      -4.169   5.237  -6.000  0.00  0.00    -0.007 A 
ATOM      6  C5  UNL d   1      -3.001   5.998  -6.000  0.00  0.00     0.039 A 
ENDROOT
BRANCH   4   7
ATOM      7  O   UNL d   1      -5.260   3.154  -5.840  0.00  0.00    -0.526 OA
ATOM      8  H5  UNL d   1      -5.055   2.216  -5.691  0.00  0.00     0.418 HD
ENDBRANCH   4   7
TORSDOF 1
ENDMDL
