MODEL 1
REMARK minimizedAffinity -2.71345139
REMARK minimizedRMSD -1
REMARK  1 active torsions:
REMARK  status: ('A' for Active; 'I' for Inactive)
REMARK    1  A    between atoms: C3_4  and  O_7 
ROOT
ATOM      1  C   UNL d   1      -4.906   4.876  -6.000  0.00  0.00    -0.033 A 
ATOM      2  C1  UNL d   1      -4.798   3.484  -5.998  0.00  0.00     0.039 A 
ATOM      3  C2  UNL d   1      -3.539   2.880  -5.979  0.00  0.00    -0.080 A 
ATOM      4  C3  UNL d   1      -2.399   3.678  -5.960  0.00  0.00     0.150 A 
ATOM      5  C4  UNL d   1      -2.499   5.065  -5.958  0.00  0.00    -0.007 A 
ATOM      6  C5  UNL d   1      -3.757   5.667  -5.978  0.00  0.00     0.039 A 
ENDROOT
BRANCH   4   7
ATOM      7  O   UNL d   1      -1.149   3.134  -5.946  0.00  0.00    -0.526 OA
ATOM      8  H5  UNL d   1      -1.234   2.167  -5.979  0.00  0.00     0.418 HD
ENDBRANCH   4   7
TORSDOF 1
ENDMDL
