MODEL 1
REMARK minimizedAffinity -1.22406173
REMARK minimizedRMSD -1
REMARK  1 active torsions:
REMARK  status: ('A' for Active; 'I' for Inactive)
REMARK    1  A    between atoms: C3_4  and  O_7 
ROOT
ATOM      1  C   UNL d   1      -5.886   3.049  -5.630  0.00  0.00    -0.033 A 
ATOM      2  C1  UNL d   1      -5.626   4.370  -6.000  0.00  0.00     0.039 A 
ATOM      3  C2  UNL d   1      -4.315   4.852  -6.000  0.00  0.00    -0.080 A 
ATOM      4  C3  UNL d   1      -3.275   4.004  -5.630  0.00  0.00     0.150 A 
ATOM      5  C4  UNL d   1      -3.527   2.685  -5.264  0.00  0.00    -0.007 A 
ATOM      6  C5  UNL d   1      -4.836   2.206  -5.264  0.00  0.00     0.039 A 
ENDROOT
BRANCH   4   7
ATOM      7  O   UNL d   1      -1.981   4.430  -5.610  0.00  0.00    -0.526 OA
ATOM      8  H5  UNL d   1      -1.962   5.370  -5.858  0.00  0.00     0.418 HD
ENDBRANCH   4   7
TORSDOF 1
ENDMDL
