MODEL 1
REMARK minimizedAffinity -2.87775397
REMARK minimizedRMSD -1
REMARK  1 active torsions:
REMARK  status: ('A' for Active; 'I' for Inactive)
REMARK    1  A    between atoms: C3_4  and  O_7 
ROOT
ATOM      1  C   UNL d   1       3.050  -1.494  -1.885  0.00  0.00    -0.033 A 
ATOM      2  C1  UNL d   1       2.684  -0.436  -2.719  0.00  0.00     0.039 A 
ATOM      3  C2  UNL d   1       3.050  -0.448  -4.067  0.00  0.00    -0.080 A 
ATOM      4  C3  UNL d   1       3.780  -1.522  -4.567  0.00  0.00     0.150 A 
ATOM      5  C4  UNL d   1       4.145  -2.582  -3.743  0.00  0.00    -0.007 A 
ATOM      6  C5  UNL d   1       3.780  -2.568  -2.397  0.00  0.00     0.039 A 
ENDROOT
BRANCH   4   7
ATOM      7  O   UNL d   1       4.165  -1.576  -5.874  0.00  0.00    -0.526 OA
ATOM      8  H5  UNL d   1       3.867  -0.763  -6.316  0.00  0.00     0.418 HD
ENDBRANCH   4   7
TORSDOF 1
ENDMDL
