MODEL 1
REMARK minimizedAffinity -2.14432383
REMARK minimizedRMSD -1
REMARK  1 active torsions:
REMARK  status: ('A' for Active; 'I' for Inactive)
REMARK    1  A    between atoms: C3_4  and  O_7 
ROOT
ATOM      1  C   UNL d   1      -3.880  -3.034  -5.808  0.00  0.00    -0.033 A 
ATOM      2  C1  UNL d   1      -2.708  -2.285  -5.683  0.00  0.00     0.039 A 
ATOM      3  C2  UNL d   1      -2.762  -0.890  -5.715  0.00  0.00    -0.080 A 
ATOM      4  C3  UNL d   1      -3.992  -0.257  -5.871  0.00  0.00     0.150 A 
ATOM      5  C4  UNL d   1      -5.164  -0.997  -5.992  0.00  0.00    -0.007 A 
ATOM      6  C5  UNL d   1      -5.108  -2.390  -5.961  0.00  0.00     0.039 A 
ENDROOT
BRANCH   4   7
ATOM      7  O   UNL d   1      -4.094   1.101  -5.913  0.00  0.00    -0.526 OA
ATOM      8  H5  UNL d   1      -3.201   1.479  -5.846  0.00  0.00     0.418 HD
ENDBRANCH   4   7
TORSDOF 1
ENDMDL
