MODEL 1
REMARK minimizedAffinity -2.92299318
REMARK minimizedRMSD -1
REMARK  1 active torsions:
REMARK  status: ('A' for Active; 'I' for Inactive)
REMARK    1  A    between atoms: C3_4  and  O_7 
ROOT
ATOM      1  C   UNL d   1      -5.303   3.372  -5.970  0.00  0.00    -0.033 A 
ATOM      2  C1  UNL d   1      -4.285   2.418  -6.000  0.00  0.00     0.039 A 
ATOM      3  C2  UNL d   1      -2.948   2.820  -5.998  0.00  0.00    -0.080 A 
ATOM      4  C3  UNL d   1      -2.643   4.178  -5.964  0.00  0.00     0.150 A 
ATOM      5  C4  UNL d   1      -3.653   5.135  -5.930  0.00  0.00    -0.007 A 
ATOM      6  C5  UNL d   1      -4.987   4.731  -5.933  0.00  0.00     0.039 A 
ENDROOT
BRANCH   4   7
ATOM      7  O   UNL d   1      -1.354   4.619  -5.966  0.00  0.00    -0.526 OA
ATOM      8  H5  UNL d   1      -0.765   3.848  -6.020  0.00  0.00     0.418 HD
ENDBRANCH   4   7
TORSDOF 1
ENDMDL
