MODEL 1
REMARK minimizedAffinity -1.58750641
REMARK minimizedRMSD -1
REMARK  1 active torsions:
REMARK  status: ('A' for Active; 'I' for Inactive)
REMARK    1  A    between atoms: C3_4  and  O_7 
ROOT
ATOM      1  C   UNL d   1      -0.424  -1.428  -2.551  0.00  0.00    -0.033 A 
ATOM      2  C1  UNL d   1      -0.557  -0.056  -2.328  0.00  0.00     0.039 A 
ATOM      3  C2  UNL d   1      -1.603   0.652  -2.923  0.00  0.00    -0.080 A 
ATOM      4  C3  UNL d   1      -2.509  -0.023  -3.737  0.00  0.00     0.150 A 
ATOM      5  C4  UNL d   1      -2.385  -1.391  -3.961  0.00  0.00    -0.007 A 
ATOM      6  C5  UNL d   1      -1.339  -2.096  -3.366  0.00  0.00     0.039 A 
ENDROOT
BRANCH   4   7
ATOM      7  O   UNL d   1      -3.543   0.626  -4.344  0.00  0.00    -0.526 OA
ATOM      8  H5  UNL d   1      -3.485   1.570  -4.122  0.00  0.00     0.418 HD
ENDBRANCH   4   7
TORSDOF 1
ENDMDL
