MODEL 1
REMARK minimizedAffinity -3.11736774
REMARK minimizedRMSD -1
REMARK  0 active torsions:
REMARK  status: ('A' for Active; 'I' for Inactive)
ROOT
ATOM      1  C   UNL d   1      -5.598   0.643  -0.754  0.00  0.00     0.172 C 
ATOM      2  N   UNL d   1      -5.067   1.696   0.079  0.00  0.00    -0.070 N 
ATOM      3  C1  UNL d   1      -3.750   1.857   0.420  0.00  0.00    -0.004 A 
ATOM      4  C2  UNL d   1      -3.655   2.974   1.221  0.00  0.00    -0.047 A 
ATOM      5  C3  UNL d   1      -4.960   3.502   1.367  0.00  0.00    -0.047 A 
ATOM      6  C4  UNL d   1      -5.814   2.692   0.650  0.00  0.00    -0.004 A 
ENDROOT
TORSDOF 0
ENDMDL
