MODEL 1
REMARK minimizedAffinity -0.522569597
REMARK minimizedRMSD -1
REMARK  0 active torsions:
REMARK  status: ('A' for Active; 'I' for Inactive)
ROOT
ATOM      1  C   UNL d   1       3.931  -5.983  -2.374  0.00  0.00     0.172 C 
ATOM      2  N   UNL d   1       3.697  -5.977  -3.799  0.00  0.00    -0.070 N 
ATOM      3  C1  UNL d   1       2.470  -5.985  -4.406  0.00  0.00    -0.004 A 
ATOM      4  C2  UNL d   1       2.673  -5.975  -5.769  0.00  0.00    -0.047 A 
ATOM      5  C3  UNL d   1       4.071  -5.962  -5.989  0.00  0.00    -0.047 A 
ATOM      6  C4  UNL d   1       4.681  -5.964  -4.752  0.00  0.00    -0.004 A 
ENDROOT
TORSDOF 0
ENDMDL
