MODEL 1
REMARK minimizedAffinity 1.33671618
REMARK minimizedRMSD -1
REMARK  0 active torsions:
REMARK  status: ('A' for Active; 'I' for Inactive)
ROOT
ATOM      1  C   UNL d   1       1.347  -1.371   3.259  0.00  0.00     0.172 C 
ATOM      2  N   UNL d   1       2.189  -2.453   3.712  0.00  0.00    -0.070 N 
ATOM      3  C1  UNL d   1       3.365  -2.316   4.398  0.00  0.00    -0.004 A 
ATOM      4  C2  UNL d   1       3.860  -3.578   4.645  0.00  0.00    -0.047 A 
ATOM      5  C3  UNL d   1       2.950  -4.507   4.086  0.00  0.00    -0.047 A 
ATOM      6  C4  UNL d   1       1.924  -3.783   3.514  0.00  0.00    -0.004 A 
ENDROOT
TORSDOF 0
ENDMDL
