MODEL 1
REMARK minimizedAffinity -1.05194557
REMARK minimizedRMSD -1
REMARK  0 active torsions:
REMARK  status: ('A' for Active; 'I' for Inactive)
ROOT
ATOM      1  C   UNL d   1       4.501  -5.988  -1.839  0.00  0.00     0.172 C 
ATOM      2  N   UNL d   1       4.698  -5.990  -3.270  0.00  0.00    -0.070 N 
ATOM      3  C1  UNL d   1       5.908  -5.981  -3.910  0.00  0.00    -0.004 A 
ATOM      4  C2  UNL d   1       5.669  -5.987  -5.267  0.00  0.00    -0.047 A 
ATOM      5  C3  UNL d   1       4.265  -5.999  -5.449  0.00  0.00    -0.047 A 
ATOM      6  C4  UNL d   1       3.689  -6.000  -4.197  0.00  0.00    -0.004 A 
ENDROOT
TORSDOF 0
ENDMDL
