MODEL 1
REMARK minimizedAffinity 2.87117648
REMARK minimizedRMSD -1
REMARK  0 active torsions:
REMARK  status: ('A' for Active; 'I' for Inactive)
ROOT
ATOM      1  C   UNL d   1       1.625  -1.074   2.974  0.00  0.00     0.172 C 
ATOM      2  N   UNL d   1       1.801  -2.411   3.491  0.00  0.00    -0.070 N 
ATOM      3  C1  UNL d   1       2.750  -2.797   4.399  0.00  0.00    -0.004 A 
ATOM      4  C2  UNL d   1       2.587  -4.145   4.633  0.00  0.00    -0.047 A 
ATOM      5  C3  UNL d   1       1.503  -4.585   3.837  0.00  0.00    -0.047 A 
ATOM      6  C4  UNL d   1       1.035  -3.491   3.140  0.00  0.00    -0.004 A 
ENDROOT
TORSDOF 0
ENDMDL
