MODEL 1
REMARK minimizedAffinity 4.66994381
REMARK minimizedRMSD -1
REMARK  0 active torsions:
REMARK  status: ('A' for Active; 'I' for Inactive)
ROOT
ATOM      1  C   UNL d   1       3.011   1.626   0.911  0.00  0.00     0.172 C 
ATOM      2  N   UNL d   1       2.254   2.635   0.208  0.00  0.00    -0.070 N 
ATOM      3  C1  UNL d   1       0.946   2.963   0.448  0.00  0.00    -0.004 A 
ATOM      4  C2  UNL d   1       0.596   3.967  -0.428  0.00  0.00    -0.047 A 
ATOM      5  C3  UNL d   1       1.731   4.251  -1.223  0.00  0.00    -0.047 A 
ATOM      6  C4  UNL d   1       2.744   3.412  -0.808  0.00  0.00    -0.004 A 
ENDROOT
TORSDOF 0
ENDMDL
