MODEL 1
REMARK minimizedAffinity -0.123708829
REMARK minimizedRMSD -1
REMARK  0 active torsions:
REMARK  status: ('A' for Active; 'I' for Inactive)
ROOT
ATOM      1  C   UNL d   1       2.083  -0.534   3.557  0.00  0.00     0.172 C 
ATOM      2  N   UNL d   1       2.108  -1.965   3.747  0.00  0.00    -0.070 N 
ATOM      3  C1  UNL d   1       2.872  -2.636   4.664  0.00  0.00    -0.004 A 
ATOM      4  C2  UNL d   1       2.609  -3.982   4.529  0.00  0.00    -0.047 A 
ATOM      5  C3  UNL d   1       1.653  -4.125   3.495  0.00  0.00    -0.047 A 
ATOM      6  C4  UNL d   1       1.361  -2.861   3.028  0.00  0.00    -0.004 A 
ENDROOT
TORSDOF 0
ENDMDL
