MODEL 1
REMARK minimizedAffinity -3.84080267
REMARK minimizedRMSD -1
REMARK  0 active torsions:
REMARK  status: ('A' for Active; 'I' for Inactive)
ROOT
ATOM      1  C   UNL d   1       5.244   4.304   3.005  0.00  0.00     0.023 A 
ATOM      2  C1  UNL d   1       5.051   5.619   3.430  0.00  0.00     0.003 A 
ATOM      3  C2  UNL d   1       3.831   6.000   3.992  0.00  0.00     0.048 A 
ATOM      4  C3  UNL d   1       2.809   5.061   4.128  0.00  0.00     0.023 A 
ATOM      5  C4  UNL d   1       2.998   3.744   3.706  0.00  0.00     0.048 A 
ATOM      6  C5  UNL d   1       4.219   3.368   3.143  0.00  0.00     0.003 A 
ATOM      7  I   UNL d   1       0.992   5.626   4.965  0.00  0.00    -0.146 I 
ENDROOT
TORSDOF 0
ENDMDL
