MODEL 1
REMARK minimizedAffinity -0.437274337
REMARK minimizedRMSD -1
REMARK  0 active torsions:
REMARK  status: ('A' for Active; 'I' for Inactive)
ROOT
ATOM      1  C   UNL d   1       4.497   3.964   3.665  0.00  0.00     0.023 A 
ATOM      2  C1  UNL d   1       4.224   5.321   3.496  0.00  0.00     0.003 A 
ATOM      3  C2  UNL d   1       3.147   5.907   4.165  0.00  0.00     0.048 A 
ATOM      4  C3  UNL d   1       2.348   5.129   5.002  0.00  0.00     0.023 A 
ATOM      5  C4  UNL d   1       2.618   3.771   5.175  0.00  0.00     0.048 A 
ATOM      6  C5  UNL d   1       3.694   3.189   4.503  0.00  0.00     0.003 A 
ATOM      7  I   UNL d   1       0.745   5.999   6.000  0.00  0.00    -0.146 I 
ENDROOT
TORSDOF 0
ENDMDL
