MODEL 1
REMARK minimizedAffinity 1.81480145
REMARK minimizedRMSD -1
REMARK  0 active torsions:
REMARK  status: ('A' for Active; 'I' for Inactive)
ROOT
ATOM      1  C   UNL d   1       3.249   0.092  -1.463  0.00  0.00     0.023 A 
ATOM      2  C1  UNL d   1       4.131   1.153  -1.663  0.00  0.00     0.003 A 
ATOM      3  C2  UNL d   1       4.503   1.966  -0.589  0.00  0.00     0.048 A 
ATOM      4  C3  UNL d   1       3.988   1.710   0.681  0.00  0.00     0.023 A 
ATOM      5  C4  UNL d   1       3.105   0.649   0.886  0.00  0.00     0.048 A 
ATOM      6  C5  UNL d   1       2.736  -0.160  -0.190  0.00  0.00     0.003 A 
ATOM      7  I   UNL d   1       4.540   2.918   2.281  0.00  0.00    -0.146 I 
ENDROOT
TORSDOF 0
ENDMDL
