MODEL 1
REMARK minimizedAffinity 7.85883093
REMARK minimizedRMSD -1
REMARK  0 active torsions:
REMARK  status: ('A' for Active; 'I' for Inactive)
ROOT
ATOM      1  C   UNL d   1      -3.531   4.424   2.727  0.00  0.00     0.023 A 
ATOM      2  C1  UNL d   1      -3.242   4.379   1.363  0.00  0.00     0.003 A 
ATOM      3  C2  UNL d   1      -3.592   3.256   0.610  0.00  0.00     0.048 A 
ATOM      4  C3  UNL d   1      -4.232   2.182   1.228  0.00  0.00     0.023 A 
ATOM      5  C4  UNL d   1      -4.524   2.223   2.592  0.00  0.00     0.048 A 
ATOM      6  C5  UNL d   1      -4.172   3.348   3.340  0.00  0.00     0.003 A 
ATOM      7  I   UNL d   1      -4.754   0.509   0.110  0.00  0.00    -0.146 I 
ENDROOT
TORSDOF 0
ENDMDL
