MODEL 1
REMARK minimizedAffinity 2.00405478
REMARK minimizedRMSD -1
REMARK  0 active torsions:
REMARK  status: ('A' for Active; 'I' for Inactive)
ROOT
ATOM      1  C   UNL d   1       2.433   5.631   3.371  0.00  0.00     0.023 A 
ATOM      2  C1  UNL d   1       1.211   5.985   2.800  0.00  0.00     0.003 A 
ATOM      3  C2  UNL d   1       0.392   5.005   2.235  0.00  0.00     0.048 A 
ATOM      4  C3  UNL d   1       0.802   3.672   2.247  0.00  0.00     0.023 A 
ATOM      5  C4  UNL d   1       2.023   3.313   2.818  0.00  0.00     0.048 A 
ATOM      6  C5  UNL d   1       2.839   4.297   3.381  0.00  0.00     0.003 A 
ATOM      7  I   UNL d   1      -0.415   2.211   1.408  0.00  0.00    -0.146 I 
ENDROOT
TORSDOF 0
ENDMDL
