MODEL 1
REMARK minimizedAffinity 11.4157677
REMARK minimizedRMSD -1
REMARK  0 active torsions:
REMARK  status: ('A' for Active; 'I' for Inactive)
ROOT
ATOM      1  C   UNL d   1      -0.645   1.497   0.878  0.00  0.00     0.023 A 
ATOM      2  C1  UNL d   1      -0.255   1.998  -0.364  0.00  0.00     0.003 A 
ATOM      3  C2  UNL d   1       1.006   1.687  -0.879  0.00  0.00     0.048 A 
ATOM      4  C3  UNL d   1       1.870   0.874  -0.146  0.00  0.00     0.023 A 
ATOM      5  C4  UNL d   1       1.483   0.370   1.096  0.00  0.00     0.048 A 
ATOM      6  C5  UNL d   1       0.223   0.684   1.608  0.00  0.00     0.003 A 
ATOM      7  I   UNL d   1       3.746   0.409  -0.911  0.00  0.00    -0.146 I 
ENDROOT
TORSDOF 0
ENDMDL
