MODEL 1
REMARK minimizedAffinity 8.12926579
REMARK minimizedRMSD -1
REMARK  0 active torsions:
REMARK  status: ('A' for Active; 'I' for Inactive)
ROOT
ATOM      1  C   UNL d   1       2.362   1.732   0.232  0.00  0.00     0.023 A 
ATOM      2  C1  UNL d   1       1.442   1.496  -0.790  0.00  0.00     0.003 A 
ATOM      3  C2  UNL d   1       1.357   0.232  -1.376  0.00  0.00     0.048 A 
ATOM      4  C3  UNL d   1       2.193  -0.793  -0.934  0.00  0.00     0.023 A 
ATOM      5  C4  UNL d   1       3.114  -0.562   0.089  0.00  0.00     0.048 A 
ATOM      6  C5  UNL d   1       3.197   0.705   0.671  0.00  0.00     0.003 A 
ATOM      7  I   UNL d   1       2.068  -2.676  -1.804  0.00  0.00    -0.146 I 
ENDROOT
TORSDOF 0
ENDMDL
