MODEL 1
REMARK minimizedAffinity 8.93484592
REMARK minimizedRMSD -1
REMARK  0 active torsions:
REMARK  status: ('A' for Active; 'I' for Inactive)
ROOT
ATOM      1  C   UNL d   1       6.000   1.871  -1.285  0.00  0.00     0.023 A 
ATOM      2  C1  UNL d   1       5.947   1.873   0.109  0.00  0.00     0.003 A 
ATOM      3  C2  UNL d   1       4.777   1.486   0.765  0.00  0.00     0.048 A 
ATOM      4  C3  UNL d   1       3.663   1.098   0.022  0.00  0.00     0.023 A 
ATOM      5  C4  UNL d   1       3.711   1.093  -1.373  0.00  0.00     0.048 A 
ATOM      6  C5  UNL d   1       4.883   1.482  -2.025  0.00  0.00     0.003 A 
ATOM      7  I   UNL d   1       1.920   0.522   0.997  0.00  0.00    -0.146 I 
ENDROOT
TORSDOF 0
ENDMDL
