MODEL 1
REMARK minimizedAffinity -4.54828024
REMARK minimizedRMSD -1
REMARK  0 active torsions:
REMARK  status: ('A' for Active; 'I' for Inactive)
ROOT
ATOM      1  C   UNL d   1      -0.466   5.185   4.527  0.00  0.00     0.023 A 
ATOM      2  C1  UNL d   1       0.394   5.488   3.471  0.00  0.00     0.003 A 
ATOM      3  C2  UNL d   1       1.733   5.097   3.526  0.00  0.00     0.048 A 
ATOM      4  C3  UNL d   1       2.205   4.402   4.638  0.00  0.00     0.023 A 
ATOM      5  C4  UNL d   1       1.348   4.095   5.697  0.00  0.00     0.048 A 
ATOM      6  C5  UNL d   1       0.010   4.490   5.638  0.00  0.00     0.003 A 
ATOM      7  I   UNL d   1       4.198   3.818   4.722  0.00  0.00    -0.146 I 
ENDROOT
TORSDOF 0
ENDMDL
