MODEL 1
REMARK minimizedAffinity -5.58844376
REMARK minimizedRMSD -1
REMARK  0 active torsions:
REMARK  status: ('A' for Active; 'I' for Inactive)
ROOT
ATOM      1  C   UNL d   1      -0.467   0.506   0.988  0.00  0.00     0.077 C 
ATOM      2  C1  UNL d   1       0.336   0.038  -0.190  0.00  0.00    -0.074 A 
ATOM      3  C2  UNL d   1       1.049   0.946  -0.979  0.00  0.00    -0.005 A 
ATOM      4  C3  UNL d   1       1.800   0.495  -2.065  0.00  0.00     0.006 A 
ATOM      5  C4  UNL d   1       1.844  -0.866  -2.372  0.00  0.00    -0.005 A 
ATOM      6  C5  UNL d   1       1.138  -1.788  -1.594  0.00  0.00    -0.074 A 
ATOM      7  C6  UNL d   1       1.183  -3.255  -1.904  0.00  0.00     0.077 C 
ATOM      8  C7  UNL d   1       0.392  -1.328  -0.500  0.00  0.00    -0.001 A 
ENDROOT
TORSDOF 0
ENDMDL
