MODEL 1
REMARK minimizedAffinity -2.52132654
REMARK minimizedRMSD -1
REMARK  0 active torsions:
REMARK  status: ('A' for Active; 'I' for Inactive)
ROOT
ATOM      1  C   UNL d   1       0.783  -0.219  -2.974  0.00  0.00     0.077 C 
ATOM      2  C1  UNL d   1       0.364  -0.789  -1.651  0.00  0.00    -0.074 A 
ATOM      3  C2  UNL d   1       0.442  -2.163  -1.404  0.00  0.00    -0.005 A 
ATOM      4  C3  UNL d   1       0.057  -2.677  -0.165  0.00  0.00     0.006 A 
ATOM      5  C4  UNL d   1      -0.408  -1.824   0.836  0.00  0.00    -0.005 A 
ATOM      6  C5  UNL d   1      -0.491  -0.447   0.607  0.00  0.00    -0.074 A 
ATOM      7  C6  UNL d   1      -0.980   0.485   1.676  0.00  0.00     0.077 C 
ATOM      8  C7  UNL d   1      -0.097   0.063  -0.637  0.00  0.00    -0.001 A 
ENDROOT
TORSDOF 0
ENDMDL
