MODEL 1
REMARK minimizedAffinity -5.37529564
REMARK minimizedRMSD -1
REMARK  0 active torsions:
REMARK  status: ('A' for Active; 'I' for Inactive)
ROOT
ATOM      1  C   UNL d   1       1.380  -3.274  -1.317  0.00  0.00     0.077 C 
ATOM      2  C1  UNL d   1       1.409  -1.798  -1.583  0.00  0.00    -0.074 A 
ATOM      3  C2  UNL d   1       1.876  -1.297  -2.803  0.00  0.00    -0.005 A 
ATOM      4  C3  UNL d   1       1.888   0.077  -3.040  0.00  0.00     0.006 A 
ATOM      5  C4  UNL d   1       1.435   0.963  -2.062  0.00  0.00    -0.005 A 
ATOM      6  C5  UNL d   1       0.963   0.481  -0.837  0.00  0.00    -0.074 A 
ATOM      7  C6  UNL d   1       0.463   1.418   0.222  0.00  0.00     0.077 C 
ATOM      8  C7  UNL d   1       0.947  -0.902  -0.609  0.00  0.00    -0.001 A 
ENDROOT
TORSDOF 0
ENDMDL
