MODEL 1
REMARK minimizedAffinity -5.40019989
REMARK minimizedRMSD -1
REMARK  0 active torsions:
REMARK  status: ('A' for Active; 'I' for Inactive)
ROOT
ATOM      1  C   UNL d   1       1.404  -2.904  -2.041  0.00  0.00     0.077 C 
ATOM      2  C1  UNL d   1       1.135  -1.515  -1.543  0.00  0.00    -0.074 A 
ATOM      3  C2  UNL d   1       1.801  -0.414  -2.090  0.00  0.00    -0.005 A 
ATOM      4  C3  UNL d   1       1.534   0.873  -1.623  0.00  0.00     0.006 A 
ATOM      5  C4  UNL d   1       0.599   1.071  -0.606  0.00  0.00    -0.005 A 
ATOM      6  C5  UNL d   1      -0.077  -0.018  -0.047  0.00  0.00    -0.074 A 
ATOM      7  C6  UNL d   1      -1.092   0.179   1.040  0.00  0.00     0.077 C 
ATOM      8  C7  UNL d   1       0.192  -1.307  -0.527  0.00  0.00    -0.001 A 
ENDROOT
TORSDOF 0
ENDMDL
