MODEL 1
REMARK minimizedAffinity -4.26300812
REMARK minimizedRMSD -1
REMARK  0 active torsions:
REMARK  status: ('A' for Active; 'I' for Inactive)
ROOT
ATOM      1  C   UNL d   1      -0.491  -0.426   1.564  0.00  0.00     0.077 C 
ATOM      2  C1  UNL d   1      -1.877   0.051   1.880  0.00  0.00    -0.074 A 
ATOM      3  C2  UNL d   1      -2.992  -0.746   1.605  0.00  0.00    -0.005 A 
ATOM      4  C3  UNL d   1      -4.274  -0.292   1.914  0.00  0.00     0.006 A 
ATOM      5  C4  UNL d   1      -4.454   0.961   2.500  0.00  0.00    -0.005 A 
ATOM      6  C5  UNL d   1      -3.350   1.772   2.783  0.00  0.00    -0.074 A 
ATOM      7  C6  UNL d   1      -3.525   3.118   3.422  0.00  0.00     0.077 C 
ATOM      8  C7  UNL d   1      -2.065   1.306   2.477  0.00  0.00    -0.001 A 
ENDROOT
TORSDOF 0
ENDMDL
