MODEL 1
REMARK minimizedAffinity -3.6410017
REMARK minimizedRMSD -1
REMARK  0 active torsions:
REMARK  status: ('A' for Active; 'I' for Inactive)
ROOT
ATOM      1  C   UNL d   1      -1.177   0.240   1.868  0.00  0.00     0.077 C 
ATOM      2  C1  UNL d   1      -0.398  -0.118   0.638  0.00  0.00    -0.074 A 
ATOM      3  C2  UNL d   1       0.227   0.870  -0.130  0.00  0.00    -0.005 A 
ATOM      4  C3  UNL d   1       0.957   0.521  -1.267  0.00  0.00     0.006 A 
ATOM      5  C4  UNL d   1       1.068  -0.817  -1.647  0.00  0.00    -0.005 A 
ATOM      6  C5  UNL d   1       0.450  -1.819  -0.891  0.00  0.00    -0.074 A 
ATOM      7  C6  UNL d   1       0.568  -3.263  -1.280  0.00  0.00     0.077 C 
ATOM      8  C7  UNL d   1      -0.275  -1.461   0.254  0.00  0.00    -0.001 A 
ENDROOT
TORSDOF 0
ENDMDL
