MODEL 1
REMARK minimizedAffinity -3.2909615
REMARK minimizedRMSD -1
REMARK  0 active torsions:
REMARK  status: ('A' for Active; 'I' for Inactive)
ROOT
ATOM      1  C   UNL d   1      -0.444  -2.120   0.871  0.00  0.00     0.077 C 
ATOM      2  C1  UNL d   1       0.035  -0.769   0.427  0.00  0.00    -0.074 A 
ATOM      3  C2  UNL d   1      -0.151   0.359   1.232  0.00  0.00    -0.005 A 
ATOM      4  C3  UNL d   1       0.308   1.607   0.810  0.00  0.00     0.006 A 
ATOM      5  C4  UNL d   1       0.957   1.739  -0.418  0.00  0.00    -0.005 A 
ATOM      6  C5  UNL d   1       1.152   0.621  -1.236  0.00  0.00    -0.074 A 
ATOM      7  C6  UNL d   1       1.857   0.743  -2.555  0.00  0.00     0.077 C 
ATOM      8  C7  UNL d   1       0.694  -0.630  -0.802  0.00  0.00    -0.001 A 
ENDROOT
TORSDOF 0
ENDMDL
