MODEL 1
REMARK minimizedAffinity -3.97227788
REMARK minimizedRMSD -1
REMARK  0 active torsions:
REMARK  status: ('A' for Active; 'I' for Inactive)
ROOT
ATOM      1  C   UNL d   1      -1.208   0.059   2.642  0.00  0.00     0.077 C 
ATOM      2  C1  UNL d   1      -0.523  -0.618   1.492  0.00  0.00    -0.074 A 
ATOM      3  C2  UNL d   1      -0.206  -1.979   1.544  0.00  0.00    -0.005 A 
ATOM      4  C3  UNL d   1       0.422  -2.597   0.463  0.00  0.00     0.006 A 
ATOM      5  C4  UNL d   1       0.740  -1.862  -0.679  0.00  0.00    -0.005 A 
ATOM      6  C5  UNL d   1       0.431  -0.500  -0.750  0.00  0.00    -0.074 A 
ATOM      7  C6  UNL d   1       0.757   0.303  -1.974  0.00  0.00     0.077 C 
ATOM      8  C7  UNL d   1      -0.207   0.113   0.338  0.00  0.00    -0.001 A 
ENDROOT
TORSDOF 0
ENDMDL
