MODEL 1
REMARK minimizedAffinity -5.56366825
REMARK minimizedRMSD -1
REMARK  0 active torsions:
REMARK  status: ('A' for Active; 'I' for Inactive)
ROOT
ATOM      1  C   UNL d   1       1.899   2.891  -0.060  0.00  0.00     0.077 C 
ATOM      2  C1  UNL d   1       1.345   1.523  -0.325  0.00  0.00    -0.074 A 
ATOM      3  C2  UNL d   1       1.496   0.917  -1.577  0.00  0.00    -0.005 A 
ATOM      4  C3  UNL d   1       0.984  -0.360  -1.807  0.00  0.00     0.006 A 
ATOM      5  C4  UNL d   1       0.317  -1.043  -0.789  0.00  0.00    -0.005 A 
ATOM      6  C5  UNL d   1       0.157  -0.454   0.469  0.00  0.00    -0.074 A 
ATOM      7  C6  UNL d   1      -0.548  -1.178   1.577  0.00  0.00     0.077 C 
ATOM      8  C7  UNL d   1       0.681   0.827   0.694  0.00  0.00    -0.001 A 
ENDROOT
TORSDOF 0
ENDMDL
