MODEL 1
REMARK minimizedAffinity -4.68689919
REMARK minimizedRMSD -1
REMARK  0 active torsions:
REMARK  status: ('A' for Active; 'I' for Inactive)
ROOT
ATOM      1  C   UNL d   1       1.801  -0.725  -3.233  0.00  0.00     0.077 C 
ATOM      2  C1  UNL d   1       1.153   0.140  -2.193  0.00  0.00    -0.074 A 
ATOM      3  C2  UNL d   1       1.584   1.453  -1.981  0.00  0.00    -0.005 A 
ATOM      4  C3  UNL d   1       0.965   2.249  -1.016  0.00  0.00     0.006 A 
ATOM      5  C4  UNL d   1      -0.088   1.740  -0.255  0.00  0.00    -0.005 A 
ATOM      6  C5  UNL d   1      -0.532   0.429  -0.454  0.00  0.00    -0.074 A 
ATOM      7  C6  UNL d   1      -1.669  -0.131   0.349  0.00  0.00     0.077 C 
ATOM      8  C7  UNL d   1       0.090  -0.362  -1.430  0.00  0.00    -0.001 A 
ENDROOT
TORSDOF 0
ENDMDL
