MODEL 1
REMARK minimizedAffinity -1.55602872
REMARK minimizedRMSD -1
REMARK  0 active torsions:
REMARK  status: ('A' for Active; 'I' for Inactive)
ROOT
ATOM      1  C   UNL d   1       2.436  -0.044  -2.550  0.00  0.00     0.077 C 
ATOM      2  C1  UNL d   1       1.803   0.439  -1.279  0.00  0.00    -0.074 A 
ATOM      3  C2  UNL d   1       2.428   1.409  -0.488  0.00  0.00    -0.005 A 
ATOM      4  C3  UNL d   1       1.823   1.855   0.686  0.00  0.00     0.006 A 
ATOM      5  C4  UNL d   1       0.589   1.337   1.081  0.00  0.00    -0.005 A 
ATOM      6  C5  UNL d   1      -0.052   0.368   0.302  0.00  0.00    -0.074 A 
ATOM      7  C6  UNL d   1      -1.383  -0.191   0.707  0.00  0.00     0.077 C 
ATOM      8  C7  UNL d   1       0.560  -0.070  -0.880  0.00  0.00    -0.001 A 
ENDROOT
TORSDOF 0
ENDMDL
