MODEL 1
REMARK minimizedAffinity -2.63707328
REMARK minimizedRMSD -1
REMARK  0 active torsions:
REMARK  status: ('A' for Active; 'I' for Inactive)
ROOT
ATOM      1  C   UNL d   1      -0.171   0.005   1.506  0.00  0.00     0.077 C 
ATOM      2  C1  UNL d   1      -1.405   0.706   1.990  0.00  0.00    -0.074 A 
ATOM      3  C2  UNL d   1      -2.640   0.500   1.367  0.00  0.00    -0.005 A 
ATOM      4  C3  UNL d   1      -3.781   1.152   1.834  0.00  0.00     0.006 A 
ATOM      5  C4  UNL d   1      -3.699   2.015   2.928  0.00  0.00    -0.005 A 
ATOM      6  C5  UNL d   1      -2.473   2.233   3.564  0.00  0.00    -0.074 A 
ATOM      7  C6  UNL d   1      -2.370   3.149   4.747  0.00  0.00     0.077 C 
ATOM      8  C7  UNL d   1      -1.332   1.569   3.093  0.00  0.00    -0.001 A 
ENDROOT
TORSDOF 0
ENDMDL
