MODEL 1
REMARK minimizedAffinity -0.864774287
REMARK minimizedRMSD -1
REMARK  0 active torsions:
REMARK  status: ('A' for Active; 'I' for Inactive)
ROOT
ATOM      1  C   UNL d   1       3.141  -1.633  -1.719  0.00  0.00     0.077 C 
ATOM      2  C1  UNL d   1       2.464  -0.351  -1.333  0.00  0.00    -0.074 A 
ATOM      3  C2  UNL d   1       2.578   0.791  -2.132  0.00  0.00    -0.005 A 
ATOM      4  C3  UNL d   1       1.935   1.973  -1.765  0.00  0.00     0.006 A 
ATOM      5  C4  UNL d   1       1.173   2.025  -0.596  0.00  0.00    -0.005 A 
ATOM      6  C5  UNL d   1       1.048   0.892   0.215  0.00  0.00    -0.074 A 
ATOM      7  C6  UNL d   1       0.225   0.928   1.469  0.00  0.00     0.077 C 
ATOM      8  C7  UNL d   1       1.691  -0.294  -0.164  0.00  0.00    -0.001 A 
ENDROOT
TORSDOF 0
ENDMDL
