MODEL 1
REMARK minimizedAffinity -3.76741505
REMARK minimizedRMSD -1
REMARK  0 active torsions:
REMARK  status: ('A' for Active; 'I' for Inactive)
ROOT
ATOM      1  C   UNL d   1       0.082   1.086   0.127  0.00  0.00     0.077 C 
ATOM      2  C1  UNL d   1       0.737   0.138  -0.833  0.00  0.00    -0.074 A 
ATOM      3  C2  UNL d   1       1.535   0.611  -1.880  0.00  0.00    -0.005 A 
ATOM      4  C3  UNL d   1       2.146  -0.283  -2.759  0.00  0.00     0.006 A 
ATOM      5  C4  UNL d   1       1.965  -1.658  -2.601  0.00  0.00    -0.005 A 
ATOM      6  C5  UNL d   1       1.172  -2.150  -1.559  0.00  0.00    -0.074 A 
ATOM      7  C6  UNL d   1       0.975  -3.625  -1.369  0.00  0.00     0.077 C 
ATOM      8  C7  UNL d   1       0.567  -1.245  -0.676  0.00  0.00    -0.001 A 
ENDROOT
TORSDOF 0
ENDMDL
