MODEL 1
REMARK minimizedAffinity -5.76645899
REMARK minimizedRMSD -1
REMARK  0 active torsions:
REMARK  status: ('A' for Active; 'I' for Inactive)
ROOT
ATOM      1  C   UNL d   1       2.282   0.076  -3.014  0.00  0.00     0.077 C 
ATOM      2  C1  UNL d   1       1.529  -0.678  -1.959  0.00  0.00    -0.074 A 
ATOM      3  C2  UNL d   1       1.502  -2.077  -1.957  0.00  0.00    -0.005 A 
ATOM      4  C3  UNL d   1       0.805  -2.765  -0.964  0.00  0.00     0.006 A 
ATOM      5  C4  UNL d   1       0.130  -2.063   0.036  0.00  0.00    -0.005 A 
ATOM      6  C5  UNL d   1       0.147  -0.665   0.051  0.00  0.00    -0.074 A 
ATOM      7  C6  UNL d   1      -0.565   0.105   1.123  0.00  0.00     0.077 C 
ATOM      8  C7  UNL d   1       0.855   0.020  -0.947  0.00  0.00    -0.001 A 
ENDROOT
TORSDOF 0
ENDMDL
