MODEL 1
REMARK minimizedAffinity -4.87637615
REMARK minimizedRMSD -1
REMARK  0 active torsions:
REMARK  status: ('A' for Active; 'I' for Inactive)
ROOT
ATOM      1  C   UNL d   1       1.513  -0.321  -3.112  0.00  0.00     0.077 C 
ATOM      2  C1  UNL d   1       0.944  -0.826  -1.820  0.00  0.00    -0.074 A 
ATOM      3  C2  UNL d   1       0.773  -2.196  -1.597  0.00  0.00    -0.005 A 
ATOM      4  C3  UNL d   1       0.252  -2.652  -0.386  0.00  0.00     0.006 A 
ATOM      5  C4  UNL d   1      -0.102  -1.744   0.613  0.00  0.00    -0.005 A 
ATOM      6  C5  UNL d   1       0.062  -0.371   0.408  0.00  0.00    -0.074 A 
ATOM      7  C6  UNL d   1      -0.305   0.618   1.474  0.00  0.00     0.077 C 
ATOM      8  C7  UNL d   1       0.593   0.079  -0.809  0.00  0.00    -0.001 A 
ENDROOT
TORSDOF 0
ENDMDL
