MODEL 1
REMARK minimizedAffinity 0.275326103
REMARK minimizedRMSD -1
REMARK  0 active torsions:
REMARK  status: ('A' for Active; 'I' for Inactive)
ROOT
ATOM      1  C   UNL d   1      -1.644   6.000  -4.044  0.00  0.00     0.020 A 
ATOM      2  C1  UNL d   1      -1.720   5.761  -5.415  0.00  0.00     0.020 A 
ATOM      3  C2  UNL d   1      -0.913   4.781  -5.999  0.00  0.00     0.034 A 
ATOM      4  C3  UNL d   1      -0.027   4.038  -5.211  0.00  0.00     0.017 A 
ATOM      5  C4  UNL d   1       0.049   4.279  -3.835  0.00  0.00     0.017 A 
ATOM      6  C5  UNL d   1      -0.761   5.261  -3.256  0.00  0.00     0.034 A 
ATOM      7 Cl   UNL d   1       1.118   3.402  -2.798  0.00  0.00    -0.070 Cl
ATOM      8 Cl1  UNL d   1       0.940   2.843  -6.000  0.00  0.00    -0.070 Cl
ENDROOT
TORSDOF 0
ENDMDL
