MODEL 1
REMARK minimizedAffinity 1.13389838
REMARK minimizedRMSD -1
REMARK  0 active torsions:
REMARK  status: ('A' for Active; 'I' for Inactive)
ROOT
ATOM      1  C   UNL d   1       0.458   2.777  -5.913  0.00  0.00     0.020 A 
ATOM      2  C1  UNL d   1       0.805   4.119  -5.769  0.00  0.00     0.020 A 
ATOM      3  C2  UNL d   1      -0.193   5.094  -5.693  0.00  0.00     0.034 A 
ATOM      4  C3  UNL d   1      -1.542   4.727  -5.762  0.00  0.00     0.017 A 
ATOM      5  C4  UNL d   1      -1.889   3.378  -5.906  0.00  0.00     0.017 A 
ATOM      6  C5  UNL d   1      -0.886   2.407  -5.981  0.00  0.00     0.034 A 
ATOM      7 Cl   UNL d   1      -3.532   2.849  -5.997  0.00  0.00    -0.070 Cl
ATOM      8 Cl1  UNL d   1      -2.723   5.984  -5.661  0.00  0.00    -0.070 Cl
ENDROOT
TORSDOF 0
ENDMDL
