MODEL 1
REMARK minimizedAffinity -0.0670280382
REMARK minimizedRMSD -1
REMARK  0 active torsions:
REMARK  status: ('A' for Active; 'I' for Inactive)
ROOT
ATOM      1  C   UNL d   1      -2.390   3.001  -5.997  0.00  0.00     0.020 A 
ATOM      2  C1  UNL d   1      -2.521   4.389  -5.997  0.00  0.00     0.020 A 
ATOM      3  C2  UNL d   1      -1.383   5.198  -5.997  0.00  0.00     0.034 A 
ATOM      4  C3  UNL d   1      -0.108   4.620  -5.995  0.00  0.00     0.017 A 
ATOM      5  C4  UNL d   1       0.022   3.226  -5.995  0.00  0.00     0.017 A 
ATOM      6  C5  UNL d   1      -1.121   2.421  -5.996  0.00  0.00     0.034 A 
ATOM      7 Cl   UNL d   1       1.561   2.439  -5.994  0.00  0.00    -0.070 Cl
ATOM      8 Cl1  UNL d   1       1.256   5.680  -5.995  0.00  0.00    -0.070 Cl
ENDROOT
TORSDOF 0
ENDMDL
