MODEL 1
REMARK minimizedAffinity -0.361712694
REMARK minimizedRMSD -1
REMARK  0 active torsions:
REMARK  status: ('A' for Active; 'I' for Inactive)
ROOT
ATOM      1  C   UNL d   1      -2.129   3.803  -5.982  0.00  0.00     0.020 A 
ATOM      2  C1  UNL d   1      -2.066   5.196  -5.982  0.00  0.00     0.020 A 
ATOM      3  C2  UNL d   1      -0.826   5.839  -5.987  0.00  0.00     0.034 A 
ATOM      4  C3  UNL d   1       0.356   5.089  -5.992  0.00  0.00     0.017 A 
ATOM      5  C4  UNL d   1       0.292   3.691  -5.992  0.00  0.00     0.017 A 
ATOM      6  C5  UNL d   1      -0.952   3.053  -5.987  0.00  0.00     0.034 A 
ATOM      7 Cl   UNL d   1       1.706   2.699  -5.999  0.00  0.00    -0.070 Cl
ATOM      8 Cl1  UNL d   1       1.854   5.951  -5.998  0.00  0.00    -0.070 Cl
ENDROOT
TORSDOF 0
ENDMDL
