MODEL 1
REMARK minimizedAffinity -2.0974791
REMARK minimizedRMSD -1
REMARK  0 active torsions:
REMARK  status: ('A' for Active; 'I' for Inactive)
ROOT
ATOM      1  C   UNL d   1      -3.577   5.253  -5.989  0.00  0.00     0.020 A 
ATOM      2  C1  UNL d   1      -3.777   3.873  -5.993  0.00  0.00     0.020 A 
ATOM      3  C2  UNL d   1      -2.681   3.008  -5.995  0.00  0.00     0.034 A 
ATOM      4  C3  UNL d   1      -1.379   3.523  -5.993  0.00  0.00     0.017 A 
ATOM      5  C4  UNL d   1      -1.179   4.908  -5.988  0.00  0.00     0.017 A 
ATOM      6  C5  UNL d   1      -2.281   5.769  -5.986  0.00  0.00     0.034 A 
ATOM      7 Cl   UNL d   1       0.397   5.617  -5.985  0.00  0.00    -0.070 Cl
ATOM      8 Cl1  UNL d   1      -0.070   2.395  -5.995  0.00  0.00    -0.070 Cl
ENDROOT
TORSDOF 0
ENDMDL
