MODEL 1
REMARK minimizedAffinity 2.50155091
REMARK minimizedRMSD -1
REMARK  0 active torsions:
REMARK  status: ('A' for Active; 'I' for Inactive)
ROOT
ATOM      1  C   UNL d   1      -2.062   2.982  -5.987  0.00  0.00     0.020 A 
ATOM      2  C1  UNL d   1      -2.093   4.376  -5.989  0.00  0.00     0.020 A 
ATOM      3  C2  UNL d   1      -0.900   5.101  -5.993  0.00  0.00     0.034 A 
ATOM      4  C3  UNL d   1       0.330   4.433  -5.994  0.00  0.00     0.017 A 
ATOM      5  C4  UNL d   1       0.360   3.033  -5.992  0.00  0.00     0.017 A 
ATOM      6  C5  UNL d   1      -0.838   2.312  -5.989  0.00  0.00     0.034 A 
ATOM      7 Cl   UNL d   1       1.839   2.138  -5.994  0.00  0.00    -0.070 Cl
ATOM      8 Cl1  UNL d   1       1.766   5.393  -5.999  0.00  0.00    -0.070 Cl
ENDROOT
TORSDOF 0
ENDMDL
