MODEL 1
REMARK minimizedAffinity 3.11181164
REMARK minimizedRMSD -1
REMARK  0 active torsions:
REMARK  status: ('A' for Active; 'I' for Inactive)
ROOT
ATOM      1  C   UNL d   1      -2.622   4.767  -5.964  0.00  0.00     0.020 A 
ATOM      2  C1  UNL d   1      -2.669   3.373  -5.964  0.00  0.00     0.020 A 
ATOM      3  C2  UNL d   1      -1.484   2.635  -5.974  0.00  0.00     0.034 A 
ATOM      4  C3  UNL d   1      -0.247   3.289  -5.985  0.00  0.00     0.017 A 
ATOM      5  C4  UNL d   1      -0.201   4.688  -5.986  0.00  0.00     0.017 A 
ATOM      6  C5  UNL d   1      -1.390   5.423  -5.975  0.00  0.00     0.034 A 
ATOM      7 Cl   UNL d   1       1.288   5.566  -5.999  0.00  0.00    -0.070 Cl
ATOM      8 Cl1  UNL d   1       1.179   2.313  -5.997  0.00  0.00    -0.070 Cl
ENDROOT
TORSDOF 0
ENDMDL
