MODEL 1
REMARK minimizedAffinity 0.115132563
REMARK minimizedRMSD -1
REMARK  0 active torsions:
REMARK  status: ('A' for Active; 'I' for Inactive)
ROOT
ATOM      1  C   UNL d   1      -3.181   5.789  -5.909  0.00  0.00     0.020 A 
ATOM      2  C1  UNL d   1      -3.855   4.570  -5.965  0.00  0.00     0.020 A 
ATOM      3  C2  UNL d   1      -3.133   3.374  -5.988  0.00  0.00     0.034 A 
ATOM      4  C3  UNL d   1      -1.734   3.396  -5.956  0.00  0.00     0.017 A 
ATOM      5  C4  UNL d   1      -1.059   4.620  -5.900  0.00  0.00     0.017 A 
ATOM      6  C5  UNL d   1      -1.786   5.814  -5.877  0.00  0.00     0.034 A 
ATOM      7 Cl   UNL d   1       0.665   4.727  -5.858  0.00  0.00    -0.070 Cl
ATOM      8 Cl1  UNL d   1      -0.907   1.879  -5.987  0.00  0.00    -0.070 Cl
ENDROOT
TORSDOF 0
ENDMDL
