MODEL 1
REMARK minimizedAffinity 7.95561314
REMARK minimizedRMSD -1
REMARK  0 active torsions:
REMARK  status: ('A' for Active; 'I' for Inactive)
ROOT
ATOM      1  C   UNL d   1      -1.551   0.939   0.916  0.00  0.00     0.020 A 
ATOM      2  C1  UNL d   1      -0.258   1.156   1.392  0.00  0.00     0.020 A 
ATOM      3  C2  UNL d   1       0.785   0.324   0.981  0.00  0.00     0.034 A 
ATOM      4  C3  UNL d   1       0.539  -0.728   0.091  0.00  0.00     0.017 A 
ATOM      5  C4  UNL d   1      -0.759  -0.944  -0.386  0.00  0.00     0.017 A 
ATOM      6  C5  UNL d   1      -1.801  -0.108   0.029  0.00  0.00     0.034 A 
ATOM      7 Cl   UNL d   1      -1.141  -2.222  -1.486  0.00  0.00    -0.070 Cl
ATOM      8 Cl1  UNL d   1       1.877  -1.717  -0.375  0.00  0.00    -0.070 Cl
ENDROOT
TORSDOF 0
ENDMDL
