MODEL 1
REMARK minimizedAffinity 2.11434364
REMARK minimizedRMSD -1
REMARK  0 active torsions:
REMARK  status: ('A' for Active; 'I' for Inactive)
ROOT
ATOM      1  C   UNL d   1      -2.611   1.370   0.893  0.00  0.00     0.020 A 
ATOM      2  C1  UNL d   1      -2.281   0.094   1.347  0.00  0.00     0.020 A 
ATOM      3  C2  UNL d   1      -0.967  -0.368   1.237  0.00  0.00     0.034 A 
ATOM      4  C3  UNL d   1       0.021   0.447   0.673  0.00  0.00     0.017 A 
ATOM      5  C4  UNL d   1      -0.311   1.728   0.218  0.00  0.00     0.017 A 
ATOM      6  C5  UNL d   1      -1.628   2.186   0.330  0.00  0.00     0.034 A 
ATOM      7 Cl   UNL d   1       0.853   2.791  -0.489  0.00  0.00    -0.070 Cl
ATOM      8 Cl1  UNL d   1       1.624  -0.189   0.570  0.00  0.00    -0.070 Cl
ENDROOT
TORSDOF 0
ENDMDL
