MODEL 1
REMARK minimizedAffinity 0.347869068
REMARK minimizedRMSD -1
REMARK  0 active torsions:
REMARK  status: ('A' for Active; 'I' for Inactive)
ROOT
ATOM      1  C   UNL d   1      -1.764   3.006  -5.992  0.00  0.00     0.020 A 
ATOM      2  C1  UNL d   1      -1.778   4.400  -5.996  0.00  0.00     0.020 A 
ATOM      3  C2  UNL d   1      -0.575   5.110  -5.997  0.00  0.00     0.034 A 
ATOM      4  C3  UNL d   1       0.646   4.425  -5.995  0.00  0.00     0.017 A 
ATOM      5  C4  UNL d   1       0.658   3.026  -5.992  0.00  0.00     0.017 A 
ATOM      6  C5  UNL d   1      -0.549   2.320  -5.990  0.00  0.00     0.034 A 
ATOM      7 Cl   UNL d   1       2.125   2.112  -5.989  0.00  0.00    -0.070 Cl
ATOM      8 Cl1  UNL d   1       2.095   5.367  -5.998  0.00  0.00    -0.070 Cl
ENDROOT
TORSDOF 0
ENDMDL
