MODEL 1
REMARK minimizedAffinity -0.937669218
REMARK minimizedRMSD -1
REMARK  0 active torsions:
REMARK  status: ('A' for Active; 'I' for Inactive)
ROOT
ATOM      1  C   UNL d   1       0.845   3.164  -5.999  0.00  0.00     0.020 A 
ATOM      2  C1  UNL d   1       1.037   4.545  -5.997  0.00  0.00     0.020 A 
ATOM      3  C2  UNL d   1      -0.065   5.402  -5.994  0.00  0.00     0.034 A 
ATOM      4  C3  UNL d   1      -1.364   4.880  -5.995  0.00  0.00     0.017 A 
ATOM      5  C4  UNL d   1      -1.555   3.494  -5.998  0.00  0.00     0.017 A 
ATOM      6  C5  UNL d   1      -0.448   2.639  -6.000  0.00  0.00     0.034 A 
ATOM      7 Cl   UNL d   1      -3.127   2.775  -5.998  0.00  0.00    -0.070 Cl
ATOM      8 Cl1  UNL d   1      -2.680   6.000  -5.991  0.00  0.00    -0.070 Cl
ENDROOT
TORSDOF 0
ENDMDL
