MODEL 1
REMARK minimizedAffinity -2.12967563
REMARK minimizedRMSD -1
REMARK  0 active torsions:
REMARK  status: ('A' for Active; 'I' for Inactive)
ROOT
ATOM      1  C   UNL d   1      -3.980   4.019  -5.975  0.00  0.00     0.020 A 
ATOM      2  C1  UNL d   1      -3.853   5.407  -5.976  0.00  0.00     0.020 A 
ATOM      3  C2  UNL d   1      -2.585   5.992  -5.983  0.00  0.00     0.034 A 
ATOM      4  C3  UNL d   1      -1.439   5.188  -5.990  0.00  0.00     0.017 A 
ATOM      5  C4  UNL d   1      -1.568   3.794  -5.989  0.00  0.00     0.017 A 
ATOM      6  C5  UNL d   1      -2.840   3.214  -5.982  0.00  0.00     0.034 A 
ATOM      7 Cl   UNL d   1      -0.201   2.737  -5.997  0.00  0.00    -0.070 Cl
ATOM      8 Cl1  UNL d   1       0.097   5.978  -5.999  0.00  0.00    -0.070 Cl
ENDROOT
TORSDOF 0
ENDMDL
