MODEL 1
REMARK minimizedAffinity -2.59351826
REMARK minimizedRMSD -1
REMARK  0 active torsions:
REMARK  status: ('A' for Active; 'I' for Inactive)
ROOT
ATOM      1  C   UNL d   1       2.222   2.754  -5.999  0.00  0.00     0.020 A 
ATOM      2  C1  UNL d   1       2.412   4.135  -6.000  0.00  0.00     0.020 A 
ATOM      3  C2  UNL d   1       1.309   4.992  -6.000  0.00  0.00     0.034 A 
ATOM      4  C3  UNL d   1       0.012   4.468  -6.000  0.00  0.00     0.017 A 
ATOM      5  C4  UNL d   1      -0.178   3.082  -5.999  0.00  0.00     0.017 A 
ATOM      6  C5  UNL d   1       0.930   2.229  -5.999  0.00  0.00     0.034 A 
ATOM      7 Cl   UNL d   1      -1.749   2.361  -5.999  0.00  0.00    -0.070 Cl
ATOM      8 Cl1  UNL d   1      -1.306   5.586  -6.000  0.00  0.00    -0.070 Cl
ENDROOT
TORSDOF 0
ENDMDL
