MODEL 1
REMARK minimizedAffinity 2.09969664
REMARK minimizedRMSD -1
REMARK  0 active torsions:
REMARK  status: ('A' for Active; 'I' for Inactive)
ROOT
ATOM      1  C   UNL d   1      -4.288   4.551  -5.999  0.00  0.00     0.020 A 
ATOM      2  C1  UNL d   1      -3.653   5.792  -5.997  0.00  0.00     0.020 A 
ATOM      3  C2  UNL d   1      -2.259   5.863  -5.997  0.00  0.00     0.034 A 
ATOM      4  C3  UNL d   1      -1.494   4.690  -5.997  0.00  0.00     0.017 A 
ATOM      5  C4  UNL d   1      -2.133   3.445  -5.998  0.00  0.00     0.017 A 
ATOM      6  C5  UNL d   1      -3.530   3.380  -5.999  0.00  0.00     0.034 A 
ATOM      7 Cl   UNL d   1      -1.257   1.954  -5.999  0.00  0.00    -0.070 Cl
ATOM      8 Cl1  UNL d   1       0.226   4.852  -5.997  0.00  0.00    -0.070 Cl
ENDROOT
TORSDOF 0
ENDMDL
