MODEL 1
REMARK minimizedAffinity 3.8319304
REMARK minimizedRMSD -1
REMARK  0 active torsions:
REMARK  status: ('A' for Active; 'I' for Inactive)
ROOT
ATOM      1  C   UNL d   1      -1.875   5.364  -5.561  0.00  0.00     0.020 A 
ATOM      2  C1  UNL d   1      -2.279   4.569  -4.489  0.00  0.00     0.020 A 
ATOM      3  C2  UNL d   1      -1.359   3.732  -3.854  0.00  0.00     0.034 A 
ATOM      4  C3  UNL d   1      -0.030   3.688  -4.291  0.00  0.00     0.017 A 
ATOM      5  C4  UNL d   1       0.375   4.486  -5.367  0.00  0.00     0.017 A 
ATOM      6  C5  UNL d   1      -0.550   5.322  -5.999  0.00  0.00     0.034 A 
ATOM      7 Cl   UNL d   1       1.997   4.485  -5.962  0.00  0.00    -0.070 Cl
ATOM      8 Cl1  UNL d   1       1.054   2.630  -3.459  0.00  0.00    -0.070 Cl
ENDROOT
TORSDOF 0
ENDMDL
