MODEL 1
REMARK minimizedAffinity -2.26137829
REMARK minimizedRMSD -1
REMARK  0 active torsions:
REMARK  status: ('A' for Active; 'I' for Inactive)
ROOT
ATOM      1  C   UNL d   1       0.871   2.351  -5.999  0.00  0.00     0.020 A 
ATOM      2  C1  UNL d   1       1.409   3.637  -6.000  0.00  0.00     0.020 A 
ATOM      3  C2  UNL d   1       0.563   4.748  -5.999  0.00  0.00     0.034 A 
ATOM      4  C3  UNL d   1      -0.826   4.575  -5.998  0.00  0.00     0.017 A 
ATOM      5  C4  UNL d   1      -1.365   3.284  -5.997  0.00  0.00     0.017 A 
ATOM      6  C5  UNL d   1      -0.514   2.175  -5.998  0.00  0.00     0.034 A 
ATOM      7 Cl   UNL d   1      -3.069   2.991  -5.995  0.00  0.00    -0.070 Cl
ATOM      8 Cl1  UNL d   1      -1.812   5.994  -5.996  0.00  0.00    -0.070 Cl
ENDROOT
TORSDOF 0
ENDMDL
