MODEL 1
REMARK minimizedAffinity -1.5630573
REMARK minimizedRMSD -1
REMARK  0 active torsions:
REMARK  status: ('A' for Active; 'I' for Inactive)
ROOT
ATOM      1  C   UNL d   1       0.899   3.559  -5.993  0.00  0.00     0.020 A 
ATOM      2  C1  UNL d   1       0.333   2.285  -5.992  0.00  0.00     0.020 A 
ATOM      3  C2  UNL d   1      -1.056   2.138  -5.994  0.00  0.00     0.034 A 
ATOM      4  C3  UNL d   1      -1.883   3.267  -5.997  0.00  0.00     0.017 A 
ATOM      5  C4  UNL d   1      -1.313   4.545  -5.997  0.00  0.00     0.017 A 
ATOM      6  C5  UNL d   1       0.078   4.687  -5.995  0.00  0.00     0.034 A 
ATOM      7 Cl   UNL d   1      -2.269   5.985  -6.000  0.00  0.00    -0.070 Cl
ATOM      8 Cl1  UNL d   1      -3.592   3.011  -6.000  0.00  0.00    -0.070 Cl
ENDROOT
TORSDOF 0
ENDMDL
