MODEL 1
REMARK minimizedAffinity 2.37900209
REMARK minimizedRMSD -1
REMARK  3 active torsions:
REMARK  status: ('A' for Active; 'I' for Inactive)
REMARK    1  A    between atoms: C3'_2  and  C2'_3 
REMARK    2  A    between atoms: C2'_3  and  C1'_4 
REMARK    3  A    between atoms: C1'_4  and  C1_5 
ROOT
ATOM      1  C1  N4B d   1      -1.609  -0.215   1.272  0.00  0.00    -0.075 A 
ATOM      2  C2  N4B d   1      -2.335  -1.421   1.150  0.00  0.00     0.002 A 
ATOM      3  C3  N4B d   1      -2.032  -2.489   1.958  0.00  0.00     0.002 A 
ATOM      4  C4  N4B d   1      -1.001  -2.382   2.878  0.00  0.00    -0.004 A 
ATOM      5  C5  N4B d   1      -0.322  -1.206   3.008  0.00  0.00     0.002 A 
ATOM      6  C6  N4B d   1      -0.618  -0.123   2.206  0.00  0.00     0.002 A 
ENDROOT
BRANCH   1   7
ATOM      7  C1' N4B d   1      -1.846   0.952   0.353  0.00  0.00     0.057 C 
BRANCH   7   8
ATOM      8  C2' N4B d   1      -1.779   0.471  -1.094  0.00  0.00     0.009 C 
BRANCH   8   9
ATOM      9  C3' N4B d   1      -2.457   1.440  -2.047  0.00  0.00     0.004 C 
ATOM     10  C4' N4B d   1      -1.779   2.776  -2.097  0.00  0.00     0.003 C 
ENDBRANCH   8   9
ENDBRANCH   7   8
ENDBRANCH   1   7
TORSDOF 3
ENDMDL
