MODEL 1
REMARK minimizedAffinity -2.33970618
REMARK minimizedRMSD -1
REMARK  3 active torsions:
REMARK  status: ('A' for Active; 'I' for Inactive)
REMARK    1  A    between atoms: C3'_2  and  C2'_3 
REMARK    2  A    between atoms: C2'_3  and  C1'_4 
REMARK    3  A    between atoms: C1'_4  and  C1_5 
ROOT
ATOM      1  C1  N4B d   1       0.890  -2.360   1.734  0.00  0.00    -0.075 A 
ATOM      2  C2  N4B d   1       1.506  -1.696   0.650  0.00  0.00     0.002 A 
ATOM      3  C3  N4B d   1       2.517  -2.311  -0.047  0.00  0.00     0.002 A 
ATOM      4  C4  N4B d   1       2.939  -3.577   0.332  0.00  0.00    -0.004 A 
ATOM      5  C5  N4B d   1       2.322  -4.221   1.363  0.00  0.00     0.002 A 
ATOM      6  C6  N4B d   1       1.302  -3.617   2.070  0.00  0.00     0.002 A 
ENDROOT
BRANCH   1   7
ATOM      7  C1' N4B d   1      -0.161  -1.693   2.579  0.00  0.00     0.057 C 
BRANCH   7   8
ATOM      8  C2' N4B d   1      -0.342  -0.253   2.109  0.00  0.00     0.009 C 
BRANCH   8   9
ATOM      9  C3' N4B d   1      -1.737  -0.006   1.559  0.00  0.00     0.004 C 
ATOM     10  C4' N4B d   1      -1.762   0.088   0.063  0.00  0.00     0.003 C 
ENDBRANCH   8   9
ENDBRANCH   7   8
ENDBRANCH   1   7
TORSDOF 3
ENDMDL
