MODEL 1
REMARK minimizedAffinity 0.47936812
REMARK minimizedRMSD -1
REMARK  3 active torsions:
REMARK  status: ('A' for Active; 'I' for Inactive)
REMARK    1  A    between atoms: C3'_2  and  C2'_3 
REMARK    2  A    between atoms: C2'_3  and  C1'_4 
REMARK    3  A    between atoms: C1'_4  and  C1_5 
ROOT
ATOM      1  C1  N4B d   1       0.988  -2.152   1.578  0.00  0.00    -0.075 A 
ATOM      2  C2  N4B d   1       0.845  -1.298   0.462  0.00  0.00     0.002 A 
ATOM      3  C3  N4B d   1      -0.037  -0.247   0.511  0.00  0.00     0.002 A 
ATOM      4  C4  N4B d   1      -0.796  -0.041   1.653  0.00  0.00    -0.004 A 
ATOM      5  C5  N4B d   1      -0.633  -0.854   2.736  0.00  0.00     0.002 A 
ATOM      6  C6  N4B d   1       0.253  -1.913   2.702  0.00  0.00     0.002 A 
ENDROOT
BRANCH   1   7
ATOM      7  C1' N4B d   1       1.876  -3.366   1.540  0.00  0.00     0.057 C 
BRANCH   7   8
ATOM      8  C2' N4B d   1       2.618  -3.402   0.207  0.00  0.00     0.009 C 
BRANCH   8   9
ATOM      9  C3' N4B d   1       4.124  -3.466   0.397  0.00  0.00     0.004 C 
ATOM     10  C4' N4B d   1       4.646  -4.871   0.429  0.00  0.00     0.003 C 
ENDBRANCH   8   9
ENDBRANCH   7   8
ENDBRANCH   1   7
TORSDOF 3
ENDMDL
