MODEL 1
REMARK minimizedAffinity -3.79560542
REMARK minimizedRMSD -1
REMARK  0 active torsions:
REMARK  status: ('A' for Active; 'I' for Inactive)
ROOT
ATOM      1  C   UNL d   1       2.950  -1.618   0.353  0.00  0.00     0.020 A 
ATOM      2  C1  UNL d   1       2.550  -0.634   1.257  0.00  0.00     0.020 A 
ATOM      3  C2  UNL d   1       1.275  -0.072   1.158  0.00  0.00     0.034 A 
ATOM      4  C3  UNL d   1       0.396  -0.493   0.154  0.00  0.00     0.017 A 
ATOM      5  C4  UNL d   1       0.798  -1.480  -0.753  0.00  0.00     0.017 A 
ATOM      6  C5  UNL d   1       2.076  -2.040  -0.649  0.00  0.00     0.034 A 
ATOM      7 Cl   UNL d   1      -0.231  -2.051  -2.018  0.00  0.00    -0.070 Cl
ATOM      8 Cl1  UNL d   1      -1.165   0.245   0.091  0.00  0.00    -0.070 Cl
ENDROOT
TORSDOF 0
ENDMDL
