MODEL 1
REMARK minimizedAffinity -3.19651508
REMARK minimizedRMSD -1
REMARK  0 active torsions:
REMARK  status: ('A' for Active; 'I' for Inactive)
ROOT
ATOM      1  C   UNL d   1       2.778  -0.920   1.294  0.00  0.00     0.020 A 
ATOM      2  C1  UNL d   1       2.966  -1.947   0.370  0.00  0.00     0.020 A 
ATOM      3  C2  UNL d   1       1.978  -2.222  -0.578  0.00  0.00     0.034 A 
ATOM      4  C3  UNL d   1       0.798  -1.470  -0.603  0.00  0.00     0.017 A 
ATOM      5  C4  UNL d   1       0.611  -0.439   0.325  0.00  0.00     0.017 A 
ATOM      6  C5  UNL d   1       1.603  -0.168   1.272  0.00  0.00     0.034 A 
ATOM      7 Cl   UNL d   1      -0.818   0.532   0.356  0.00  0.00    -0.070 Cl
ATOM      8 Cl1  UNL d   1      -0.381  -1.865  -1.803  0.00  0.00    -0.070 Cl
ENDROOT
TORSDOF 0
ENDMDL
