MODEL 1
REMARK minimizedAffinity -4.01055622
REMARK minimizedRMSD -1
REMARK  0 active torsions:
REMARK  status: ('A' for Active; 'I' for Inactive)
ROOT
ATOM      1  C   UNL d   1       0.565  -2.554  -0.337  0.00  0.00     0.020 A 
ATOM      2  C1  UNL d   1       1.868  -2.217   0.028  0.00  0.00     0.020 A 
ATOM      3  C2  UNL d   1       2.221  -0.877   0.199  0.00  0.00     0.034 A 
ATOM      4  C3  UNL d   1       1.269   0.131   0.006  0.00  0.00     0.017 A 
ATOM      5  C4  UNL d   1      -0.038  -0.208  -0.360  0.00  0.00     0.017 A 
ATOM      6  C5  UNL d   1      -0.386  -1.552  -0.531  0.00  0.00     0.034 A 
ATOM      7 Cl   UNL d   1      -1.267   0.980  -0.617  0.00  0.00    -0.070 Cl
ATOM      8 Cl1  UNL d   1       1.775   1.767   0.236  0.00  0.00    -0.070 Cl
ENDROOT
TORSDOF 0
ENDMDL
