MODEL 1
REMARK minimizedAffinity -4.8453908
REMARK minimizedRMSD -1
REMARK  0 active torsions:
REMARK  status: ('A' for Active; 'I' for Inactive)
ROOT
ATOM      1  C   UNL d   1       2.607  -1.588   0.300  0.00  0.00     0.020 A 
ATOM      2  C1  UNL d   1       2.239  -0.368   0.866  0.00  0.00     0.020 A 
ATOM      3  C2  UNL d   1       0.956   0.140   0.655  0.00  0.00     0.034 A 
ATOM      4  C3  UNL d   1       0.036  -0.572  -0.124  0.00  0.00     0.017 A 
ATOM      5  C4  UNL d   1       0.406  -1.797  -0.691  0.00  0.00     0.017 A 
ATOM      6  C5  UNL d   1       1.693  -2.301  -0.476  0.00  0.00     0.034 A 
ATOM      7 Cl   UNL d   1      -0.674  -2.733  -1.663  0.00  0.00    -0.070 Cl
ATOM      8 Cl1  UNL d   1      -1.534   0.116  -0.343  0.00  0.00    -0.070 Cl
ENDROOT
TORSDOF 0
ENDMDL
