MODEL 1
REMARK minimizedAffinity -3.81912971
REMARK minimizedRMSD -1
REMARK  0 active torsions:
REMARK  status: ('A' for Active; 'I' for Inactive)
ROOT
ATOM      1  C   UNL d   1       3.515  -0.393  -0.540  0.00  0.00     0.020 A 
ATOM      2  C1  UNL d   1       3.227   0.963  -0.387  0.00  0.00     0.020 A 
ATOM      3  C2  UNL d   1       1.901   1.389  -0.296  0.00  0.00     0.034 A 
ATOM      4  C3  UNL d   1       0.856   0.460  -0.359  0.00  0.00     0.017 A 
ATOM      5  C4  UNL d   1       1.146  -0.901  -0.513  0.00  0.00     0.017 A 
ATOM      6  C5  UNL d   1       2.476  -1.323  -0.603  0.00  0.00     0.034 A 
ATOM      7 Cl   UNL d   1      -0.089  -2.107  -0.599  0.00  0.00    -0.070 Cl
ATOM      8 Cl1  UNL d   1      -0.760   1.058  -0.240  0.00  0.00    -0.070 Cl
ENDROOT
TORSDOF 0
ENDMDL
