MODEL 1
REMARK minimizedAffinity -3.27710652
REMARK minimizedRMSD -1
REMARK  0 active torsions:
REMARK  status: ('A' for Active; 'I' for Inactive)
ROOT
ATOM      1  C   UNL d   1      -4.426   1.226   0.932  0.00  0.00     0.020 A 
ATOM      2  C1  UNL d   1      -3.910   0.740   2.132  0.00  0.00     0.020 A 
ATOM      3  C2  UNL d   1      -2.584   0.308   2.198  0.00  0.00     0.034 A 
ATOM      4  C3  UNL d   1      -1.769   0.361   1.061  0.00  0.00     0.017 A 
ATOM      5  C4  UNL d   1      -2.288   0.849  -0.143  0.00  0.00     0.017 A 
ATOM      6  C5  UNL d   1      -3.617   1.281  -0.204  0.00  0.00     0.034 A 
ATOM      7 Cl   UNL d   1      -1.344   0.946  -1.588  0.00  0.00    -0.070 Cl
ATOM      8 Cl1  UNL d   1      -0.138  -0.189   1.215  0.00  0.00    -0.070 Cl
ENDROOT
TORSDOF 0
ENDMDL
