MODEL 1
REMARK minimizedAffinity -3.31304264
REMARK minimizedRMSD -1
REMARK  0 active torsions:
REMARK  status: ('A' for Active; 'I' for Inactive)
ROOT
ATOM      1  C   UNL d   1       1.346  -0.710   1.149  0.00  0.00     0.020 A 
ATOM      2  C1  UNL d   1       2.254   0.347   1.102  0.00  0.00     0.020 A 
ATOM      3  C2  UNL d   1       1.849   1.595   0.625  0.00  0.00     0.034 A 
ATOM      4  C3  UNL d   1       0.532   1.790   0.192  0.00  0.00     0.017 A 
ATOM      5  C4  UNL d   1      -0.379   0.728   0.239  0.00  0.00     0.017 A 
ATOM      6  C5  UNL d   1       0.032  -0.520   0.718  0.00  0.00     0.034 A 
ATOM      7 Cl   UNL d   1      -2.020   0.892  -0.277  0.00  0.00    -0.070 Cl
ATOM      8 Cl1  UNL d   1       0.100   3.360  -0.386  0.00  0.00    -0.070 Cl
ENDROOT
TORSDOF 0
ENDMDL
