MODEL 1
REMARK minimizedAffinity -0.550768793
REMARK minimizedRMSD -1
REMARK  0 active torsions:
REMARK  status: ('A' for Active; 'I' for Inactive)
ROOT
ATOM      1  C   UNL d   1       0.867   1.040  -0.275  0.00  0.00     0.020 A 
ATOM      2  C1  UNL d   1      -0.130   1.972  -0.556  0.00  0.00     0.020 A 
ATOM      3  C2  UNL d   1      -1.417   1.794  -0.044  0.00  0.00     0.034 A 
ATOM      4  C3  UNL d   1      -1.710   0.681   0.752  0.00  0.00     0.017 A 
ATOM      5  C4  UNL d   1      -0.708  -0.254   1.034  0.00  0.00     0.017 A 
ATOM      6  C5  UNL d   1       0.579  -0.071   0.519  0.00  0.00     0.034 A 
ATOM      7 Cl   UNL d   1      -0.993  -1.653   2.009  0.00  0.00    -0.070 Cl
ATOM      8 Cl1  UNL d   1      -3.322   0.524   1.353  0.00  0.00    -0.070 Cl
ENDROOT
TORSDOF 0
ENDMDL
