MODEL 1
REMARK minimizedAffinity -2.91023684
REMARK minimizedRMSD -1
REMARK  0 active torsions:
REMARK  status: ('A' for Active; 'I' for Inactive)
ROOT
ATOM      1  C   UNL d   1      -1.865   0.239  -0.208  0.00  0.00     0.020 A 
ATOM      2  C1  UNL d   1      -1.890   1.595   0.113  0.00  0.00     0.020 A 
ATOM      3  C2  UNL d   1      -0.703   2.260   0.427  0.00  0.00     0.034 A 
ATOM      4  C3  UNL d   1       0.515   1.569   0.420  0.00  0.00     0.017 A 
ATOM      5  C4  UNL d   1       0.539   0.208   0.097  0.00  0.00     0.017 A 
ATOM      6  C5  UNL d   1      -0.653  -0.453  -0.216  0.00  0.00     0.034 A 
ATOM      7 Cl   UNL d   1       2.002  -0.712   0.068  0.00  0.00    -0.070 Cl
ATOM      8 Cl1  UNL d   1       1.944   2.455   0.818  0.00  0.00    -0.070 Cl
ENDROOT
TORSDOF 0
ENDMDL
