MODEL 1
REMARK minimizedAffinity 0.514982224
REMARK minimizedRMSD -1
REMARK  0 active torsions:
REMARK  status: ('A' for Active; 'I' for Inactive)
ROOT
ATOM      1  N1  IND d   1      -0.391   3.071  -4.853  0.00  0.00    -0.196 N 
ATOM      2  C2  IND d   1       0.665   3.712  -4.267  0.00  0.00     0.054 A 
ATOM      3  C3  IND d   1       0.677   3.478  -2.936  0.00  0.00    -0.031 A 
ATOM      4  C4  IND d   1      -0.879   1.992  -1.522  0.00  0.00     0.051 A 
ATOM      5  C5  IND d   1      -2.012   1.233  -1.606  0.00  0.00    -0.031 A 
ATOM      6  C6  IND d   1      -2.675   1.041  -2.802  0.00  0.00     0.015 A 
ATOM      7  C7  IND d   1      -2.220   1.595  -3.965  0.00  0.00    -0.016 A 
ATOM      8  C8  IND d   1      -1.074   2.373  -3.882  0.00  0.00    -0.047 A 
ATOM      9  C9  IND d   1      -0.421   2.606  -2.664  0.00  0.00    -0.096 A 
ATOM     10  HN1 IND d   1      -0.594   3.100  -5.688  0.00  0.00     0.298 HD
ENDROOT
TORSDOF 0
ENDMDL
