MODEL 1
REMARK minimizedAffinity -1.33370829
REMARK minimizedRMSD -1
REMARK  0 active torsions:
REMARK  status: ('A' for Active; 'I' for Inactive)
ROOT
ATOM      1  N1  IND d   1      -1.667   0.016  -0.071  0.00  0.00    -0.196 N 
ATOM      2  C2  IND d   1      -0.415   0.235   0.432  0.00  0.00     0.054 A 
ATOM      3  C3  IND d   1       0.229   1.171  -0.300  0.00  0.00    -0.031 A 
ATOM      4  C4  IND d   1      -0.618   2.548  -2.304  0.00  0.00     0.051 A 
ATOM      5  C5  IND d   1      -1.684   2.677  -3.149  0.00  0.00    -0.031 A 
ATOM      6  C6  IND d   1      -2.824   1.911  -3.007  0.00  0.00     0.015 A 
ATOM      7  C7  IND d   1      -2.944   0.993  -2.003  0.00  0.00    -0.016 A 
ATOM      8  C8  IND d   1      -1.860   0.854  -1.147  0.00  0.00    -0.047 A 
ATOM      9  C9  IND d   1      -0.685   1.598  -1.312  0.00  0.00    -0.096 A 
ATOM     10  HN1 IND d   1      -2.238  -0.551   0.233  0.00  0.00     0.298 HD
ENDROOT
TORSDOF 0
ENDMDL
