MODEL 1
REMARK minimizedAffinity -2.72085643
REMARK minimizedRMSD -1
REMARK  0 active torsions:
REMARK  status: ('A' for Active; 'I' for Inactive)
ROOT
ATOM      1  N1  IND d   1      -0.730   0.315   0.474  0.00  0.00    -0.196 N 
ATOM      2  C2  IND d   1       0.544  -0.176   0.410  0.00  0.00     0.054 A 
ATOM      3  C3  IND d   1       1.167   0.277  -0.701  0.00  0.00    -0.031 A 
ATOM      4  C4  IND d   1       0.321   1.913  -2.500  0.00  0.00     0.051 A 
ATOM      5  C5  IND d   1      -0.793   2.601  -2.891  0.00  0.00    -0.031 A 
ATOM      6  C6  IND d   1      -1.966   2.564  -2.165  0.00  0.00     0.015 A 
ATOM      7  C7  IND d   1      -2.065   1.842  -1.009  0.00  0.00    -0.016 A 
ATOM      8  C8  IND d   1      -0.938   1.137  -0.612  0.00  0.00    -0.047 A 
ATOM      9  C9  IND d   1       0.242   1.137  -1.367  0.00  0.00    -0.096 A 
ATOM     10  HN1 IND d   1      -1.305   0.139   1.088  0.00  0.00     0.298 HD
ENDROOT
TORSDOF 0
ENDMDL
