MODEL 1
REMARK minimizedAffinity -2.69693041
REMARK minimizedRMSD -1
REMARK  0 active torsions:
REMARK  status: ('A' for Active; 'I' for Inactive)
ROOT
ATOM      1  N1  IND d   1      -1.337   0.291   0.769  0.00  0.00    -0.196 N 
ATOM      2  C2  IND d   1      -1.460   1.225  -0.222  0.00  0.00     0.054 A 
ATOM      3  C3  IND d   1      -0.292   1.359  -0.890  0.00  0.00    -0.031 A 
ATOM      4  C4  IND d   1       1.919   0.074  -0.592  0.00  0.00     0.051 A 
ATOM      5  C5  IND d   1       2.528  -0.851   0.209  0.00  0.00    -0.031 A 
ATOM      6  C6  IND d   1       1.866  -1.456   1.257  0.00  0.00     0.015 A 
ATOM      7  C7  IND d   1       0.560  -1.167   1.537  0.00  0.00    -0.016 A 
ATOM      8  C8  IND d   1      -0.059  -0.223   0.730  0.00  0.00    -0.047 A 
ATOM      9  C9  IND d   1       0.621   0.426  -0.308  0.00  0.00    -0.096 A 
ATOM     10  HN1 IND d   1      -1.953   0.064   1.323  0.00  0.00     0.298 HD
ENDROOT
TORSDOF 0
ENDMDL
