MODEL 1
REMARK minimizedAffinity -2.07592034
REMARK minimizedRMSD -1
REMARK  0 active torsions:
REMARK  status: ('A' for Active; 'I' for Inactive)
ROOT
ATOM      1  N1  IND d   1      -0.380  -0.636   1.320  0.00  0.00    -0.196 N 
ATOM      2  C2  IND d   1      -1.171   0.349   0.798  0.00  0.00     0.054 A 
ATOM      3  C3  IND d   1      -0.493   1.050  -0.139  0.00  0.00    -0.031 A 
ATOM      4  C4  IND d   1       1.889   0.689  -1.045  0.00  0.00     0.051 A 
ATOM      5  C5  IND d   1       3.013  -0.064  -0.851  0.00  0.00    -0.031 A 
ATOM      6  C6  IND d   1       3.063  -1.069   0.094  0.00  0.00     0.015 A 
ATOM      7  C7  IND d   1       1.983  -1.366   0.876  0.00  0.00    -0.016 A 
ATOM      8  C8  IND d   1       0.843  -0.599   0.686  0.00  0.00    -0.047 A 
ATOM      9  C9  IND d   1       0.799   0.450  -0.242  0.00  0.00    -0.096 A 
ATOM     10  HN1 IND d   1      -0.608  -1.186   1.940  0.00  0.00     0.298 HD
ENDROOT
TORSDOF 0
ENDMDL
