MODEL 1
REMARK minimizedAffinity -2.4994297
REMARK minimizedRMSD -1
REMARK  0 active torsions:
REMARK  status: ('A' for Active; 'I' for Inactive)
ROOT
ATOM      1  N1  IND d   1      -0.483   0.161  -0.340  0.00  0.00    -0.196 N 
ATOM      2  C2  IND d   1       0.520  -0.028  -1.249  0.00  0.00     0.054 A 
ATOM      3  C3  IND d   1       1.538  -0.721  -0.690  0.00  0.00    -0.031 A 
ATOM      4  C4  IND d   1       1.725  -1.732   1.670  0.00  0.00     0.051 A 
ATOM      5  C5  IND d   1       1.076  -1.791   2.871  0.00  0.00    -0.031 A 
ATOM      6  C6  IND d   1      -0.152  -1.193   3.066  0.00  0.00     0.015 A 
ATOM      7  C7  IND d   1      -0.784  -0.520   2.060  0.00  0.00    -0.016 A 
ATOM      8  C8  IND d   1      -0.125  -0.451   0.841  0.00  0.00    -0.047 A 
ATOM      9  C9  IND d   1       1.141  -1.020   0.649  0.00  0.00    -0.096 A 
ATOM     10  HN1 IND d   1      -1.214   0.591  -0.482  0.00  0.00     0.298 HD
ENDROOT
TORSDOF 0
ENDMDL
