MODEL 1
REMARK minimizedAffinity 2.18439579
REMARK minimizedRMSD -1
REMARK  0 active torsions:
REMARK  status: ('A' for Active; 'I' for Inactive)
ROOT
ATOM      1  N1  IND d   1      -1.188   0.004   0.031  0.00  0.00    -0.196 N 
ATOM      2  C2  IND d   1      -1.145   1.109  -0.774  0.00  0.00     0.054 A 
ATOM      3  C3  IND d   1       0.133   1.506  -0.959  0.00  0.00    -0.031 A 
ATOM      4  C4  IND d   1       2.318   0.432  -0.121  0.00  0.00     0.051 A 
ATOM      5  C5  IND d   1       2.787  -0.571   0.679  0.00  0.00    -0.031 A 
ATOM      6  C6  IND d   1       1.938  -1.454   1.314  0.00  0.00     0.015 A 
ATOM      7  C7  IND d   1       0.583  -1.373   1.164  0.00  0.00    -0.016 A 
ATOM      8  C8  IND d   1       0.102  -0.350   0.358  0.00  0.00    -0.047 A 
ATOM      9  C9  IND d   1       0.957   0.575  -0.256  0.00  0.00    -0.096 A 
ATOM     10  HN1 IND d   1      -1.901  -0.401   0.289  0.00  0.00     0.298 HD
ENDROOT
TORSDOF 0
ENDMDL
