MODEL 1
REMARK minimizedAffinity -3.50465679
REMARK minimizedRMSD -1
REMARK  0 active torsions:
REMARK  status: ('A' for Active; 'I' for Inactive)
ROOT
ATOM      1  N1  IND d   1      -1.491   0.371  -0.572  0.00  0.00    -0.196 N 
ATOM      2  C2  IND d   1      -1.538   1.555  -1.254  0.00  0.00     0.054 A 
ATOM      3  C3  IND d   1      -0.299   2.083  -1.368  0.00  0.00    -0.031 A 
ATOM      4  C4  IND d   1       1.964   1.123  -0.600  0.00  0.00     0.051 A 
ATOM      5  C5  IND d   1       2.512   0.085   0.100  0.00  0.00    -0.031 A 
ATOM      6  C6  IND d   1       1.738  -0.933   0.619  0.00  0.00     0.015 A 
ATOM      7  C7  IND d   1       0.383  -0.956   0.448  0.00  0.00    -0.016 A 
ATOM      8  C8  IND d   1      -0.178   0.100  -0.256  0.00  0.00    -0.047 A 
ATOM      9  C9  IND d   1       0.597   1.158  -0.749  0.00  0.00    -0.096 A 
ATOM     10  HN1 IND d   1      -2.167  -0.121  -0.374  0.00  0.00     0.298 HD
ENDROOT
TORSDOF 0
ENDMDL
