MODEL 1
REMARK minimizedAffinity 0.55489552
REMARK minimizedRMSD -1
REMARK  0 active torsions:
REMARK  status: ('A' for Active; 'I' for Inactive)
ROOT
ATOM      1  N1  IND d   1      -1.642   0.147  -0.246  0.00  0.00    -0.196 N 
ATOM      2  C2  IND d   1      -0.436   0.523   0.278  0.00  0.00     0.054 A 
ATOM      3  C3  IND d   1       0.102   1.525  -0.453  0.00  0.00    -0.031 A 
ATOM      4  C4  IND d   1      -0.867   2.768  -2.489  0.00  0.00     0.051 A 
ATOM      5  C5  IND d   1      -1.924   2.756  -3.355  0.00  0.00    -0.031 A 
ATOM      6  C6  IND d   1      -2.963   1.858  -3.225  0.00  0.00     0.015 A 
ATOM      7  C7  IND d   1      -2.990   0.942  -2.212  0.00  0.00    -0.016 A 
ATOM      8  C8  IND d   1      -1.915   0.946  -1.335  0.00  0.00    -0.047 A 
ATOM      9  C9  IND d   1      -0.836   1.827  -1.487  0.00  0.00    -0.096 A 
ATOM     10  HN1 IND d   1      -2.145  -0.482   0.055  0.00  0.00     0.298 HD
ENDROOT
TORSDOF 0
ENDMDL
