MODEL 1
REMARK minimizedAffinity -2.761801
REMARK minimizedRMSD -1
REMARK  0 active torsions:
REMARK  status: ('A' for Active; 'I' for Inactive)
ROOT
ATOM      1  N1  IND d   1       0.341  -1.855   1.233  0.00  0.00    -0.196 N 
ATOM      2  C2  IND d   1       1.613  -2.358   1.232  0.00  0.00     0.054 A 
ATOM      3  C3  IND d   1       2.416  -1.606   0.446  0.00  0.00    -0.031 A 
ATOM      4  C4  IND d   1       1.879   0.553  -0.849  0.00  0.00     0.051 A 
ATOM      5  C5  IND d   1       0.844   1.380  -1.183  0.00  0.00    -0.031 A 
ATOM      6  C6  IND d   1      -0.438   1.169  -0.716  0.00  0.00     0.015 A 
ATOM      7  C7  IND d   1      -0.730   0.124   0.114  0.00  0.00    -0.016 A 
ATOM      8  C8  IND d   1       0.318  -0.722   0.449  0.00  0.00    -0.047 A 
ATOM      9  C9  IND d   1       1.611  -0.537  -0.056  0.00  0.00    -0.096 A 
ATOM     10  HN1 IND d   1      -0.330  -2.190   1.652  0.00  0.00     0.298 HD
ENDROOT
TORSDOF 0
ENDMDL
