MODEL 1
REMARK minimizedAffinity -3.54644966
REMARK minimizedRMSD -1
REMARK  0 active torsions:
REMARK  status: ('A' for Active; 'I' for Inactive)
ROOT
ATOM      1  N1  IND d   1      -0.755   0.530  -0.608  0.00  0.00    -0.196 N 
ATOM      2  C2  IND d   1      -1.741  -0.229  -0.042  0.00  0.00     0.054 A 
ATOM      3  C3  IND d   1      -1.201  -1.228   0.693  0.00  0.00    -0.031 A 
ATOM      4  C4  IND d   1       1.272  -1.743   1.187  0.00  0.00     0.051 A 
ATOM      5  C5  IND d   1       2.540  -1.350   0.862  0.00  0.00    -0.031 A 
ATOM      6  C6  IND d   1       2.779  -0.287   0.016  0.00  0.00     0.015 A 
ATOM      7  C7  IND d   1       1.755   0.433  -0.531  0.00  0.00    -0.016 A 
ATOM      8  C8  IND d   1       0.466   0.032  -0.209  0.00  0.00    -0.047 A 
ATOM      9  C9  IND d   1       0.217  -1.072   0.616  0.00  0.00    -0.096 A 
ATOM     10  HN1 IND d   1      -0.877   1.205  -1.126  0.00  0.00     0.298 HD
ENDROOT
TORSDOF 0
ENDMDL
