MODEL 1
REMARK minimizedAffinity 1.43206358
REMARK minimizedRMSD -1
REMARK  0 active torsions:
REMARK  status: ('A' for Active; 'I' for Inactive)
ROOT
ATOM      1  N1  IND d   1       0.022  -0.606   1.723  0.00  0.00    -0.196 N 
ATOM      2  C2  IND d   1      -0.808   0.251   1.056  0.00  0.00     0.054 A 
ATOM      3  C3  IND d   1      -0.266   0.600  -0.133  0.00  0.00    -0.031 A 
ATOM      4  C4  IND d   1       1.922  -0.196  -1.230  0.00  0.00     0.051 A 
ATOM      5  C5  IND d   1       3.035  -0.952  -0.989  0.00  0.00    -0.031 A 
ATOM      6  C6  IND d   1       3.203  -1.648   0.191  0.00  0.00     0.015 A 
ATOM      7  C7  IND d   1       2.254  -1.622   1.173  0.00  0.00    -0.016 A 
ATOM      8  C8  IND d   1       1.126  -0.850   0.935  0.00  0.00    -0.047 A 
ATOM      9  C9  IND d   1       0.970  -0.108  -0.243  0.00  0.00    -0.096 A 
ATOM     10  HN1 IND d   1      -0.121  -0.938   2.503  0.00  0.00     0.298 HD
ENDROOT
TORSDOF 0
ENDMDL
