MODEL 1
REMARK minimizedAffinity -0.845474541
REMARK minimizedRMSD -1
REMARK  0 active torsions:
REMARK  status: ('A' for Active; 'I' for Inactive)
ROOT
ATOM      1  N1  IND d   1      -0.354  -1.136   2.964  0.00  0.00    -0.196 N 
ATOM      2  C2  IND d   1      -1.651  -0.707   3.001  0.00  0.00     0.054 A 
ATOM      3  C3  IND d   1      -1.931   0.038   1.908  0.00  0.00    -0.031 A 
ATOM      4  C4  IND d   1      -0.442   0.597  -0.116  0.00  0.00     0.051 A 
ATOM      5  C5  IND d   1       0.834   0.458  -0.586  0.00  0.00    -0.031 A 
ATOM      6  C6  IND d   1       1.798  -0.235   0.117  0.00  0.00     0.015 A 
ATOM      7  C7  IND d   1       1.518  -0.827   1.316  0.00  0.00    -0.016 A 
ATOM      8  C8  IND d   1       0.225  -0.683   1.799  0.00  0.00    -0.047 A 
ATOM      9  C9  IND d   1      -0.746   0.055   1.110  0.00  0.00    -0.096 A 
ATOM     10  HN1 IND d   1       0.036  -1.609   3.568  0.00  0.00     0.298 HD
ENDROOT
TORSDOF 0
ENDMDL
