MODEL 1
REMARK minimizedAffinity 1.52293479
REMARK minimizedRMSD -1
REMARK  0 active torsions:
REMARK  status: ('A' for Active; 'I' for Inactive)
ROOT
ATOM      1  N1  IND d   1      -0.662   0.756  -1.093  0.00  0.00    -0.196 N 
ATOM      2  C2  IND d   1      -1.409   0.481   0.019  0.00  0.00     0.054 A 
ATOM      3  C3  IND d   1      -0.617   0.027   1.017  0.00  0.00    -0.031 A 
ATOM      4  C4  IND d   1       1.942  -0.247   1.077  0.00  0.00     0.051 A 
ATOM      5  C5  IND d   1       3.054  -0.158   0.288  0.00  0.00    -0.031 A 
ATOM      6  C6  IND d   1       2.983   0.252  -1.028  0.00  0.00     0.015 A 
ATOM      7  C7  IND d   1       1.793   0.599  -1.602  0.00  0.00    -0.016 A 
ATOM      8  C8  IND d   1       0.661   0.503  -0.806  0.00  0.00    -0.047 A 
ATOM      9  C9  IND d   1       0.722   0.047   0.517  0.00  0.00    -0.096 A 
ATOM     10  HN1 IND d   1      -0.968   1.039  -1.845  0.00  0.00     0.298 HD
ENDROOT
TORSDOF 0
ENDMDL
