MODEL 1
REMARK minimizedAffinity 2.318928
REMARK minimizedRMSD -1
REMARK  0 active torsions:
REMARK  status: ('A' for Active; 'I' for Inactive)
ROOT
ATOM      1  N1  IND d   1       2.141   0.522   0.928  0.00  0.00    -0.196 N 
ATOM      2  C2  IND d   1       3.022   0.729  -0.096  0.00  0.00     0.054 A 
ATOM      3  C3  IND d   1       2.356   1.005  -1.240  0.00  0.00    -0.031 A 
ATOM      4  C4  IND d   1      -0.174   1.267  -1.638  0.00  0.00     0.051 A 
ATOM      5  C5  IND d   1      -1.382   1.136  -1.012  0.00  0.00    -0.031 A 
ATOM      6  C6  IND d   1      -1.479   0.789   0.320  0.00  0.00     0.015 A 
ATOM      7  C7  IND d   1      -0.367   0.571   1.082  0.00  0.00    -0.016 A 
ATOM      8  C8  IND d   1       0.861   0.696   0.449  0.00  0.00    -0.047 A 
ATOM      9  C9  IND d   1       0.965   1.006  -0.914  0.00  0.00    -0.096 A 
ATOM     10  HN1 IND d   1       2.351   0.318   1.737  0.00  0.00     0.298 HD
ENDROOT
TORSDOF 0
ENDMDL
