MODEL 1
REMARK minimizedAffinity -1.36181176
REMARK minimizedRMSD -1
REMARK  0 active torsions:
REMARK  status: ('A' for Active; 'I' for Inactive)
ROOT
ATOM      1  N1  IND d   1       1.754  -0.215   1.261  0.00  0.00    -0.196 N 
ATOM      2  C2  IND d   1       2.464  -0.010   0.111  0.00  0.00     0.054 A 
ATOM      3  C3  IND d   1       1.645   0.415  -0.878  0.00  0.00    -0.031 A 
ATOM      4  C4  IND d   1      -0.874   0.941  -0.803  0.00  0.00     0.051 A 
ATOM      5  C5  IND d   1      -1.965   0.872   0.018  0.00  0.00    -0.031 A 
ATOM      6  C6  IND d   1      -1.869   0.432   1.322  0.00  0.00     0.015 A 
ATOM      7  C7  IND d   1      -0.672   0.052   1.860  0.00  0.00    -0.016 A 
ATOM      8  C8  IND d   1       0.437   0.113   1.027  0.00  0.00    -0.047 A 
ATOM      9  C9  IND d   1       0.338   0.519  -0.310  0.00  0.00    -0.096 A 
ATOM     10  HN1 IND d   1       2.076  -0.501   2.005  0.00  0.00     0.298 HD
ENDROOT
TORSDOF 0
ENDMDL
