MODEL 1
REMARK minimizedAffinity 2.91950631
REMARK minimizedRMSD -1
REMARK  0 active torsions:
REMARK  status: ('A' for Active; 'I' for Inactive)
ROOT
ATOM      1  N1  IND d   1       0.526   1.494  -0.178  0.00  0.00    -0.196 N 
ATOM      2  C2  IND d   1       0.652   0.252   0.381  0.00  0.00     0.054 A 
ATOM      3  C3  IND d   1      -0.288  -0.584  -0.115  0.00  0.00    -0.031 A 
ATOM      4  C4  IND d   1      -2.068  -0.155  -1.925  0.00  0.00     0.051 A 
ATOM      5  C5  IND d   1      -2.595   0.837  -2.704  0.00  0.00    -0.031 A 
ATOM      6  C6  IND d   1      -2.096   2.123  -2.683  0.00  0.00     0.015 A 
ATOM      7  C7  IND d   1      -1.040   2.465  -1.886  0.00  0.00    -0.016 A 
ATOM      8  C8  IND d   1      -0.507   1.462  -1.088  0.00  0.00    -0.047 A 
ATOM      9  C9  IND d   1      -1.036   0.165  -1.074  0.00  0.00    -0.096 A 
ATOM     10  HN1 IND d   1       1.011   2.179   0.008  0.00  0.00     0.298 HD
ENDROOT
TORSDOF 0
ENDMDL
