MODEL 1
REMARK minimizedAffinity -2.98376489
REMARK minimizedRMSD -1
REMARK  3 active torsions:
REMARK  status: ('A' for Active; 'I' for Inactive)
REMARK    1  A    between atoms: C3'_2  and  C2'_3 
REMARK    2  A    between atoms: C2'_3  and  C1'_4 
REMARK    3  A    between atoms: C1'_4  and  C1_5 
ROOT
ATOM      1  C1  N4B d   1      -1.560   0.328   1.363  0.00  0.00    -0.075 A 
ATOM      2  C2  N4B d   1      -2.166  -0.731   2.073  0.00  0.00     0.002 A 
ATOM      3  C3  N4B d   1      -2.346  -0.632   3.431  0.00  0.00     0.002 A 
ATOM      4  C4  N4B d   1      -1.914   0.503   4.100  0.00  0.00    -0.004 A 
ATOM      5  C5  N4B d   1      -1.353   1.533   3.402  0.00  0.00     0.002 A 
ATOM      6  C6  N4B d   1      -1.169   1.449   2.037  0.00  0.00     0.002 A 
ENDROOT
BRANCH   1   7
ATOM      7  C1' N4B d   1      -1.263   0.231  -0.109  0.00  0.00     0.057 C 
BRANCH   7   8
ATOM      8  C2' N4B d   1       0.219  -0.073  -0.302  0.00  0.00     0.009 C 
BRANCH   8   9
ATOM      9  C3' N4B d   1       0.476  -1.559  -0.484  0.00  0.00     0.004 C 
ATOM     10  C4' N4B d   1       1.901  -1.940  -0.212  0.00  0.00     0.003 C 
ENDBRANCH   8   9
ENDBRANCH   7   8
ENDBRANCH   1   7
TORSDOF 3
ENDMDL
