MODEL 1
REMARK minimizedAffinity -5.52127028
REMARK minimizedRMSD -1
REMARK  3 active torsions:
REMARK  status: ('A' for Active; 'I' for Inactive)
REMARK    1  A    between atoms: C3'_2  and  C2'_3 
REMARK    2  A    between atoms: C2'_3  and  C1'_4 
REMARK    3  A    between atoms: C1'_4  and  C1_5 
ROOT
ATOM      1  C1  N4B d   1       0.487   0.046  -0.456  0.00  0.00    -0.075 A 
ATOM      2  C2  N4B d   1       0.417  -1.346  -0.683  0.00  0.00     0.002 A 
ATOM      3  C3  N4B d   1       1.445  -1.989  -1.329  0.00  0.00     0.002 A 
ATOM      4  C4  N4B d   1       2.539  -1.260  -1.771  0.00  0.00    -0.004 A 
ATOM      5  C5  N4B d   1       2.610   0.080  -1.526  0.00  0.00     0.002 A 
ATOM      6  C6  N4B d   1       1.586   0.738  -0.875  0.00  0.00     0.002 A 
ENDROOT
BRANCH   1   7
ATOM      7  C1' N4B d   1      -0.651   0.806   0.169  0.00  0.00     0.057 C 
BRANCH   7   8
ATOM      8  C2' N4B d   1      -1.120   0.067   1.418  0.00  0.00     0.009 C 
BRANCH   8   9
ATOM      9  C3' N4B d   1      -1.789   1.001   2.413  0.00  0.00     0.004 C 
ATOM     10  C4' N4B d   1      -1.801   0.451   3.808  0.00  0.00     0.003 C 
ENDBRANCH   8   9
ENDBRANCH   7   8
ENDBRANCH   1   7
TORSDOF 3
ENDMDL
