MODEL 1
REMARK minimizedAffinity -0.667992473
REMARK minimizedRMSD -1
REMARK  3 active torsions:
REMARK  status: ('A' for Active; 'I' for Inactive)
REMARK    1  A    between atoms: C3'_2  and  C2'_3 
REMARK    2  A    between atoms: C2'_3  and  C1'_4 
REMARK    3  A    between atoms: C1'_4  and  C1_5 
ROOT
ATOM      1  C1  N4B d   1       0.067  -1.042   0.150  0.00  0.00    -0.075 A 
ATOM      2  C2  N4B d   1       0.696   0.175  -0.192  0.00  0.00     0.002 A 
ATOM      3  C3  N4B d   1       1.940   0.165  -0.774  0.00  0.00     0.002 A 
ATOM      4  C4  N4B d   1       2.579  -1.044  -1.005  0.00  0.00    -0.004 A 
ATOM      5  C5  N4B d   1       1.954  -2.216  -0.695  0.00  0.00     0.002 A 
ATOM      6  C6  N4B d   1       0.702  -2.221  -0.113  0.00  0.00     0.002 A 
ENDROOT
BRANCH   1   7
ATOM      7  C1' N4B d   1      -1.256  -1.079   0.867  0.00  0.00     0.057 C 
BRANCH   7   8
ATOM      8  C2' N4B d   1      -1.514   0.280   1.511  0.00  0.00     0.009 C 
BRANCH   8   9
ATOM      9  C3' N4B d   1      -1.650   0.177   3.020  0.00  0.00     0.004 C 
ATOM     10  C4' N4B d   1      -1.497   1.500   3.709  0.00  0.00     0.003 C 
ENDBRANCH   8   9
ENDBRANCH   7   8
ENDBRANCH   1   7
TORSDOF 3
ENDMDL
