MODEL 1
REMARK minimizedAffinity -6.17823553
REMARK minimizedRMSD -1
REMARK  3 active torsions:
REMARK  status: ('A' for Active; 'I' for Inactive)
REMARK    1  A    between atoms: C3'_2  and  C2'_3 
REMARK    2  A    between atoms: C2'_3  and  C1'_4 
REMARK    3  A    between atoms: C1'_4  and  C1_5 
ROOT
ATOM      1  C1  N4B d   1       0.232  -0.222  -0.574  0.00  0.00    -0.075 A 
ATOM      2  C2  N4B d   1       1.328   0.633  -0.824  0.00  0.00     0.002 A 
ATOM      3  C3  N4B d   1       2.543   0.103  -1.183  0.00  0.00     0.002 A 
ATOM      4  C4  N4B d   1       2.691  -1.272  -1.279  0.00  0.00    -0.004 A 
ATOM      5  C5  N4B d   1       1.620  -2.089  -1.061  0.00  0.00     0.002 A 
ATOM      6  C6  N4B d   1       0.392  -1.571  -0.703  0.00  0.00     0.002 A 
ENDROOT
BRANCH   1   7
ATOM      7  C1' N4B d   1      -1.093   0.306  -0.095  0.00  0.00     0.057 C 
BRANCH   7   8
ATOM      8  C2' N4B d   1      -1.172   0.159   1.422  0.00  0.00     0.009 C 
BRANCH   8   9
ATOM      9  C3' N4B d   1      -2.101   1.187   2.045  0.00  0.00     0.004 C 
ATOM     10  C4' N4B d   1      -1.539   1.795   3.295  0.00  0.00     0.003 C 
ENDBRANCH   8   9
ENDBRANCH   7   8
ENDBRANCH   1   7
TORSDOF 3
ENDMDL
