MODEL 1
REMARK minimizedAffinity -4.0312891
REMARK minimizedRMSD -1
REMARK  3 active torsions:
REMARK  status: ('A' for Active; 'I' for Inactive)
REMARK    1  A    between atoms: C3'_2  and  C2'_3 
REMARK    2  A    between atoms: C2'_3  and  C1'_4 
REMARK    3  A    between atoms: C1'_4  and  C1_5 
ROOT
ATOM      1  C1  N4B d   1       0.102   0.081  -0.382  0.00  0.00    -0.075 A 
ATOM      2  C2  N4B d   1       0.914   1.017  -1.060  0.00  0.00     0.002 A 
ATOM      3  C3  N4B d   1       2.034   0.594  -1.733  0.00  0.00     0.002 A 
ATOM      4  C4  N4B d   1       2.371  -0.752  -1.726  0.00  0.00    -0.004 A 
ATOM      5  C5  N4B d   1       1.568  -1.652  -1.090  0.00  0.00     0.002 A 
ATOM      6  C6  N4B d   1       0.437  -1.242  -0.413  0.00  0.00     0.002 A 
ENDROOT
BRANCH   1   7
ATOM      7  C1' N4B d   1      -1.084   0.507   0.439  0.00  0.00     0.057 C 
BRANCH   7   8
ATOM      8  C2' N4B d   1      -1.412  -0.587   1.450  0.00  0.00     0.009 C 
BRANCH   8   9
ATOM      9  C3' N4B d   1      -2.595  -0.214   2.328  0.00  0.00     0.004 C 
ATOM     10  C4' N4B d   1      -3.206  -1.399   3.014  0.00  0.00     0.003 C 
ENDBRANCH   8   9
ENDBRANCH   7   8
ENDBRANCH   1   7
TORSDOF 3
ENDMDL
