MODEL 1
REMARK minimizedAffinity -6.93718672
REMARK minimizedRMSD -1
REMARK  3 active torsions:
REMARK  status: ('A' for Active; 'I' for Inactive)
REMARK    1  A    between atoms: C3'_2  and  C2'_3 
REMARK    2  A    between atoms: C2'_3  and  C1'_4 
REMARK    3  A    between atoms: C1'_4  and  C1_5 
ROOT
ATOM      1  C1  N4B d   1       0.359   0.387  -0.702  0.00  0.00    -0.075 A 
ATOM      2  C2  N4B d   1       1.351  -0.582  -0.437  0.00  0.00     0.002 A 
ATOM      3  C3  N4B d   1       2.530  -0.568  -1.141  0.00  0.00     0.002 A 
ATOM      4  C4  N4B d   1       2.731   0.390  -2.124  0.00  0.00    -0.004 A 
ATOM      5  C5  N4B d   1       1.778   1.338  -2.356  0.00  0.00     0.002 A 
ATOM      6  C6  N4B d   1       0.590   1.338  -1.653  0.00  0.00     0.002 A 
ENDROOT
BRANCH   1   7
ATOM      7  C1' N4B d   1      -0.981   0.359  -0.019  0.00  0.00     0.057 C 
BRANCH   7   8
ATOM      8  C2' N4B d   1      -0.772   0.337   1.493  0.00  0.00     0.009 C 
BRANCH   8   9
ATOM      9  C3' N4B d   1      -2.074   0.531   2.250  0.00  0.00     0.004 C 
ATOM     10  C4' N4B d   1      -1.956   1.530   3.362  0.00  0.00     0.003 C 
ENDBRANCH   8   9
ENDBRANCH   7   8
ENDBRANCH   1   7
TORSDOF 3
ENDMDL
