MODEL 1
REMARK minimizedAffinity -3.33318257
REMARK minimizedRMSD -1
REMARK  3 active torsions:
REMARK  status: ('A' for Active; 'I' for Inactive)
REMARK    1  A    between atoms: C3'_2  and  C2'_3 
REMARK    2  A    between atoms: C2'_3  and  C1'_4 
REMARK    3  A    between atoms: C1'_4  and  C1_5 
ROOT
ATOM      1  C1  N4B d   1       0.493  -0.160   0.102  0.00  0.00    -0.075 A 
ATOM      2  C2  N4B d   1       1.619   0.647   0.373  0.00  0.00     0.002 A 
ATOM      3  C3  N4B d   1       2.838   0.331  -0.175  0.00  0.00     0.002 A 
ATOM      4  C4  N4B d   1       2.959  -0.793  -0.978  0.00  0.00    -0.004 A 
ATOM      5  C5  N4B d   1       1.861  -1.553  -1.256  0.00  0.00     0.002 A 
ATOM      6  C6  N4B d   1       0.628  -1.245  -0.716  0.00  0.00     0.002 A 
ENDROOT
BRANCH   1   7
ATOM      7  C1' N4B d   1      -0.842   0.096   0.747  0.00  0.00     0.057 C 
BRANCH   7   8
ATOM      8  C2' N4B d   1      -0.687   0.022   2.263  0.00  0.00     0.009 C 
BRANCH   8   9
ATOM      9  C3' N4B d   1      -1.976   0.378   2.983  0.00  0.00     0.004 C 
ATOM     10  C4' N4B d   1      -1.745   0.863   4.383  0.00  0.00     0.003 C 
ENDBRANCH   8   9
ENDBRANCH   7   8
ENDBRANCH   1   7
TORSDOF 3
ENDMDL
