MODEL 1
REMARK minimizedAffinity -5.37686586
REMARK minimizedRMSD -1
REMARK  0 active torsions:
REMARK  status: ('A' for Active; 'I' for Inactive)
ROOT
ATOM      1  C   UNL d   1       1.842  -0.648   2.762  0.00  0.00     0.078 C 
ATOM      2  C1  UNL d   1       0.848  -0.521   1.647  0.00  0.00    -0.077 A 
ATOM      3  C2  UNL d   1       1.267  -0.441   0.313  0.00  0.00    -0.001 A 
ATOM      4  C3  UNL d   1       0.331  -0.314  -0.714  0.00  0.00     0.003 A 
ATOM      5  C4  UNL d   1      -1.030  -0.264  -0.419  0.00  0.00    -0.005 A 
ATOM      6  C5  UNL d   1      -1.457  -0.341   0.905  0.00  0.00     0.003 A 
ATOM      7  C6  UNL d   1      -0.522  -0.469   1.934  0.00  0.00    -0.001 A 
ENDROOT
TORSDOF 0
ENDMDL
