MODEL 1
REMARK minimizedAffinity -4.94503927
REMARK minimizedRMSD -1
REMARK  0 active torsions:
REMARK  status: ('A' for Active; 'I' for Inactive)
ROOT
ATOM      1  C   UNL d   1       1.198  -0.715   2.373  0.00  0.00     0.078 C 
ATOM      2  C1  UNL d   1       0.595  -0.706   1.001  0.00  0.00    -0.077 A 
ATOM      3  C2  UNL d   1       1.223  -1.358  -0.068  0.00  0.00    -0.001 A 
ATOM      4  C3  UNL d   1       0.655  -1.333  -1.342  0.00  0.00     0.003 A 
ATOM      5  C4  UNL d   1      -0.543  -0.657  -1.561  0.00  0.00    -0.005 A 
ATOM      6  C5  UNL d   1      -1.175  -0.004  -0.505  0.00  0.00     0.003 A 
ATOM      7  C6  UNL d   1      -0.609  -0.027   0.770  0.00  0.00    -0.001 A 
ENDROOT
TORSDOF 0
ENDMDL
