MODEL 1
REMARK minimizedAffinity -4.89467716
REMARK minimizedRMSD -1
REMARK  0 active torsions:
REMARK  status: ('A' for Active; 'I' for Inactive)
ROOT
ATOM      1  C   UNL d   1       1.249  -0.901   3.146  0.00  0.00     0.078 C 
ATOM      2  C1  UNL d   1       0.654  -0.526   1.821  0.00  0.00    -0.077 A 
ATOM      3  C2  UNL d   1      -0.687  -0.138   1.716  0.00  0.00    -0.001 A 
ATOM      4  C3  UNL d   1      -1.230   0.199   0.475  0.00  0.00     0.003 A 
ATOM      5  C4  UNL d   1      -0.438   0.151  -0.671  0.00  0.00    -0.005 A 
ATOM      6  C5  UNL d   1       0.897  -0.236  -0.577  0.00  0.00     0.003 A 
ATOM      7  C6  UNL d   1       1.441  -0.573   0.664  0.00  0.00    -0.001 A 
ENDROOT
TORSDOF 0
ENDMDL
