MODEL 1
REMARK minimizedAffinity -4.35062695
REMARK minimizedRMSD -1
REMARK  0 active torsions:
REMARK  status: ('A' for Active; 'I' for Inactive)
ROOT
ATOM      1  C   UNL d   1       1.454  -0.293   3.011  0.00  0.00     0.078 C 
ATOM      2  C1  UNL d   1       0.763  -0.310   1.681  0.00  0.00    -0.077 A 
ATOM      3  C2  UNL d   1      -0.617  -0.096   1.582  0.00  0.00    -0.001 A 
ATOM      4  C3  UNL d   1      -1.249  -0.125   0.338  0.00  0.00     0.003 A 
ATOM      5  C4  UNL d   1      -0.508  -0.368  -0.817  0.00  0.00    -0.005 A 
ATOM      6  C5  UNL d   1       0.866  -0.584  -0.729  0.00  0.00     0.003 A 
ATOM      7  C6  UNL d   1       1.499  -0.556   0.515  0.00  0.00    -0.001 A 
ENDROOT
TORSDOF 0
ENDMDL
