MODEL 1
REMARK minimizedAffinity -4.82580185
REMARK minimizedRMSD -1
REMARK  0 active torsions:
REMARK  status: ('A' for Active; 'I' for Inactive)
ROOT
ATOM      1  C   UNL d   1       1.589  -0.227   3.085  0.00  0.00     0.078 C 
ATOM      2  C1  UNL d   1       0.662  -0.271   1.906  0.00  0.00    -0.077 A 
ATOM      3  C2  UNL d   1       1.158  -0.228   0.597  0.00  0.00    -0.001 A 
ATOM      4  C3  UNL d   1       0.283  -0.260  -0.490  0.00  0.00     0.003 A 
ATOM      5  C4  UNL d   1      -1.092  -0.334  -0.279  0.00  0.00    -0.005 A 
ATOM      6  C5  UNL d   1      -1.595  -0.376   1.020  0.00  0.00     0.003 A 
ATOM      7  C6  UNL d   1      -0.722  -0.344   2.108  0.00  0.00    -0.001 A 
ENDROOT
TORSDOF 0
ENDMDL
