MODEL 1
REMARK minimizedAffinity -2.78038621
REMARK minimizedRMSD -1
REMARK  0 active torsions:
REMARK  status: ('A' for Active; 'I' for Inactive)
ROOT
ATOM      1  N1  IND d   1      -2.930  -1.730   0.721  0.00  0.00    -0.196 N 
ATOM      2  C2  IND d   1      -3.585  -1.525  -0.461  0.00  0.00     0.054 A 
ATOM      3  C3  IND d   1      -2.804  -0.831  -1.318  0.00  0.00    -0.031 A 
ATOM      4  C4  IND d   1      -0.378  -0.018  -1.027  0.00  0.00     0.051 A 
ATOM      5  C5  IND d   1       0.628   0.063  -0.106  0.00  0.00    -0.031 A 
ATOM      6  C6  IND d   1       0.498  -0.464   1.163  0.00  0.00     0.015 A 
ATOM      7  C7  IND d   1      -0.644  -1.103   1.556  0.00  0.00    -0.016 A 
ATOM      8  C8  IND d   1      -1.670  -1.180   0.625  0.00  0.00    -0.047 A 
ATOM      9  C9  IND d   1      -1.560  -0.611  -0.650  0.00  0.00    -0.096 A 
ATOM     10  HN1 IND d   1      -3.250  -2.135   1.409  0.00  0.00     0.298 HD
ENDROOT
TORSDOF 0
ENDMDL
