MODEL 1
REMARK minimizedAffinity -0.638465464
REMARK minimizedRMSD -1
REMARK  0 active torsions:
REMARK  status: ('A' for Active; 'I' for Inactive)
ROOT
ATOM      1  N1  IND d   1       0.252  -0.825  -0.730  0.00  0.00    -0.196 N 
ATOM      2  C2  IND d   1       1.537  -1.031  -1.149  0.00  0.00     0.054 A 
ATOM      3  C3  IND d   1       2.379  -1.052  -0.091  0.00  0.00    -0.031 A 
ATOM      4  C4  IND d   1       1.852  -0.873   2.423  0.00  0.00     0.051 A 
ATOM      5  C5  IND d   1       0.825  -0.640   3.294  0.00  0.00    -0.031 A 
ATOM      6  C6  IND d   1      -0.472  -0.457   2.860  0.00  0.00     0.015 A 
ATOM      7  C7  IND d   1      -0.793  -0.510   1.534  0.00  0.00    -0.016 A 
ATOM      8  C8  IND d   1       0.248  -0.739   0.645  0.00  0.00    -0.047 A 
ATOM      9  C9  IND d   1       1.573  -0.884   1.076  0.00  0.00    -0.096 A 
ATOM     10  HN1 IND d   1      -0.437  -0.761  -1.239  0.00  0.00     0.298 HD
ENDROOT
TORSDOF 0
ENDMDL
