MODEL 1
REMARK minimizedAffinity -2.06940317
REMARK minimizedRMSD -1
REMARK  0 active torsions:
REMARK  status: ('A' for Active; 'I' for Inactive)
ROOT
ATOM      1  N1  IND d   1      -1.146  -0.432   0.670  0.00  0.00    -0.196 N 
ATOM      2  C2  IND d   1      -0.707   0.101  -0.510  0.00  0.00     0.054 A 
ATOM      3  C3  IND d   1       0.621   0.345  -0.450  0.00  0.00    -0.031 A 
ATOM      4  C4  IND d   1       2.291  -0.145   1.446  0.00  0.00     0.051 A 
ATOM      5  C5  IND d   1       2.355  -0.593   2.736  0.00  0.00    -0.031 A 
ATOM      6  C6  IND d   1       1.234  -1.023   3.415  0.00  0.00     0.015 A 
ATOM      7  C7  IND d   1       0.002  -1.030   2.824  0.00  0.00    -0.016 A 
ATOM      8  C8  IND d   1      -0.068  -0.568   1.517  0.00  0.00    -0.047 A 
ATOM      9  C9  IND d   1       1.060  -0.091   0.837  0.00  0.00    -0.096 A 
ATOM     10  HN1 IND d   1      -1.959  -0.646   0.852  0.00  0.00     0.298 HD
ENDROOT
TORSDOF 0
ENDMDL
