MODEL 1
REMARK minimizedAffinity -4.40027857
REMARK minimizedRMSD -1
REMARK  0 active torsions:
REMARK  status: ('A' for Active; 'I' for Inactive)
ROOT
ATOM      1  N1  IND d   1      -1.810  -0.823   1.981  0.00  0.00    -0.196 N 
ATOM      2  C2  IND d   1      -1.268  -1.446   3.071  0.00  0.00     0.054 A 
ATOM      3  C3  IND d   1       0.081  -1.458   2.983  0.00  0.00    -0.031 A 
ATOM      4  C4  IND d   1       1.613  -0.425   1.190  0.00  0.00     0.051 A 
ATOM      5  C5  IND d   1       1.579   0.214  -0.017  0.00  0.00    -0.031 A 
ATOM      6  C6  IND d   1       0.389   0.550  -0.631  0.00  0.00     0.015 A 
ATOM      7  C7  IND d   1      -0.816   0.267  -0.053  0.00  0.00    -0.016 A 
ATOM      8  C8  IND d   1      -0.785  -0.388   1.170  0.00  0.00    -0.047 A 
ATOM      9  C9  IND d   1       0.418  -0.769   1.778  0.00  0.00    -0.096 A 
ATOM     10  HN1 IND d   1      -2.650  -0.721   1.828  0.00  0.00     0.298 HD
ENDROOT
TORSDOF 0
ENDMDL
