MODEL 1
REMARK minimizedAffinity 5.20761013
REMARK minimizedRMSD -1
REMARK  0 active torsions:
REMARK  status: ('A' for Active; 'I' for Inactive)
ROOT
ATOM      1  N1  IND d   1       0.339   1.742  -5.232  0.00  0.00    -0.196 N 
ATOM      2  C2  IND d   1       1.432   2.241  -5.885  0.00  0.00     0.054 A 
ATOM      3  C3  IND d   1       1.900   3.337  -5.248  0.00  0.00    -0.031 A 
ATOM      4  C4  IND d   1       1.091   4.429  -3.062  0.00  0.00     0.051 A 
ATOM      5  C5  IND d   1       0.103   4.353  -2.121  0.00  0.00    -0.031 A 
ATOM      6  C6  IND d   1      -0.875   3.381  -2.168  0.00  0.00     0.015 A 
ATOM      7  C7  IND d   1      -0.895   2.438  -3.157  0.00  0.00    -0.016 A 
ATOM      8  C8  IND d   1       0.103   2.517  -4.118  0.00  0.00    -0.047 A 
ATOM      9  C9  IND d   1       1.074   3.527  -4.098  0.00  0.00    -0.096 A 
ATOM     10  HN1 IND d   1      -0.122   1.059  -5.476  0.00  0.00     0.298 HD
ENDROOT
TORSDOF 0
ENDMDL
