MODEL 1
REMARK minimizedAffinity 1.84087145
REMARK minimizedRMSD -1
REMARK  0 active torsions:
REMARK  status: ('A' for Active; 'I' for Inactive)
ROOT
ATOM      1  N1  IND d   1       0.477  -0.609  -1.117  0.00  0.00    -0.196 N 
ATOM      2  C2  IND d   1      -0.709  -0.260  -0.534  0.00  0.00     0.054 A 
ATOM      3  C3  IND d   1      -0.564  -0.161   0.806  0.00  0.00    -0.031 A 
ATOM      4  C4  IND d   1       1.553  -0.431   2.246  0.00  0.00     0.051 A 
ATOM      5  C5  IND d   1       2.871  -0.785   2.169  0.00  0.00    -0.031 A 
ATOM      6  C6  IND d   1       3.471  -1.103   0.967  0.00  0.00     0.015 A 
ATOM      7  C7  IND d   1       2.775  -1.067  -0.208  0.00  0.00    -0.016 A 
ATOM      8  C8  IND d   1       1.435  -0.714  -0.132  0.00  0.00    -0.047 A 
ATOM      9  C9  IND d   1       0.810  -0.432   1.089  0.00  0.00    -0.096 A 
ATOM     10  HN1 IND d   1       0.604  -0.742  -1.957  0.00  0.00     0.298 HD
ENDROOT
TORSDOF 0
ENDMDL
