MODEL 1
REMARK minimizedAffinity 4.58416414
REMARK minimizedRMSD -1
REMARK  0 active torsions:
REMARK  status: ('A' for Active; 'I' for Inactive)
ROOT
ATOM      1  N1  IND d   1      -1.159  -0.690  -0.963  0.00  0.00    -0.196 N 
ATOM      2  C2  IND d   1      -2.051  -0.286  -0.009  0.00  0.00     0.054 A 
ATOM      3  C3  IND d   1      -1.401   0.059   1.125  0.00  0.00    -0.031 A 
ATOM      4  C4  IND d   1       1.127   0.136   1.603  0.00  0.00     0.051 A 
ATOM      5  C5  IND d   1       2.338  -0.175   1.051  0.00  0.00    -0.031 A 
ATOM      6  C6  IND d   1       2.447  -0.682  -0.228  0.00  0.00     0.015 A 
ATOM      7  C7  IND d   1       1.345  -0.886  -1.010  0.00  0.00    -0.016 A 
ATOM      8  C8  IND d   1       0.114  -0.578  -0.450  0.00  0.00    -0.047 A 
ATOM      9  C9  IND d   1      -0.006  -0.103   0.863  0.00  0.00    -0.096 A 
ATOM     10  HN1 IND d   1      -1.360  -0.967  -1.752  0.00  0.00     0.298 HD
ENDROOT
TORSDOF 0
ENDMDL
