MODEL 1
REMARK minimizedAffinity 4.25141096
REMARK minimizedRMSD -1
REMARK  0 active torsions:
REMARK  status: ('A' for Active; 'I' for Inactive)
ROOT
ATOM      1  N1  IND d   1      -0.942   3.865  -1.640  0.00  0.00    -0.196 N 
ATOM      2  C2  IND d   1      -1.979   3.021  -1.922  0.00  0.00     0.054 A 
ATOM      3  C3  IND d   1      -1.780   2.413  -3.113  0.00  0.00    -0.031 A 
ATOM      4  C4  IND d   1       0.226   2.578  -4.718  0.00  0.00     0.051 A 
ATOM      5  C5  IND d   1       1.401   3.248  -4.908  0.00  0.00    -0.031 A 
ATOM      6  C6  IND d   1       1.866   4.176  -3.998  0.00  0.00     0.015 A 
ATOM      7  C7  IND d   1       1.176   4.460  -2.854  0.00  0.00    -0.016 A 
ATOM      8  C8  IND d   1      -0.022   3.786  -2.661  0.00  0.00    -0.047 A 
ATOM      9  C9  IND d   1      -0.520   2.875  -3.602  0.00  0.00    -0.096 A 
ATOM     10  HN1 IND d   1      -0.876   4.362  -0.941  0.00  0.00     0.298 HD
ENDROOT
TORSDOF 0
ENDMDL
