MODEL 1
REMARK minimizedAffinity -1.04309022
REMARK minimizedRMSD -1
REMARK  0 active torsions:
REMARK  status: ('A' for Active; 'I' for Inactive)
ROOT
ATOM      1  C   UNL d   1       1.171   0.047   1.297  0.00  0.00     0.023 A 
ATOM      2  C1  UNL d   1       1.105   1.171   0.474  0.00  0.00     0.003 A 
ATOM      3  C2  UNL d   1       0.126   1.257  -0.518  0.00  0.00     0.048 A 
ATOM      4  C3  UNL d   1      -0.786   0.214  -0.680  0.00  0.00     0.023 A 
ATOM      5  C4  UNL d   1      -0.725  -0.912   0.141  0.00  0.00     0.048 A 
ATOM      6  C5  UNL d   1       0.256  -0.994   1.131  0.00  0.00     0.003 A 
ATOM      7  I   UNL d   1      -2.245   0.339  -2.155  0.00  0.00    -0.146 I 
ENDROOT
TORSDOF 0
ENDMDL
