MODEL 1
REMARK minimizedAffinity -0.578791142
REMARK minimizedRMSD -1
REMARK  0 active torsions:
REMARK  status: ('A' for Active; 'I' for Inactive)
ROOT
ATOM      1  C   UNL d   1       2.357   0.564   0.857  0.00  0.00     0.023 A 
ATOM      2  C1  UNL d   1       1.321   1.496   0.787  0.00  0.00     0.003 A 
ATOM      3  C2  UNL d   1       0.120   1.161   0.158  0.00  0.00     0.048 A 
ATOM      4  C3  UNL d   1      -0.039  -0.109  -0.397  0.00  0.00     0.023 A 
ATOM      5  C4  UNL d   1       0.995  -1.044  -0.329  0.00  0.00     0.048 A 
ATOM      6  C5  UNL d   1       2.194  -0.704   0.300  0.00  0.00     0.003 A 
ATOM      7  I   UNL d   1      -1.826  -0.610  -1.332  0.00  0.00    -0.146 I 
ENDROOT
TORSDOF 0
ENDMDL
