MODEL 1
REMARK minimizedAffinity -0.315784097
REMARK minimizedRMSD -1
REMARK  0 active torsions:
REMARK  status: ('A' for Active; 'I' for Inactive)
ROOT
ATOM      1  C   UNL d   1      -0.098  -0.528   0.974  0.00  0.00     0.023 A 
ATOM      2  C1  UNL d   1      -1.396  -1.011   0.806  0.00  0.00     0.003 A 
ATOM      3  C2  UNL d   1      -2.064  -0.814  -0.404  0.00  0.00     0.048 A 
ATOM      4  C3  UNL d   1      -1.428  -0.136  -1.443  0.00  0.00     0.023 A 
ATOM      5  C4  UNL d   1      -0.128   0.348  -1.280  0.00  0.00     0.048 A 
ATOM      6  C5  UNL d   1       0.535   0.150  -0.068  0.00  0.00     0.003 A 
ATOM      7  I   UNL d   1      -2.420   0.157  -3.246  0.00  0.00    -0.146 I 
ENDROOT
TORSDOF 0
ENDMDL
