MODEL 1
REMARK minimizedAffinity -0.483492255
REMARK minimizedRMSD -1
REMARK  0 active torsions:
REMARK  status: ('A' for Active; 'I' for Inactive)
ROOT
ATOM      1  C   UNL d   1       1.515  -0.177   0.770  0.00  0.00     0.023 A 
ATOM      2  C1  UNL d   1       0.667  -1.183   0.307  0.00  0.00     0.003 A 
ATOM      3  C2  UNL d   1      -0.511  -0.852  -0.363  0.00  0.00     0.048 A 
ATOM      4  C3  UNL d   1      -0.836   0.489  -0.569  0.00  0.00     0.023 A 
ATOM      5  C4  UNL d   1       0.009   1.499  -0.109  0.00  0.00     0.048 A 
ATOM      6  C5  UNL d   1       1.186   1.163   0.562  0.00  0.00     0.003 A 
ATOM      7  I   UNL d   1      -2.590   0.985  -1.568  0.00  0.00    -0.146 I 
ENDROOT
TORSDOF 0
ENDMDL
