MODEL 1
REMARK minimizedAffinity -2.36387277
REMARK minimizedRMSD -1
REMARK  0 active torsions:
REMARK  status: ('A' for Active; 'I' for Inactive)
ROOT
ATOM      1  C   UNL d   1       2.502  -1.246   2.698  0.00  0.00     0.023 A 
ATOM      2  C1  UNL d   1       2.755  -0.093   1.955  0.00  0.00     0.003 A 
ATOM      3  C2  UNL d   1       1.803   0.376   1.047  0.00  0.00     0.048 A 
ATOM      4  C3  UNL d   1       0.601  -0.312   0.888  0.00  0.00     0.023 A 
ATOM      5  C4  UNL d   1       0.343  -1.466   1.630  0.00  0.00     0.048 A 
ATOM      6  C5  UNL d   1       1.298  -1.931   2.536  0.00  0.00     0.003 A 
ATOM      7  I   UNL d   1      -0.818   0.385  -0.462  0.00  0.00    -0.146 I 
ENDROOT
TORSDOF 0
ENDMDL
