MODEL 1
REMARK minimizedAffinity -2.17656994
REMARK minimizedRMSD -1
REMARK  0 active torsions:
REMARK  status: ('A' for Active; 'I' for Inactive)
ROOT
ATOM      1  C   UNL d   1       1.965   1.299   1.496  0.00  0.00     0.023 A 
ATOM      2  C1  UNL d   1       0.913   2.180   1.244  0.00  0.00     0.003 A 
ATOM      3  C2  UNL d   1      -0.207   1.746   0.532  0.00  0.00     0.048 A 
ATOM      4  C3  UNL d   1      -0.269   0.430   0.075  0.00  0.00     0.023 A 
ATOM      5  C4  UNL d   1       0.780  -0.455   0.326  0.00  0.00     0.048 A 
ATOM      6  C5  UNL d   1       1.899  -0.016   1.038  0.00  0.00     0.003 A 
ATOM      7  I   UNL d   1      -1.935  -0.218  -0.985  0.00  0.00    -0.146 I 
ENDROOT
TORSDOF 0
ENDMDL
