MODEL 1
REMARK minimizedAffinity -3.17186666
REMARK minimizedRMSD -1
REMARK  0 active torsions:
REMARK  status: ('A' for Active; 'I' for Inactive)
ROOT
ATOM      1  C   UNL d   1      -3.058  -0.079  -3.500  0.00  0.00     0.023 A 
ATOM      2  C1  UNL d   1      -2.729   1.153  -2.934  0.00  0.00     0.003 A 
ATOM      3  C2  UNL d   1      -1.830   1.214  -1.866  0.00  0.00     0.048 A 
ATOM      4  C3  UNL d   1      -1.263   0.040  -1.371  0.00  0.00     0.023 A 
ATOM      5  C4  UNL d   1      -1.589  -1.194  -1.936  0.00  0.00     0.048 A 
ATOM      6  C5  UNL d   1      -2.488  -1.251  -3.002  0.00  0.00     0.003 A 
ATOM      7  I   UNL d   1       0.075   0.129   0.217  0.00  0.00    -0.146 I 
ENDROOT
TORSDOF 0
ENDMDL
