MODEL 1
REMARK minimizedAffinity 0.0769515708
REMARK minimizedRMSD -1
REMARK  0 active torsions:
REMARK  status: ('A' for Active; 'I' for Inactive)
ROOT
ATOM      1  C   UNL d   1      -1.888  -0.053  -0.064  0.00  0.00     0.023 A 
ATOM      2  C1  UNL d   1      -1.272  -1.140   0.557  0.00  0.00     0.003 A 
ATOM      3  C2  UNL d   1       0.054  -1.042   0.986  0.00  0.00     0.048 A 
ATOM      4  C3  UNL d   1       0.757   0.147   0.792  0.00  0.00     0.023 A 
ATOM      5  C4  UNL d   1       0.144   1.237   0.172  0.00  0.00     0.048 A 
ATOM      6  C5  UNL d   1      -1.181   1.134  -0.256  0.00  0.00     0.003 A 
ATOM      7  I   UNL d   1       2.729   0.296   1.430  0.00  0.00    -0.146 I 
ENDROOT
TORSDOF 0
ENDMDL
