MODEL 1
REMARK minimizedAffinity 3.18229222
REMARK minimizedRMSD -1
REMARK  1 active torsions:
REMARK  status: ('A' for Active; 'I' for Inactive)
REMARK    1  A    between atoms: C1_2  and  C2_3 
ROOT
ATOM      1  C2  UNL d   1      -1.083  -0.653   0.552  0.00  0.00    -0.081 A 
ATOM      2  C3  UNL d   1      -1.444  -1.721   1.384  0.00  0.00     0.006 A 
ATOM      3  C4  UNL d   1      -2.086  -2.843   0.856  0.00  0.00     0.002 A 
ATOM      4  C5  UNL d   1      -2.372  -2.920  -0.511  0.00  0.00    -0.080 A 
ATOM      5  C6  UNL d   1      -3.035  -4.133  -1.095  0.00  0.00     0.076 C 
ATOM      6  C7  UNL d   1      -2.028  -1.846  -1.339  0.00  0.00     0.002 A 
ATOM      7  C8  UNL d   1      -1.386  -0.723  -0.812  0.00  0.00     0.006 A 
ENDROOT
BRANCH   1   8
ATOM      8  C1  UNL d   1      -0.332   0.530   1.107  0.00  0.00     0.054 C 
ATOM      9  C   UNL d   1       0.385   1.297   0.005  0.00  0.00     0.018 C 
ENDBRANCH   1   8
TORSDOF 1
ENDMDL
