MODEL 1
REMARK minimizedAffinity 8.33766365
REMARK minimizedRMSD -1
REMARK  1 active torsions:
REMARK  status: ('A' for Active; 'I' for Inactive)
REMARK    1  A    between atoms: C1_2  and  C2_3 
ROOT
ATOM      1  C2  UNL d   1      -2.356   4.439  -5.889  0.00  0.00    -0.081 A 
ATOM      2  C3  UNL d   1      -1.310   5.365  -5.979  0.00  0.00     0.006 A 
ATOM      3  C4  UNL d   1       0.018   4.933  -6.000  0.00  0.00     0.002 A 
ATOM      4  C5  UNL d   1       0.322   3.569  -5.938  0.00  0.00    -0.080 A 
ATOM      5  C6  UNL d   1       1.742   3.090  -5.990  0.00  0.00     0.076 C 
ATOM      6  C7  UNL d   1      -0.723   2.645  -5.830  0.00  0.00     0.002 A 
ATOM      7  C8  UNL d   1      -2.051   3.076  -5.809  0.00  0.00     0.006 A 
ENDROOT
BRANCH   1   8
ATOM      8  C1  UNL d   1      -3.792   4.898  -5.932  0.00  0.00     0.054 C 
ATOM      9  C   UNL d   1      -4.749   3.716  -5.984  0.00  0.00     0.018 C 
ENDBRANCH   1   8
TORSDOF 1
ENDMDL
