MODEL 1
REMARK minimizedAffinity 0.547725737
REMARK minimizedRMSD -1
REMARK  1 active torsions:
REMARK  status: ('A' for Active; 'I' for Inactive)
REMARK    1  A    between atoms: C1_2  and  C2_3 
ROOT
ATOM      1  C2  UNL d   1       3.933   4.524  -6.000  0.00  0.00    -0.081 A 
ATOM      2  C3  UNL d   1       3.048   5.609  -6.000  0.00  0.00     0.006 A 
ATOM      3  C4  UNL d   1       1.667   5.396  -5.990  0.00  0.00     0.002 A 
ATOM      4  C5  UNL d   1       1.149   4.097  -5.971  0.00  0.00    -0.080 A 
ATOM      5  C6  UNL d   1      -0.330   3.855  -5.929  0.00  0.00     0.076 C 
ATOM      6  C7  UNL d   1       2.034   3.013  -5.988  0.00  0.00     0.002 A 
ATOM      7  C8  UNL d   1       3.414   3.225  -5.999  0.00  0.00     0.006 A 
ENDROOT
BRANCH   1   8
ATOM      8  C1  UNL d   1       5.422   4.750  -5.945  0.00  0.00     0.054 C 
ATOM      9  C   UNL d   1       5.920   4.819  -4.508  0.00  0.00     0.018 C 
ENDBRANCH   1   8
TORSDOF 1
ENDMDL
