MODEL 1
REMARK minimizedAffinity -1.22280383
REMARK minimizedRMSD -1
REMARK  1 active torsions:
REMARK  status: ('A' for Active; 'I' for Inactive)
REMARK    1  A    between atoms: C1_2  and  C2_3 
ROOT
ATOM      1  C2  UNL d   1      -1.548   3.021  -5.909  0.00  0.00    -0.081 A 
ATOM      2  C3  UNL d   1      -0.251   2.492  -5.919  0.00  0.00     0.006 A 
ATOM      3  C4  UNL d   1       0.858   3.340  -5.960  0.00  0.00     0.002 A 
ATOM      4  C5  UNL d   1       0.691   4.728  -5.983  0.00  0.00    -0.080 A 
ATOM      5  C6  UNL d   1       1.874   5.650  -5.997  0.00  0.00     0.076 C 
ATOM      6  C7  UNL d   1      -0.605   5.256  -5.991  0.00  0.00     0.002 A 
ATOM      7  C8  UNL d   1      -1.715   4.409  -5.951  0.00  0.00     0.006 A 
ENDROOT
BRANCH   1   8
ATOM      8  C1  UNL d   1      -2.745   2.111  -5.800  0.00  0.00     0.054 C 
ATOM      9  C   UNL d   1      -4.044   2.880  -5.998  0.00  0.00     0.018 C 
ENDBRANCH   1   8
TORSDOF 1
ENDMDL
