MODEL 1
REMARK minimizedAffinity 1.99746108
REMARK minimizedRMSD -1
REMARK  1 active torsions:
REMARK  status: ('A' for Active; 'I' for Inactive)
REMARK    1  A    between atoms: C1_2  and  C2_3 
ROOT
ATOM      1  C2  UNL d   1      -0.063   2.853  -5.905  0.00  0.00    -0.081 A 
ATOM      2  C3  UNL d   1      -1.419   2.501  -5.920  0.00  0.00     0.006 A 
ATOM      3  C4  UNL d   1      -2.407   3.488  -5.929  0.00  0.00     0.002 A 
ATOM      4  C5  UNL d   1      -2.057   4.843  -5.931  0.00  0.00    -0.080 A 
ATOM      5  C6  UNL d   1      -3.107   5.913  -5.971  0.00  0.00     0.076 C 
ATOM      6  C7  UNL d   1      -0.703   5.195  -5.898  0.00  0.00     0.002 A 
ATOM      7  C8  UNL d   1       0.285   4.208  -5.888  0.00  0.00     0.006 A 
ENDROOT
BRANCH   1   8
ATOM      8  C1  UNL d   1       1.005   1.791  -5.960  0.00  0.00     0.054 C 
ATOM      9  C   UNL d   1       2.397   2.407  -5.976  0.00  0.00     0.018 C 
ENDBRANCH   1   8
TORSDOF 1
ENDMDL
