MODEL 1
REMARK minimizedAffinity 0.581660569
REMARK minimizedRMSD -1
REMARK  1 active torsions:
REMARK  status: ('A' for Active; 'I' for Inactive)
REMARK    1  A    between atoms: C1_2  and  C2_3 
ROOT
ATOM      1  C2  UNL d   1       0.170   3.226  -5.984  0.00  0.00    -0.081 A 
ATOM      2  C3  UNL d   1       0.403   4.607  -5.991  0.00  0.00     0.006 A 
ATOM      3  C4  UNL d   1      -0.666   5.506  -5.998  0.00  0.00     0.002 A 
ATOM      4  C5  UNL d   1      -1.985   5.040  -5.989  0.00  0.00    -0.080 A 
ATOM      5  C6  UNL d   1      -3.141   5.995  -5.965  0.00  0.00     0.076 C 
ATOM      6  C7  UNL d   1      -2.219   3.661  -5.999  0.00  0.00     0.002 A 
ATOM      7  C8  UNL d   1      -1.150   2.761  -5.994  0.00  0.00     0.006 A 
ENDROOT
BRANCH   1   8
ATOM      8  C1  UNL d   1       1.320   2.254  -5.911  0.00  0.00     0.054 C 
ATOM      9  C   UNL d   1       2.658   2.974  -5.998  0.00  0.00     0.018 C 
ENDBRANCH   1   8
TORSDOF 1
ENDMDL
