MODEL 1
REMARK minimizedAffinity -0.0228953119
REMARK minimizedRMSD -1
REMARK  1 active torsions:
REMARK  status: ('A' for Active; 'I' for Inactive)
REMARK    1  A    between atoms: C1_2  and  C2_3 
ROOT
ATOM      1  C2  UNL d   1       0.845   4.135  -5.983  0.00  0.00    -0.081 A 
ATOM      2  C3  UNL d   1       1.704   3.029  -5.992  0.00  0.00     0.006 A 
ATOM      3  C4  UNL d   1       3.089   3.207  -5.999  0.00  0.00     0.002 A 
ATOM      4  C5  UNL d   1       3.639   4.494  -5.989  0.00  0.00    -0.080 A 
ATOM      5  C6  UNL d   1       5.124   4.699  -5.966  0.00  0.00     0.076 C 
ATOM      6  C7  UNL d   1       2.781   5.599  -5.999  0.00  0.00     0.002 A 
ATOM      7  C8  UNL d   1       1.396   5.421  -5.992  0.00  0.00     0.006 A 
ENDROOT
BRANCH   1   8
ATOM      8  C1  UNL d   1      -0.648   3.946  -5.910  0.00  0.00     0.054 C 
ATOM      9  C   UNL d   1      -1.379   5.279  -5.975  0.00  0.00     0.018 C 
ENDBRANCH   1   8
TORSDOF 1
ENDMDL
