MODEL 1
REMARK minimizedAffinity 0.858896315
REMARK minimizedRMSD -1
REMARK  1 active torsions:
REMARK  status: ('A' for Active; 'I' for Inactive)
REMARK    1  A    between atoms: C1_2  and  C2_3 
ROOT
ATOM      1  C2  UNL d   1      -3.052   4.154  -5.869  0.00  0.00    -0.081 A 
ATOM      2  C3  UNL d   1      -2.021   3.208  -5.942  0.00  0.00     0.006 A 
ATOM      3  C4  UNL d   1      -0.687   3.618  -5.997  0.00  0.00     0.002 A 
ATOM      4  C5  UNL d   1      -0.361   4.978  -5.971  0.00  0.00    -0.080 A 
ATOM      5  C6  UNL d   1       1.069   5.430  -5.998  0.00  0.00     0.076 C 
ATOM      6  C7  UNL d   1      -1.391   5.923  -5.916  0.00  0.00     0.002 A 
ATOM      7  C8  UNL d   1      -2.725   5.514  -5.863  0.00  0.00     0.006 A 
ENDROOT
BRANCH   1   8
ATOM      8  C1  UNL d   1      -4.488   3.714  -5.745  0.00  0.00     0.054 C 
ATOM      9  C   UNL d   1      -5.445   4.870  -5.999  0.00  0.00     0.018 C 
ENDBRANCH   1   8
TORSDOF 1
ENDMDL
