MODEL 1
REMARK minimizedAffinity -1.38077188
REMARK minimizedRMSD -1
REMARK  1 active torsions:
REMARK  status: ('A' for Active; 'I' for Inactive)
REMARK    1  A    between atoms: C1_2  and  C2_3 
ROOT
ATOM      1  C2  UNL d   1       2.849   3.687  -6.000  0.00  0.00    -0.081 A 
ATOM      2  C3  UNL d   1       2.107   4.874  -5.999  0.00  0.00     0.006 A 
ATOM      3  C4  UNL d   1       0.711   4.836  -5.984  0.00  0.00     0.002 A 
ATOM      4  C5  UNL d   1       0.034   3.612  -5.961  0.00  0.00    -0.080 A 
ATOM      5  C6  UNL d   1      -1.464   3.557  -5.914  0.00  0.00     0.076 C 
ATOM      6  C7  UNL d   1       0.775   2.425  -5.979  0.00  0.00     0.002 A 
ATOM      7  C8  UNL d   1       2.171   2.463  -5.995  0.00  0.00     0.006 A 
ENDROOT
BRANCH   1   8
ATOM      8  C1  UNL d   1       4.355   3.725  -5.950  0.00  0.00     0.054 C 
ATOM      9  C   UNL d   1       4.874   5.155  -5.984  0.00  0.00     0.018 C 
ENDBRANCH   1   8
TORSDOF 1
ENDMDL
