MODEL 1
REMARK minimizedAffinity -2.24679351
REMARK minimizedRMSD -1
REMARK  1 active torsions:
REMARK  status: ('A' for Active; 'I' for Inactive)
REMARK    1  A    between atoms: C1_2  and  C2_3 
ROOT
ATOM      1  C2  UNL d   1       0.121   4.524  -6.000  0.00  0.00    -0.081 A 
ATOM      2  C3  UNL d   1      -0.850   5.533  -5.987  0.00  0.00     0.006 A 
ATOM      3  C4  UNL d   1      -2.209   5.209  -5.965  0.00  0.00     0.002 A 
ATOM      4  C5  UNL d   1      -2.619   3.871  -5.946  0.00  0.00    -0.080 A 
ATOM      5  C6  UNL d   1      -4.073   3.509  -5.892  0.00  0.00     0.076 C 
ATOM      6  C7  UNL d   1      -1.649   2.863  -5.977  0.00  0.00     0.002 A 
ATOM      7  C8  UNL d   1      -0.291   3.187  -6.000  0.00  0.00     0.006 A 
ENDROOT
BRANCH   1   8
ATOM      8  C1  UNL d   1       1.587   4.871  -5.959  0.00  0.00     0.054 C 
ATOM      9  C   UNL d   1       2.453   3.620  -5.994  0.00  0.00     0.018 C 
ENDBRANCH   1   8
TORSDOF 1
ENDMDL
