MODEL 1
REMARK minimizedAffinity 4.24820948
REMARK minimizedRMSD -1
REMARK  1 active torsions:
REMARK  status: ('A' for Active; 'I' for Inactive)
REMARK    1  A    between atoms: C1_2  and  C2_3 
ROOT
ATOM      1  C2  UNL d   1       0.264   3.080  -5.925  0.00  0.00    -0.081 A 
ATOM      2  C3  UNL d   1      -1.073   2.669  -5.847  0.00  0.00     0.006 A 
ATOM      3  C4  UNL d   1      -2.103   3.612  -5.838  0.00  0.00     0.002 A 
ATOM      4  C5  UNL d   1      -1.816   4.979  -5.916  0.00  0.00    -0.080 A 
ATOM      5  C6  UNL d   1      -2.914   6.000  -5.939  0.00  0.00     0.076 C 
ATOM      6  C7  UNL d   1      -0.480   5.390  -5.977  0.00  0.00     0.002 A 
ATOM      7  C8  UNL d   1       0.551   4.448  -5.985  0.00  0.00     0.006 A 
ENDROOT
BRANCH   1   8
ATOM      8  C1  UNL d   1       1.375   2.063  -6.000  0.00  0.00     0.054 C 
ATOM      9  C   UNL d   1       2.741   2.734  -5.977  0.00  0.00     0.018 C 
ENDBRANCH   1   8
TORSDOF 1
ENDMDL
