MODEL 1
REMARK minimizedAffinity -0.105151601
REMARK minimizedRMSD -1
REMARK  0 active torsions:
REMARK  status: ('A' for Active; 'I' for Inactive)
ROOT
ATOM      1  C   UNL d   1       1.527  -1.715  -2.943  0.00  0.00     0.078 C 
ATOM      2  C1  UNL d   1       0.445  -1.692  -1.905  0.00  0.00    -0.077 A 
ATOM      3  C2  UNL d   1       0.740  -1.437  -0.560  0.00  0.00    -0.001 A 
ATOM      4  C3  UNL d   1      -0.276  -1.428   0.396  0.00  0.00     0.003 A 
ATOM      5  C4  UNL d   1      -1.595  -1.675   0.019  0.00  0.00    -0.005 A 
ATOM      6  C5  UNL d   1      -1.898  -1.932  -1.317  0.00  0.00     0.003 A 
ATOM      7  C6  UNL d   1      -0.883  -1.941  -2.275  0.00  0.00    -0.001 A 
ENDROOT
TORSDOF 0
ENDMDL
