MODEL 1
REMARK minimizedAffinity -0.75286448
REMARK minimizedRMSD -1
REMARK  0 active torsions:
REMARK  status: ('A' for Active; 'I' for Inactive)
ROOT
ATOM      1  C   UNL d   1       2.274   5.629  -1.888  0.00  0.00     0.078 C 
ATOM      2  C1  UNL d   1       3.577   5.743  -2.621  0.00  0.00    -0.077 A 
ATOM      3  C2  UNL d   1       4.785   5.884  -1.928  0.00  0.00    -0.001 A 
ATOM      4  C3  UNL d   1       5.989   5.999  -2.624  0.00  0.00     0.003 A 
ATOM      5  C4  UNL d   1       5.997   5.974  -4.017  0.00  0.00    -0.005 A 
ATOM      6  C5  UNL d   1       4.800   5.836  -4.716  0.00  0.00     0.003 A 
ATOM      7  C6  UNL d   1       3.595   5.721  -4.022  0.00  0.00    -0.001 A 
ENDROOT
TORSDOF 0
ENDMDL
