MODEL 1
REMARK minimizedAffinity -2.06384945
REMARK minimizedRMSD -1
REMARK  0 active torsions:
REMARK  status: ('A' for Active; 'I' for Inactive)
ROOT
ATOM      1  C   UNL d   1       1.876   4.845  -1.353  0.00  0.00     0.078 C 
ATOM      2  C1  UNL d   1       1.574   3.617  -0.547  0.00  0.00    -0.077 A 
ATOM      3  C2  UNL d   1       2.542   2.622  -0.359  0.00  0.00    -0.001 A 
ATOM      4  C3  UNL d   1       2.243   1.480   0.386  0.00  0.00     0.003 A 
ATOM      5  C4  UNL d   1       0.978   1.321   0.947  0.00  0.00    -0.005 A 
ATOM      6  C5  UNL d   1       0.008   2.304   0.763  0.00  0.00     0.003 A 
ATOM      7  C6  UNL d   1       0.305   3.448   0.019  0.00  0.00    -0.001 A 
ENDROOT
TORSDOF 0
ENDMDL
