MODEL 1
REMARK minimizedAffinity 1.36063528
REMARK minimizedRMSD -1
REMARK  0 active torsions:
REMARK  status: ('A' for Active; 'I' for Inactive)
ROOT
ATOM      1  C   UNL d   1       2.270   1.151   1.168  0.00  0.00     0.078 C 
ATOM      2  C1  UNL d   1       1.760  -0.172   1.655  0.00  0.00    -0.077 A 
ATOM      3  C2  UNL d   1       0.670  -0.797   1.038  0.00  0.00    -0.001 A 
ATOM      4  C3  UNL d   1       0.200  -2.024   1.509  0.00  0.00     0.003 A 
ATOM      5  C4  UNL d   1       0.814  -2.637   2.599  0.00  0.00    -0.005 A 
ATOM      6  C5  UNL d   1       1.899  -2.022   3.221  0.00  0.00     0.003 A 
ATOM      7  C6  UNL d   1       2.370  -0.795   2.752  0.00  0.00    -0.001 A 
ENDROOT
TORSDOF 0
ENDMDL
