MODEL 1
REMARK minimizedAffinity 1.02455485
REMARK minimizedRMSD -1
REMARK  0 active torsions:
REMARK  status: ('A' for Active; 'I' for Inactive)
ROOT
ATOM      1  C   UNL d   1       1.855   0.317   1.126  0.00  0.00     0.078 C 
ATOM      2  C1  UNL d   1       1.594  -0.867   2.008  0.00  0.00    -0.077 A 
ATOM      3  C2  UNL d   1       0.419  -1.618   1.878  0.00  0.00    -0.001 A 
ATOM      4  C3  UNL d   1       0.185  -2.712   2.712  0.00  0.00     0.003 A 
ATOM      5  C4  UNL d   1       1.120  -3.064   3.684  0.00  0.00    -0.005 A 
ATOM      6  C5  UNL d   1       2.291  -2.321   3.822  0.00  0.00     0.003 A 
ATOM      7  C6  UNL d   1       2.526  -1.226   2.989  0.00  0.00    -0.001 A 
ENDROOT
TORSDOF 0
ENDMDL
