MODEL 1
REMARK minimizedAffinity -2.59784079
REMARK minimizedRMSD -1
REMARK  0 active torsions:
REMARK  status: ('A' for Active; 'I' for Inactive)
ROOT
ATOM      1  C4' PXY d   1       2.801  -1.387   1.676  0.00  0.00     0.077 C 
ATOM      2  C1' PXY d   1      -2.287   0.034  -0.671  0.00  0.00     0.077 C 
ATOM      3  C1  PXY d   1      -0.959  -0.345  -0.046  0.00  0.00    -0.082 A 
ATOM      4  C2  PXY d   1       0.109   0.402  -0.275  0.00  0.00     0.003 A 
ATOM      5  C3  PXY d   1       1.325   0.056   0.257  0.00  0.00     0.003 A 
ATOM      6  C4  PXY d   1       1.438  -1.037   1.074  0.00  0.00    -0.082 A 
ATOM      7  C5  PXY d   1       0.351  -1.798   1.321  0.00  0.00     0.003 A 
ATOM      8  C6  PXY d   1      -0.865  -1.453   0.739  0.00  0.00     0.003 A 
ENDROOT
TORSDOF 0
ENDMDL
