MODEL 1
REMARK minimizedAffinity -5.33651686
REMARK minimizedRMSD -1
REMARK  0 active torsions:
REMARK  status: ('A' for Active; 'I' for Inactive)
ROOT
ATOM      1  C4' PXY d   1       3.402  -0.006   0.989  0.00  0.00     0.077 C 
ATOM      2  C1' PXY d   1      -2.137   0.496  -0.589  0.00  0.00     0.077 C 
ATOM      3  C1  PXY d   1      -0.687   0.353  -0.170  0.00  0.00    -0.082 A 
ATOM      4  C2  PXY d   1       0.046   1.436   0.033  0.00  0.00     0.003 A 
ATOM      5  C3  PXY d   1       1.367   1.324   0.381  0.00  0.00     0.003 A 
ATOM      6  C4  PXY d   1       1.931   0.091   0.574  0.00  0.00    -0.082 A 
ATOM      7  C5  PXY d   1       1.187  -1.019   0.379  0.00  0.00     0.003 A 
ATOM      8  C6  PXY d   1      -0.141  -0.884  -0.013  0.00  0.00     0.003 A 
ENDROOT
TORSDOF 0
ENDMDL
