MODEL 1
REMARK minimizedAffinity 2.05228972
REMARK minimizedRMSD -1
REMARK  0 active torsions:
REMARK  status: ('A' for Active; 'I' for Inactive)
ROOT
ATOM      1  C4' PXY d   1       2.326   0.513   2.239  0.00  0.00     0.077 C 
ATOM      2  C1' PXY d   1      -1.963   0.742  -1.630  0.00  0.00     0.077 C 
ATOM      3  C1  PXY d   1      -0.834   0.693  -0.620  0.00  0.00    -0.082 A 
ATOM      4  C2  PXY d   1      -0.423  -0.475  -0.153  0.00  0.00     0.003 A 
ATOM      5  C3  PXY d   1       0.575  -0.535   0.785  0.00  0.00     0.003 A 
ATOM      6  C4  PXY d   1       1.195   0.609   1.211  0.00  0.00    -0.082 A 
ATOM      7  C5  PXY d   1       0.790   1.804   0.731  0.00  0.00     0.003 A 
ATOM      8  C6  PXY d   1      -0.253   1.847  -0.190  0.00  0.00     0.003 A 
ENDROOT
TORSDOF 0
ENDMDL
