MODEL 1
REMARK minimizedAffinity -4.42120123
REMARK minimizedRMSD -1
REMARK  0 active torsions:
REMARK  status: ('A' for Active; 'I' for Inactive)
ROOT
ATOM      1  C4' PXY d   1      -2.052   0.835  -0.251  0.00  0.00     0.077 C 
ATOM      2  C1' PXY d   1       3.409  -0.545   1.047  0.00  0.00     0.077 C 
ATOM      3  C1  PXY d   1       1.980  -0.170   0.708  0.00  0.00    -0.082 A 
ATOM      4  C2  PXY d   1       1.007  -1.040   0.925  0.00  0.00     0.003 A 
ATOM      5  C3  PXY d   1      -0.287  -0.729   0.594  0.00  0.00     0.003 A 
ATOM      6  C4  PXY d   1      -0.595   0.504   0.086  0.00  0.00    -0.082 A 
ATOM      7  C5  PXY d   1       0.391   1.401  -0.129  0.00  0.00     0.003 A 
ATOM      8  C6  PXY d   1       1.703   1.051   0.175  0.00  0.00     0.003 A 
ENDROOT
TORSDOF 0
ENDMDL
