MODEL 1
REMARK minimizedAffinity -2.15421891
REMARK minimizedRMSD -1
REMARK  0 active torsions:
REMARK  status: ('A' for Active; 'I' for Inactive)
ROOT
ATOM      1  C4' PXY d   1       2.864   1.576   1.864  0.00  0.00     0.077 C 
ATOM      2  C1' PXY d   1      -1.550  -1.176  -0.657  0.00  0.00     0.077 C 
ATOM      3  C1  PXY d   1      -0.389  -0.465   0.011  0.00  0.00    -0.082 A 
ATOM      4  C2  PXY d   1      -0.407   0.853   0.123  0.00  0.00     0.003 A 
ATOM      5  C3  PXY d   1       0.649   1.515   0.696  0.00  0.00     0.003 A 
ATOM      6  C4  PXY d   1       1.710   0.816   1.206  0.00  0.00    -0.082 A 
ATOM      7  C5  PXY d   1       1.731  -0.530   1.104  0.00  0.00     0.003 A 
ATOM      8  C6  PXY d   1       0.668  -1.180   0.483  0.00  0.00     0.003 A 
ENDROOT
TORSDOF 0
ENDMDL
