MODEL 1
REMARK minimizedAffinity -2.69980383
REMARK minimizedRMSD -1
REMARK  0 active torsions:
REMARK  status: ('A' for Active; 'I' for Inactive)
ROOT
ATOM      1  C4' PXY d   1       3.198  -0.207   1.455  0.00  0.00     0.077 C 
ATOM      2  C1' PXY d   1      -2.018   0.120  -1.016  0.00  0.00     0.077 C 
ATOM      3  C1  PXY d   1      -0.655   0.027  -0.358  0.00  0.00    -0.082 A 
ATOM      4  C2  PXY d   1       0.249   0.965  -0.591  0.00  0.00     0.003 A 
ATOM      5  C3  PXY d   1       1.497   0.879  -0.029  0.00  0.00     0.003 A 
ATOM      6  C4  PXY d   1       1.806  -0.149   0.820  0.00  0.00    -0.082 A 
ATOM      7  C5  PXY d   1       0.885  -1.104   1.071  0.00  0.00     0.003 A 
ATOM      8  C6  PXY d   1      -0.362  -1.021   0.459  0.00  0.00     0.003 A 
ENDROOT
TORSDOF 0
ENDMDL
