MODEL 1
REMARK minimizedAffinity -2.444592
REMARK minimizedRMSD -1
REMARK  0 active torsions:
REMARK  status: ('A' for Active; 'I' for Inactive)
ROOT
ATOM      1  C4' PXY d   1      -1.747  -0.161  -1.228  0.00  0.00     0.077 C 
ATOM      2  C1' PXY d   1       3.408  -0.228   1.386  0.00  0.00     0.077 C 
ATOM      3  C1  PXY d   1       2.057  -0.223   0.699  0.00  0.00    -0.082 A 
ATOM      4  C2  PXY d   1       1.610   0.891   0.142  0.00  0.00     0.003 A 
ATOM      5  C3  PXY d   1       0.377   0.921  -0.456  0.00  0.00     0.003 A 
ATOM      6  C4  PXY d   1      -0.385  -0.214  -0.532  0.00  0.00    -0.082 A 
ATOM      7  C5  PXY d   1       0.069  -1.358   0.025  0.00  0.00     0.003 A 
ATOM      8  C6  PXY d   1       1.306  -1.357   0.663  0.00  0.00     0.003 A 
ENDROOT
TORSDOF 0
ENDMDL
