MODEL 1
REMARK minimizedAffinity -3.4813683
REMARK minimizedRMSD -1
REMARK  0 active torsions:
REMARK  status: ('A' for Active; 'I' for Inactive)
ROOT
ATOM      1  C4' PXY d   1      -2.752  -0.384  -1.851  0.00  0.00     0.077 C 
ATOM      2  C1' PXY d   1       1.889   0.288   1.530  0.00  0.00     0.077 C 
ATOM      3  C1  PXY d   1       0.672   0.099   0.645  0.00  0.00    -0.082 A 
ATOM      4  C2  PXY d   1       0.388   1.003  -0.277  0.00  0.00     0.003 A 
ATOM      5  C3  PXY d   1      -0.727   0.864  -1.064  0.00  0.00     0.003 A 
ATOM      6  C4  PXY d   1      -1.528  -0.239  -0.942  0.00  0.00    -0.082 A 
ATOM      7  C5  PXY d   1      -1.238  -1.172  -0.010  0.00  0.00     0.003 A 
ATOM      8  C6  PXY d   1      -0.126  -0.991   0.807  0.00  0.00     0.003 A 
ENDROOT
TORSDOF 0
ENDMDL
