MODEL 1
REMARK minimizedAffinity -3.06153965
REMARK minimizedRMSD -1
REMARK  0 active torsions:
REMARK  status: ('A' for Active; 'I' for Inactive)
ROOT
ATOM      1  C4' PXY d   1      -1.921   0.739   0.130  0.00  0.00     0.077 C 
ATOM      2  C1' PXY d   1       3.708  -0.422   0.748  0.00  0.00     0.077 C 
ATOM      3  C1  PXY d   1       2.230  -0.130   0.582  0.00  0.00    -0.082 A 
ATOM      4  C2  PXY d   1       1.825   1.119   0.418  0.00  0.00     0.003 A 
ATOM      5  C3  PXY d   1       0.489   1.405   0.298  0.00  0.00     0.003 A 
ATOM      6  C4  PXY d   1      -0.437   0.396   0.292  0.00  0.00    -0.082 A 
ATOM      7  C5  PXY d   1      -0.031  -0.882   0.448  0.00  0.00     0.003 A 
ATOM      8  C6  PXY d   1       1.326  -1.147   0.609  0.00  0.00     0.003 A 
ENDROOT
TORSDOF 0
ENDMDL
