MODEL 1
REMARK minimizedAffinity -0.937988043
REMARK minimizedRMSD -1
REMARK  0 active torsions:
REMARK  status: ('A' for Active; 'I' for Inactive)
ROOT
ATOM      1  C   UNL d   1       0.409   0.052   1.101  0.00  0.00     0.124 A 
ATOM      2  C1  UNL d   1      -0.045  -1.028   0.356  0.00  0.00     0.062 A 
ATOM      3  C2  UNL d   1       0.312  -1.153  -0.984  0.00  0.00     0.162 A 
ATOM      4  C3  UNL d   1       1.127  -0.196  -1.587  0.00  0.00    -0.034 A 
ATOM      5  C4  UNL d   1       1.579   0.888  -0.832  0.00  0.00     0.162 A 
ATOM      6  C5  UNL d   1       1.220   1.008   0.507  0.00  0.00     0.062 A 
ATOM      7  F   UNL d   1       1.659   2.052   1.225  0.00  0.00    -0.097 F 
ATOM      8  F1  UNL d   1       2.364   1.826  -1.381  0.00  0.00    -0.096 F 
ATOM      9  I   UNL d   1       1.662  -0.380  -3.590  0.00  0.00    -0.060 I 
ATOM     10  F2  UNL d   1      -0.141  -2.207  -1.680  0.00  0.00    -0.096 F 
ATOM     11  F3  UNL d   1      -0.829  -1.953   0.927  0.00  0.00    -0.097 F 
ATOM     12  F4  UNL d   1       0.063   0.170   2.389  0.00  0.00    -0.092 F 
ENDROOT
TORSDOF 0
ENDMDL
