MODEL 1
REMARK minimizedAffinity -1.74224353
REMARK minimizedRMSD -1
REMARK  0 active torsions:
REMARK  status: ('A' for Active; 'I' for Inactive)
ROOT
ATOM      1  C   UNL d   1       1.640  -0.441  -2.331  0.00  0.00     0.124 A 
ATOM      2  C1  UNL d   1       1.114  -1.562  -1.704  0.00  0.00     0.062 A 
ATOM      3  C2  UNL d   1       0.315  -1.421  -0.573  0.00  0.00     0.162 A 
ATOM      4  C3  UNL d   1       0.036  -0.154  -0.061  0.00  0.00    -0.034 A 
ATOM      5  C4  UNL d   1       0.569   0.969  -0.697  0.00  0.00     0.162 A 
ATOM      6  C5  UNL d   1       1.367   0.823  -1.827  0.00  0.00     0.062 A 
ATOM      7  F   UNL d   1       1.874   1.908  -2.431  0.00  0.00    -0.097 F 
ATOM      8  F1  UNL d   1       0.321   2.203  -0.232  0.00  0.00    -0.096 F 
ATOM      9  I   UNL d   1      -1.158   0.061   1.630  0.00  0.00    -0.060 I 
ATOM     10  F2  UNL d   1      -0.180  -2.522   0.013  0.00  0.00    -0.096 F 
ATOM     11  F3  UNL d   1       1.377  -2.784  -2.188  0.00  0.00    -0.097 F 
ATOM     12  F4  UNL d   1       2.409  -0.579  -3.418  0.00  0.00    -0.092 F 
ENDROOT
TORSDOF 0
ENDMDL
