MODEL 1
REMARK minimizedAffinity -3.40865517
REMARK minimizedRMSD -1
REMARK  0 active torsions:
REMARK  status: ('A' for Active; 'I' for Inactive)
ROOT
ATOM      1  C   UNL d   1       2.023  -0.652  -1.659  0.00  0.00     0.124 A 
ATOM      2  C1  UNL d   1       1.547  -1.647  -0.816  0.00  0.00     0.062 A 
ATOM      3  C2  UNL d   1       0.509  -1.376   0.070  0.00  0.00     0.162 A 
ATOM      4  C3  UNL d   1      -0.062  -0.104   0.118  0.00  0.00    -0.034 A 
ATOM      5  C4  UNL d   1       0.422   0.892  -0.732  0.00  0.00     0.162 A 
ATOM      6  C5  UNL d   1       1.460   0.616  -1.616  0.00  0.00     0.062 A 
ATOM      7  F   UNL d   1       1.919   1.579  -2.430  0.00  0.00    -0.097 F 
ATOM      8  F1  UNL d   1      -0.104   2.125  -0.713  0.00  0.00    -0.096 F 
ATOM      9  I   UNL d   1      -1.615   0.305   1.441  0.00  0.00    -0.060 I 
ATOM     10  F2  UNL d   1       0.069  -2.356   0.873  0.00  0.00    -0.096 F 
ATOM     11  F3  UNL d   1       2.090  -2.872  -0.855  0.00  0.00    -0.097 F 
ATOM     12  F4  UNL d   1       3.023  -0.915  -2.510  0.00  0.00    -0.092 F 
ENDROOT
TORSDOF 0
ENDMDL
