MODEL 1
REMARK minimizedAffinity -1.07538176
REMARK minimizedRMSD -1
REMARK  0 active torsions:
REMARK  status: ('A' for Active; 'I' for Inactive)
ROOT
ATOM      1  C   UNL d   1      -1.051  -0.257   1.780  0.00  0.00     0.124 A 
ATOM      2  C1  UNL d   1      -0.202  -1.243   1.297  0.00  0.00     0.062 A 
ATOM      3  C2  UNL d   1       0.514  -1.035   0.121  0.00  0.00     0.162 A 
ATOM      4  C3  UNL d   1       0.384   0.164  -0.579  0.00  0.00    -0.034 A 
ATOM      5  C4  UNL d   1      -0.472   1.151  -0.087  0.00  0.00     0.162 A 
ATOM      6  C5  UNL d   1      -1.186   0.938   1.088  0.00  0.00     0.062 A 
ATOM      7  F   UNL d   1      -2.006   1.892   1.554  0.00  0.00    -0.097 F 
ATOM      8  F1  UNL d   1      -0.620   2.316  -0.735  0.00  0.00    -0.096 F 
ATOM      9  I   UNL d   1       1.453   0.479  -2.337  0.00  0.00    -0.060 I 
ATOM     10  F2  UNL d   1       1.327  -2.005  -0.323  0.00  0.00    -0.096 F 
ATOM     11  F3  UNL d   1      -0.071  -2.399   1.963  0.00  0.00    -0.097 F 
ATOM     12  F4  UNL d   1      -1.739  -0.460   2.911  0.00  0.00    -0.092 F 
ENDROOT
TORSDOF 0
ENDMDL
