MODEL 1
REMARK minimizedAffinity -3.25955701
REMARK minimizedRMSD -1
REMARK  0 active torsions:
REMARK  status: ('A' for Active; 'I' for Inactive)
ROOT
ATOM      1  C   UNL d   1       1.359  -0.964  -1.613  0.00  0.00     0.124 A 
ATOM      2  C1  UNL d   1       0.655  -1.839  -0.797  0.00  0.00     0.062 A 
ATOM      3  C2  UNL d   1      -0.077  -1.353   0.283  0.00  0.00     0.162 A 
ATOM      4  C3  UNL d   1      -0.109   0.015   0.553  0.00  0.00    -0.034 A 
ATOM      5  C4  UNL d   1       0.603   0.888  -0.271  0.00  0.00     0.162 A 
ATOM      6  C5  UNL d   1       1.332   0.398  -1.349  0.00  0.00     0.062 A 
ATOM      7  F   UNL d   1       2.012   1.245  -2.136  0.00  0.00    -0.097 F 
ATOM      8  F1  UNL d   1       0.593   2.210  -0.040  0.00  0.00    -0.096 F 
ATOM      9  I   UNL d   1      -1.202   0.745   2.167  0.00  0.00    -0.060 I 
ATOM     10  F2  UNL d   1      -0.748  -2.221   1.055  0.00  0.00    -0.096 F 
ATOM     11  F3  UNL d   1       0.680  -3.155  -1.049  0.00  0.00    -0.097 F 
ATOM     12  F4  UNL d   1       2.063  -1.434  -2.651  0.00  0.00    -0.092 F 
ENDROOT
TORSDOF 0
ENDMDL
