MODEL 1
REMARK minimizedAffinity -2.19063783
REMARK minimizedRMSD -1
REMARK  0 active torsions:
REMARK  status: ('A' for Active; 'I' for Inactive)
ROOT
ATOM      1  C   UNL d   1       0.477  -1.358  -1.049  0.00  0.00     0.124 A 
ATOM      2  C1  UNL d   1       1.558  -0.613  -1.501  0.00  0.00     0.062 A 
ATOM      3  C2  UNL d   1       1.861   0.610  -0.909  0.00  0.00     0.162 A 
ATOM      4  C3  UNL d   1       1.084   1.095   0.142  0.00  0.00    -0.034 A 
ATOM      5  C4  UNL d   1      -0.001   0.341   0.591  0.00  0.00     0.162 A 
ATOM      6  C5  UNL d   1      -0.301  -0.881  -0.004  0.00  0.00     0.062 A 
ATOM      7  F   UNL d   1      -1.345  -1.599   0.434  0.00  0.00    -0.097 F 
ATOM      8  F1  UNL d   1      -0.770   0.778   1.600  0.00  0.00    -0.096 F 
ATOM      9  I   UNL d   1       1.535   2.923   1.030  0.00  0.00    -0.060 I 
ATOM     10  F2  UNL d   1       2.911   1.309  -1.367  0.00  0.00    -0.096 F 
ATOM     11  F3  UNL d   1       2.310  -1.071  -2.511  0.00  0.00    -0.097 F 
ATOM     12  F4  UNL d   1       0.187  -2.533  -1.621  0.00  0.00    -0.092 F 
ENDROOT
TORSDOF 0
ENDMDL
