MODEL 1
REMARK minimizedAffinity 0.991493106
REMARK minimizedRMSD -1
REMARK  0 active torsions:
REMARK  status: ('A' for Active; 'I' for Inactive)
ROOT
ATOM      1  C   UNL d   1       0.368  -1.099   0.076  0.00  0.00     0.124 A 
ATOM      2  C1  UNL d   1      -0.062  -0.202  -0.892  0.00  0.00     0.062 A 
ATOM      3  C2  UNL d   1      -1.143   0.636  -0.638  0.00  0.00     0.162 A 
ATOM      4  C3  UNL d   1      -1.802   0.583   0.590  0.00  0.00    -0.034 A 
ATOM      5  C4  UNL d   1      -1.364  -0.323   1.558  0.00  0.00     0.162 A 
ATOM      6  C5  UNL d   1      -0.283  -1.159   1.299  0.00  0.00     0.062 A 
ATOM      7  F   UNL d   1       0.131  -2.025   2.235  0.00  0.00    -0.097 F 
ATOM      8  F1  UNL d   1      -1.975  -0.401   2.750  0.00  0.00    -0.096 F 
ATOM      9  I   UNL d   1      -3.419   1.835   0.974  0.00  0.00    -0.060 I 
ATOM     10  F2  UNL d   1      -1.537   1.494  -1.592  0.00  0.00    -0.096 F 
ATOM     11  F3  UNL d   1       0.566  -0.143  -2.076  0.00  0.00    -0.097 F 
ATOM     12  F4  UNL d   1       1.409  -1.906  -0.172  0.00  0.00    -0.092 F 
ENDROOT
TORSDOF 0
ENDMDL
