MODEL 1
REMARK minimizedAffinity -4.83764982
REMARK minimizedRMSD -1
REMARK  0 active torsions:
REMARK  status: ('A' for Active; 'I' for Inactive)
ROOT
ATOM      1  C   UNL d   1       1.678  -1.215  -2.056  0.00  0.00     0.124 A 
ATOM      2  C1  UNL d   1       1.488   0.141  -1.827  0.00  0.00     0.062 A 
ATOM      3  C2  UNL d   1       0.693   0.567  -0.766  0.00  0.00     0.162 A 
ATOM      4  C3  UNL d   1       0.083  -0.364   0.074  0.00  0.00    -0.034 A 
ATOM      5  C4  UNL d   1       0.277  -1.726  -0.163  0.00  0.00     0.162 A 
ATOM      6  C5  UNL d   1       1.073  -2.147  -1.224  0.00  0.00     0.062 A 
ATOM      7  F   UNL d   1       1.255  -3.457  -1.444  0.00  0.00    -0.097 F 
ATOM      8  F1  UNL d   1      -0.295  -2.648   0.625  0.00  0.00    -0.096 F 
ATOM      9  I   UNL d   1      -1.106   0.269   1.661  0.00  0.00    -0.060 I 
ATOM     10  F2  UNL d   1       0.527   1.883  -0.569  0.00  0.00    -0.096 F 
ATOM     11  F3  UNL d   1       2.070   1.043  -2.629  0.00  0.00    -0.097 F 
ATOM     12  F4  UNL d   1       2.442  -1.622  -3.077  0.00  0.00    -0.092 F 
ENDROOT
TORSDOF 0
ENDMDL
