MODEL 1
REMARK minimizedAffinity -2.24868584
REMARK minimizedRMSD -1
REMARK  0 active torsions:
REMARK  status: ('A' for Active; 'I' for Inactive)
ROOT
ATOM      1  C   UNL d   1       1.137  -0.063  -1.430  0.00  0.00     0.124 A 
ATOM      2  C1  UNL d   1       0.154  -0.927  -0.968  0.00  0.00     0.062 A 
ATOM      3  C2  UNL d   1      -0.762  -0.499  -0.012  0.00  0.00     0.162 A 
ATOM      4  C3  UNL d   1      -0.701   0.801   0.489  0.00  0.00    -0.034 A 
ATOM      5  C4  UNL d   1       0.291   1.665   0.020  0.00  0.00     0.162 A 
ATOM      6  C5  UNL d   1       1.205   1.232  -0.935  0.00  0.00     0.062 A 
ATOM      7  F   UNL d   1       2.153   2.069  -1.380  0.00  0.00    -0.097 F 
ATOM      8  F1  UNL d   1       0.379   2.922   0.480  0.00  0.00    -0.096 F 
ATOM      9  I   UNL d   1      -2.068   1.446   1.919  0.00  0.00    -0.060 I 
ATOM     10  F2  UNL d   1      -1.701  -1.356   0.416  0.00  0.00    -0.096 F 
ATOM     11  F3  UNL d   1       0.087  -2.179  -1.444  0.00  0.00    -0.097 F 
ATOM     12  F4  UNL d   1       2.017  -0.478  -2.349  0.00  0.00    -0.092 F 
ENDROOT
TORSDOF 0
ENDMDL
