MODEL 1
REMARK minimizedAffinity -4.39289665
REMARK minimizedRMSD -1
REMARK  0 active torsions:
REMARK  status: ('A' for Active; 'I' for Inactive)
ROOT
ATOM      1  C   UNL d   1       1.835  -1.290  -1.938  0.00  0.00     0.124 A 
ATOM      2  C1  UNL d   1       1.310  -2.219  -1.051  0.00  0.00     0.062 A 
ATOM      3  C2  UNL d   1       0.397  -1.820  -0.079  0.00  0.00     0.162 A 
ATOM      4  C3  UNL d   1       0.002  -0.485   0.010  0.00  0.00    -0.034 A 
ATOM      5  C4  UNL d   1       0.535   0.444  -0.886  0.00  0.00     0.162 A 
ATOM      6  C5  UNL d   1       1.448   0.040  -1.855  0.00  0.00     0.062 A 
ATOM      7  F   UNL d   1       1.954   0.939  -2.712  0.00  0.00    -0.097 F 
ATOM      8  F1  UNL d   1       0.178   1.735  -0.828  0.00  0.00    -0.096 F 
ATOM      9  I   UNL d   1      -1.363   0.116   1.462  0.00  0.00    -0.060 I 
ATOM     10  F2  UNL d   1      -0.095  -2.739   0.766  0.00  0.00    -0.096 F 
ATOM     11  F3  UNL d   1       1.683  -3.504  -1.128  0.00  0.00    -0.097 F 
ATOM     12  F4  UNL d   1       2.714  -1.677  -2.872  0.00  0.00    -0.092 F 
ENDROOT
TORSDOF 0
ENDMDL
