MODEL 1
REMARK minimizedAffinity 1.4068706
REMARK minimizedRMSD -1
REMARK  0 active torsions:
REMARK  status: ('A' for Active; 'I' for Inactive)
ROOT
ATOM      1  C   UNL d   1       1.766  -1.113  -1.028  0.00  0.00     0.124 A 
ATOM      2  C1  UNL d   1       1.850   0.266  -1.160  0.00  0.00     0.062 A 
ATOM      3  C2  UNL d   1       1.071   1.095  -0.358  0.00  0.00     0.162 A 
ATOM      4  C3  UNL d   1       0.202   0.547   0.585  0.00  0.00    -0.034 A 
ATOM      5  C4  UNL d   1       0.122  -0.841   0.712  0.00  0.00     0.162 A 
ATOM      6  C5  UNL d   1       0.902  -1.665  -0.092  0.00  0.00     0.062 A 
ATOM      7  F   UNL d   1       0.820  -2.998   0.037  0.00  0.00    -0.097 F 
ATOM      8  F1  UNL d   1      -0.703  -1.401   1.609  0.00  0.00    -0.096 F 
ATOM      9  I   UNL d   1      -0.964   1.783   1.787  0.00  0.00    -0.060 I 
ATOM     10  F2  UNL d   1       1.173   2.424  -0.507  0.00  0.00    -0.096 F 
ATOM     11  F3  UNL d   1       2.683   0.802  -2.064  0.00  0.00    -0.097 F 
ATOM     12  F4  UNL d   1       2.516  -1.908  -1.802  0.00  0.00    -0.092 F 
ENDROOT
TORSDOF 0
ENDMDL
