MODEL 1
REMARK minimizedAffinity -3.39430165
REMARK minimizedRMSD -1
REMARK  0 active torsions:
REMARK  status: ('A' for Active; 'I' for Inactive)
ROOT
ATOM      1  C   UNL d   1       1.816  -1.054  -1.568  0.00  0.00     0.124 A 
ATOM      2  C1  UNL d   1       1.134  -1.953  -0.760  0.00  0.00     0.062 A 
ATOM      3  C2  UNL d   1       0.276  -1.490   0.233  0.00  0.00     0.162 A 
ATOM      4  C3  UNL d   1       0.093  -0.120   0.423  0.00  0.00    -0.034 A 
ATOM      5  C4  UNL d   1       0.783   0.778  -0.394  0.00  0.00     0.162 A 
ATOM      6  C5  UNL d   1       1.640   0.310  -1.385  0.00  0.00     0.062 A 
ATOM      7  F   UNL d   1       2.298   1.180  -2.165  0.00  0.00    -0.097 F 
ATOM      8  F1  UNL d   1       0.631   2.102  -0.239  0.00  0.00    -0.096 F 
ATOM      9  I   UNL d   1      -1.189   0.577   1.906  0.00  0.00    -0.060 I 
ATOM     10  F2  UNL d   1      -0.370  -2.381   0.999  0.00  0.00    -0.096 F 
ATOM     11  F3  UNL d   1       1.303  -3.272  -0.935  0.00  0.00    -0.097 F 
ATOM     12  F4  UNL d   1       2.642  -1.503  -2.522  0.00  0.00    -0.092 F 
ENDROOT
TORSDOF 0
ENDMDL
