MODEL 1
REMARK minimizedAffinity -1.10637641
REMARK minimizedRMSD -1
REMARK  0 active torsions:
REMARK  status: ('A' for Active; 'I' for Inactive)
ROOT
ATOM      1  C   UNL d   1       2.141  -1.158  -1.614  0.00  0.00     0.124 A 
ATOM      2  C1  UNL d   1       1.460  -2.089  -0.843  0.00  0.00     0.062 A 
ATOM      3  C2  UNL d   1       0.452  -1.677   0.024  0.00  0.00     0.162 A 
ATOM      4  C3  UNL d   1       0.117  -0.326   0.123  0.00  0.00    -0.034 A 
ATOM      5  C4  UNL d   1       0.808   0.604  -0.655  0.00  0.00     0.162 A 
ATOM      6  C5  UNL d   1       1.814   0.188  -1.520  0.00  0.00     0.062 A 
ATOM      7  F   UNL d   1       2.471   1.089  -2.264  0.00  0.00    -0.097 F 
ATOM      8  F1  UNL d   1       0.512   1.911  -0.584  0.00  0.00    -0.096 F 
ATOM      9  I   UNL d   1      -1.389   0.294   1.418  0.00  0.00    -0.060 I 
ATOM     10  F2  UNL d   1      -0.190  -2.599   0.757  0.00  0.00    -0.096 F 
ATOM     11  F3  UNL d   1       1.774  -3.390  -0.932  0.00  0.00    -0.097 F 
ATOM     12  F4  UNL d   1       3.111  -1.557  -2.447  0.00  0.00    -0.092 F 
ENDROOT
TORSDOF 0
ENDMDL
