MODEL 1
REMARK minimizedAffinity -5.07848215
REMARK minimizedRMSD -1
REMARK  0 active torsions:
REMARK  status: ('A' for Active; 'I' for Inactive)
ROOT
ATOM      1  C   UNL d   1       1.486  -1.518  -2.267  0.00  0.00     0.124 A 
ATOM      2  C1  UNL d   1       1.036  -0.207  -2.337  0.00  0.00     0.062 A 
ATOM      3  C2  UNL d   1       0.228   0.311  -1.329  0.00  0.00     0.162 A 
ATOM      4  C3  UNL d   1      -0.135  -0.483  -0.241  0.00  0.00    -0.034 A 
ATOM      5  C4  UNL d   1       0.320  -1.801  -0.177  0.00  0.00     0.162 A 
ATOM      6  C5  UNL d   1       1.128  -2.314  -1.187  0.00  0.00     0.062 A 
ATOM      7  F   UNL d   1       1.562  -3.581  -1.118  0.00  0.00    -0.097 F 
ATOM      8  F1  UNL d   1      -0.010  -2.592   0.855  0.00  0.00    -0.096 F 
ATOM      9  I   UNL d   1      -1.344   0.287   1.269  0.00  0.00    -0.060 I 
ATOM     10  F2  UNL d   1      -0.192   1.581  -1.423  0.00  0.00    -0.096 F 
ATOM     11  F3  UNL d   1       1.380   0.564  -3.379  0.00  0.00    -0.097 F 
ATOM     12  F4  UNL d   1       2.263  -2.014  -3.238  0.00  0.00    -0.092 F 
ENDROOT
TORSDOF 0
ENDMDL
