MODEL 1
REMARK minimizedAffinity 1.51213491
REMARK minimizedRMSD -1
REMARK  0 active torsions:
REMARK  status: ('A' for Active; 'I' for Inactive)
ROOT
ATOM      1  O1  BZF d   1      -5.492   1.868   5.701  0.00  0.00    -0.204 OA
ATOM      2  C2  BZF d   1      -5.624   3.210   6.000  0.00  0.00     0.174 A 
ATOM      3  C3  BZF d   1      -5.781   3.937   4.875  0.00  0.00    -0.012 A 
ATOM      4  C3A BZF d   1      -5.838   2.980   3.813  0.00  0.00    -0.107 A 
ATOM      5  C4  BZF d   1      -5.999   3.087   2.461  0.00  0.00     0.055 A 
ATOM      6  C5  BZF d   1      -5.936   1.964   1.698  0.00  0.00    -0.016 A 
ATOM      7  C6  BZF d   1      -5.708   0.722   2.252  0.00  0.00     0.022 A 
ATOM      8  C7  BZF d   1      -5.547   0.565   3.589  0.00  0.00     0.029 A 
ATOM      9  C7A BZF d   1      -5.643   1.694   4.366  0.00  0.00     0.058 A 
ENDROOT
TORSDOF 0
ENDMDL
