MODEL 1
REMARK minimizedAffinity 6.48254728
REMARK minimizedRMSD -1
REMARK  0 active torsions:
REMARK  status: ('A' for Active; 'I' for Inactive)
ROOT
ATOM      1  O1  BZF d   1       3.426   1.595   1.085  0.00  0.00    -0.204 OA
ATOM      2  C2  BZF d   1       2.865   1.987  -0.115  0.00  0.00     0.174 A 
ATOM      3  C3  BZF d   1       1.914   1.115  -0.506  0.00  0.00    -0.012 A 
ATOM      4  C3A BZF d   1       1.814   0.164   0.559  0.00  0.00    -0.107 A 
ATOM      5  C4  BZF d   1       1.033  -0.937   0.765  0.00  0.00     0.055 A 
ATOM      6  C5  BZF d   1       1.235  -1.691   1.877  0.00  0.00    -0.016 A 
ATOM      7  C6  BZF d   1       2.211  -1.378   2.799  0.00  0.00     0.022 A 
ATOM      8  C7  BZF d   1       3.008  -0.293   2.641  0.00  0.00     0.029 A 
ATOM      9  C7A BZF d   1       2.784   0.491   1.535  0.00  0.00     0.058 A 
ENDROOT
TORSDOF 0
ENDMDL
