MODEL 1
REMARK minimizedAffinity 7.10233402
REMARK minimizedRMSD -1
REMARK  0 active torsions:
REMARK  status: ('A' for Active; 'I' for Inactive)
ROOT
ATOM      1  O1  BZF d   1      -5.955   4.686   4.724  0.00  0.00    -0.204 OA
ATOM      2  C2  BZF d   1      -5.943   4.131   5.989  0.00  0.00     0.174 A 
ATOM      3  C3  BZF d   1      -5.995   2.785   5.922  0.00  0.00    -0.012 A 
ATOM      4  C3A BZF d   1      -5.949   2.476   4.526  0.00  0.00    -0.107 A 
ATOM      5  C4  BZF d   1      -5.952   1.305   3.823  0.00  0.00     0.055 A 
ATOM      6  C5  BZF d   1      -5.973   1.350   2.465  0.00  0.00    -0.016 A 
ATOM      7  C6  BZF d   1      -5.997   2.547   1.778  0.00  0.00     0.022 A 
ATOM      8  C7  BZF d   1      -5.989   3.734   2.432  0.00  0.00     0.029 A 
ATOM      9  C7A BZF d   1      -5.935   3.692   3.804  0.00  0.00     0.058 A 
ENDROOT
TORSDOF 0
ENDMDL
