MODEL 1
REMARK minimizedAffinity 3.78235841
REMARK minimizedRMSD -1
REMARK  0 active torsions:
REMARK  status: ('A' for Active; 'I' for Inactive)
ROOT
ATOM      1  O1  BZF d   1      -3.074   1.754   2.143  0.00  0.00    -0.204 OA
ATOM      2  C2  BZF d   1      -3.690   1.223   1.027  0.00  0.00     0.174 A 
ATOM      3  C3  BZF d   1      -2.828   0.465   0.319  0.00  0.00    -0.012 A 
ATOM      4  C3A BZF d   1      -1.621   0.452   1.088  0.00  0.00    -0.107 A 
ATOM      5  C4  BZF d   1      -0.404  -0.144   0.915  0.00  0.00     0.055 A 
ATOM      6  C5  BZF d   1       0.586   0.103   1.813  0.00  0.00    -0.016 A 
ATOM      7  C6  BZF d   1       0.395   0.942   2.891  0.00  0.00     0.022 A 
ATOM      8  C7  BZF d   1      -0.796   1.552   3.107  0.00  0.00     0.029 A 
ATOM      9  C7A BZF d   1      -1.808   1.279   2.219  0.00  0.00     0.058 A 
ENDROOT
TORSDOF 0
ENDMDL
