MODEL 1
REMARK minimizedAffinity 11.7931776
REMARK minimizedRMSD -1
REMARK  0 active torsions:
REMARK  status: ('A' for Active; 'I' for Inactive)
ROOT
ATOM      1  O1  BZF d   1      -1.678   2.591   2.858  0.00  0.00    -0.204 OA
ATOM      2  C2  BZF d   1      -2.964   2.148   2.616  0.00  0.00     0.174 A 
ATOM      3  C3  BZF d   1      -2.950   1.002   1.905  0.00  0.00    -0.012 A 
ATOM      4  C3A BZF d   1      -1.567   0.661   1.768  0.00  0.00    -0.107 A 
ATOM      5  C4  BZF d   1      -0.910  -0.379   1.176  0.00  0.00     0.055 A 
ATOM      6  C5  BZF d   1       0.449  -0.378   1.157  0.00  0.00    -0.016 A 
ATOM      7  C6  BZF d   1       1.182   0.649   1.716  0.00  0.00     0.022 A 
ATOM      8  C7  BZF d   1       0.575   1.699   2.319  0.00  0.00     0.029 A 
ATOM      9  C7A BZF d   1      -0.798   1.685   2.369  0.00  0.00     0.058 A 
ENDROOT
TORSDOF 0
ENDMDL
