MODEL 1
REMARK minimizedAffinity 3.04909539
REMARK minimizedRMSD -1
REMARK  0 active torsions:
REMARK  status: ('A' for Active; 'I' for Inactive)
ROOT
ATOM      1  O1  BZF d   1      -3.064   0.368   2.688  0.00  0.00    -0.204 OA
ATOM      2  C2  BZF d   1      -3.371   1.501   1.959  0.00  0.00     0.174 A 
ATOM      3  C3  BZF d   1      -4.271   2.262   2.614  0.00  0.00    -0.012 A 
ATOM      4  C3A BZF d   1      -4.473   1.608   3.871  0.00  0.00    -0.107 A 
ATOM      5  C4  BZF d   1      -5.243   1.891   4.963  0.00  0.00     0.055 A 
ATOM      6  C5  BZF d   1      -5.270   1.010   5.997  0.00  0.00    -0.016 A 
ATOM      7  C6  BZF d   1      -4.546  -0.164   5.970  0.00  0.00     0.022 A 
ATOM      8  C7  BZF d   1      -3.764  -0.486   4.911  0.00  0.00     0.029 A 
ATOM      9  C7A BZF d   1      -3.709   0.418   3.878  0.00  0.00     0.058 A 
ENDROOT
TORSDOF 0
ENDMDL
