MODEL 1
REMARK minimizedAffinity 17.9521446
REMARK minimizedRMSD -1
REMARK  0 active torsions:
REMARK  status: ('A' for Active; 'I' for Inactive)
ROOT
ATOM      1  O1  BZF d   1       0.769  -0.701   2.859  0.00  0.00    -0.204 OA
ATOM      2  C2  BZF d   1      -0.298   0.157   2.673  0.00  0.00     0.174 A 
ATOM      3  C3  BZF d   1       0.023   1.140   1.807  0.00  0.00    -0.012 A 
ATOM      4  C3A BZF d   1       1.345   0.828   1.358  0.00  0.00    -0.107 A 
ATOM      5  C4  BZF d   1       2.202   1.423   0.477  0.00  0.00     0.055 A 
ATOM      6  C5  BZF d   1       3.449   0.907   0.317  0.00  0.00    -0.016 A 
ATOM      7  C6  BZF d   1       3.873  -0.199   1.024  0.00  0.00     0.022 A 
ATOM      8  C7  BZF d   1       3.057  -0.827   1.905  0.00  0.00     0.029 A 
ATOM      9  C7A BZF d   1       1.785  -0.327   2.045  0.00  0.00     0.058 A 
ENDROOT
TORSDOF 0
ENDMDL
