MODEL 1
REMARK minimizedAffinity 7.55425692
REMARK minimizedRMSD -1
REMARK  0 active torsions:
REMARK  status: ('A' for Active; 'I' for Inactive)
ROOT
ATOM      1  O1  BZF d   1      -2.344   2.133   2.203  0.00  0.00    -0.204 OA
ATOM      2  C2  BZF d   1      -3.481   1.558   1.669  0.00  0.00     0.174 A 
ATOM      3  C3  BZF d   1      -3.184   0.401   1.044  0.00  0.00    -0.012 A 
ATOM      4  C3A BZF d   1      -1.787   0.196   1.276  0.00  0.00    -0.107 A 
ATOM      5  C4  BZF d   1      -0.911  -0.789   0.920  0.00  0.00     0.055 A 
ATOM      6  C5  BZF d   1       0.403  -0.653   1.241  0.00  0.00    -0.016 A 
ATOM      7  C6  BZF d   1       0.874   0.456   1.912  0.00  0.00     0.022 A 
ATOM      8  C7  BZF d   1       0.043   1.457   2.291  0.00  0.00     0.029 A 
ATOM      9  C7A BZF d   1      -1.291   1.307   1.996  0.00  0.00     0.058 A 
ENDROOT
TORSDOF 0
ENDMDL
