MODEL 1
REMARK minimizedAffinity 5.47548151
REMARK minimizedRMSD -1
REMARK  0 active torsions:
REMARK  status: ('A' for Active; 'I' for Inactive)
ROOT
ATOM      1  O1  BZF d   1      -1.123  -0.749   0.400  0.00  0.00    -0.204 OA
ATOM      2  C2  BZF d   1      -2.059  -1.438  -0.347  0.00  0.00     0.174 A 
ATOM      3  C3  BZF d   1      -3.297  -0.949  -0.132  0.00  0.00    -0.012 A 
ATOM      4  C3A BZF d   1      -3.113   0.172   0.738  0.00  0.00    -0.107 A 
ATOM      5  C4  BZF d   1      -3.970   1.077   1.297  0.00  0.00     0.055 A 
ATOM      6  C5  BZF d   1      -3.479   2.005   2.160  0.00  0.00    -0.016 A 
ATOM      7  C6  BZF d   1      -2.141   2.053   2.490  0.00  0.00     0.022 A 
ATOM      8  C7  BZF d   1      -1.252   1.179   1.957  0.00  0.00     0.029 A 
ATOM      9  C7A BZF d   1      -1.739   0.261   1.060  0.00  0.00     0.058 A 
ENDROOT
TORSDOF 0
ENDMDL
