MODEL 1
REMARK minimizedAffinity 11.893754
REMARK minimizedRMSD -1
REMARK  0 active torsions:
REMARK  status: ('A' for Active; 'I' for Inactive)
ROOT
ATOM      1  O1  BZF d   1      -2.752   1.772   2.584  0.00  0.00    -0.204 OA
ATOM      2  C2  BZF d   1      -4.124   1.935   2.599  0.00  0.00     0.174 A 
ATOM      3  C3  BZF d   1      -4.705   1.186   1.639  0.00  0.00    -0.012 A 
ATOM      4  C3A BZF d   1      -3.637   0.443   1.043  0.00  0.00    -0.107 A 
ATOM      5  C4  BZF d   1      -3.582  -0.485   0.043  0.00  0.00     0.055 A 
ATOM      6  C5  BZF d   1      -2.372  -0.965  -0.347  0.00  0.00    -0.016 A 
ATOM      7  C6  BZF d   1      -1.198  -0.535   0.235  0.00  0.00     0.022 A 
ATOM      8  C7  BZF d   1      -1.202   0.381   1.234  0.00  0.00     0.029 A 
ATOM      9  C7A BZF d   1      -2.425   0.843   1.654  0.00  0.00     0.058 A 
ENDROOT
TORSDOF 0
ENDMDL
