MODEL 1
REMARK minimizedAffinity 6.75039387
REMARK minimizedRMSD -1
REMARK  0 active torsions:
REMARK  status: ('A' for Active; 'I' for Inactive)
ROOT
ATOM      1  O1  BZF d   1      -2.562   1.981   2.618  0.00  0.00    -0.204 OA
ATOM      2  C2  BZF d   1      -3.545   1.569   1.739  0.00  0.00     0.174 A 
ATOM      3  C3  BZF d   1      -3.012   0.860   0.723  0.00  0.00    -0.012 A 
ATOM      4  C3A BZF d   1      -1.620   0.748   1.031  0.00  0.00    -0.107 A 
ATOM      5  C4  BZF d   1      -0.566   0.143   0.409  0.00  0.00     0.055 A 
ATOM      6  C5  BZF d   1       0.680   0.283   0.933  0.00  0.00    -0.016 A 
ATOM      7  C6  BZF d   1       0.908   1.023   2.074  0.00  0.00     0.022 A 
ATOM      8  C7  BZF d   1      -0.106   1.638   2.730  0.00  0.00     0.029 A 
ATOM      9  C7A BZF d   1      -1.371   1.471   2.221  0.00  0.00     0.058 A 
ENDROOT
TORSDOF 0
ENDMDL
