MODEL 1
REMARK minimizedAffinity 3.94279981
REMARK minimizedRMSD -1
REMARK  0 active torsions:
REMARK  status: ('A' for Active; 'I' for Inactive)
ROOT
ATOM      1  O1  BZF d   1       0.985   1.537   2.561  0.00  0.00    -0.204 OA
ATOM      2  C2  BZF d   1       0.555   2.391   3.559  0.00  0.00     0.174 A 
ATOM      3  C3  BZF d   1      -0.789   2.510   3.539  0.00  0.00    -0.012 A 
ATOM      4  C3A BZF d   1      -1.232   1.607   2.522  0.00  0.00    -0.107 A 
ATOM      5  C4  BZF d   1      -2.464   1.265   2.042  0.00  0.00     0.055 A 
ATOM      6  C5  BZF d   1      -2.549   0.405   0.993  0.00  0.00    -0.016 A 
ATOM      7  C6  BZF d   1      -1.424  -0.127   0.398  0.00  0.00     0.022 A 
ATOM      8  C7  BZF d   1      -0.181   0.179   0.842  0.00  0.00     0.029 A 
ATOM      9  C7A BZF d   1      -0.093   1.022   1.923  0.00  0.00     0.058 A 
ENDROOT
TORSDOF 0
ENDMDL
