MODEL 1
REMARK minimizedAffinity 4.22858763
REMARK minimizedRMSD -1
REMARK  0 active torsions:
REMARK  status: ('A' for Active; 'I' for Inactive)
ROOT
ATOM      1  O1  BZF d   1      -2.611   1.357   1.353  0.00  0.00    -0.204 OA
ATOM      2  C2  BZF d   1      -2.226   0.333   0.509  0.00  0.00     0.174 A 
ATOM      3  C3  BZF d   1      -0.918   0.047   0.670  0.00  0.00    -0.012 A 
ATOM      4  C3A BZF d   1      -0.478   0.885   1.743  0.00  0.00    -0.107 A 
ATOM      5  C4  BZF d   1       0.721   1.048   2.376  0.00  0.00     0.055 A 
ATOM      6  C5  BZF d   1       0.836   2.002   3.337  0.00  0.00    -0.016 A 
ATOM      7  C6  BZF d   1      -0.224   2.813   3.685  0.00  0.00     0.022 A 
ATOM      8  C7  BZF d   1      -1.434   2.686   3.088  0.00  0.00     0.029 A 
ATOM      9  C7A BZF d   1      -1.563   1.700   2.140  0.00  0.00     0.058 A 
ENDROOT
TORSDOF 0
ENDMDL
