MODEL 1
REMARK minimizedAffinity 0.250513434
REMARK minimizedRMSD -1
REMARK  0 active torsions:
REMARK  status: ('A' for Active; 'I' for Inactive)
ROOT
ATOM      1  O1  BZF d   1       0.337   0.973   2.948  0.00  0.00    -0.204 OA
ATOM      2  C2  BZF d   1       1.092   0.362   1.966  0.00  0.00     0.174 A 
ATOM      3  C3  BZF d   1       0.323   0.025   0.911  0.00  0.00    -0.012 A 
ATOM      4  C3A BZF d   1      -0.978   0.535   1.215  0.00  0.00    -0.107 A 
ATOM      5  C4  BZF d   1      -2.169   0.530   0.547  0.00  0.00     0.055 A 
ATOM      6  C5  BZF d   1      -3.269   1.049   1.153  0.00  0.00    -0.016 A 
ATOM      7  C6  BZF d   1      -3.215   1.576   2.426  0.00  0.00     0.022 A 
ATOM      8  C7  BZF d   1      -2.056   1.609   3.127  0.00  0.00     0.029 A 
ATOM      9  C7A BZF d   1      -0.935   1.115   2.505  0.00  0.00     0.058 A 
ENDROOT
TORSDOF 0
ENDMDL
