MODEL 1
REMARK minimizedAffinity 2.92363667
REMARK minimizedRMSD -1
REMARK  0 active torsions:
REMARK  status: ('A' for Active; 'I' for Inactive)
ROOT
ATOM      1  O1  BZF d   1       0.727   1.416   2.158  0.00  0.00    -0.204 OA
ATOM      2  C2  BZF d   1       0.643   2.287   3.227  0.00  0.00     0.174 A 
ATOM      3  C3  BZF d   1      -0.645   2.533   3.543  0.00  0.00    -0.012 A 
ATOM      4  C3A BZF d   1      -1.413   1.696   2.673  0.00  0.00    -0.107 A 
ATOM      5  C4  BZF d   1      -2.753   1.482   2.517  0.00  0.00     0.055 A 
ATOM      6  C5  BZF d   1      -3.178   0.656   1.526  0.00  0.00    -0.016 A 
ATOM      7  C6  BZF d   1      -2.294   0.032   0.671  0.00  0.00     0.022 A 
ATOM      8  C7  BZF d   1      -0.956   0.209   0.790  0.00  0.00     0.029 A 
ATOM      9  C7A BZF d   1      -0.521   1.018   1.811  0.00  0.00     0.058 A 
ENDROOT
TORSDOF 0
ENDMDL
