MODEL 1
REMARK minimizedAffinity 8.34821796
REMARK minimizedRMSD -1
REMARK  0 active torsions:
REMARK  status: ('A' for Active; 'I' for Inactive)
ROOT
ATOM      1  O1  BZF d   1      -3.114   1.480   1.643  0.00  0.00    -0.204 OA
ATOM      2  C2  BZF d   1      -3.192   2.169   2.838  0.00  0.00     0.174 A 
ATOM      3  C3  BZF d   1      -2.013   2.125   3.493  0.00  0.00    -0.012 A 
ATOM      4  C3A BZF d   1      -1.118   1.440   2.612  0.00  0.00    -0.107 A 
ATOM      5  C4  BZF d   1       0.202   1.100   2.694  0.00  0.00     0.055 A 
ATOM      6  C5  BZF d   1       0.758   0.369   1.693  0.00  0.00    -0.016 A 
ATOM      7  C6  BZF d   1       0.024  -0.043   0.600  0.00  0.00     0.022 A 
ATOM      8  C7  BZF d   1      -1.287   0.274   0.472  0.00  0.00     0.029 A 
ATOM      9  C7A BZF d   1      -1.844   1.041   1.466  0.00  0.00     0.058 A 
ENDROOT
TORSDOF 0
ENDMDL
