MODEL 1
REMARK minimizedAffinity 8.83486938
REMARK minimizedRMSD -1
REMARK  0 active torsions:
REMARK  status: ('A' for Active; 'I' for Inactive)
ROOT
ATOM      1  O1  BZF d   1      -1.711   2.772   3.068  0.00  0.00    -0.204 OA
ATOM      2  C2  BZF d   1      -0.724   3.008   4.005  0.00  0.00     0.174 A 
ATOM      3  C3  BZF d   1       0.284   2.122   3.871  0.00  0.00    -0.012 A 
ATOM      4  C3A BZF d   1      -0.054   1.337   2.724  0.00  0.00    -0.107 A 
ATOM      5  C4  BZF d   1       0.563   0.305   2.077  0.00  0.00     0.055 A 
ATOM      6  C5  BZF d   1      -0.068  -0.290   1.031  0.00  0.00    -0.016 A 
ATOM      7  C6  BZF d   1      -1.316   0.118   0.608  0.00  0.00     0.022 A 
ATOM      8  C7  BZF d   1      -1.965   1.141   1.214  0.00  0.00     0.029 A 
ATOM      9  C7A BZF d   1      -1.316   1.766   2.251  0.00  0.00     0.058 A 
ENDROOT
TORSDOF 0
ENDMDL
