MODEL 1
REMARK minimizedAffinity 5.28952837
REMARK minimizedRMSD -1
REMARK  0 active torsions:
REMARK  status: ('A' for Active; 'I' for Inactive)
ROOT
ATOM      1  O1  BZF d   1       1.300   1.653   2.811  0.00  0.00    -0.204 OA
ATOM      2  C2  BZF d   1       0.747   2.540   3.714  0.00  0.00     0.174 A 
ATOM      3  C3  BZF d   1      -0.583   2.652   3.520  0.00  0.00    -0.012 A 
ATOM      4  C3A BZF d   1      -0.894   1.711   2.488  0.00  0.00    -0.107 A 
ATOM      5  C4  BZF d   1      -2.055   1.347   1.868  0.00  0.00     0.055 A 
ATOM      6  C5  BZF d   1      -2.006   0.449   0.849  0.00  0.00    -0.016 A 
ATOM      7  C6  BZF d   1      -0.815  -0.099   0.421  0.00  0.00     0.022 A 
ATOM      8  C7  BZF d   1       0.362   0.228   1.008  0.00  0.00     0.029 A 
ATOM      9  C7A BZF d   1       0.312   1.110   2.060  0.00  0.00     0.058 A 
ENDROOT
TORSDOF 0
ENDMDL
