MODEL 1
REMARK minimizedAffinity 7.90386438
REMARK minimizedRMSD -1
REMARK  3 active torsions:
REMARK  status: ('A' for Active; 'I' for Inactive)
REMARK    1  A    between atoms: C3'_2  and  C2'_3 
REMARK    2  A    between atoms: C2'_3  and  C1'_4 
REMARK    3  A    between atoms: C1'_4  and  C1_5 
ROOT
ATOM      1  C1  N4B d   1      -0.672  -1.940  -0.393  0.00  0.00    -0.075 A 
ATOM      2  C2  N4B d   1       0.342  -1.484  -1.265  0.00  0.00     0.002 A 
ATOM      3  C3  N4B d   1       0.934  -2.357  -2.145  0.00  0.00     0.002 A 
ATOM      4  C4  N4B d   1       0.544  -3.688  -2.158  0.00  0.00    -0.004 A 
ATOM      5  C5  N4B d   1      -0.453  -4.114  -1.330  0.00  0.00     0.002 A 
ATOM      6  C6  N4B d   1      -1.060  -3.247  -0.444  0.00  0.00     0.002 A 
ENDROOT
BRANCH   1   7
ATOM      7  C1' N4B d   1      -1.288  -1.043   0.645  0.00  0.00     0.057 C 
BRANCH   7   8
ATOM      8  C2' N4B d   1      -0.296   0.058   1.009  0.00  0.00     0.009 C 
BRANCH   8   9
ATOM      9  C3' N4B d   1       1.007  -0.507   1.547  0.00  0.00     0.004 C 
ATOM     10  C4' N4B d   1       2.186   0.372   1.254  0.00  0.00     0.003 C 
ENDBRANCH   8   9
ENDBRANCH   7   8
ENDBRANCH   1   7
TORSDOF 3
ENDMDL
