MODEL 1
REMARK minimizedAffinity 10.9402647
REMARK minimizedRMSD -1
REMARK  3 active torsions:
REMARK  status: ('A' for Active; 'I' for Inactive)
REMARK    1  A    between atoms: C3'_2  and  C2'_3 
REMARK    2  A    between atoms: C2'_3  and  C1'_4 
REMARK    3  A    between atoms: C1'_4  and  C1_5 
ROOT
ATOM      1  C1  N4B d   1       1.982  -1.438   2.161  0.00  0.00    -0.075 A 
ATOM      2  C2  N4B d   1       3.083  -1.994   2.848  0.00  0.00     0.002 A 
ATOM      3  C3  N4B d   1       2.875  -2.907   3.853  0.00  0.00     0.002 A 
ATOM      4  C4  N4B d   1       1.581  -3.264   4.198  0.00  0.00    -0.004 A 
ATOM      5  C5  N4B d   1       0.523  -2.742   3.512  0.00  0.00     0.002 A 
ATOM      6  C6  N4B d   1       0.718  -1.826   2.497  0.00  0.00     0.002 A 
ENDROOT
BRANCH   1   7
ATOM      7  C1' N4B d   1       2.155  -0.372   1.114  0.00  0.00     0.057 C 
BRANCH   7   8
ATOM      8  C2' N4B d   1       3.424  -0.656   0.315  0.00  0.00     0.009 C 
BRANCH   8   9
ATOM      9  C3' N4B d   1       3.413   0.039  -1.036  0.00  0.00     0.004 C 
ATOM     10  C4' N4B d   1       3.427  -0.925  -2.185  0.00  0.00     0.003 C 
ENDBRANCH   8   9
ENDBRANCH   7   8
ENDBRANCH   1   7
TORSDOF 3
ENDMDL
