MODEL 1
REMARK minimizedAffinity 6.8447032
REMARK minimizedRMSD -1
REMARK  3 active torsions:
REMARK  status: ('A' for Active; 'I' for Inactive)
REMARK    1  A    between atoms: C3'_2  and  C2'_3 
REMARK    2  A    between atoms: C2'_3  and  C1'_4 
REMARK    3  A    between atoms: C1'_4  and  C1_5 
ROOT
ATOM      1  C1  N4B d   1      -5.135  -3.027  -4.107  0.00  0.00    -0.075 A 
ATOM      2  C2  N4B d   1      -4.503  -4.221  -3.695  0.00  0.00     0.002 A 
ATOM      3  C3  N4B d   1      -4.638  -5.363  -4.446  0.00  0.00     0.002 A 
ATOM      4  C4  N4B d   1      -5.413  -5.340  -5.596  0.00  0.00    -0.004 A 
ATOM      5  C5  N4B d   1      -6.000  -4.177  -6.000  0.00  0.00     0.002 A 
ATOM      6  C6  N4B d   1      -5.869  -3.020  -5.258  0.00  0.00     0.002 A 
ENDROOT
BRANCH   1   7
ATOM      7  C1' N4B d   1      -5.087  -1.775  -3.274  0.00  0.00     0.057 C 
BRANCH   7   8
ATOM      8  C2' N4B d   1      -4.145  -0.771  -3.933  0.00  0.00     0.009 C 
BRANCH   8   9
ATOM      9  C3' N4B d   1      -3.762   0.354  -2.988  0.00  0.00     0.004 C 
ATOM     10  C4' N4B d   1      -4.132   1.708  -3.517  0.00  0.00     0.003 C 
ENDBRANCH   8   9
ENDBRANCH   7   8
ENDBRANCH   1   7
TORSDOF 3
ENDMDL
