MODEL 1
REMARK minimizedAffinity 1.71888757
REMARK minimizedRMSD -1
REMARK  3 active torsions:
REMARK  status: ('A' for Active; 'I' for Inactive)
REMARK    1  A    between atoms: C3'_2  and  C2'_3 
REMARK    2  A    between atoms: C2'_3  and  C1'_4 
REMARK    3  A    between atoms: C1'_4  and  C1_5 
ROOT
ATOM      1  C1  N4B d   1       3.992  -5.823  -3.381  0.00  0.00    -0.075 A 
ATOM      2  C2  N4B d   1       3.072  -5.960  -4.444  0.00  0.00     0.002 A 
ATOM      3  C3  N4B d   1       3.522  -5.999  -5.741  0.00  0.00     0.002 A 
ATOM      4  C4  N4B d   1       4.880  -5.884  -5.999  0.00  0.00    -0.004 A 
ATOM      5  C5  N4B d   1       5.764  -5.778  -4.965  0.00  0.00     0.002 A 
ATOM      6  C6  N4B d   1       5.326  -5.741  -3.657  0.00  0.00     0.002 A 
ENDROOT
BRANCH   1   7
ATOM      7  C1' N4B d   1       3.540  -5.689  -1.952  0.00  0.00     0.057 C 
BRANCH   7   8
ATOM      8  C2' N4B d   1       2.033  -5.914  -1.881  0.00  0.00     0.009 C 
BRANCH   8   9
ATOM      9  C3' N4B d   1       1.539  -5.999  -0.447  0.00  0.00     0.004 C 
ATOM     10  C4' N4B d   1       2.645  -5.868   0.558  0.00  0.00     0.003 C 
ENDBRANCH   8   9
ENDBRANCH   7   8
ENDBRANCH   1   7
TORSDOF 3
ENDMDL
