MODEL 1
REMARK minimizedAffinity 6.71280861
REMARK minimizedRMSD -1
REMARK  3 active torsions:
REMARK  status: ('A' for Active; 'I' for Inactive)
REMARK    1  A    between atoms: C3'_2  and  C2'_3 
REMARK    2  A    between atoms: C2'_3  and  C1'_4 
REMARK    3  A    between atoms: C1'_4  and  C1_5 
ROOT
ATOM      1  C1  N4B d   1       3.695  -4.198   4.162  0.00  0.00    -0.075 A 
ATOM      2  C2  N4B d   1       3.787  -5.020   3.018  0.00  0.00     0.002 A 
ATOM      3  C3  N4B d   1       4.939  -5.029   2.270  0.00  0.00     0.002 A 
ATOM      4  C4  N4B d   1       5.999  -4.213   2.634  0.00  0.00    -0.004 A 
ATOM      5  C5  N4B d   1       5.911  -3.440   3.755  0.00  0.00     0.002 A 
ATOM      6  C6  N4B d   1       4.762  -3.425   4.518  0.00  0.00     0.002 A 
ENDROOT
BRANCH   1   7
ATOM      7  C1' N4B d   1       2.426  -4.090   4.962  0.00  0.00     0.057 C 
BRANCH   7   8
ATOM      8  C2' N4B d   1       1.311  -3.559   4.065  0.00  0.00     0.009 C 
BRANCH   8   9
ATOM      9  C3' N4B d   1       1.592  -2.145   3.587  0.00  0.00     0.004 C 
ATOM     10  C4' N4B d   1       1.215  -1.931   2.152  0.00  0.00     0.003 C 
ENDBRANCH   8   9
ENDBRANCH   7   8
ENDBRANCH   1   7
TORSDOF 3
ENDMDL
