MODEL 1
REMARK minimizedAffinity 9.73543739
REMARK minimizedRMSD -1
REMARK  0 active torsions:
REMARK  status: ('A' for Active; 'I' for Inactive)
ROOT
ATOM      1  N1  IND d   1       2.378  -4.771  -0.300  0.00  0.00    -0.196 N 
ATOM      2  C2  IND d   1       1.590  -3.738   0.124  0.00  0.00     0.054 A 
ATOM      3  C3  IND d   1       2.338  -2.630   0.331  0.00  0.00    -0.031 A 
ATOM      4  C4  IND d   1       4.855  -2.259  -0.062  0.00  0.00     0.051 A 
ATOM      5  C5  IND d   1       6.000  -2.920  -0.409  0.00  0.00    -0.031 A 
ATOM      6  C6  IND d   1       5.995  -4.257  -0.748  0.00  0.00     0.015 A 
ATOM      7  C7  IND d   1       4.839  -4.985  -0.763  0.00  0.00    -0.016 A 
ATOM      8  C8  IND d   1       3.676  -4.319  -0.403  0.00  0.00    -0.047 A 
ATOM      9  C9  IND d   1       3.680  -2.973  -0.017  0.00  0.00    -0.096 A 
ATOM     10  HN1 IND d   1       2.109  -5.569  -0.474  0.00  0.00     0.298 HD
ENDROOT
TORSDOF 0
ENDMDL
