MODEL 1
REMARK minimizedAffinity 6.42952585
REMARK minimizedRMSD -1
REMARK  0 active torsions:
REMARK  status: ('A' for Active; 'I' for Inactive)
ROOT
ATOM      1  N1  IND d   1       4.096  -0.856   0.117  0.00  0.00    -0.196 N 
ATOM      2  C2  IND d   1       5.235  -1.600  -0.017  0.00  0.00     0.054 A 
ATOM      3  C3  IND d   1       4.995  -2.890   0.310  0.00  0.00    -0.031 A 
ATOM      4  C4  IND d   1       2.785  -4.020   0.993  0.00  0.00     0.051 A 
ATOM      5  C5  IND d   1       1.480  -3.743   1.289  0.00  0.00    -0.031 A 
ATOM      6  C6  IND d   1       0.969  -2.464   1.204  0.00  0.00     0.015 A 
ATOM      7  C7  IND d   1       1.745  -1.412   0.808  0.00  0.00    -0.016 A 
ATOM      8  C8  IND d   1       3.072  -1.688   0.514  0.00  0.00    -0.047 A 
ATOM      9  C9  IND d   1       3.607  -2.977   0.639  0.00  0.00    -0.096 A 
ATOM     10  HN1 IND d   1       4.030  -0.010  -0.024  0.00  0.00     0.298 HD
ENDROOT
TORSDOF 0
ENDMDL
