MODEL 1
REMARK minimizedAffinity 6.06250954
REMARK minimizedRMSD -1
REMARK  0 active torsions:
REMARK  status: ('A' for Active; 'I' for Inactive)
ROOT
ATOM      1  N1  IND d   1      -3.494   0.901   0.541  0.00  0.00    -0.196 N 
ATOM      2  C2  IND d   1      -3.260   0.218  -0.620  0.00  0.00     0.054 A 
ATOM      3  C3  IND d   1      -2.440  -0.832  -0.390  0.00  0.00    -0.031 A 
ATOM      4  C4  IND d   1      -1.445  -1.676   1.829  0.00  0.00     0.051 A 
ATOM      5  C5  IND d   1      -1.346  -1.359   3.155  0.00  0.00    -0.031 A 
ATOM      6  C6  IND d   1      -1.973  -0.251   3.688  0.00  0.00     0.015 A 
ATOM      7  C7  IND d   1      -2.735   0.578   2.914  0.00  0.00    -0.016 A 
ATOM      8  C8  IND d   1      -2.832   0.263   1.567  0.00  0.00    -0.047 A 
ATOM      9  C9  IND d   1      -2.163  -0.836   1.011  0.00  0.00    -0.096 A 
ATOM     10  HN1 IND d   1      -3.974   1.611   0.618  0.00  0.00     0.298 HD
ENDROOT
TORSDOF 0
ENDMDL
