MODEL 1
REMARK minimizedAffinity 10.4508543
REMARK minimizedRMSD -1
REMARK  0 active torsions:
REMARK  status: ('A' for Active; 'I' for Inactive)
ROOT
ATOM      1  N1  IND d   1      -1.771   4.981  -4.318  0.00  0.00    -0.196 N 
ATOM      2  C2  IND d   1      -3.128   4.838  -4.405  0.00  0.00     0.054 A 
ATOM      3  C3  IND d   1      -3.515   3.669  -3.848  0.00  0.00    -0.031 A 
ATOM      4  C4  IND d   1      -2.103   1.884  -2.644  0.00  0.00     0.051 A 
ATOM      5  C5  IND d   1      -0.810   1.554  -2.346  0.00  0.00    -0.031 A 
ATOM      6  C6  IND d   1       0.249   2.367  -2.695  0.00  0.00     0.015 A 
ATOM      7  C7  IND d   1       0.053   3.551  -3.348  0.00  0.00    -0.016 A 
ATOM      8  C8  IND d   1      -1.257   3.886  -3.658  0.00  0.00    -0.047 A 
ATOM      9  C9  IND d   1      -2.332   3.045  -3.344  0.00  0.00    -0.096 A 
ATOM     10  HN1 IND d   1      -1.315   5.642  -4.624  0.00  0.00     0.298 HD
ENDROOT
TORSDOF 0
ENDMDL
