MODEL 1
REMARK minimizedAffinity 10.6388798
REMARK minimizedRMSD -1
REMARK  0 active torsions:
REMARK  status: ('A' for Active; 'I' for Inactive)
ROOT
ATOM      1  N1  IND d   1       1.076  -2.318   1.301  0.00  0.00    -0.196 N 
ATOM      2  C2  IND d   1       1.779  -3.329   0.708  0.00  0.00     0.054 A 
ATOM      3  C3  IND d   1       2.756  -3.769   1.533  0.00  0.00    -0.031 A 
ATOM      4  C4  IND d   1       3.313  -3.044   3.940  0.00  0.00     0.051 A 
ATOM      5  C5  IND d   1       2.971  -2.129   4.896  0.00  0.00    -0.031 A 
ATOM      6  C6  IND d   1       1.957  -1.214   4.699  0.00  0.00     0.015 A 
ATOM      7  C7  IND d   1       1.237  -1.187   3.539  0.00  0.00    -0.016 A 
ATOM      8  C8  IND d   1       1.587  -2.109   2.563  0.00  0.00    -0.047 A 
ATOM      9  C9  IND d   1       2.643  -3.013   2.740  0.00  0.00    -0.096 A 
ATOM     10  HN1 IND d   1       0.424  -1.885   0.945  0.00  0.00     0.298 HD
ENDROOT
TORSDOF 0
ENDMDL
