MODEL 1
REMARK minimizedAffinity 5.78908062
REMARK minimizedRMSD -1
REMARK  0 active torsions:
REMARK  status: ('A' for Active; 'I' for Inactive)
ROOT
ATOM      1  N1  IND d   1      -3.756   0.992   2.383  0.00  0.00    -0.196 N 
ATOM      2  C2  IND d   1      -3.923   1.803   3.471  0.00  0.00     0.054 A 
ATOM      3  C3  IND d   1      -2.981   1.539   4.404  0.00  0.00    -0.031 A 
ATOM      4  C4  IND d   1      -1.006  -0.110   4.313  0.00  0.00     0.051 A 
ATOM      5  C5  IND d   1      -0.461  -1.096   3.540  0.00  0.00    -0.031 A 
ATOM      6  C6  IND d   1      -0.995  -1.442   2.315  0.00  0.00     0.015 A 
ATOM      7  C7  IND d   1      -2.093  -0.803   1.811  0.00  0.00    -0.016 A 
ATOM      8  C8  IND d   1      -2.654   0.194   2.597  0.00  0.00    -0.047 A 
ATOM      9  C9  IND d   1      -2.141   0.520   3.860  0.00  0.00    -0.096 A 
ATOM     10  HN1 IND d   1      -4.255   0.982   1.683  0.00  0.00     0.298 HD
ENDROOT
TORSDOF 0
ENDMDL
