MODEL 1
REMARK minimizedAffinity -0.343379825
REMARK minimizedRMSD -1
REMARK  0 active torsions:
REMARK  status: ('A' for Active; 'I' for Inactive)
ROOT
ATOM      1  N1  IND d   1       1.543  -2.946   0.529  0.00  0.00    -0.196 N 
ATOM      2  C2  IND d   1       1.893  -1.674   0.171  0.00  0.00     0.054 A 
ATOM      3  C3  IND d   1       3.229  -1.502   0.292  0.00  0.00    -0.031 A 
ATOM      4  C4  IND d   1       5.042  -3.202   0.964  0.00  0.00     0.051 A 
ATOM      5  C5  IND d   1       5.205  -4.481   1.416  0.00  0.00    -0.031 A 
ATOM      6  C6  IND d   1       4.134  -5.333   1.596  0.00  0.00     0.015 A 
ATOM      7  C7  IND d   1       2.856  -4.938   1.319  0.00  0.00    -0.016 A 
ATOM      8  C8  IND d   1       2.686  -3.637   0.867  0.00  0.00    -0.047 A 
ATOM      9  C9  IND d   1       3.765  -2.755   0.723  0.00  0.00    -0.096 A 
ATOM     10  HN1 IND d   1       0.743  -3.261   0.541  0.00  0.00     0.298 HD
ENDROOT
TORSDOF 0
ENDMDL
