MODEL 1
REMARK minimizedAffinity 3.41001987
REMARK minimizedRMSD -1
REMARK  0 active torsions:
REMARK  status: ('A' for Active; 'I' for Inactive)
ROOT
ATOM      1  N1  IND d   1      -1.739  -0.789   0.743  0.00  0.00    -0.196 N 
ATOM      2  C2  IND d   1      -2.534   0.155   1.330  0.00  0.00     0.054 A 
ATOM      3  C3  IND d   1      -2.251   0.255   2.649  0.00  0.00    -0.031 A 
ATOM      4  C4  IND d   1      -0.452  -0.962   4.031  0.00  0.00     0.051 A 
ATOM      5  C5  IND d   1       0.494  -1.944   3.942  0.00  0.00    -0.031 A 
ATOM      6  C6  IND d   1       0.751  -2.603   2.757  0.00  0.00     0.015 A 
ATOM      7  C7  IND d   1       0.077  -2.295   1.610  0.00  0.00    -0.016 A 
ATOM      8  C8  IND d   1      -0.890  -1.303   1.698  0.00  0.00    -0.047 A 
ATOM      9  C9  IND d   1      -1.185  -0.660   2.908  0.00  0.00    -0.096 A 
ATOM     10  HN1 IND d   1      -1.766  -1.023  -0.084  0.00  0.00     0.298 HD
ENDROOT
TORSDOF 0
ENDMDL
