MODEL 1
REMARK minimizedAffinity 13.8025799
REMARK minimizedRMSD -1
REMARK  0 active torsions:
REMARK  status: ('A' for Active; 'I' for Inactive)
ROOT
ATOM      1  N1  IND d   1      -1.690  -0.160   3.091  0.00  0.00    -0.196 N 
ATOM      2  C2  IND d   1      -2.659  -0.596   2.230  0.00  0.00     0.054 A 
ATOM      3  C3  IND d   1      -2.112  -1.348   1.249  0.00  0.00    -0.031 A 
ATOM      4  C4  IND d   1       0.334  -2.077   0.918  0.00  0.00     0.051 A 
ATOM      5  C5  IND d   1       1.590  -1.898   1.427  0.00  0.00    -0.031 A 
ATOM      6  C6  IND d   1       1.821  -1.117   2.541  0.00  0.00     0.015 A 
ATOM      7  C7  IND d   1       0.798  -0.493   3.197  0.00  0.00    -0.016 A 
ATOM      8  C8  IND d   1      -0.477  -0.666   2.679  0.00  0.00    -0.047 A 
ATOM      9  C9  IND d   1      -0.712  -1.423   1.523  0.00  0.00    -0.096 A 
ATOM     10  HN1 IND d   1      -1.818   0.345   3.775  0.00  0.00     0.298 HD
ENDROOT
TORSDOF 0
ENDMDL
