MODEL 1
REMARK minimizedAffinity 11.586812
REMARK minimizedRMSD -1
REMARK  0 active torsions:
REMARK  status: ('A' for Active; 'I' for Inactive)
ROOT
ATOM      1  N1  IND d   1       0.576  -1.383  -1.397  0.00  0.00    -0.196 N 
ATOM      2  C2  IND d   1      -0.516  -0.561  -1.370  0.00  0.00     0.054 A 
ATOM      3  C3  IND d   1      -0.975  -0.431  -0.104  0.00  0.00    -0.031 A 
ATOM      4  C4  IND d   1      -0.026  -1.394   2.086  0.00  0.00     0.051 A 
ATOM      5  C5  IND d   1       0.939  -2.234   2.565  0.00  0.00    -0.031 A 
ATOM      6  C6  IND d   1       1.854  -2.844   1.730  0.00  0.00     0.015 A 
ATOM      7  C7  IND d   1       1.843  -2.626   0.381  0.00  0.00    -0.016 A 
ATOM      8  C8  IND d   1       0.859  -1.779  -0.108  0.00  0.00    -0.047 A 
ATOM      9  C9  IND d   1      -0.098  -1.191   0.729  0.00  0.00    -0.096 A 
ATOM     10  HN1 IND d   1       1.013  -1.614  -2.101  0.00  0.00     0.298 HD
ENDROOT
TORSDOF 0
ENDMDL
