MODEL 1
REMARK minimizedAffinity -1.35476696
REMARK minimizedRMSD -1
REMARK  0 active torsions:
REMARK  status: ('A' for Active; 'I' for Inactive)
ROOT
ATOM      1  C   UNL d   1      -4.369  -2.601  -4.827  0.00  0.00     0.172 C 
ATOM      2  N   UNL d   1      -4.781  -3.944  -5.162  0.00  0.00    -0.070 N 
ATOM      3  C1  UNL d   1      -4.061  -4.837  -5.908  0.00  0.00    -0.004 A 
ATOM      4  C2  UNL d   1      -4.795  -6.000  -6.000  0.00  0.00    -0.047 A 
ATOM      5  C3  UNL d   1      -5.999  -5.798  -5.285  0.00  0.00    -0.047 A 
ATOM      6  C4  UNL d   1      -5.965  -4.516  -4.776  0.00  0.00    -0.004 A 
ENDROOT
TORSDOF 0
ENDMDL
