MODEL 1
REMARK minimizedAffinity -1.78062499
REMARK minimizedRMSD -1
REMARK  0 active torsions:
REMARK  status: ('A' for Active; 'I' for Inactive)
ROOT
ATOM      1  C   UNL d   1       4.922   5.242  -2.608  0.00  0.00     0.172 C 
ATOM      2  N   UNL d   1       4.894   4.777  -3.975  0.00  0.00    -0.070 N 
ATOM      3  C1  UNL d   1       3.771   4.425  -4.675  0.00  0.00    -0.004 A 
ATOM      4  C2  UNL d   1       4.165   4.040  -5.938  0.00  0.00    -0.047 A 
ATOM      5  C3  UNL d   1       5.574   4.163  -5.998  0.00  0.00    -0.047 A 
ATOM      6  C4  UNL d   1       5.999   4.621  -4.769  0.00  0.00    -0.004 A 
ENDROOT
TORSDOF 0
ENDMDL
