MODEL 1
REMARK minimizedAffinity 9.47142982
REMARK minimizedRMSD -1
REMARK  0 active torsions:
REMARK  status: ('A' for Active; 'I' for Inactive)
ROOT
ATOM      1  C   UNL d   1       2.645   2.823  -0.619  0.00  0.00     0.172 C 
ATOM      2  N   UNL d   1       2.203   4.059  -1.222  0.00  0.00    -0.070 N 
ATOM      3  C1  UNL d   1       2.965   4.880  -2.010  0.00  0.00    -0.004 A 
ATOM      4  C2  UNL d   1       2.182   5.950  -2.386  0.00  0.00    -0.047 A 
ATOM      5  C3  UNL d   1       0.905   5.766  -1.803  0.00  0.00    -0.047 A 
ATOM      6  C4  UNL d   1       0.946   4.587  -1.089  0.00  0.00    -0.004 A 
ENDROOT
TORSDOF 0
ENDMDL
