MODEL 1
REMARK minimizedAffinity 0.986468196
REMARK minimizedRMSD -1
REMARK  0 active torsions:
REMARK  status: ('A' for Active; 'I' for Inactive)
ROOT
ATOM      1  C   UNL d   1      -4.961  -2.465  -5.179  0.00  0.00     0.172 C 
ATOM      2  N   UNL d   1      -4.953  -3.889  -5.417  0.00  0.00    -0.070 N 
ATOM      3  C1  UNL d   1      -5.995  -4.620  -5.922  0.00  0.00    -0.004 A 
ATOM      4  C2  UNL d   1      -5.590  -5.935  -5.997  0.00  0.00    -0.047 A 
ATOM      5  C3  UNL d   1      -4.260  -5.997  -5.520  0.00  0.00    -0.047 A 
ATOM      6  C4  UNL d   1      -3.890  -4.716  -5.167  0.00  0.00    -0.004 A 
ENDROOT
TORSDOF 0
ENDMDL
