MODEL 1
REMARK minimizedAffinity 10.0722837
REMARK minimizedRMSD -1
REMARK  0 active torsions:
REMARK  status: ('A' for Active; 'I' for Inactive)
ROOT
ATOM      1  C   UNL d   1       0.012  -2.617   4.592  0.00  0.00     0.172 C 
ATOM      2  N   UNL d   1       0.515  -2.264   3.286  0.00  0.00    -0.070 N 
ATOM      3  C1  UNL d   1       0.291  -1.079   2.637  0.00  0.00    -0.004 A 
ATOM      4  C2  UNL d   1       0.939  -1.133   1.422  0.00  0.00    -0.047 A 
ATOM      5  C3  UNL d   1       1.574  -2.395   1.337  0.00  0.00    -0.047 A 
ATOM      6  C4  UNL d   1       1.295  -3.075   2.504  0.00  0.00    -0.004 A 
ENDROOT
TORSDOF 0
ENDMDL
