MODEL 1
REMARK minimizedAffinity 9.93296814
REMARK minimizedRMSD -1
REMARK  0 active torsions:
REMARK  status: ('A' for Active; 'I' for Inactive)
ROOT
ATOM      1  C   UNL d   1      -5.860   4.769  -0.419  0.00  0.00     0.172 C 
ATOM      2  N   UNL d   1      -5.073   3.725  -1.031  0.00  0.00    -0.070 N 
ATOM      3  C1  UNL d   1      -5.561   2.705  -1.802  0.00  0.00    -0.004 A 
ATOM      4  C2  UNL d   1      -4.496   1.924  -2.194  0.00  0.00    -0.047 A 
ATOM      5  C3  UNL d   1      -3.326   2.494  -1.638  0.00  0.00    -0.047 A 
ATOM      6  C4  UNL d   1      -3.712   3.608  -0.923  0.00  0.00    -0.004 A 
ENDROOT
TORSDOF 0
ENDMDL
