MODEL 1
REMARK minimizedAffinity 6.74512911
REMARK minimizedRMSD -1
REMARK  0 active torsions:
REMARK  status: ('A' for Active; 'I' for Inactive)
ROOT
ATOM      1  C   UNL d   1       5.999   5.980  -5.999  0.00  0.00     0.172 C 
ATOM      2  N   UNL d   1       5.302   5.721  -4.761  0.00  0.00    -0.070 N 
ATOM      3  C1  UNL d   1       4.024   5.241  -4.649  0.00  0.00    -0.004 A 
ATOM      4  C2  UNL d   1       3.730   5.134  -3.307  0.00  0.00    -0.047 A 
ATOM      5  C3  UNL d   1       4.869   5.565  -2.587  0.00  0.00    -0.047 A 
ATOM      6  C4  UNL d   1       5.828   5.923  -3.512  0.00  0.00    -0.004 A 
ENDROOT
TORSDOF 0
ENDMDL
