MODEL 1
REMARK minimizedAffinity 6.46099901
REMARK minimizedRMSD -1
REMARK  0 active torsions:
REMARK  status: ('A' for Active; 'I' for Inactive)
ROOT
ATOM      1  C   UNL d   1      -3.371   2.619  -0.997  0.00  0.00     0.172 C 
ATOM      2  N   UNL d   1      -4.223   2.809   0.153  0.00  0.00    -0.070 N 
ATOM      3  C1  UNL d   1      -3.872   2.571   1.455  0.00  0.00    -0.004 A 
ATOM      4  C2  UNL d   1      -4.958   2.874   2.247  0.00  0.00    -0.047 A 
ATOM      5  C3  UNL d   1      -5.998   3.308   1.392  0.00  0.00    -0.047 A 
ATOM      6  C4  UNL d   1      -5.516   3.257   0.101  0.00  0.00    -0.004 A 
ENDROOT
TORSDOF 0
ENDMDL
