MODEL 1
REMARK minimizedAffinity 2.5889523
REMARK minimizedRMSD -1
REMARK  0 active torsions:
REMARK  status: ('A' for Active; 'I' for Inactive)
ROOT
ATOM      1  C1  DEN d   1       3.376  -0.282  -4.523  0.00  0.00     0.130 A 
ATOM      2  C2  DEN d   1       2.254  -1.001  -3.925  0.00  0.00    -0.031 A 
ATOM      3  C3  DEN d   1       1.155  -0.037  -3.714  0.00  0.00     0.027 A 
ATOM      4  C4  DEN d   1       1.081   2.483  -4.255  0.00  0.00     0.027 A 
ATOM      5  C5  DEN d   1       1.799   3.545  -4.761  0.00  0.00    -0.003 A 
ATOM      6  C6  DEN d   1       3.094   3.413  -5.187  0.00  0.00     0.001 A 
ATOM      7  C7  DEN d   1       3.696   2.183  -5.158  0.00  0.00     0.017 A 
ATOM      8  C8  DEN d   1       2.981   1.110  -4.643  0.00  0.00    -0.094 A 
ATOM      9  C9  DEN d   1       1.669   1.261  -4.228  0.00  0.00    -0.072 A 
ENDROOT
TORSDOF 0
ENDMDL
