MODEL 1
REMARK minimizedAffinity -2.40811872
REMARK minimizedRMSD -1
REMARK  0 active torsions:
REMARK  status: ('A' for Active; 'I' for Inactive)
ROOT
ATOM      1  C1  DEN d   1       1.085  -2.719  -2.513  0.00  0.00     0.130 A 
ATOM      2  C2  DEN d   1       1.070  -2.125  -3.847  0.00  0.00    -0.031 A 
ATOM      3  C3  DEN d   1       0.603  -0.730  -3.721  0.00  0.00     0.027 A 
ATOM      4  C4  DEN d   1      -0.091   0.562  -1.599  0.00  0.00     0.027 A 
ATOM      5  C5  DEN d   1      -0.256   0.474  -0.234  0.00  0.00    -0.003 A 
ATOM      6  C6  DEN d   1      -0.019  -0.685   0.456  0.00  0.00     0.001 A 
ATOM      7  C7  DEN d   1       0.438  -1.791  -0.210  0.00  0.00     0.017 A 
ATOM      8  C8  DEN d   1       0.600  -1.712  -1.587  0.00  0.00    -0.094 A 
ATOM      9  C9  DEN d   1       0.367  -0.527  -2.266  0.00  0.00    -0.072 A 
ENDROOT
TORSDOF 0
ENDMDL
