MODEL 1
REMARK minimizedAffinity -0.733187854
REMARK minimizedRMSD -1
REMARK  0 active torsions:
REMARK  status: ('A' for Active; 'I' for Inactive)
ROOT
ATOM      1  C1  DEN d   1      -1.474   0.844  -1.735  0.00  0.00     0.130 A 
ATOM      2  C2  DEN d   1      -0.150   0.932  -2.344  0.00  0.00    -0.031 A 
ATOM      3  C3  DEN d   1       0.842   0.480  -1.347  0.00  0.00     0.027 A 
ATOM      4  C4  DEN d   1       0.456  -0.348   1.065  0.00  0.00     0.027 A 
ATOM      5  C5  DEN d   1      -0.496  -0.589   2.030  0.00  0.00    -0.003 A 
ATOM      6  C6  DEN d   1      -1.826  -0.338   1.822  0.00  0.00     0.001 A 
ATOM      7  C7  DEN d   1      -2.247   0.125   0.603  0.00  0.00     0.017 A 
ATOM      8  C8  DEN d   1      -1.292   0.377  -0.373  0.00  0.00    -0.094 A 
ATOM      9  C9  DEN d   1       0.047   0.106  -0.147  0.00  0.00    -0.072 A 
ENDROOT
TORSDOF 0
ENDMDL
