MODEL 1
REMARK minimizedAffinity -1.93514371
REMARK minimizedRMSD -1
REMARK  0 active torsions:
REMARK  status: ('A' for Active; 'I' for Inactive)
ROOT
ATOM      1  C1  DEN d   1       1.420   0.317  -1.060  0.00  0.00     0.130 A 
ATOM      2  C2  DEN d   1       0.350   0.178  -2.043  0.00  0.00    -0.031 A 
ATOM      3  C3  DEN d   1      -0.901  -0.121  -1.317  0.00  0.00     0.027 A 
ATOM      4  C4  DEN d   1      -1.282  -0.375   1.221  0.00  0.00     0.027 A 
ATOM      5  C5  DEN d   1      -0.671  -0.356   2.456  0.00  0.00    -0.003 A 
ATOM      6  C6  DEN d   1       0.674  -0.147   2.601  0.00  0.00     0.001 A 
ATOM      7  C7  DEN d   1       1.447   0.097   1.496  0.00  0.00     0.017 A 
ATOM      8  C8  DEN d   1       0.839   0.072   0.248  0.00  0.00    -0.094 A 
ATOM      9  C9  DEN d   1      -0.525  -0.129   0.123  0.00  0.00    -0.072 A 
ENDROOT
TORSDOF 0
ENDMDL
