MODEL 1
REMARK minimizedAffinity -2.74061155
REMARK minimizedRMSD -1
REMARK  0 active torsions:
REMARK  status: ('A' for Active; 'I' for Inactive)
ROOT
ATOM      1  C1  DEN d   1       1.084   0.786   0.037  0.00  0.00     0.130 A 
ATOM      2  C2  DEN d   1       0.424   0.828  -1.265  0.00  0.00    -0.031 A 
ATOM      3  C3  DEN d   1      -0.911   0.213  -1.121  0.00  0.00     0.027 A 
ATOM      4  C4  DEN d   1      -2.016  -0.791   0.982  0.00  0.00     0.027 A 
ATOM      5  C5  DEN d   1      -1.840  -1.064   2.321  0.00  0.00    -0.003 A 
ATOM      6  C6  DEN d   1      -0.674  -0.774   2.978  0.00  0.00     0.001 A 
ATOM      7  C7  DEN d   1       0.345  -0.150   2.309  0.00  0.00     0.017 A 
ATOM      8  C8  DEN d   1       0.178   0.122   0.957  0.00  0.00    -0.094 A 
ATOM      9  C9  DEN d   1      -1.013  -0.168   0.313  0.00  0.00    -0.072 A 
ENDROOT
TORSDOF 0
ENDMDL
