MODEL 1
REMARK minimizedAffinity 3.17936444
REMARK minimizedRMSD -1
REMARK  0 active torsions:
REMARK  status: ('A' for Active; 'I' for Inactive)
ROOT
ATOM      1  C1  DEN d   1       1.799   0.426  -2.992  0.00  0.00     0.130 A 
ATOM      2  C2  DEN d   1       2.081  -0.809  -3.717  0.00  0.00    -0.031 A 
ATOM      3  C3  DEN d   1       1.296  -1.894  -3.094  0.00  0.00     0.027 A 
ATOM      4  C4  DEN d   1      -0.323  -1.780  -1.090  0.00  0.00     0.027 A 
ATOM      5  C5  DEN d   1      -0.877  -0.950  -0.140  0.00  0.00    -0.003 A 
ATOM      6  C6  DEN d   1      -0.554   0.378  -0.053  0.00  0.00     0.001 A 
ATOM      7  C7  DEN d   1       0.313   0.926  -0.961  0.00  0.00     0.017 A 
ATOM      8  C8  DEN d   1       0.881   0.095  -1.917  0.00  0.00    -0.094 A 
ATOM      9  C9  DEN d   1       0.533  -1.243  -1.996  0.00  0.00    -0.072 A 
ENDROOT
TORSDOF 0
ENDMDL
