MODEL 1
REMARK minimizedAffinity -5.18186855
REMARK minimizedRMSD -1
REMARK  0 active torsions:
REMARK  status: ('A' for Active; 'I' for Inactive)
ROOT
ATOM      1  C1  DEN d   1      -0.444  -0.865   0.492  0.00  0.00     0.130 A 
ATOM      2  C2  DEN d   1       0.054   0.369   1.093  0.00  0.00    -0.031 A 
ATOM      3  C3  DEN d   1       0.933   1.034   0.110  0.00  0.00     0.027 A 
ATOM      4  C4  DEN d   1       1.564   0.279  -2.274  0.00  0.00     0.027 A 
ATOM      5  C5  DEN d   1       1.398  -0.709  -3.220  0.00  0.00    -0.003 A 
ATOM      6  C6  DEN d   1       0.639  -1.825  -2.984  0.00  0.00     0.001 A 
ATOM      7  C7  DEN d   1      -0.018  -1.959  -1.790  0.00  0.00     0.017 A 
ATOM      8  C8  DEN d   1       0.151  -0.971  -0.829  0.00  0.00    -0.094 A 
ATOM      9  C9  DEN d   1       0.912   0.155  -1.090  0.00  0.00    -0.072 A 
ENDROOT
TORSDOF 0
ENDMDL
