MODEL 1
REMARK minimizedAffinity -3.28842139
REMARK minimizedRMSD -1
REMARK  0 active torsions:
REMARK  status: ('A' for Active; 'I' for Inactive)
ROOT
ATOM      1  C1  DEN d   1       0.783   1.142   0.341  0.00  0.00     0.130 A 
ATOM      2  C2  DEN d   1       0.301   0.917  -1.018  0.00  0.00    -0.031 A 
ATOM      3  C3  DEN d   1      -0.879   0.032  -0.944  0.00  0.00     0.027 A 
ATOM      4  C4  DEN d   1      -2.003  -1.002   1.135  0.00  0.00     0.027 A 
ATOM      5  C5  DEN d   1      -1.945  -1.106   2.507  0.00  0.00    -0.003 A 
ATOM      6  C6  DEN d   1      -0.962  -0.502   3.245  0.00  0.00     0.001 A 
ATOM      7  C7  DEN d   1      -0.022   0.273   2.617  0.00  0.00     0.017 A 
ATOM      8  C8  DEN d   1      -0.070   0.377   1.233  0.00  0.00    -0.094 A 
ATOM      9  C9  DEN d   1      -1.079  -0.232   0.507  0.00  0.00    -0.072 A 
ENDROOT
TORSDOF 0
ENDMDL
