MODEL 1
REMARK minimizedAffinity -4.42057562
REMARK minimizedRMSD -1
REMARK  0 active torsions:
REMARK  status: ('A' for Active; 'I' for Inactive)
ROOT
ATOM      1  C1  DEN d   1       1.057   1.266   0.016  0.00  0.00     0.130 A 
ATOM      2  C2  DEN d   1       0.518   1.120  -1.334  0.00  0.00    -0.031 A 
ATOM      3  C3  DEN d   1      -0.592   0.148  -1.279  0.00  0.00     0.027 A 
ATOM      4  C4  DEN d   1      -1.527  -1.134   0.754  0.00  0.00     0.027 A 
ATOM      5  C5  DEN d   1      -1.387  -1.348   2.107  0.00  0.00    -0.003 A 
ATOM      6  C6  DEN d   1      -0.409  -0.737   2.846  0.00  0.00     0.001 A 
ATOM      7  C7  DEN d   1       0.440   0.153   2.243  0.00  0.00     0.017 A 
ATOM      8  C8  DEN d   1       0.309   0.369   0.878  0.00  0.00    -0.094 A 
ATOM      9  C9  DEN d   1      -0.694  -0.249   0.151  0.00  0.00    -0.072 A 
ENDROOT
TORSDOF 0
ENDMDL
