MODEL 1
REMARK minimizedAffinity -5.81504822
REMARK minimizedRMSD -1
REMARK  0 active torsions:
REMARK  status: ('A' for Active; 'I' for Inactive)
ROOT
ATOM      1  C1  DEN d   1       0.838   0.962   0.676  0.00  0.00     0.130 A 
ATOM      2  C2  DEN d   1       0.298   1.094  -0.674  0.00  0.00    -0.031 A 
ATOM      3  C3  DEN d   1      -1.078   0.558  -0.670  0.00  0.00     0.027 A 
ATOM      4  C4  DEN d   1      -2.419  -0.454   1.288  0.00  0.00     0.027 A 
ATOM      5  C5  DEN d   1      -2.376  -0.788   2.623  0.00  0.00    -0.003 A 
ATOM      6  C6  DEN d   1      -1.257  -0.595   3.389  0.00  0.00     0.001 A 
ATOM      7  C7  DEN d   1      -0.148  -0.011   2.835  0.00  0.00     0.017 A 
ATOM      8  C8  DEN d   1      -0.181   0.321   1.487  0.00  0.00    -0.094 A 
ATOM      9  C9  DEN d   1      -1.326   0.130   0.733  0.00  0.00    -0.072 A 
ENDROOT
TORSDOF 0
ENDMDL
