MODEL 1
REMARK minimizedAffinity -6.32481384
REMARK minimizedRMSD -1
REMARK  0 active torsions:
REMARK  status: ('A' for Active; 'I' for Inactive)
ROOT
ATOM      1  C1  DEN d   1      -1.123   0.742  -0.882  0.00  0.00     0.130 A 
ATOM      2  C2  DEN d   1      -2.524   0.459  -0.585  0.00  0.00    -0.031 A 
ATOM      3  C3  DEN d   1      -2.592  -0.155   0.756  0.00  0.00     0.027 A 
ATOM      4  C4  DEN d   1      -0.673  -0.687   2.396  0.00  0.00     0.027 A 
ATOM      5  C5  DEN d   1       0.691  -0.637   2.581  0.00  0.00    -0.003 A 
ATOM      6  C6  DEN d   1       1.542  -0.160   1.620  0.00  0.00     0.001 A 
ATOM      7  C7  DEN d   1       1.034   0.329   0.446  0.00  0.00     0.017 A 
ATOM      8  C8  DEN d   1      -0.340   0.276   0.248  0.00  0.00    -0.094 A 
ATOM      9  C9  DEN d   1      -1.185  -0.199   1.237  0.00  0.00    -0.072 A 
ENDROOT
TORSDOF 0
ENDMDL
