MODEL 1
REMARK minimizedAffinity -5.40237808
REMARK minimizedRMSD -1
REMARK  0 active torsions:
REMARK  status: ('A' for Active; 'I' for Inactive)
ROOT
ATOM      1  C1  DEN d   1      -1.085  -0.550   3.310  0.00  0.00     0.130 A 
ATOM      2  C2  DEN d   1      -2.446  -0.667   2.792  0.00  0.00    -0.031 A 
ATOM      3  C3  DEN d   1      -2.413  -0.359   1.348  0.00  0.00     0.027 A 
ATOM      4  C4  DEN d   1      -0.397   0.280  -0.129  0.00  0.00     0.027 A 
ATOM      5  C5  DEN d   1       0.960   0.517  -0.135  0.00  0.00    -0.003 A 
ATOM      6  C6  DEN d   1       1.718   0.449   1.003  0.00  0.00     0.001 A 
ATOM      7  C7  DEN d   1       1.132   0.092   2.189  0.00  0.00     0.017 A 
ATOM      8  C8  DEN d   1      -0.237  -0.142   2.205  0.00  0.00    -0.094 A 
ATOM      9  C9  DEN d   1      -0.984  -0.080   1.041  0.00  0.00    -0.072 A 
ENDROOT
TORSDOF 0
ENDMDL
