MODEL 1
REMARK minimizedAffinity -3.72472835
REMARK minimizedRMSD -1
REMARK  0 active torsions:
REMARK  status: ('A' for Active; 'I' for Inactive)
ROOT
ATOM      1  C1  DEN d   1      -2.435   0.128   0.772  0.00  0.00     0.130 A 
ATOM      2  C2  DEN d   1      -2.410   0.574  -0.619  0.00  0.00    -0.031 A 
ATOM      3  C3  DEN d   1      -1.000   0.781  -1.007  0.00  0.00     0.027 A 
ATOM      4  C4  DEN d   1       1.135   0.450   0.401  0.00  0.00     0.027 A 
ATOM      5  C5  DEN d   1       1.619   0.093   1.640  0.00  0.00    -0.003 A 
ATOM      6  C6  DEN d   1       0.791  -0.242   2.678  0.00  0.00     0.001 A 
ATOM      7  C7  DEN d   1      -0.565  -0.270   2.483  0.00  0.00     0.017 A 
ATOM      8  C8  DEN d   1      -1.060   0.095   1.238  0.00  0.00    -0.094 A 
ATOM      9  C9  DEN d   1      -0.206   0.419   0.198  0.00  0.00    -0.072 A 
ENDROOT
TORSDOF 0
ENDMDL
