MODEL 1
REMARK minimizedAffinity 5.98957777
REMARK minimizedRMSD -1
REMARK  1 active torsions:
REMARK  status: ('A' for Active; 'I' for Inactive)
REMARK    1  A    between atoms: N_2  and  C1_3 
ROOT
ATOM      1  C1  UNL d   1      -3.554   4.611   3.564  0.00  0.00     0.143 A 
ATOM      2  C2  UNL d   1      -2.289   4.716   4.151  0.00  0.00    -0.057 A 
ATOM      3  C3  UNL d   1      -2.106   5.390   5.365  0.00  0.00     0.033 A 
ATOM      4  C4  UNL d   1      -3.184   5.997   6.000  0.00  0.00    -0.042 A 
ATOM      5  C5  UNL d   1      -4.446   5.927   5.422  0.00  0.00     0.033 A 
ATOM      6  C6  UNL d   1      -4.624   5.247   4.213  0.00  0.00    -0.057 A 
ENDROOT
BRANCH   1   7
ATOM      7  N   UNL d   1      -3.784   4.039   2.310  0.00  0.00    -0.732 N 
ATOM      8  C   UNL d   1      -4.890   4.484   1.489  0.00  0.00     0.284 C 
ATOM      9  H3  UNL d   1      -2.923   3.876   1.794  0.00  0.00     0.395 HD
ENDBRANCH   1   7
TORSDOF 1
ENDMDL
