MODEL 1
REMARK minimizedAffinity 8.76076984
REMARK minimizedRMSD -1
REMARK  1 active torsions:
REMARK  status: ('A' for Active; 'I' for Inactive)
REMARK    1  A    between atoms: N_2  and  C1_3 
ROOT
ATOM      1  C1  UNL d   1      -3.628   4.840   3.720  0.00  0.00     0.143 A 
ATOM      2  C2  UNL d   1      -3.404   4.010   2.617  0.00  0.00    -0.057 A 
ATOM      3  C3  UNL d   1      -4.355   3.887   1.596  0.00  0.00     0.033 A 
ATOM      4  C4  UNL d   1      -5.563   4.572   1.676  0.00  0.00    -0.042 A 
ATOM      5  C5  UNL d   1      -5.818   5.383   2.776  0.00  0.00     0.033 A 
ATOM      6  C6  UNL d   1      -4.862   5.507   3.789  0.00  0.00    -0.057 A 
ENDROOT
BRANCH   1   7
ATOM      7  N   UNL d   1      -2.765   4.928   4.815  0.00  0.00    -0.732 N 
ATOM      8  C   UNL d   1      -3.150   5.665   6.000  0.00  0.00     0.284 C 
ATOM      9  H3  UNL d   1      -2.291   4.049   5.008  0.00  0.00     0.395 HD
ENDBRANCH   1   7
TORSDOF 1
ENDMDL
