MODEL 1
REMARK minimizedAffinity 5.43542814
REMARK minimizedRMSD -1
REMARK  1 active torsions:
REMARK  status: ('A' for Active; 'I' for Inactive)
REMARK    1  A    between atoms: N_2  and  C1_3 
ROOT
ATOM      1  C1  UNL d   1      -3.704   4.652   4.108  0.00  0.00     0.143 A 
ATOM      2  C2  UNL d   1      -2.404   4.145   3.996  0.00  0.00    -0.057 A 
ATOM      3  C3  UNL d   1      -1.394   4.535   4.884  0.00  0.00     0.033 A 
ATOM      4  C4  UNL d   1      -1.660   5.464   5.885  0.00  0.00    -0.042 A 
ATOM      5  C5  UNL d   1      -2.938   5.999   5.999  0.00  0.00     0.033 A 
ATOM      6  C6  UNL d   1      -3.944   5.601   5.113  0.00  0.00    -0.057 A 
ENDROOT
BRANCH   1   7
ATOM      7  N   UNL d   1      -4.726   4.378   3.196  0.00  0.00    -0.732 N 
ATOM      8  C   UNL d   1      -4.423   3.826   1.893  0.00  0.00     0.284 C 
ATOM      9  H3  UNL d   1      -5.544   3.969   3.641  0.00  0.00     0.395 HD
ENDBRANCH   1   7
TORSDOF 1
ENDMDL
