MODEL 1
REMARK minimizedAffinity 7.46294928
REMARK minimizedRMSD -1
REMARK  1 active torsions:
REMARK  status: ('A' for Active; 'I' for Inactive)
REMARK    1  A    between atoms: N_2  and  C1_3 
ROOT
ATOM      1  C1  UNL d   1      -2.755   3.914   3.781  0.00  0.00     0.143 A 
ATOM      2  C2  UNL d   1      -4.070   4.166   3.378  0.00  0.00    -0.057 A 
ATOM      3  C3  UNL d   1      -4.817   5.206   3.944  0.00  0.00     0.033 A 
ATOM      4  C4  UNL d   1      -4.268   5.998   4.948  0.00  0.00    -0.042 A 
ATOM      5  C5  UNL d   1      -2.971   5.750   5.382  0.00  0.00     0.033 A 
ATOM      6  C6  UNL d   1      -2.228   4.713   4.808  0.00  0.00    -0.057 A 
ENDROOT
BRANCH   1   7
ATOM      7  N   UNL d   1      -1.995   2.833   3.327  0.00  0.00    -0.732 N 
ATOM      8  C   UNL d   1      -2.637   1.608   2.901  0.00  0.00     0.284 C 
ATOM      9  H3  UNL d   1      -1.221   3.124   2.734  0.00  0.00     0.395 HD
ENDBRANCH   1   7
TORSDOF 1
ENDMDL
