MODEL 1
REMARK minimizedAffinity 5.66272306
REMARK minimizedRMSD -1
REMARK  1 active torsions:
REMARK  status: ('A' for Active; 'I' for Inactive)
REMARK    1  A    between atoms: N_2  and  C1_3 
ROOT
ATOM      1  C1  UNL d   1       4.874  -3.211   5.194  0.00  0.00     0.143 A 
ATOM      2  C2  UNL d   1       3.751  -3.989   4.891  0.00  0.00    -0.057 A 
ATOM      3  C3  UNL d   1       3.736  -5.368   5.136  0.00  0.00     0.033 A 
ATOM      4  C4  UNL d   1       4.858  -5.999   5.663  0.00  0.00    -0.042 A 
ATOM      5  C5  UNL d   1       5.993  -5.250   5.949  0.00  0.00     0.033 A 
ATOM      6  C6  UNL d   1       6.000  -3.872   5.708  0.00  0.00    -0.057 A 
ENDROOT
BRANCH   1   7
ATOM      7  N   UNL d   1       4.986  -1.854   4.883  0.00  0.00    -0.732 N 
ATOM      8  C   UNL d   1       5.951  -1.018   5.565  0.00  0.00     0.284 C 
ATOM      9  H3  UNL d   1       4.917  -1.678   3.883  0.00  0.00     0.395 HD
ENDBRANCH   1   7
TORSDOF 1
ENDMDL
