MODEL 1
REMARK minimizedAffinity -0.598450601
REMARK minimizedRMSD -1
REMARK  1 active torsions:
REMARK  status: ('A' for Active; 'I' for Inactive)
REMARK    1  A    between atoms: N_2  and  C1_3 
ROOT
ATOM      1  C1  UNL d   1       3.818  -5.903   3.185  0.00  0.00     0.143 A 
ATOM      2  C2  UNL d   1       3.225  -5.926   4.451  0.00  0.00    -0.057 A 
ATOM      3  C3  UNL d   1       4.001  -5.957   5.616  0.00  0.00     0.033 A 
ATOM      4  C4  UNL d   1       5.389  -5.995   5.533  0.00  0.00    -0.042 A 
ATOM      5  C5  UNL d   1       6.000  -5.999   4.284  0.00  0.00     0.033 A 
ATOM      6  C6  UNL d   1       5.219  -5.961   3.125  0.00  0.00    -0.057 A 
ENDROOT
BRANCH   1   7
ATOM      7  N   UNL d   1       3.100  -5.971   1.988  0.00  0.00    -0.732 N 
ATOM      8  C   UNL d   1       1.860  -5.242   1.830  0.00  0.00     0.284 C 
ATOM      9  H3  UNL d   1       3.705  -5.946   1.170  0.00  0.00     0.395 HD
ENDBRANCH   1   7
TORSDOF 1
ENDMDL
