MODEL 1
REMARK minimizedAffinity -4.24866915
REMARK minimizedRMSD -1
REMARK  1 active torsions:
REMARK  status: ('A' for Active; 'I' for Inactive)
REMARK    1  A    between atoms: N_2  and  C1_3 
ROOT
ATOM      1  C1  UNL d   1       5.228  -2.031   5.329  0.00  0.00     0.143 A 
ATOM      2  C2  UNL d   1       5.999  -2.988   5.999  0.00  0.00    -0.057 A 
ATOM      3  C3  UNL d   1       5.648  -4.343   5.983  0.00  0.00     0.033 A 
ATOM      4  C4  UNL d   1       4.501  -4.763   5.320  0.00  0.00    -0.042 A 
ATOM      5  C5  UNL d   1       3.706  -3.827   4.668  0.00  0.00     0.033 A 
ATOM      6  C6  UNL d   1       4.065  -2.476   4.682  0.00  0.00    -0.057 A 
ENDROOT
BRANCH   1   7
ATOM      7  N   UNL d   1       5.470  -0.657   5.389  0.00  0.00    -0.732 N 
ATOM      8  C   UNL d   1       6.000   0.050   4.243  0.00  0.00     0.284 C 
ATOM      9  H3  UNL d   1       4.736  -0.155   5.884  0.00  0.00     0.395 HD
ENDBRANCH   1   7
TORSDOF 1
ENDMDL
