MODEL 1
REMARK minimizedAffinity 11.9055033
REMARK minimizedRMSD -1
REMARK  1 active torsions:
REMARK  status: ('A' for Active; 'I' for Inactive)
REMARK    1  A    between atoms: N_2  and  C1_3 
ROOT
ATOM      1  C1  UNL d   1      -3.919  -2.084   1.252  0.00  0.00     0.143 A 
ATOM      2  C2  UNL d   1      -5.296  -2.324   1.318  0.00  0.00    -0.057 A 
ATOM      3  C3  UNL d   1      -5.999  -2.829   0.218  0.00  0.00     0.033 A 
ATOM      4  C4  UNL d   1      -5.340  -3.077  -0.982  0.00  0.00    -0.042 A 
ATOM      5  C5  UNL d   1      -3.977  -2.822  -1.079  0.00  0.00     0.033 A 
ATOM      6  C6  UNL d   1      -3.279  -2.324   0.026  0.00  0.00    -0.057 A 
ENDROOT
BRANCH   1   7
ATOM      7  N   UNL d   1      -3.183  -1.490   2.280  0.00  0.00    -0.732 N 
ATOM      8  C   UNL d   1      -3.669  -0.298   2.941  0.00  0.00     0.284 C 
ATOM      9  H3  UNL d   1      -2.771  -2.175   2.908  0.00  0.00     0.395 HD
ENDBRANCH   1   7
TORSDOF 1
ENDMDL
