MODEL 1
REMARK minimizedAffinity 5.12657738
REMARK minimizedRMSD -1
REMARK  1 active torsions:
REMARK  status: ('A' for Active; 'I' for Inactive)
REMARK    1  A    between atoms: N_2  and  C1_3 
ROOT
ATOM      1  C1  UNL d   1       1.931  -1.424  -2.822  0.00  0.00     0.143 A 
ATOM      2  C2  UNL d   1       1.254  -0.697  -3.807  0.00  0.00    -0.057 A 
ATOM      3  C3  UNL d   1       1.103   0.692  -3.708  0.00  0.00     0.033 A 
ATOM      4  C4  UNL d   1       1.603   1.376  -2.605  0.00  0.00    -0.042 A 
ATOM      5  C5  UNL d   1       2.258   0.670  -1.602  0.00  0.00     0.033 A 
ATOM      6  C6  UNL d   1       2.412  -0.716  -1.710  0.00  0.00    -0.057 A 
ENDROOT
BRANCH   1   7
ATOM      7  N   UNL d   1       2.029  -2.818  -2.814  0.00  0.00    -0.732 N 
ATOM      8  C   UNL d   1       1.378  -3.608  -3.837  0.00  0.00     0.284 C 
ATOM      9  H3  UNL d   1       2.962  -3.141  -2.570  0.00  0.00     0.395 HD
ENDBRANCH   1   7
TORSDOF 1
ENDMDL
