MODEL 1
REMARK minimizedAffinity 9.83972073
REMARK minimizedRMSD -1
REMARK  1 active torsions:
REMARK  status: ('A' for Active; 'I' for Inactive)
REMARK    1  A    between atoms: N_2  and  C1_3 
ROOT
ATOM      1  C1  UNL d   1       2.573   2.392  -2.800  0.00  0.00     0.143 A 
ATOM      2  C2  UNL d   1       2.543   1.375  -1.839  0.00  0.00    -0.057 A 
ATOM      3  C3  UNL d   1       1.727   0.249  -1.999  0.00  0.00     0.033 A 
ATOM      4  C4  UNL d   1       0.902   0.132  -3.113  0.00  0.00    -0.042 A 
ATOM      5  C5  UNL d   1       0.897   1.142  -4.068  0.00  0.00     0.033 A 
ATOM      6  C6  UNL d   1       1.719   2.262  -3.906  0.00  0.00    -0.057 A 
ENDROOT
BRANCH   1   7
ATOM      7  N   UNL d   1       3.288   3.582  -2.651  0.00  0.00    -0.732 N 
ATOM      8  C   UNL d   1       3.196   4.627  -3.647  0.00  0.00     0.284 C 
ATOM      9  H3  UNL d   1       3.283   3.921  -1.691  0.00  0.00     0.395 HD
ENDBRANCH   1   7
TORSDOF 1
ENDMDL
