MODEL 1
REMARK minimizedAffinity 13.0846663
REMARK minimizedRMSD -1
REMARK  1 active torsions:
REMARK  status: ('A' for Active; 'I' for Inactive)
REMARK    1  A    between atoms: N_2  and  C1_3 
ROOT
ATOM      1  C1  UNL d   1       5.005   4.581   1.890  0.00  0.00     0.143 A 
ATOM      2  C2  UNL d   1       5.238   4.894   0.547  0.00  0.00    -0.057 A 
ATOM      3  C3  UNL d   1       4.222   4.786  -0.411  0.00  0.00     0.033 A 
ATOM      4  C4  UNL d   1       2.959   4.333  -0.045  0.00  0.00    -0.042 A 
ATOM      5  C5  UNL d   1       2.712   3.992   1.280  0.00  0.00     0.033 A 
ATOM      6  C6  UNL d   1       3.728   4.109   2.233  0.00  0.00    -0.057 A 
ENDROOT
BRANCH   1   7
ATOM      7  N   UNL d   1       6.000   4.574   2.871  0.00  0.00    -0.732 N 
ATOM      8  C   UNL d   1       6.000   5.562   3.928  0.00  0.00     0.284 C 
ATOM      9  H3  UNL d   1       6.233   3.633   3.181  0.00  0.00     0.395 HD
ENDBRANCH   1   7
TORSDOF 1
ENDMDL
