MODEL 1
REMARK minimizedAffinity 1.45730996
REMARK minimizedRMSD -1
REMARK  1 active torsions:
REMARK  status: ('A' for Active; 'I' for Inactive)
REMARK    1  A    between atoms: N_2  and  C1_3 
ROOT
ATOM      1  C1  UNL d   1      -3.893   3.010   4.185  0.00  0.00     0.143 A 
ATOM      2  C2  UNL d   1      -3.040   2.042   3.643  0.00  0.00    -0.057 A 
ATOM      3  C3  UNL d   1      -3.526   0.793   3.235  0.00  0.00     0.033 A 
ATOM      4  C4  UNL d   1      -4.872   0.480   3.390  0.00  0.00    -0.042 A 
ATOM      5  C5  UNL d   1      -5.733   1.418   3.949  0.00  0.00     0.033 A 
ATOM      6  C6  UNL d   1      -5.243   2.665   4.348  0.00  0.00    -0.057 A 
ENDROOT
BRANCH   1   7
ATOM      7  N   UNL d   1      -3.453   4.232   4.700  0.00  0.00    -0.732 N 
ATOM      8  C   UNL d   1      -4.176   4.883   5.771  0.00  0.00     0.284 C 
ATOM      9  H3  UNL d   1      -2.441   4.272   4.796  0.00  0.00     0.395 HD
ENDBRANCH   1   7
TORSDOF 1
ENDMDL
