MODEL 1
REMARK minimizedAffinity -0.324053288
REMARK minimizedRMSD -1
REMARK  0 active torsions:
REMARK  status: ('A' for Active; 'I' for Inactive)
ROOT
ATOM      1  C2' OXE d   1       1.693   4.503   4.868  0.00  0.00     0.078 C 
ATOM      2  C1' OXE d   1       4.124   5.784   5.442  0.00  0.00     0.078 C 
ATOM      3  C1  OXE d   1       4.083   4.279   5.532  0.00  0.00    -0.078 A 
ATOM      4  C2  OXE d   1       2.878   3.664   5.295  0.00  0.00    -0.078 A 
ATOM      5  C3  OXE d   1       2.798   2.274   5.310  0.00  0.00     0.003 A 
ATOM      6  C4  OXE d   1       3.896   1.506   5.715  0.00  0.00    -0.002 A 
ATOM      7  C5  OXE d   1       5.123   2.115   6.000  0.00  0.00    -0.002 A 
ATOM      8  C6  OXE d   1       5.244   3.494   5.872  0.00  0.00     0.003 A 
ENDROOT
TORSDOF 0
ENDMDL
