MODEL 1
REMARK minimizedAffinity 0.117065139
REMARK minimizedRMSD -1
REMARK  0 active torsions:
REMARK  status: ('A' for Active; 'I' for Inactive)
ROOT
ATOM      1  C2' OXE d   1       3.374   2.161   4.938  0.00  0.00     0.078 C 
ATOM      2  C1' OXE d   1       5.995   2.553   4.012  0.00  0.00     0.078 C 
ATOM      3  C1  OXE d   1       5.320   3.700   4.721  0.00  0.00    -0.078 A 
ATOM      4  C2  OXE d   1       4.021   3.515   5.129  0.00  0.00    -0.078 A 
ATOM      5  C3  OXE d   1       3.371   4.523   5.836  0.00  0.00     0.003 A 
ATOM      6  C4  OXE d   1       3.973   5.776   6.000  0.00  0.00    -0.002 A 
ATOM      7  C5  OXE d   1       5.281   5.999   5.557  0.00  0.00    -0.002 A 
ATOM      8  C6  OXE d   1       5.982   4.960   4.954  0.00  0.00     0.003 A 
ENDROOT
TORSDOF 0
ENDMDL
