MODEL 1
REMARK minimizedAffinity -4.67124367
REMARK minimizedRMSD -1
REMARK  0 active torsions:
REMARK  status: ('A' for Active; 'I' for Inactive)
ROOT
ATOM      1  C2' OXE d   1       4.131   5.395   4.105  0.00  0.00     0.078 C 
ATOM      2  C1' OXE d   1       5.778   4.140   6.000  0.00  0.00     0.078 C 
ATOM      3  C1  OXE d   1       4.554   3.396   5.529  0.00  0.00    -0.078 A 
ATOM      4  C2  OXE d   1       3.728   4.037   4.637  0.00  0.00    -0.078 A 
ATOM      5  C3  OXE d   1       2.615   3.374   4.129  0.00  0.00     0.003 A 
ATOM      6  C4  OXE d   1       2.244   2.122   4.634  0.00  0.00    -0.002 A 
ATOM      7  C5  OXE d   1       3.049   1.468   5.573  0.00  0.00    -0.002 A 
ATOM      8  C6  OXE d   1       4.227   2.072   5.998  0.00  0.00     0.003 A 
ENDROOT
TORSDOF 0
ENDMDL
