MODEL 1
REMARK minimizedAffinity -3.72361827
REMARK minimizedRMSD -1
REMARK  0 active torsions:
REMARK  status: ('A' for Active; 'I' for Inactive)
ROOT
ATOM      1  C2' OXE d   1       4.128   5.898   4.118  0.00  0.00     0.078 C 
ATOM      2  C1' OXE d   1       5.998   4.974   5.997  0.00  0.00     0.078 C 
ATOM      3  C1  OXE d   1       4.933   4.012   5.533  0.00  0.00    -0.078 A 
ATOM      4  C2  OXE d   1       3.994   4.487   4.649  0.00  0.00    -0.078 A 
ATOM      5  C3  OXE d   1       3.023   3.625   4.147  0.00  0.00     0.003 A 
ATOM      6  C4  OXE d   1       2.900   2.325   4.651  0.00  0.00    -0.002 A 
ATOM      7  C5  OXE d   1       3.822   1.834   5.581  0.00  0.00    -0.002 A 
ATOM      8  C6  OXE d   1       4.868   2.649   6.000  0.00  0.00     0.003 A 
ENDROOT
TORSDOF 0
ENDMDL
