MODEL 1
REMARK minimizedAffinity -0.758819342
REMARK minimizedRMSD -1
REMARK  0 active torsions:
REMARK  status: ('A' for Active; 'I' for Inactive)
ROOT
ATOM      1  C2' OXE d   1       2.323  -2.399  -0.139  0.00  0.00     0.078 C 
ATOM      2  C1' OXE d   1       2.378  -0.721   2.111  0.00  0.00     0.078 C 
ATOM      3  C1  OXE d   1       2.971  -0.196   0.827  0.00  0.00    -0.078 A 
ATOM      4  C2  OXE d   1       2.982  -1.041  -0.256  0.00  0.00    -0.078 A 
ATOM      5  C3  OXE d   1       3.468  -0.588  -1.479  0.00  0.00     0.003 A 
ATOM      6  C4  OXE d   1       4.084   0.665  -1.576  0.00  0.00    -0.002 A 
ATOM      7  C5  OXE d   1       4.120   1.527  -0.475  0.00  0.00    -0.002 A 
ATOM      8  C6  OXE d   1       3.531   1.129   0.720  0.00  0.00     0.003 A 
ENDROOT
TORSDOF 0
ENDMDL
