MODEL 1
REMARK minimizedAffinity -4.84061623
REMARK minimizedRMSD -1
REMARK  0 active torsions:
REMARK  status: ('A' for Active; 'I' for Inactive)
ROOT
ATOM      1  C2' OXE d   1       4.216   2.566   5.353  0.00  0.00     0.078 C 
ATOM      2  C1' OXE d   1       5.199   5.185   5.126  0.00  0.00     0.078 C 
ATOM      3  C1  OXE d   1       3.768   4.933   4.722  0.00  0.00    -0.078 A 
ATOM      4  C2  OXE d   1       3.309   3.640   4.792  0.00  0.00    -0.078 A 
ATOM      5  C3  OXE d   1       1.981   3.361   4.484  0.00  0.00     0.003 A 
ATOM      6  C4  OXE d   1       1.152   4.359   3.957  0.00  0.00    -0.002 A 
ATOM      7  C5  OXE d   1       1.611   5.675   3.839  0.00  0.00    -0.002 A 
ATOM      8  C6  OXE d   1       2.900   5.987   4.256  0.00  0.00     0.003 A 
ENDROOT
TORSDOF 0
ENDMDL
