MODEL 1
REMARK minimizedAffinity -3.35193229
REMARK minimizedRMSD -1
REMARK  0 active torsions:
REMARK  status: ('A' for Active; 'I' for Inactive)
ROOT
ATOM      1  C2' OXE d   1       1.985   2.345   5.999  0.00  0.00     0.078 C 
ATOM      2  C1' OXE d   1       0.712   4.848   6.000  0.00  0.00     0.078 C 
ATOM      3  C1  OXE d   1       2.190   4.810   5.701  0.00  0.00    -0.078 A 
ATOM      4  C2  OXE d   1       2.814   3.587   5.748  0.00  0.00    -0.078 A 
ATOM      5  C3  OXE d   1       4.165   3.489   5.427  0.00  0.00     0.003 A 
ATOM      6  C4  OXE d   1       4.926   4.643   5.206  0.00  0.00    -0.002 A 
ATOM      7  C5  OXE d   1       4.318   5.902   5.192  0.00  0.00    -0.002 A 
ATOM      8  C6  OXE d   1       2.946   5.999   5.395  0.00  0.00     0.003 A 
ENDROOT
TORSDOF 0
ENDMDL
