MODEL 1
REMARK minimizedAffinity 2.65356421
REMARK minimizedRMSD -1
REMARK  0 active torsions:
REMARK  status: ('A' for Active; 'I' for Inactive)
ROOT
ATOM      1  C2' OXE d   1       5.052   5.245   5.997  0.00  0.00     0.078 C 
ATOM      2  C1' OXE d   1       4.828   5.320   3.200  0.00  0.00     0.078 C 
ATOM      3  C1  OXE d   1       4.280   4.112   3.918  0.00  0.00    -0.078 A 
ATOM      4  C2  OXE d   1       4.435   4.062   5.282  0.00  0.00    -0.078 A 
ATOM      5  C3  OXE d   1       3.899   2.996   5.999  0.00  0.00     0.003 A 
ATOM      6  C4  OXE d   1       3.339   1.902   5.329  0.00  0.00    -0.002 A 
ATOM      7  C5  OXE d   1       3.207   1.914   3.937  0.00  0.00    -0.002 A 
ATOM      8  C6  OXE d   1       3.632   3.028   3.221  0.00  0.00     0.003 A 
ENDROOT
TORSDOF 0
ENDMDL
