MODEL 1
REMARK minimizedAffinity 3.38334513
REMARK minimizedRMSD -1
REMARK  0 active torsions:
REMARK  status: ('A' for Active; 'I' for Inactive)
ROOT
ATOM      1  C2' OXE d   1       2.247   1.679   5.213  0.00  0.00     0.078 C 
ATOM      2  C1' OXE d   1       1.292   4.199   5.999  0.00  0.00     0.078 C 
ATOM      3  C1  OXE d   1       2.682   4.123   5.420  0.00  0.00    -0.078 A 
ATOM      4  C2  OXE d   1       3.159   2.880   5.081  0.00  0.00    -0.078 A 
ATOM      5  C3  OXE d   1       4.414   2.760   4.492  0.00  0.00     0.003 A 
ATOM      6  C4  OXE d   1       5.255   3.874   4.382  0.00  0.00    -0.002 A 
ATOM      7  C5  OXE d   1       4.804   5.144   4.758  0.00  0.00    -0.002 A 
ATOM      8  C6  OXE d   1       3.507   5.292   5.238  0.00  0.00     0.003 A 
ENDROOT
TORSDOF 0
ENDMDL
