MODEL 1
REMARK minimizedAffinity -5.10117006
REMARK minimizedRMSD -1
REMARK  0 active torsions:
REMARK  status: ('A' for Active; 'I' for Inactive)
ROOT
ATOM      1  C2' OXE d   1       0.812   5.237   3.236  0.00  0.00     0.078 C 
ATOM      2  C1' OXE d   1       0.536   4.811   5.997  0.00  0.00     0.078 C 
ATOM      3  C1  OXE d   1       1.699   4.155   5.297  0.00  0.00    -0.078 A 
ATOM      4  C2  OXE d   1       1.801   4.330   3.938  0.00  0.00    -0.078 A 
ATOM      5  C3  OXE d   1       2.886   3.792   3.252  0.00  0.00     0.003 A 
ATOM      6  C4  OXE d   1       3.789   2.947   3.907  0.00  0.00    -0.002 A 
ATOM      7  C5  OXE d   1       3.682   2.723   5.284  0.00  0.00    -0.002 A 
ATOM      8  C6  OXE d   1       2.670   3.352   6.000  0.00  0.00     0.003 A 
ENDROOT
TORSDOF 0
ENDMDL
