MODEL 1
REMARK minimizedAffinity 4.57312632
REMARK minimizedRMSD -1
REMARK  0 active torsions:
REMARK  status: ('A' for Active; 'I' for Inactive)
ROOT
ATOM      1  C   UNL d   1       1.598   5.522  -1.117  0.00  0.00     0.078 C 
ATOM      2  C1  UNL d   1       1.447   4.050  -0.874  0.00  0.00    -0.077 A 
ATOM      3  C2  UNL d   1       1.502   3.135  -1.932  0.00  0.00    -0.001 A 
ATOM      4  C3  UNL d   1       1.350   1.769  -1.692  0.00  0.00     0.003 A 
ATOM      5  C4  UNL d   1       1.141   1.305  -0.395  0.00  0.00    -0.005 A 
ATOM      6  C5  UNL d   1       1.082   2.208   0.664  0.00  0.00     0.003 A 
ATOM      7  C6  UNL d   1       1.234   3.575   0.426  0.00  0.00    -0.001 A 
ENDROOT
TORSDOF 0
ENDMDL
