MODEL 1
REMARK minimizedAffinity 6.27517176
REMARK minimizedRMSD -1
REMARK  0 active torsions:
REMARK  status: ('A' for Active; 'I' for Inactive)
ROOT
ATOM      1  C   UNL d   1       1.867   4.621  -1.162  0.00  0.00     0.078 C 
ATOM      2  C1  UNL d   1       1.581   3.162  -1.359  0.00  0.00    -0.077 A 
ATOM      3  C2  UNL d   1       2.015   2.210  -0.429  0.00  0.00    -0.001 A 
ATOM      4  C3  UNL d   1       1.751   0.854  -0.630  0.00  0.00     0.003 A 
ATOM      5  C4  UNL d   1       1.053   0.438  -1.762  0.00  0.00    -0.005 A 
ATOM      6  C5  UNL d   1       0.620   1.377  -2.695  0.00  0.00     0.003 A 
ATOM      7  C6  UNL d   1       0.883   2.734  -2.495  0.00  0.00    -0.001 A 
ENDROOT
TORSDOF 0
ENDMDL
