MODEL 1
REMARK minimizedAffinity -2.24380016
REMARK minimizedRMSD -1
REMARK  0 active torsions:
REMARK  status: ('A' for Active; 'I' for Inactive)
ROOT
ATOM      1  C   UNL d   1       1.781   4.095  -1.768  0.00  0.00     0.078 C 
ATOM      2  C1  UNL d   1       1.454   2.839  -1.017  0.00  0.00    -0.077 A 
ATOM      3  C2  UNL d   1       1.219   2.866   0.363  0.00  0.00    -0.001 A 
ATOM      4  C3  UNL d   1       0.925   1.687   1.052  0.00  0.00     0.003 A 
ATOM      5  C4  UNL d   1       0.866   0.474   0.369  0.00  0.00    -0.005 A 
ATOM      6  C5  UNL d   1       1.101   0.438  -1.004  0.00  0.00     0.003 A 
ATOM      7  C6  UNL d   1       1.395   1.615  -1.694  0.00  0.00    -0.001 A 
ENDROOT
TORSDOF 0
ENDMDL
