MODEL 1
REMARK minimizedAffinity 6.17997837
REMARK minimizedRMSD -1
REMARK  0 active torsions:
REMARK  status: ('A' for Active; 'I' for Inactive)
ROOT
ATOM      1  C   UNL d   1       2.165   1.698   1.771  0.00  0.00     0.078 C 
ATOM      2  C1  UNL d   1       1.626   0.912   0.613  0.00  0.00    -0.077 A 
ATOM      3  C2  UNL d   1       1.091   1.556  -0.509  0.00  0.00    -0.001 A 
ATOM      4  C3  UNL d   1       0.584   0.812  -1.576  0.00  0.00     0.003 A 
ATOM      5  C4  UNL d   1       0.606  -0.581  -1.530  0.00  0.00    -0.005 A 
ATOM      6  C5  UNL d   1       1.135  -1.231  -0.416  0.00  0.00     0.003 A 
ATOM      7  C6  UNL d   1       1.642  -0.488   0.651  0.00  0.00    -0.001 A 
ENDROOT
TORSDOF 0
ENDMDL
