MODEL 1
REMARK minimizedAffinity -3.79854774
REMARK minimizedRMSD -1
REMARK  0 active torsions:
REMARK  status: ('A' for Active; 'I' for Inactive)
ROOT
ATOM      1  C   UNL d   1       1.619   4.821  -0.993  0.00  0.00     0.078 C 
ATOM      2  C1  UNL d   1       1.367   3.359  -0.774  0.00  0.00    -0.077 A 
ATOM      3  C2  UNL d   1       1.223   2.838   0.518  0.00  0.00    -0.001 A 
ATOM      4  C3  UNL d   1       0.998   1.474   0.708  0.00  0.00     0.003 A 
ATOM      5  C4  UNL d   1       0.916   0.619  -0.389  0.00  0.00    -0.005 A 
ATOM      6  C5  UNL d   1       1.059   1.128  -1.678  0.00  0.00     0.003 A 
ATOM      7  C6  UNL d   1       1.285   2.492  -1.870  0.00  0.00    -0.001 A 
ENDROOT
TORSDOF 0
ENDMDL
