MODEL 1
REMARK minimizedAffinity -3.470644
REMARK minimizedRMSD -1
REMARK  0 active torsions:
REMARK  status: ('A' for Active; 'I' for Inactive)
ROOT
ATOM      1  C   UNL d   1       1.237   3.687  -1.700  0.00  0.00     0.078 C 
ATOM      2  C1  UNL d   1       1.179   2.347  -1.030  0.00  0.00    -0.077 A 
ATOM      3  C2  UNL d   1       1.144   2.239   0.366  0.00  0.00    -0.001 A 
ATOM      4  C3  UNL d   1       1.100   0.985   0.976  0.00  0.00     0.003 A 
ATOM      5  C4  UNL d   1       1.093  -0.172   0.199  0.00  0.00    -0.005 A 
ATOM      6  C5  UNL d   1       1.131  -0.075  -1.191  0.00  0.00     0.003 A 
ATOM      7  C6  UNL d   1       1.175   1.179  -1.803  0.00  0.00    -0.001 A 
ENDROOT
TORSDOF 0
ENDMDL
