MODEL 1
REMARK minimizedAffinity 1.46971405
REMARK minimizedRMSD -1
REMARK  0 active torsions:
REMARK  status: ('A' for Active; 'I' for Inactive)
ROOT
ATOM      1  C   UNL d   1       1.891   1.727   2.508  0.00  0.00     0.078 C 
ATOM      2  C1  UNL d   1       1.523   1.121   1.187  0.00  0.00    -0.077 A 
ATOM      3  C2  UNL d   1       0.789   1.846   0.241  0.00  0.00    -0.001 A 
ATOM      4  C3  UNL d   1       0.444   1.266  -0.981  0.00  0.00     0.003 A 
ATOM      5  C4  UNL d   1       0.829  -0.042  -1.268  0.00  0.00    -0.005 A 
ATOM      6  C5  UNL d   1       1.557  -0.773  -0.331  0.00  0.00     0.003 A 
ATOM      7  C6  UNL d   1       1.903  -0.194   0.891  0.00  0.00    -0.001 A 
ENDROOT
TORSDOF 0
ENDMDL
