MODEL 1
REMARK minimizedAffinity -1.34893775
REMARK minimizedRMSD -1
REMARK  0 active torsions:
REMARK  status: ('A' for Active; 'I' for Inactive)
ROOT
ATOM      1  C   UNL d   1       1.376   0.239  -0.993  0.00  0.00     0.078 C 
ATOM      2  C1  UNL d   1       0.957  -1.196  -1.102  0.00  0.00    -0.077 A 
ATOM      3  C2  UNL d   1      -0.301  -1.544  -1.612  0.00  0.00    -0.001 A 
ATOM      4  C3  UNL d   1      -0.681  -2.884  -1.699  0.00  0.00     0.003 A 
ATOM      5  C4  UNL d   1       0.189  -3.887  -1.278  0.00  0.00    -0.005 A 
ATOM      6  C5  UNL d   1       1.441  -3.551  -0.767  0.00  0.00     0.003 A 
ATOM      7  C6  UNL d   1       1.824  -2.212  -0.679  0.00  0.00    -0.001 A 
ENDROOT
TORSDOF 0
ENDMDL
