MODEL 1
REMARK minimizedAffinity -0.976035416
REMARK minimizedRMSD -1
REMARK  0 active torsions:
REMARK  status: ('A' for Active; 'I' for Inactive)
ROOT
ATOM      1  C   UNL d   1       1.264   2.930  -2.224  0.00  0.00     0.078 C 
ATOM      2  C1  UNL d   1       1.235   1.822  -1.213  0.00  0.00    -0.077 A 
ATOM      3  C2  UNL d   1       1.188   2.099   0.158  0.00  0.00    -0.001 A 
ATOM      4  C3  UNL d   1       1.172   1.058   1.088  0.00  0.00     0.003 A 
ATOM      5  C4  UNL d   1       1.203  -0.267   0.656  0.00  0.00    -0.005 A 
ATOM      6  C5  UNL d   1       1.251  -0.551  -0.707  0.00  0.00     0.003 A 
ATOM      7  C6  UNL d   1       1.268   0.488  -1.638  0.00  0.00    -0.001 A 
ENDROOT
TORSDOF 0
ENDMDL
