MODEL 1
REMARK minimizedAffinity -6.57172203
REMARK minimizedRMSD -1
REMARK  0 active torsions:
REMARK  status: ('A' for Active; 'I' for Inactive)
ROOT
ATOM      1  C   UNL d   1       1.350   4.413  -0.712  0.00  0.00     0.078 C 
ATOM      2  C1  UNL d   1       1.119   2.945  -0.510  0.00  0.00    -0.077 A 
ATOM      3  C2  UNL d   1       1.114   2.060  -1.595  0.00  0.00    -0.001 A 
ATOM      4  C3  UNL d   1       0.888   0.697  -1.393  0.00  0.00     0.003 A 
ATOM      5  C4  UNL d   1       0.665   0.208  -0.107  0.00  0.00    -0.005 A 
ATOM      6  C5  UNL d   1       0.667   1.082   0.978  0.00  0.00     0.003 A 
ATOM      7  C6  UNL d   1       0.892   2.445   0.778  0.00  0.00    -0.001 A 
ENDROOT
TORSDOF 0
ENDMDL
