MODEL 1
REMARK minimizedAffinity 1.62617397
REMARK minimizedRMSD -1
REMARK  0 active torsions:
REMARK  status: ('A' for Active; 'I' for Inactive)
ROOT
ATOM      1  C   UNL d   1       1.964   5.719  -1.202  0.00  0.00     0.078 C 
ATOM      2  C1  UNL d   1       1.692   4.253  -1.049  0.00  0.00    -0.077 A 
ATOM      3  C2  UNL d   1       1.576   3.668   0.218  0.00  0.00    -0.001 A 
ATOM      4  C3  UNL d   1       1.332   2.300   0.345  0.00  0.00     0.003 A 
ATOM      5  C4  UNL d   1       1.203   1.504  -0.792  0.00  0.00    -0.005 A 
ATOM      6  C5  UNL d   1       1.319   2.076  -2.057  0.00  0.00     0.003 A 
ATOM      7  C6  UNL d   1       1.563   3.444  -2.186  0.00  0.00    -0.001 A 
ENDROOT
TORSDOF 0
ENDMDL
