MODEL 1
REMARK minimizedAffinity 2.34030294
REMARK minimizedRMSD -1
REMARK  0 active torsions:
REMARK  status: ('A' for Active; 'I' for Inactive)
ROOT
ATOM      1  C   UNL d   1       0.340   3.021  -2.494  0.00  0.00     0.078 C 
ATOM      2  C1  UNL d   1       0.782   2.028  -1.460  0.00  0.00    -0.077 A 
ATOM      3  C2  UNL d   1       1.021   2.422  -0.138  0.00  0.00    -0.001 A 
ATOM      4  C3  UNL d   1       1.441   1.489   0.811  0.00  0.00     0.003 A 
ATOM      5  C4  UNL d   1       1.628   0.157   0.448  0.00  0.00    -0.005 A 
ATOM      6  C5  UNL d   1       1.395  -0.244  -0.866  0.00  0.00     0.003 A 
ATOM      7  C6  UNL d   1       0.975   0.688  -1.816  0.00  0.00    -0.001 A 
ENDROOT
TORSDOF 0
ENDMDL
