MODEL 1
REMARK minimizedAffinity -3.25917745
REMARK minimizedRMSD -1
REMARK  0 active torsions:
REMARK  status: ('A' for Active; 'I' for Inactive)
ROOT
ATOM      1  C   UNL d   1       0.923   3.442   1.230  0.00  0.00     0.078 C 
ATOM      2  C1  UNL d   1       1.125   2.369   0.201  0.00  0.00    -0.077 A 
ATOM      3  C2  UNL d   1       0.857   2.608  -1.152  0.00  0.00    -0.001 A 
ATOM      4  C3  UNL d   1       1.040   1.597  -2.097  0.00  0.00     0.003 A 
ATOM      5  C4  UNL d   1       1.489   0.340  -1.699  0.00  0.00    -0.005 A 
ATOM      6  C5  UNL d   1       1.756   0.092  -0.354  0.00  0.00     0.003 A 
ATOM      7  C6  UNL d   1       1.574   1.102   0.593  0.00  0.00    -0.001 A 
ENDROOT
TORSDOF 0
ENDMDL
