MODEL 1
REMARK minimizedAffinity 1.33905697
REMARK minimizedRMSD -1
REMARK  0 active torsions:
REMARK  status: ('A' for Active; 'I' for Inactive)
ROOT
ATOM      1  C   UNL d   1       0.711   3.172  -1.967  0.00  0.00     0.078 C 
ATOM      2  C1  UNL d   1       1.473   2.353  -0.968  0.00  0.00    -0.077 A 
ATOM      3  C2  UNL d   1       1.558   2.747   0.373  0.00  0.00    -0.001 A 
ATOM      4  C3  UNL d   1       2.279   1.980   1.289  0.00  0.00     0.003 A 
ATOM      5  C4  UNL d   1       2.921   0.814   0.875  0.00  0.00    -0.005 A 
ATOM      6  C5  UNL d   1       2.843   0.415  -0.458  0.00  0.00     0.003 A 
ATOM      7  C6  UNL d   1       2.122   1.181  -1.376  0.00  0.00    -0.001 A 
ENDROOT
TORSDOF 0
ENDMDL
