MODEL 1
REMARK minimizedAffinity -2.13794112
REMARK minimizedRMSD -1
REMARK  0 active torsions:
REMARK  status: ('A' for Active; 'I' for Inactive)
ROOT
ATOM      1  C   UNL d   1       0.788   3.363   1.358  0.00  0.00     0.078 C 
ATOM      2  C1  UNL d   1       0.928   2.104   0.556  0.00  0.00    -0.077 A 
ATOM      3  C2  UNL d   1       1.490   0.950   1.116  0.00  0.00    -0.001 A 
ATOM      4  C3  UNL d   1       1.623  -0.212   0.354  0.00  0.00     0.003 A 
ATOM      5  C4  UNL d   1       1.196  -0.231  -0.972  0.00  0.00    -0.005 A 
ATOM      6  C5  UNL d   1       0.637   0.912  -1.539  0.00  0.00     0.003 A 
ATOM      7  C6  UNL d   1       0.504   2.075  -0.779  0.00  0.00    -0.001 A 
ENDROOT
TORSDOF 0
ENDMDL
