MODEL 1
REMARK minimizedAffinity 2.35245156
REMARK minimizedRMSD -1
REMARK  0 active torsions:
REMARK  status: ('A' for Active; 'I' for Inactive)
ROOT
ATOM      1  C   UNL d   1       1.461   4.276  -0.552  0.00  0.00     0.078 C 
ATOM      2  C1  UNL d   1       1.188   2.835  -0.865  0.00  0.00    -0.077 A 
ATOM      3  C2  UNL d   1       1.746   1.811  -0.091  0.00  0.00    -0.001 A 
ATOM      4  C3  UNL d   1       1.491   0.474  -0.400  0.00  0.00     0.003 A 
ATOM      5  C4  UNL d   1       0.678   0.149  -1.484  0.00  0.00    -0.005 A 
ATOM      6  C5  UNL d   1       0.120   1.162  -2.261  0.00  0.00     0.003 A 
ATOM      7  C6  UNL d   1       0.374   2.499  -1.954  0.00  0.00    -0.001 A 
ENDROOT
TORSDOF 0
ENDMDL
