MODEL 1
REMARK minimizedAffinity 4.30765104
REMARK minimizedRMSD -1
REMARK  0 active torsions:
REMARK  status: ('A' for Active; 'I' for Inactive)
ROOT
ATOM      1  C   UNL d   1       0.984   4.662  -0.080  0.00  0.00     0.078 C 
ATOM      2  C1  UNL d   1       0.888   3.364  -0.825  0.00  0.00    -0.077 A 
ATOM      3  C2  UNL d   1       1.614   2.240  -0.412  0.00  0.00    -0.001 A 
ATOM      4  C3  UNL d   1       1.523   1.041  -1.121  0.00  0.00     0.003 A 
ATOM      5  C4  UNL d   1       0.707   0.954  -2.247  0.00  0.00    -0.005 A 
ATOM      6  C5  UNL d   1      -0.018   2.068  -2.666  0.00  0.00     0.003 A 
ATOM      7  C6  UNL d   1       0.072   3.268  -1.959  0.00  0.00    -0.001 A 
ENDROOT
TORSDOF 0
ENDMDL
