MODEL 1
REMARK minimizedAffinity -2.96893978
REMARK minimizedRMSD -1
REMARK  1 active torsions:
REMARK  status: ('A' for Active; 'I' for Inactive)
REMARK    1  A    between atoms: C3_4  and  O_7 
ROOT
ATOM      1  C   UNL d   1       3.011   3.374   1.249  0.00  0.00    -0.033 A 
ATOM      2  C1  UNL d   1       3.096   2.159   1.933  0.00  0.00     0.039 A 
ATOM      3  C2  UNL d   1       2.235   1.110   1.605  0.00  0.00    -0.080 A 
ATOM      4  C3  UNL d   1       1.296   1.288   0.592  0.00  0.00     0.150 A 
ATOM      5  C4  UNL d   1       1.209   2.494  -0.095  0.00  0.00    -0.007 A 
ATOM      6  C5  UNL d   1       2.069   3.541   0.234  0.00  0.00     0.039 A 
ENDROOT
BRANCH   4   7
ATOM      7  O   UNL d   1       0.431   0.295   0.240  0.00  0.00    -0.526 OA
ATOM      8  H5  UNL d   1       0.588  -0.470   0.819  0.00  0.00     0.418 HD
ENDBRANCH   4   7
TORSDOF 1
ENDMDL
