MODEL 1
REMARK minimizedAffinity -4.54081535
REMARK minimizedRMSD -1
REMARK  1 active torsions:
REMARK  status: ('A' for Active; 'I' for Inactive)
REMARK    1  A    between atoms: C3_4  and  O_7 
ROOT
ATOM      1  C   UNL d   1      -2.696  -1.635  -0.307  0.00  0.00    -0.033 A 
ATOM      2  C1  UNL d   1      -2.281  -0.574  -1.115  0.00  0.00     0.039 A 
ATOM      3  C2  UNL d   1      -1.050   0.042  -0.883  0.00  0.00    -0.080 A 
ATOM      4  C3  UNL d   1      -0.244  -0.413   0.157  0.00  0.00     0.150 A 
ATOM      5  C4  UNL d   1      -0.649  -1.472   0.963  0.00  0.00    -0.007 A 
ATOM      6  C5  UNL d   1      -1.879  -2.085   0.730  0.00  0.00     0.039 A 
ENDROOT
BRANCH   4   7
ATOM      7  O   UNL d   1       0.964   0.160   0.425  0.00  0.00    -0.526 OA
ATOM      8  H5  UNL d   1       1.099   0.897  -0.194  0.00  0.00     0.418 HD
ENDBRANCH   4   7
TORSDOF 1
ENDMDL
