MODEL 1
REMARK minimizedAffinity -4.30709839
REMARK minimizedRMSD -1
REMARK  1 active torsions:
REMARK  status: ('A' for Active; 'I' for Inactive)
REMARK    1  A    between atoms: C3_4  and  O_7 
ROOT
ATOM      1  C   UNL d   1      -1.190   0.463  -1.511  0.00  0.00    -0.033 A 
ATOM      2  C1  UNL d   1      -2.234  -0.457  -1.408  0.00  0.00     0.039 A 
ATOM      3  C2  UNL d   1      -2.165  -1.491  -0.472  0.00  0.00    -0.080 A 
ATOM      4  C3  UNL d   1      -1.049  -1.593   0.353  0.00  0.00     0.150 A 
ATOM      5  C4  UNL d   1      -0.006  -0.677   0.258  0.00  0.00    -0.007 A 
ATOM      6  C5  UNL d   1      -0.077   0.355  -0.677  0.00  0.00     0.039 A 
ENDROOT
BRANCH   4   7
ATOM      7  O   UNL d   1      -0.934  -2.588   1.278  0.00  0.00    -0.526 OA
ATOM      8  H5  UNL d   1      -1.716  -3.162   1.211  0.00  0.00     0.418 HD
ENDBRANCH   4   7
TORSDOF 1
ENDMDL
