MODEL 1
REMARK minimizedAffinity -4.1821785
REMARK minimizedRMSD -1
REMARK  1 active torsions:
REMARK  status: ('A' for Active; 'I' for Inactive)
REMARK    1  A    between atoms: C3_4  and  O_7 
ROOT
ATOM      1  C   UNL d   1      -0.657   0.620  -1.188  0.00  0.00    -0.033 A 
ATOM      2  C1  UNL d   1      -1.819  -0.152  -1.138  0.00  0.00     0.039 A 
ATOM      3  C2  UNL d   1      -1.901  -1.237  -0.262  0.00  0.00    -0.080 A 
ATOM      4  C3  UNL d   1      -0.817  -1.536   0.558  0.00  0.00     0.150 A 
ATOM      5  C4  UNL d   1       0.342  -0.768   0.517  0.00  0.00    -0.007 A 
ATOM      6  C5  UNL d   1       0.423   0.313  -0.359  0.00  0.00     0.039 A 
ENDROOT
BRANCH   4   7
ATOM      7  O   UNL d   1      -0.849  -2.587   1.426  0.00  0.00    -0.526 OA
ATOM      8  H5  UNL d   1      -1.701  -3.044   1.325  0.00  0.00     0.418 HD
ENDBRANCH   4   7
TORSDOF 1
ENDMDL
