MODEL 1
REMARK minimizedAffinity -3.66752911
REMARK minimizedRMSD -1
REMARK  1 active torsions:
REMARK  status: ('A' for Active; 'I' for Inactive)
REMARK    1  A    between atoms: C3_4  and  O_7 
ROOT
ATOM      1  C   UNL d   1      -1.562  -0.222  -1.420  0.00  0.00    -0.033 A 
ATOM      2  C1  UNL d   1      -2.318  -1.341  -1.068  0.00  0.00     0.039 A 
ATOM      3  C2  UNL d   1      -1.910  -2.158  -0.011  0.00  0.00    -0.080 A 
ATOM      4  C3  UNL d   1      -0.746  -1.843   0.684  0.00  0.00     0.150 A 
ATOM      5  C4  UNL d   1       0.010  -0.728   0.341  0.00  0.00    -0.007 A 
ATOM      6  C5  UNL d   1      -0.398   0.086  -0.715  0.00  0.00     0.039 A 
ENDROOT
BRANCH   4   7
ATOM      7  O   UNL d   1      -0.305  -2.613   1.720  0.00  0.00    -0.526 OA
ATOM      8  H5  UNL d   1      -0.912  -3.365   1.824  0.00  0.00     0.418 HD
ENDBRANCH   4   7
TORSDOF 1
ENDMDL
