MODEL 1
REMARK minimizedAffinity 0.100884236
REMARK minimizedRMSD -1
REMARK  1 active torsions:
REMARK  status: ('A' for Active; 'I' for Inactive)
REMARK    1  A    between atoms: C3_4  and  O_7 
ROOT
ATOM      1  C   UNL d   1      -0.573  -0.073  -1.083  0.00  0.00    -0.033 A 
ATOM      2  C1  UNL d   1       0.540  -0.720  -0.541  0.00  0.00     0.039 A 
ATOM      3  C2  UNL d   1       1.359  -0.056   0.374  0.00  0.00    -0.080 A 
ATOM      4  C3  UNL d   1       1.054   1.253   0.739  0.00  0.00     0.150 A 
ATOM      5  C4  UNL d   1      -0.054   1.902   0.206  0.00  0.00    -0.007 A 
ATOM      6  C5  UNL d   1      -0.870   1.238  -0.708  0.00  0.00     0.039 A 
ENDROOT
BRANCH   4   7
ATOM      7  O   UNL d   1       1.827   1.944   1.625  0.00  0.00    -0.526 OA
ATOM      8  H5  UNL d   1       2.573   1.379   1.888  0.00  0.00     0.418 HD
ENDBRANCH   4   7
TORSDOF 1
ENDMDL
