MODEL 1
REMARK minimizedAffinity -3.05564785
REMARK minimizedRMSD -1
REMARK  1 active torsions:
REMARK  status: ('A' for Active; 'I' for Inactive)
REMARK    1  A    between atoms: C3_4  and  O_7 
ROOT
ATOM      1  C   UNL d   1       2.048   1.058   0.307  0.00  0.00    -0.033 A 
ATOM      2  C1  UNL d   1       0.664   1.228   0.377  0.00  0.00     0.039 A 
ATOM      3  C2  UNL d   1       0.127   2.318   1.066  0.00  0.00    -0.080 A 
ATOM      4  C3  UNL d   1       0.984   3.228   1.678  0.00  0.00     0.150 A 
ATOM      5  C4  UNL d   1       2.364   3.067   1.609  0.00  0.00    -0.007 A 
ATOM      6  C5  UNL d   1       2.898   1.978   0.921  0.00  0.00     0.039 A 
ENDROOT
BRANCH   4   7
ATOM      7  O   UNL d   1       0.507   4.304   2.366  0.00  0.00    -0.526 OA
ATOM      8  H5  UNL d   1      -0.465   4.271   2.354  0.00  0.00     0.418 HD
ENDBRANCH   4   7
TORSDOF 1
ENDMDL
