MODEL 1
REMARK minimizedAffinity -4.1885314
REMARK minimizedRMSD -1
REMARK  1 active torsions:
REMARK  status: ('A' for Active; 'I' for Inactive)
REMARK    1  A    between atoms: C3_4  and  O_7 
ROOT
ATOM      1  C   UNL d   1       0.092  -0.715   1.072  0.00  0.00    -0.033 A 
ATOM      2  C1  UNL d   1      -0.198   0.141   0.008  0.00  0.00     0.039 A 
ATOM      3  C2  UNL d   1      -1.399   0.005  -0.691  0.00  0.00    -0.080 A 
ATOM      4  C3  UNL d   1      -2.300  -0.988  -0.316  0.00  0.00     0.150 A 
ATOM      5  C4  UNL d   1      -2.018  -1.842   0.746  0.00  0.00    -0.007 A 
ATOM      6  C5  UNL d   1      -0.818  -1.705   1.442  0.00  0.00     0.039 A 
ENDROOT
BRANCH   4   7
ATOM      7  O   UNL d   1      -3.482  -1.162  -0.971  0.00  0.00    -0.526 OA
ATOM      8  H5  UNL d   1      -3.528  -0.520  -1.700  0.00  0.00     0.418 HD
ENDBRANCH   4   7
TORSDOF 1
ENDMDL
