MODEL 1
REMARK minimizedAffinity -1.13688695
REMARK minimizedRMSD -1
REMARK  1 active torsions:
REMARK  status: ('A' for Active; 'I' for Inactive)
REMARK    1  A    between atoms: C3_4  and  O_7 
ROOT
ATOM      1  C   UNL d   1      -0.902   1.116  -1.106  0.00  0.00    -0.033 A 
ATOM      2  C1  UNL d   1      -2.184   0.581  -1.237  0.00  0.00     0.039 A 
ATOM      3  C2  UNL d   1      -2.370  -0.637  -1.895  0.00  0.00    -0.080 A 
ATOM      4  C3  UNL d   1      -1.266  -1.308  -2.415  0.00  0.00     0.150 A 
ATOM      5  C4  UNL d   1       0.014  -0.782  -2.285  0.00  0.00    -0.007 A 
ATOM      6  C5  UNL d   1       0.198   0.435  -1.628  0.00  0.00     0.039 A 
ENDROOT
BRANCH   4   7
ATOM      7  O   UNL d   1      -1.399  -2.496  -3.070  0.00  0.00    -0.526 OA
ATOM      8  H5  UNL d   1      -2.343  -2.723  -3.109  0.00  0.00     0.418 HD
ENDBRANCH   4   7
TORSDOF 1
ENDMDL
