MODEL 1
REMARK minimizedAffinity 3.83061862
REMARK minimizedRMSD -1
REMARK  1 active torsions:
REMARK  status: ('A' for Active; 'I' for Inactive)
REMARK    1  A    between atoms: C3_4  and  O_7 
ROOT
ATOM      1  C   UNL d   1      -0.700  -2.829   1.356  0.00  0.00    -0.033 A 
ATOM      2  C1  UNL d   1      -2.045  -3.170   1.206  0.00  0.00     0.039 A 
ATOM      3  C2  UNL d   1      -2.886  -2.373   0.425  0.00  0.00    -0.080 A 
ATOM      4  C3  UNL d   1      -2.368  -1.242  -0.199  0.00  0.00     0.150 A 
ATOM      5  C4  UNL d   1      -1.028  -0.898  -0.057  0.00  0.00    -0.007 A 
ATOM      6  C5  UNL d   1      -0.191  -1.694   0.724  0.00  0.00     0.039 A 
ENDROOT
BRANCH   4   7
ATOM      7  O   UNL d   1      -3.151  -0.431  -0.967  0.00  0.00    -0.526 OA
ATOM      8  H5  UNL d   1      -4.059  -0.776  -0.952  0.00  0.00     0.418 HD
ENDBRANCH   4   7
TORSDOF 1
ENDMDL
