MODEL 1
REMARK minimizedAffinity -3.65102744
REMARK minimizedRMSD -1
REMARK  1 active torsions:
REMARK  status: ('A' for Active; 'I' for Inactive)
REMARK    1  A    between atoms: C3_4  and  O_7 
ROOT
ATOM      1  C   UNL d   1       1.891   0.410  -0.374  0.00  0.00    -0.033 A 
ATOM      2  C1  UNL d   1       2.751   1.501  -0.231  0.00  0.00     0.039 A 
ATOM      3  C2  UNL d   1       2.534   2.435   0.784  0.00  0.00    -0.080 A 
ATOM      4  C3  UNL d   1       1.457   2.266   1.649  0.00  0.00     0.150 A 
ATOM      5  C4  UNL d   1       0.599   1.180   1.516  0.00  0.00    -0.007 A 
ATOM      6  C5  UNL d   1       0.816   0.249   0.501  0.00  0.00     0.039 A 
ENDROOT
BRANCH   4   7
ATOM      7  O   UNL d   1       1.203   3.154   2.652  0.00  0.00    -0.526 OA
ATOM      8  H5  UNL d   1       1.860   3.868   2.605  0.00  0.00     0.418 HD
ENDBRANCH   4   7
TORSDOF 1
ENDMDL
