MODEL 1
REMARK minimizedAffinity -2.77907467
REMARK minimizedRMSD -1
REMARK  1 active torsions:
REMARK  status: ('A' for Active; 'I' for Inactive)
REMARK    1  A    between atoms: C3_4  and  O_7 
ROOT
ATOM      1  C   UNL d   1      -2.314  -3.015   0.133  0.00  0.00    -0.033 A 
ATOM      2  C1  UNL d   1      -1.263  -3.016   1.052  0.00  0.00     0.039 A 
ATOM      3  C2  UNL d   1      -0.352  -1.958   1.076  0.00  0.00    -0.080 A 
ATOM      4  C3  UNL d   1      -0.504  -0.906   0.176  0.00  0.00     0.150 A 
ATOM      5  C4  UNL d   1      -1.551  -0.897  -0.740  0.00  0.00    -0.007 A 
ATOM      6  C5  UNL d   1      -2.459  -1.955  -0.762  0.00  0.00     0.039 A 
ENDROOT
BRANCH   4   7
ATOM      7  O   UNL d   1       0.363   0.146   0.158  0.00  0.00    -0.526 OA
ATOM      8  H5  UNL d   1       1.051  -0.010   0.826  0.00  0.00     0.418 HD
ENDBRANCH   4   7
TORSDOF 1
ENDMDL
