MODEL 1
REMARK minimizedAffinity -1.50747192
REMARK minimizedRMSD -1
REMARK  1 active torsions:
REMARK  status: ('A' for Active; 'I' for Inactive)
REMARK    1  A    between atoms: C3_4  and  O_7 
ROOT
ATOM      1  C   UNL d   1      -2.505  -2.563   0.011  0.00  0.00    -0.033 A 
ATOM      2  C1  UNL d   1      -1.625  -2.793   1.070  0.00  0.00     0.039 A 
ATOM      3  C2  UNL d   1      -0.609  -1.876   1.348  0.00  0.00    -0.080 A 
ATOM      4  C3  UNL d   1      -0.485  -0.734   0.561  0.00  0.00     0.150 A 
ATOM      5  C4  UNL d   1      -1.361  -0.497  -0.494  0.00  0.00    -0.007 A 
ATOM      6  C5  UNL d   1      -2.374  -1.414  -0.770  0.00  0.00     0.039 A 
ENDROOT
BRANCH   4   7
ATOM      7  O   UNL d   1       0.493   0.187   0.790  0.00  0.00    -0.526 OA
ATOM      8  H5  UNL d   1       1.040  -0.123   1.531  0.00  0.00     0.418 HD
ENDBRANCH   4   7
TORSDOF 1
ENDMDL
