MODEL 1
REMARK minimizedAffinity 14.7602081
REMARK minimizedRMSD -1
REMARK  0 active torsions:
REMARK  status: ('A' for Active; 'I' for Inactive)
ROOT
ATOM      1  C   UNL d   1       3.425  -0.371  -2.717  0.00  0.00     0.124 A 
ATOM      2  C1  UNL d   1       4.514   0.472  -2.887  0.00  0.00     0.062 A 
ATOM      3  C2  UNL d   1       4.944   1.282  -1.840  0.00  0.00     0.162 A 
ATOM      4  C3  UNL d   1       4.284   1.252  -0.611  0.00  0.00    -0.034 A 
ATOM      5  C4  UNL d   1       3.188   0.403  -0.448  0.00  0.00     0.162 A 
ATOM      6  C5  UNL d   1       2.763  -0.404  -1.497  0.00  0.00     0.062 A 
ATOM      7  F   UNL d   1       1.710  -1.217  -1.331  0.00  0.00    -0.097 F 
ATOM      8  F1  UNL d   1       2.531   0.350   0.720  0.00  0.00    -0.096 F 
ATOM      9  I   UNL d   1       4.923   2.462   0.957  0.00  0.00    -0.060 I 
ATOM     10  F2  UNL d   1       6.000   2.086  -2.033  0.00  0.00    -0.096 F 
ATOM     11  F3  UNL d   1       5.155   0.507  -4.065  0.00  0.00    -0.097 F 
ATOM     12  F4  UNL d   1       3.013  -1.148  -3.726  0.00  0.00    -0.092 F 
ENDROOT
TORSDOF 0
ENDMDL
