MODEL 1
REMARK minimizedAffinity 15.6117678
REMARK minimizedRMSD -1
REMARK  0 active torsions:
REMARK  status: ('A' for Active; 'I' for Inactive)
ROOT
ATOM      1  C   UNL d   1      -2.692   0.532   0.094  0.00  0.00     0.124 A 
ATOM      2  C1  UNL d   1      -4.047   0.814   0.001  0.00  0.00     0.062 A 
ATOM      3  C2  UNL d   1      -4.688   0.770  -1.234  0.00  0.00     0.162 A 
ATOM      4  C3  UNL d   1      -3.974   0.442  -2.386  0.00  0.00    -0.034 A 
ATOM      5  C4  UNL d   1      -2.610   0.160  -2.285  0.00  0.00     0.162 A 
ATOM      6  C5  UNL d   1      -1.975   0.205  -1.048  0.00  0.00     0.062 A 
ATOM      7  F   UNL d   1      -0.665  -0.068  -0.960  0.00  0.00    -0.097 F 
ATOM      8  F1  UNL d   1      -1.894  -0.159  -3.373  0.00  0.00    -0.096 F 
ATOM      9  I   UNL d   1      -4.928   0.376  -4.235  0.00  0.00    -0.060 I 
ATOM     10  F2  UNL d   1      -5.999   1.048  -1.294  0.00  0.00    -0.096 F 
ATOM     11  F3  UNL d   1      -4.742   1.130   1.103  0.00  0.00    -0.097 F 
ATOM     12  F4  UNL d   1      -2.077   0.575   1.283  0.00  0.00    -0.092 F 
ENDROOT
TORSDOF 0
ENDMDL
