MODEL 1
REMARK minimizedAffinity 10.8427544
REMARK minimizedRMSD -1
REMARK  0 active torsions:
REMARK  status: ('A' for Active; 'I' for Inactive)
ROOT
ATOM      1  C   UNL d   1       2.814  -3.256  -1.313  0.00  0.00     0.124 A 
ATOM      2  C1  UNL d   1       3.210  -2.533  -2.430  0.00  0.00     0.062 A 
ATOM      3  C2  UNL d   1       3.593  -1.201  -2.303  0.00  0.00     0.162 A 
ATOM      4  C3  UNL d   1       3.583  -0.583  -1.053  0.00  0.00    -0.034 A 
ATOM      5  C4  UNL d   1       3.182  -1.315   0.066  0.00  0.00     0.162 A 
ATOM      6  C5  UNL d   1       2.800  -2.646  -0.067  0.00  0.00     0.062 A 
ATOM      7  F   UNL d   1       2.418  -3.343   1.014  0.00  0.00    -0.097 F 
ATOM      8  F1  UNL d   1       3.161  -0.751   1.283  0.00  0.00    -0.096 F 
ATOM      9  I   UNL d   1       4.155   1.409  -0.858  0.00  0.00    -0.060 I 
ATOM     10  F2  UNL d   1       3.971  -0.528  -3.400  0.00  0.00    -0.096 F 
ATOM     11  F3  UNL d   1       3.223  -3.120  -3.636  0.00  0.00    -0.097 F 
ATOM     12  F4  UNL d   1       2.445  -4.537  -1.439  0.00  0.00    -0.092 F 
ENDROOT
TORSDOF 0
ENDMDL
