MODEL 1
REMARK minimizedAffinity 13.2511196
REMARK minimizedRMSD -1
REMARK  0 active torsions:
REMARK  status: ('A' for Active; 'I' for Inactive)
ROOT
ATOM      1  C   UNL d   1       3.312  -0.291  -1.111  0.00  0.00     0.124 A 
ATOM      2  C1  UNL d   1       4.291  -0.024  -2.057  0.00  0.00     0.062 A 
ATOM      3  C2  UNL d   1       5.060   1.132  -1.963  0.00  0.00     0.162 A 
ATOM      4  C3  UNL d   1       4.853   2.031  -0.916  0.00  0.00    -0.034 A 
ATOM      5  C4  UNL d   1       3.865   1.757   0.031  0.00  0.00     0.162 A 
ATOM      6  C5  UNL d   1       3.099   0.599  -0.068  0.00  0.00     0.062 A 
ATOM      7  F   UNL d   1       2.153   0.343   0.847  0.00  0.00    -0.097 F 
ATOM      8  F1  UNL d   1       3.639   2.599   1.050  0.00  0.00    -0.096 F 
ATOM      9  I   UNL d   1       6.000   3.761  -0.771  0.00  0.00    -0.060 I 
ATOM     10  F2  UNL d   1       6.000   1.364  -2.891  0.00  0.00    -0.096 F 
ATOM     11  F3  UNL d   1       4.498  -0.883  -3.067  0.00  0.00    -0.097 F 
ATOM     12  F4  UNL d   1       2.573  -1.404  -1.205  0.00  0.00    -0.092 F 
ENDROOT
TORSDOF 0
ENDMDL
