MODEL 1
REMARK minimizedAffinity 19.6577301
REMARK minimizedRMSD -1
REMARK  0 active torsions:
REMARK  status: ('A' for Active; 'I' for Inactive)
ROOT
ATOM      1  C   UNL d   1       3.881   1.234  -0.770  0.00  0.00     0.124 A 
ATOM      2  C1  UNL d   1       4.954   1.984  -0.310  0.00  0.00     0.062 A 
ATOM      3  C2  UNL d   1       4.949   2.493   0.986  0.00  0.00     0.162 A 
ATOM      4  C3  UNL d   1       3.865   2.253   1.831  0.00  0.00    -0.034 A 
ATOM      5  C4  UNL d   1       2.789   1.499   1.361  0.00  0.00     0.162 A 
ATOM      6  C5  UNL d   1       2.799   0.992   0.066  0.00  0.00     0.062 A 
ATOM      7  F   UNL d   1       1.761   0.268  -0.377  0.00  0.00    -0.097 F 
ATOM      8  F1  UNL d   1       1.731   1.249   2.148  0.00  0.00    -0.096 F 
ATOM      9  I   UNL d   1       3.853   3.012   3.769  0.00  0.00    -0.060 I 
ATOM     10  F2  UNL d   1       6.000   3.214   1.404  0.00  0.00    -0.096 F 
ATOM     11  F3  UNL d   1       6.000   2.220  -1.115  0.00  0.00    -0.097 F 
ATOM     12  F4  UNL d   1       3.889   0.746  -2.017  0.00  0.00    -0.092 F 
ENDROOT
TORSDOF 0
ENDMDL
