MODEL 1
REMARK minimizedAffinity 9.58647156
REMARK minimizedRMSD -1
REMARK  0 active torsions:
REMARK  status: ('A' for Active; 'I' for Inactive)
ROOT
ATOM      1  C   UNL d   1       3.297  -1.208  -1.941  0.00  0.00     0.124 A 
ATOM      2  C1  UNL d   1       3.721   0.081  -2.233  0.00  0.00     0.062 A 
ATOM      3  C2  UNL d   1       3.870   1.016  -1.213  0.00  0.00     0.162 A 
ATOM      4  C3  UNL d   1       3.596   0.666   0.109  0.00  0.00    -0.034 A 
ATOM      5  C4  UNL d   1       3.169  -0.632   0.395  0.00  0.00     0.162 A 
ATOM      6  C5  UNL d   1       3.021  -1.564  -0.628  0.00  0.00     0.062 A 
ATOM      7  F   UNL d   1       2.611  -2.808  -0.345  0.00  0.00    -0.097 F 
ATOM      8  F1  UNL d   1       2.896  -1.003   1.655  0.00  0.00    -0.096 F 
ATOM      9  I   UNL d   1       3.818   2.061   1.637  0.00  0.00    -0.060 I 
ATOM     10  F2  UNL d   1       4.282   2.254  -1.523  0.00  0.00    -0.096 F 
ATOM     11  F3  UNL d   1       3.987   0.427  -3.500  0.00  0.00    -0.097 F 
ATOM     12  F4  UNL d   1       3.153  -2.106  -2.924  0.00  0.00    -0.092 F 
ENDROOT
TORSDOF 0
ENDMDL
