MODEL 1
REMARK minimizedAffinity 20.2860355
REMARK minimizedRMSD -1
REMARK  0 active torsions:
REMARK  status: ('A' for Active; 'I' for Inactive)
ROOT
ATOM      1  C   UNL d   1      -4.065   3.699   3.728  0.00  0.00     0.124 A 
ATOM      2  C1  UNL d   1      -3.108   3.719   2.724  0.00  0.00     0.062 A 
ATOM      3  C2  UNL d   1      -3.118   2.748   1.726  0.00  0.00     0.162 A 
ATOM      4  C3  UNL d   1      -4.091   1.748   1.728  0.00  0.00    -0.034 A 
ATOM      5  C4  UNL d   1      -5.050   1.733   2.742  0.00  0.00     0.162 A 
ATOM      6  C5  UNL d   1      -5.035   2.706   3.737  0.00  0.00     0.062 A 
ATOM      7  F   UNL d   1      -5.961   2.684   4.706  0.00  0.00    -0.097 F 
ATOM      8  F1  UNL d   1      -5.999   0.786   2.774  0.00  0.00    -0.096 F 
ATOM      9  I   UNL d   1      -4.110   0.295   0.239  0.00  0.00    -0.060 I 
ATOM     10  F2  UNL d   1      -2.181   2.793   0.768  0.00  0.00    -0.096 F 
ATOM     11  F3  UNL d   1      -2.169   4.677   2.714  0.00  0.00    -0.097 F 
ATOM     12  F4  UNL d   1      -4.052   4.633   4.687  0.00  0.00    -0.092 F 
ENDROOT
TORSDOF 0
ENDMDL
