MODEL 1
REMARK minimizedAffinity 23.5568867
REMARK minimizedRMSD -1
REMARK  0 active torsions:
REMARK  status: ('A' for Active; 'I' for Inactive)
ROOT
ATOM      1  C   UNL d   1       3.923   2.459   0.314  0.00  0.00     0.124 A 
ATOM      2  C1  UNL d   1       2.593   2.360  -0.073  0.00  0.00     0.062 A 
ATOM      3  C2  UNL d   1       2.052   1.122  -0.406  0.00  0.00     0.162 A 
ATOM      4  C3  UNL d   1       2.839  -0.029  -0.351  0.00  0.00    -0.034 A 
ATOM      5  C4  UNL d   1       4.175   0.079   0.038  0.00  0.00     0.162 A 
ATOM      6  C5  UNL d   1       4.712   1.319   0.370  0.00  0.00     0.062 A 
ATOM      7  F   UNL d   1       5.996   1.413   0.743  0.00  0.00    -0.097 F 
ATOM      8  F1  UNL d   1       4.961  -1.006   0.101  0.00  0.00    -0.096 F 
ATOM      9  I   UNL d   1       2.033  -1.882  -0.848  0.00  0.00    -0.060 I 
ATOM     10  F2  UNL d   1       0.764   1.055  -0.776  0.00  0.00    -0.096 F 
ATOM     11  F3  UNL d   1       1.829   3.460  -0.128  0.00  0.00    -0.097 F 
ATOM     12  F4  UNL d   1       4.441   3.652   0.633  0.00  0.00    -0.092 F 
ENDROOT
TORSDOF 0
ENDMDL
