MODEL 1
REMARK minimizedAffinity 12.979681
REMARK minimizedRMSD -1
REMARK  0 active torsions:
REMARK  status: ('A' for Active; 'I' for Inactive)
ROOT
ATOM      1  C   UNL d   1       3.573  -2.016  -2.303  0.00  0.00     0.124 A 
ATOM      2  C1  UNL d   1       3.022  -1.774  -1.052  0.00  0.00     0.062 A 
ATOM      3  C2  UNL d   1       3.263  -0.567  -0.402  0.00  0.00     0.162 A 
ATOM      4  C3  UNL d   1       4.060   0.408  -1.003  0.00  0.00    -0.034 A 
ATOM      5  C4  UNL d   1       4.612   0.157  -2.260  0.00  0.00     0.162 A 
ATOM      6  C5  UNL d   1       4.367  -1.051  -2.905  0.00  0.00     0.062 A 
ATOM      7  F   UNL d   1       4.901  -1.283  -4.113  0.00  0.00    -0.097 F 
ATOM      8  F1  UNL d   1       5.383   1.072  -2.866  0.00  0.00    -0.096 F 
ATOM      9  I   UNL d   1       4.424   2.214  -0.034  0.00  0.00    -0.060 I 
ATOM     10  F2  UNL d   1       2.718  -0.360   0.805  0.00  0.00    -0.096 F 
ATOM     11  F3  UNL d   1       2.255  -2.705  -0.467  0.00  0.00    -0.097 F 
ATOM     12  F4  UNL d   1       3.340  -3.179  -2.925  0.00  0.00    -0.092 F 
ENDROOT
TORSDOF 0
ENDMDL
