MODEL 1
REMARK minimizedAffinity 10.1517839
REMARK minimizedRMSD -1
REMARK  3 active torsions:
REMARK  status: ('A' for Active; 'I' for Inactive)
REMARK    1  A    between atoms: C3'_2  and  C2'_3 
REMARK    2  A    between atoms: C2'_3  and  C1'_4 
REMARK    3  A    between atoms: C1'_4  and  C1_5 
ROOT
ATOM      1  C1  N4B d   1       0.298   2.015   2.283  0.00  0.00    -0.075 A 
ATOM      2  C2  N4B d   1      -0.345   1.088   3.132  0.00  0.00     0.002 A 
ATOM      3  C3  N4B d   1       0.396   0.164   3.827  0.00  0.00     0.002 A 
ATOM      4  C4  N4B d   1       1.774   0.135   3.674  0.00  0.00    -0.004 A 
ATOM      5  C5  N4B d   1       2.390   1.050   2.871  0.00  0.00     0.002 A 
ATOM      6  C6  N4B d   1       1.658   1.987   2.170  0.00  0.00     0.002 A 
ENDROOT
BRANCH   1   7
ATOM      7  C1' N4B d   1      -0.476   2.988   1.437  0.00  0.00     0.057 C 
BRANCH   7   8
ATOM      8  C2' N4B d   1       0.193   3.108   0.071  0.00  0.00     0.009 C 
BRANCH   8   9
ATOM      9  C3' N4B d   1      -0.177   4.403  -0.631  0.00  0.00     0.004 C 
ATOM     10  C4' N4B d   1       1.022   5.208  -1.034  0.00  0.00     0.003 C 
ENDBRANCH   8   9
ENDBRANCH   7   8
ENDBRANCH   1   7
TORSDOF 3
ENDMDL
