MODEL 1
REMARK minimizedAffinity 6.49688005
REMARK minimizedRMSD -1
REMARK  3 active torsions:
REMARK  status: ('A' for Active; 'I' for Inactive)
REMARK    1  A    between atoms: C3'_2  and  C2'_3 
REMARK    2  A    between atoms: C2'_3  and  C1'_4 
REMARK    3  A    between atoms: C1'_4  and  C1_5 
ROOT
ATOM      1  C1  N4B d   1       0.083   3.704  -0.964  0.00  0.00    -0.075 A 
ATOM      2  C2  N4B d   1      -0.819   3.830  -2.043  0.00  0.00     0.002 A 
ATOM      3  C3  N4B d   1      -0.810   4.966  -2.816  0.00  0.00     0.002 A 
ATOM      4  C4  N4B d   1       0.074   5.992  -2.517  0.00  0.00    -0.004 A 
ATOM      5  C5  N4B d   1       0.959   5.852  -1.488  0.00  0.00     0.002 A 
ATOM      6  C6  N4B d   1       0.964   4.714  -0.706  0.00  0.00     0.002 A 
ENDROOT
BRANCH   1   7
ATOM      7  C1' N4B d   1       0.053   2.519  -0.039  0.00  0.00     0.057 C 
BRANCH   7   8
ATOM      8  C2' N4B d   1       0.731   2.892   1.276  0.00  0.00     0.009 C 
BRANCH   8   9
ATOM      9  C3' N4B d   1       0.543   1.820   2.337  0.00  0.00     0.004 C 
ATOM     10  C4' N4B d   1      -0.659   2.061   3.200  0.00  0.00     0.003 C 
ENDBRANCH   8   9
ENDBRANCH   7   8
ENDBRANCH   1   7
TORSDOF 3
ENDMDL
