MODEL 1
REMARK minimizedAffinity 4.22514009
REMARK minimizedRMSD -1
REMARK  3 active torsions:
REMARK  status: ('A' for Active; 'I' for Inactive)
REMARK    1  A    between atoms: C3'_2  and  C2'_3 
REMARK    2  A    between atoms: C2'_3  and  C1'_4 
REMARK    3  A    between atoms: C1'_4  and  C1_5 
ROOT
ATOM      1  C1  N4B d   1      -0.016   4.361  -1.687  0.00  0.00    -0.075 A 
ATOM      2  C2  N4B d   1      -1.122   4.646  -0.857  0.00  0.00     0.002 A 
ATOM      3  C3  N4B d   1      -1.093   4.296   0.471  0.00  0.00     0.002 A 
ATOM      4  C4  N4B d   1       0.019   3.645   0.984  0.00  0.00    -0.004 A 
ATOM      5  C5  N4B d   1       1.093   3.396   0.182  0.00  0.00     0.002 A 
ATOM      6  C6  N4B d   1       1.080   3.746  -1.154  0.00  0.00     0.002 A 
ENDROOT
BRANCH   1   7
ATOM      7  C1' N4B d   1      -0.036   4.647  -3.164  0.00  0.00     0.057 C 
BRANCH   7   8
ATOM      8  C2' N4B d   1       1.169   5.511  -3.523  0.00  0.00     0.009 C 
BRANCH   8   9
ATOM      9  C3' N4B d   1       1.118   5.986  -4.964  0.00  0.00     0.004 C 
ATOM     10  C4' N4B d   1      -0.274   6.000  -5.523  0.00  0.00     0.003 C 
ENDBRANCH   8   9
ENDBRANCH   7   8
ENDBRANCH   1   7
TORSDOF 3
ENDMDL
