MODEL 1
REMARK minimizedAffinity 5.4711585
REMARK minimizedRMSD -1
REMARK  3 active torsions:
REMARK  status: ('A' for Active; 'I' for Inactive)
REMARK    1  A    between atoms: C3'_2  and  C2'_3 
REMARK    2  A    between atoms: C2'_3  and  C1'_4 
REMARK    3  A    between atoms: C1'_4  and  C1_5 
ROOT
ATOM      1  C1  N4B d   1       0.799  -0.497   3.999  0.00  0.00    -0.075 A 
ATOM      2  C2  N4B d   1       1.766  -1.117   4.821  0.00  0.00     0.002 A 
ATOM      3  C3  N4B d   1       1.372  -1.990   5.806  0.00  0.00     0.002 A 
ATOM      4  C4  N4B d   1       0.022  -2.242   5.999  0.00  0.00    -0.004 A 
ATOM      5  C5  N4B d   1      -0.904  -1.659   5.184  0.00  0.00     0.002 A 
ATOM      6  C6  N4B d   1      -0.522  -0.783   4.188  0.00  0.00     0.002 A 
ENDROOT
BRANCH   1   7
ATOM      7  C1' N4B d   1       1.175   0.529   2.966  0.00  0.00     0.057 C 
BRANCH   7   8
ATOM      8  C2' N4B d   1       0.099   1.609   2.918  0.00  0.00     0.009 C 
BRANCH   8   9
ATOM      9  C3' N4B d   1       0.360   2.623   1.817  0.00  0.00     0.004 C 
ATOM     10  C4' N4B d   1      -0.279   2.242   0.514  0.00  0.00     0.003 C 
ENDBRANCH   8   9
ENDBRANCH   7   8
ENDBRANCH   1   7
TORSDOF 3
ENDMDL
