MODEL 1
REMARK minimizedAffinity 1.51295507
REMARK minimizedRMSD -1
REMARK  1 active torsions:
REMARK  status: ('A' for Active; 'I' for Inactive)
REMARK    1  A    between atoms: C3_4  and  O_7 
ROOT
ATOM      1  C   UNL d   1      -0.574  -1.025  -0.704  0.00  0.00    -0.033 A 
ATOM      2  C1  UNL d   1       0.546  -0.193  -0.655  0.00  0.00     0.039 A 
ATOM      3  C2  UNL d   1       0.687   0.845  -1.578  0.00  0.00    -0.080 A 
ATOM      4  C3  UNL d   1      -0.296   1.040  -2.544  0.00  0.00     0.150 A 
ATOM      5  C4  UNL d   1      -1.416   0.216  -2.596  0.00  0.00    -0.007 A 
ATOM      6  C5  UNL d   1      -1.556  -0.820  -1.674  0.00  0.00     0.039 A 
ENDROOT
BRANCH   4   7
ATOM      7  O   UNL d   1      -0.200   2.036  -3.469  0.00  0.00    -0.526 OA
ATOM      8  H5  UNL d   1       0.639   2.506  -3.329  0.00  0.00     0.418 HD
ENDBRANCH   4   7
TORSDOF 1
ENDMDL
