MODEL 1
REMARK minimizedAffinity 2.44766974
REMARK minimizedRMSD -1
REMARK  1 active torsions:
REMARK  status: ('A' for Active; 'I' for Inactive)
REMARK    1  A    between atoms: C3_4  and  O_7 
ROOT
ATOM      1  C   UNL d   1      -6.000  -2.797   3.760  0.00  0.00    -0.033 A 
ATOM      2  C1  UNL d   1      -5.623  -2.240   4.984  0.00  0.00     0.039 A 
ATOM      3  C2  UNL d   1      -5.241  -0.899   5.055  0.00  0.00    -0.080 A 
ATOM      4  C3  UNL d   1      -5.241  -0.127   3.897  0.00  0.00     0.150 A 
ATOM      5  C4  UNL d   1      -5.618  -0.673   2.675  0.00  0.00    -0.007 A 
ATOM      6  C5  UNL d   1      -5.999  -2.013   2.606  0.00  0.00     0.039 A 
ENDROOT
BRANCH   4   7
ATOM      7  O   UNL d   1      -4.871   1.186   3.916  0.00  0.00    -0.526 OA
ATOM      8  H5  UNL d   1      -4.608   1.418   4.822  0.00  0.00     0.418 HD
ENDBRANCH   4   7
TORSDOF 1
ENDMDL
