MODEL 1
REMARK minimizedAffinity 1.70827723
REMARK minimizedRMSD -1
REMARK  1 active torsions:
REMARK  status: ('A' for Active; 'I' for Inactive)
REMARK    1  A    between atoms: C3_4  and  O_7 
ROOT
ATOM      1  C   UNL d   1      -4.017   2.358  -1.126  0.00  0.00    -0.033 A 
ATOM      2  C1  UNL d   1      -3.333   3.517  -1.499  0.00  0.00     0.039 A 
ATOM      3  C2  UNL d   1      -3.981   4.503  -2.246  0.00  0.00    -0.080 A 
ATOM      4  C3  UNL d   1      -5.312   4.318  -2.613  0.00  0.00     0.150 A 
ATOM      5  C4  UNL d   1      -6.000   3.167  -2.242  0.00  0.00    -0.007 A 
ATOM      6  C5  UNL d   1      -5.351   2.184  -1.497  0.00  0.00     0.039 A 
ENDROOT
BRANCH   4   7
ATOM      7  O   UNL d   1      -5.985   5.249  -3.346  0.00  0.00    -0.526 OA
ATOM      8  H5  UNL d   1      -5.375   5.977  -3.553  0.00  0.00     0.418 HD
ENDBRANCH   4   7
TORSDOF 1
ENDMDL
