MODEL 1
REMARK minimizedAffinity 3.86117101
REMARK minimizedRMSD -1
REMARK  1 active torsions:
REMARK  status: ('A' for Active; 'I' for Inactive)
REMARK    1  A    between atoms: C3_4  and  O_7 
ROOT
ATOM      1  C   UNL d   1      -5.985  -1.967   1.732  0.00  0.00    -0.033 A 
ATOM      2  C1  UNL d   1      -5.995  -3.341   1.984  0.00  0.00     0.039 A 
ATOM      3  C2  UNL d   1      -5.999  -3.811   3.298  0.00  0.00    -0.080 A 
ATOM      4  C3  UNL d   1      -5.995  -2.900   4.350  0.00  0.00     0.150 A 
ATOM      5  C4  UNL d   1      -5.989  -1.530   4.107  0.00  0.00    -0.007 A 
ATOM      6  C5  UNL d   1      -5.983  -1.062   2.794  0.00  0.00     0.039 A 
ENDROOT
BRANCH   4   7
ATOM      7  O   UNL d   1      -5.994  -3.311   5.650  0.00  0.00    -0.526 OA
ATOM      8  H5  UNL d   1      -5.969  -4.283   5.665  0.00  0.00     0.418 HD
ENDBRANCH   4   7
TORSDOF 1
ENDMDL
