MODEL 1
REMARK minimizedAffinity 5.30591917
REMARK minimizedRMSD -1
REMARK  1 active torsions:
REMARK  status: ('A' for Active; 'I' for Inactive)
REMARK    1  A    between atoms: C3_4  and  O_7 
ROOT
ATOM      1  C   UNL d   1       0.529   1.898   2.824  0.00  0.00    -0.033 A 
ATOM      2  C1  UNL d   1      -0.006   1.026   1.874  0.00  0.00     0.039 A 
ATOM      3  C2  UNL d   1      -0.256   1.474   0.575  0.00  0.00    -0.080 A 
ATOM      4  C3  UNL d   1       0.033   2.794   0.240  0.00  0.00     0.150 A 
ATOM      5  C4  UNL d   1       0.570   3.667   1.180  0.00  0.00    -0.007 A 
ATOM      6  C5  UNL d   1       0.818   3.218   2.476  0.00  0.00     0.039 A 
ENDROOT
BRANCH   4   7
ATOM      7  O   UNL d   1      -0.199   3.278  -1.014  0.00  0.00    -0.526 OA
ATOM      8  H5  UNL d   1      -0.597   2.570  -1.548  0.00  0.00     0.418 HD
ENDBRANCH   4   7
TORSDOF 1
ENDMDL
