MODEL 1
REMARK minimizedAffinity 6.30443668
REMARK minimizedRMSD -1
REMARK  1 active torsions:
REMARK  status: ('A' for Active; 'I' for Inactive)
REMARK    1  A    between atoms: C3_4  and  O_7 
ROOT
ATOM      1  C   UNL d   1      -5.885  -3.541   4.009  0.00  0.00    -0.033 A 
ATOM      2  C1  UNL d   1      -5.855  -3.417   5.399  0.00  0.00     0.039 A 
ATOM      3  C2  UNL d   1      -5.885  -2.153   5.991  0.00  0.00    -0.080 A 
ATOM      4  C3  UNL d   1      -5.944  -1.022   5.182  0.00  0.00     0.150 A 
ATOM      5  C4  UNL d   1      -5.977  -1.137   3.796  0.00  0.00    -0.007 A 
ATOM      6  C5  UNL d   1      -5.947  -2.400   3.207  0.00  0.00     0.039 A 
ENDROOT
BRANCH   4   7
ATOM      7  O   UNL d   1      -5.970   0.234   5.713  0.00  0.00    -0.526 OA
ATOM      8  H5  UNL d   1      -5.912   0.160   6.680  0.00  0.00     0.418 HD
ENDBRANCH   4   7
TORSDOF 1
ENDMDL
