MODEL 1
REMARK minimizedAffinity -2.91892791
REMARK minimizedRMSD -1
REMARK  1 active torsions:
REMARK  status: ('A' for Active; 'I' for Inactive)
REMARK    1  A    between atoms: C3_4  and  O_7 
ROOT
ATOM      1  C   UNL d   1      -2.466  -1.048  -1.378  0.00  0.00    -0.033 A 
ATOM      2  C1  UNL d   1      -2.987   0.132  -1.910  0.00  0.00     0.039 A 
ATOM      3  C2  UNL d   1      -2.263   1.323  -1.815  0.00  0.00    -0.080 A 
ATOM      4  C3  UNL d   1      -1.021   1.318  -1.187  0.00  0.00     0.150 A 
ATOM      5  C4  UNL d   1      -0.494   0.145  -0.658  0.00  0.00    -0.007 A 
ATOM      6  C5  UNL d   1      -1.218  -1.043  -0.753  0.00  0.00     0.039 A 
ENDROOT
BRANCH   4   7
ATOM      7  O   UNL d   1      -0.280   2.456  -1.065  0.00  0.00    -0.526 OA
ATOM      8  H5  UNL d   1      -0.782   3.193  -1.451  0.00  0.00     0.418 HD
ENDBRANCH   4   7
TORSDOF 1
ENDMDL
