MODEL 1
REMARK minimizedAffinity -1.90152788
REMARK minimizedRMSD -1
REMARK  1 active torsions:
REMARK  status: ('A' for Active; 'I' for Inactive)
REMARK    1  A    between atoms: C3_4  and  O_7 
ROOT
ATOM      1  C   UNL d   1       1.037  -0.369  -0.099  0.00  0.00    -0.033 A 
ATOM      2  C1  UNL d   1       1.098   0.037  -1.433  0.00  0.00     0.039 A 
ATOM      3  C2  UNL d   1      -0.076   0.329  -2.130  0.00  0.00    -0.080 A 
ATOM      4  C3  UNL d   1      -1.302   0.212  -1.482  0.00  0.00     0.150 A 
ATOM      5  C4  UNL d   1      -1.370  -0.188  -0.152  0.00  0.00    -0.007 A 
ATOM      6  C5  UNL d   1      -0.197  -0.480   0.542  0.00  0.00     0.039 A 
ENDROOT
BRANCH   4   7
ATOM      7  O   UNL d   1      -2.475   0.482  -2.123  0.00  0.00    -0.526 OA
ATOM      8  H5  UNL d   1      -2.275   0.719  -3.044  0.00  0.00     0.418 HD
ENDBRANCH   4   7
TORSDOF 1
ENDMDL
