MODEL 1
REMARK minimizedAffinity -2.25961018
REMARK minimizedRMSD -1
REMARK  1 active torsions:
REMARK  status: ('A' for Active; 'I' for Inactive)
REMARK    1  A    between atoms: C1_2  and  C2_3 
ROOT
ATOM      1  C2  UNL d   1       1.176  -0.042   0.901  0.00  0.00    -0.073 A 
ATOM      2  C3  UNL d   1       1.684   1.254   1.047  0.00  0.00    -0.002 A 
ATOM      3  C4  UNL d   1       1.040   2.336   0.444  0.00  0.00     0.004 A 
ATOM      4  C5  UNL d   1      -0.120   2.134  -0.304  0.00  0.00    -0.004 A 
ATOM      5  C6  UNL d   1      -0.649   0.848  -0.452  0.00  0.00    -0.075 A 
ATOM      6  C7  UNL d   1      -1.895   0.614  -1.255  0.00  0.00     0.076 C 
ATOM      7  C8  UNL d   1       0.005  -0.233   0.154  0.00  0.00     0.001 A 
ENDROOT
BRANCH   1   8
ATOM      8  C1  UNL d   1       1.864  -1.212   1.555  0.00  0.00     0.053 C 
ATOM      9  C   UNL d   1       2.804  -1.929   0.598  0.00  0.00     0.018 C 
ENDBRANCH   1   8
TORSDOF 1
ENDMDL
