MODEL 1
REMARK minimizedAffinity -4.45223045
REMARK minimizedRMSD -1
REMARK  1 active torsions:
REMARK  status: ('A' for Active; 'I' for Inactive)
REMARK    1  A    between atoms: C1_2  and  C2_3 
ROOT
ATOM      1  C2  UNL d   1       0.031  -0.306   0.831  0.00  0.00    -0.073 A 
ATOM      2  C3  UNL d   1      -0.014   0.407  -0.373  0.00  0.00    -0.002 A 
ATOM      3  C4  UNL d   1      -1.164   1.111  -0.733  0.00  0.00     0.004 A 
ATOM      4  C5  UNL d   1      -2.276   1.115   0.109  0.00  0.00    -0.004 A 
ATOM      5  C6  UNL d   1      -2.246   0.419   1.321  0.00  0.00    -0.075 A 
ATOM      6  C7  UNL d   1      -3.435   0.412   2.237  0.00  0.00     0.076 C 
ATOM      7  C8  UNL d   1      -1.089  -0.288   1.674  0.00  0.00     0.001 A 
ENDROOT
BRANCH   1   8
ATOM      8  C1  UNL d   1       1.273  -1.062   1.227  0.00  0.00     0.053 C 
ATOM      9  C   UNL d   1       1.871  -1.828   0.057  0.00  0.00     0.018 C 
ENDBRANCH   1   8
TORSDOF 1
ENDMDL
