MODEL 1
REMARK minimizedAffinity -1.01185179
REMARK minimizedRMSD -1
REMARK  1 active torsions:
REMARK  status: ('A' for Active; 'I' for Inactive)
REMARK    1  A    between atoms: C1_2  and  C2_3 
ROOT
ATOM      1  C2  UNL d   1      -1.655   0.311   0.883  0.00  0.00    -0.073 A 
ATOM      2  C3  UNL d   1      -1.599   1.425   0.038  0.00  0.00    -0.002 A 
ATOM      3  C4  UNL d   1      -0.397   1.789  -0.570  0.00  0.00     0.004 A 
ATOM      4  C5  UNL d   1       0.758   1.040  -0.345  0.00  0.00    -0.004 A 
ATOM      5  C6  UNL d   1       0.720  -0.084   0.487  0.00  0.00    -0.075 A 
ATOM      6  C7  UNL d   1       1.954  -0.898   0.740  0.00  0.00     0.076 C 
ATOM      7  C8  UNL d   1      -0.491  -0.441   1.096  0.00  0.00     0.001 A 
ENDROOT
BRANCH   1   8
ATOM      8  C1  UNL d   1      -2.952  -0.090   1.537  0.00  0.00     0.053 C 
ATOM      9  C   UNL d   1      -3.728   1.113   2.049  0.00  0.00     0.018 C 
ENDBRANCH   1   8
TORSDOF 1
ENDMDL
