MODEL 1
REMARK minimizedAffinity 4.29409552
REMARK minimizedRMSD -1
REMARK  1 active torsions:
REMARK  status: ('A' for Active; 'I' for Inactive)
REMARK    1  A    between atoms: C3_4  and  O_7 
ROOT
ATOM      1  C   UNL d   1       3.081   0.946   1.505  0.00  0.00    -0.033 A 
ATOM      2  C1  UNL d   1       2.038   1.709   0.977  0.00  0.00     0.039 A 
ATOM      3  C2  UNL d   1       1.914   1.865  -0.405  0.00  0.00    -0.080 A 
ATOM      4  C3  UNL d   1       2.838   1.252  -1.247  0.00  0.00     0.150 A 
ATOM      5  C4  UNL d   1       3.878   0.487  -0.728  0.00  0.00    -0.007 A 
ATOM      6  C5  UNL d   1       4.000   0.333   0.652  0.00  0.00     0.039 A 
ENDROOT
BRANCH   4   7
ATOM      7  O   UNL d   1       2.761   1.379  -2.602  0.00  0.00    -0.526 OA
ATOM      8  H5  UNL d   1       2.011   1.959  -2.814  0.00  0.00     0.418 HD
ENDBRANCH   4   7
TORSDOF 1
ENDMDL
