MODEL 1
REMARK minimizedAffinity 9.48881531
REMARK minimizedRMSD -1
REMARK  1 active torsions:
REMARK  status: ('A' for Active; 'I' for Inactive)
REMARK    1  A    between atoms: C3_4  and  O_7 
ROOT
ATOM      1  C   UNL d   1       5.987   5.800  -4.782  0.00  0.00    -0.033 A 
ATOM      2  C1  UNL d   1       5.300   5.987  -5.983  0.00  0.00     0.039 A 
ATOM      3  C2  UNL d   1       3.904   5.996  -5.996  0.00  0.00    -0.080 A 
ATOM      4  C3  UNL d   1       3.208   5.817  -4.804  0.00  0.00     0.150 A 
ATOM      5  C4  UNL d   1       3.886   5.633  -3.603  0.00  0.00    -0.007 A 
ATOM      6  C5  UNL d   1       5.280   5.624  -3.592  0.00  0.00     0.039 A 
ENDROOT
BRANCH   4   7
ATOM      7  O   UNL d   1       1.845   5.813  -4.768  0.00  0.00    -0.526 OA
ATOM      8  H5  UNL d   1       1.513   5.922  -5.675  0.00  0.00     0.418 HD
ENDBRANCH   4   7
TORSDOF 1
ENDMDL
