MODEL 1
REMARK minimizedAffinity 11.1262665
REMARK minimizedRMSD -1
REMARK  1 active torsions:
REMARK  status: ('A' for Active; 'I' for Inactive)
REMARK    1  A    between atoms: C3_4  and  O_7 
ROOT
ATOM      1  C   UNL d   1       1.367   2.120   1.093  0.00  0.00    -0.033 A 
ATOM      2  C1  UNL d   1       2.204   2.318  -0.007  0.00  0.00     0.039 A 
ATOM      3  C2  UNL d   1       3.150   1.350  -0.350  0.00  0.00    -0.080 A 
ATOM      4  C3  UNL d   1       3.248   0.190   0.414  0.00  0.00     0.150 A 
ATOM      5  C4  UNL d   1       2.415  -0.015   1.508  0.00  0.00    -0.007 A 
ATOM      6  C5  UNL d   1       1.472   0.953   1.850  0.00  0.00     0.039 A 
ENDROOT
BRANCH   4   7
ATOM      7  O   UNL d   1       4.160  -0.781   0.121  0.00  0.00    -0.526 OA
ATOM      8  H5  UNL d   1       4.685  -0.489  -0.642  0.00  0.00     0.418 HD
ENDBRANCH   4   7
TORSDOF 1
ENDMDL
