MODEL 1
REMARK minimizedAffinity 1.22084165
REMARK minimizedRMSD -1
REMARK  1 active torsions:
REMARK  status: ('A' for Active; 'I' for Inactive)
REMARK    1  A    between atoms: C3_4  and  O_7 
ROOT
ATOM      1  C   UNL d   1       2.912   0.235   0.797  0.00  0.00    -0.033 A 
ATOM      2  C1  UNL d   1       4.126  -0.081   0.184  0.00  0.00     0.039 A 
ATOM      3  C2  UNL d   1       4.399   0.377  -1.106  0.00  0.00    -0.080 A 
ATOM      4  C3  UNL d   1       3.452   1.150  -1.771  0.00  0.00     0.150 A 
ATOM      5  C4  UNL d   1       2.242   1.473  -1.165  0.00  0.00    -0.007 A 
ATOM      6  C5  UNL d   1       1.971   1.013   0.123  0.00  0.00     0.039 A 
ENDROOT
BRANCH   4   7
ATOM      7  O   UNL d   1       3.671   1.617  -3.033  0.00  0.00    -0.526 OA
ATOM      8  H5  UNL d   1       4.536   1.291  -3.335  0.00  0.00     0.418 HD
ENDBRANCH   4   7
TORSDOF 1
ENDMDL
