MODEL 1
REMARK minimizedAffinity 14.6706762
REMARK minimizedRMSD -1
REMARK  1 active torsions:
REMARK  status: ('A' for Active; 'I' for Inactive)
REMARK    1  A    between atoms: C3_4  and  O_7 
ROOT
ATOM      1  C   UNL d   1      -2.449  -3.095  -1.989  0.00  0.00    -0.033 A 
ATOM      2  C1  UNL d   1      -2.362  -4.299  -2.690  0.00  0.00     0.039 A 
ATOM      3  C2  UNL d   1      -2.015  -4.298  -4.042  0.00  0.00    -0.080 A 
ATOM      4  C3  UNL d   1      -1.756  -3.088  -4.680  0.00  0.00     0.150 A 
ATOM      5  C4  UNL d   1      -1.837  -1.885  -3.986  0.00  0.00    -0.007 A 
ATOM      6  C5  UNL d   1      -2.185  -1.888  -2.636  0.00  0.00     0.039 A 
ENDROOT
BRANCH   4   7
ATOM      7  O   UNL d   1      -1.418  -3.036  -6.000  0.00  0.00    -0.526 OA
ATOM      8  H5  UNL d   1      -1.429  -3.940  -6.356  0.00  0.00     0.418 HD
ENDBRANCH   4   7
TORSDOF 1
ENDMDL
