MODEL 1
REMARK minimizedAffinity 6.52134609
REMARK minimizedRMSD -1
REMARK  1 active torsions:
REMARK  status: ('A' for Active; 'I' for Inactive)
REMARK    1  A    between atoms: C3_4  and  O_7 
ROOT
ATOM      1  C   UNL d   1      -1.852  -2.398  -2.313  0.00  0.00    -0.033 A 
ATOM      2  C1  UNL d   1      -0.616  -2.407  -1.662  0.00  0.00     0.039 A 
ATOM      3  C2  UNL d   1      -0.544  -2.709  -0.301  0.00  0.00    -0.080 A 
ATOM      4  C3  UNL d   1      -1.713  -3.000   0.397  0.00  0.00     0.150 A 
ATOM      5  C4  UNL d   1      -2.947  -2.997  -0.246  0.00  0.00    -0.007 A 
ATOM      6  C5  UNL d   1      -3.017  -2.694  -1.605  0.00  0.00     0.039 A 
ENDROOT
BRANCH   4   7
ATOM      7  O   UNL d   1      -1.693  -3.296   1.728  0.00  0.00    -0.526 OA
ATOM      8  H5  UNL d   1      -0.776  -3.232   2.044  0.00  0.00     0.418 HD
ENDBRANCH   4   7
TORSDOF 1
ENDMDL
