MODEL 1
REMARK minimizedAffinity 11.8486099
REMARK minimizedRMSD -1
REMARK  1 active torsions:
REMARK  status: ('A' for Active; 'I' for Inactive)
REMARK    1  A    between atoms: C3_4  and  O_7 
ROOT
ATOM      1  C   UNL d   1      -2.618  -5.990  -1.792  0.00  0.00    -0.033 A 
ATOM      2  C1  UNL d   1      -2.542  -5.243  -2.968  0.00  0.00     0.039 A 
ATOM      3  C2  UNL d   1      -3.646  -4.506  -3.402  0.00  0.00    -0.080 A 
ATOM      4  C3  UNL d   1      -4.817  -4.524  -2.650  0.00  0.00     0.150 A 
ATOM      5  C4  UNL d   1      -4.898  -5.263  -1.474  0.00  0.00    -0.007 A 
ATOM      6  C5  UNL d   1      -3.796  -5.999  -1.044  0.00  0.00     0.039 A 
ENDROOT
BRANCH   4   7
ATOM      7  O   UNL d   1      -5.922  -3.824  -3.035  0.00  0.00    -0.526 OA
ATOM      8  H5  UNL d   1      -5.729  -3.384  -3.880  0.00  0.00     0.418 HD
ENDBRANCH   4   7
TORSDOF 1
ENDMDL
