MODEL 1
REMARK minimizedAffinity 1.51257193
REMARK minimizedRMSD -1
REMARK  1 active torsions:
REMARK  status: ('A' for Active; 'I' for Inactive)
REMARK    1  A    between atoms: C3_4  and  O_7 
ROOT
ATOM      1  C   UNL d   1      -2.559  -4.763   1.098  0.00  0.00    -0.033 A 
ATOM      2  C1  UNL d   1      -3.253  -5.140  -0.053  0.00  0.00     0.039 A 
ATOM      3  C2  UNL d   1      -3.290  -4.288  -1.159  0.00  0.00    -0.080 A 
ATOM      4  C3  UNL d   1      -2.628  -3.064  -1.101  0.00  0.00     0.150 A 
ATOM      5  C4  UNL d   1      -1.931  -2.684   0.041  0.00  0.00    -0.007 A 
ATOM      6  C5  UNL d   1      -1.896  -3.536   1.144  0.00  0.00     0.039 A 
ENDROOT
BRANCH   4   7
ATOM      7  O   UNL d   1      -2.640  -2.198  -2.153  0.00  0.00    -0.526 OA
ATOM      8  H5  UNL d   1      -3.184  -2.581  -2.861  0.00  0.00     0.418 HD
ENDBRANCH   4   7
TORSDOF 1
ENDMDL
