MODEL 1
REMARK minimizedAffinity 8.41344738
REMARK minimizedRMSD -1
REMARK  1 active torsions:
REMARK  status: ('A' for Active; 'I' for Inactive)
REMARK    1  A    between atoms: C3_4  and  O_7 
ROOT
ATOM      1  C   UNL d   1      -1.967  -3.365   1.472  0.00  0.00    -0.033 A 
ATOM      2  C1  UNL d   1      -3.227  -3.357   0.870  0.00  0.00     0.039 A 
ATOM      3  C2  UNL d   1      -3.392  -2.809  -0.403  0.00  0.00    -0.080 A 
ATOM      4  C3  UNL d   1      -2.290  -2.273  -1.064  0.00  0.00     0.150 A 
ATOM      5  C4  UNL d   1      -1.031  -2.281  -0.473  0.00  0.00    -0.007 A 
ATOM      6  C5  UNL d   1      -0.869  -2.828   0.800  0.00  0.00     0.039 A 
ENDROOT
BRANCH   4   7
ATOM      7  O   UNL d   1      -2.402  -1.723  -2.306  0.00  0.00    -0.526 OA
ATOM      8  H5  UNL d   1      -3.335  -1.762  -2.577  0.00  0.00     0.418 HD
ENDBRANCH   4   7
TORSDOF 1
ENDMDL
