MODEL 1
REMARK minimizedAffinity -1.53651595
REMARK minimizedRMSD -1
REMARK  1 active torsions:
REMARK  status: ('A' for Active; 'I' for Inactive)
REMARK    1  A    between atoms: C3_4  and  O_7 
ROOT
ATOM      1  C   UNL d   1      -2.932   5.999  -2.849  0.00  0.00    -0.033 A 
ATOM      2  C1  UNL d   1      -4.276   6.000  -3.227  0.00  0.00     0.039 A 
ATOM      3  C2  UNL d   1      -5.265   5.668  -2.299  0.00  0.00    -0.080 A 
ATOM      4  C3  UNL d   1      -4.896   5.340  -0.997  0.00  0.00     0.150 A 
ATOM      5  C4  UNL d   1      -3.560   5.341  -0.612  0.00  0.00    -0.007 A 
ATOM      6  C5  UNL d   1      -2.574   5.671  -1.541  0.00  0.00     0.039 A 
ENDROOT
BRANCH   4   7
ATOM      7  O   UNL d   1      -5.825   5.005  -0.057  0.00  0.00    -0.526 OA
ATOM      8  H5  UNL d   1      -6.703   5.019  -0.473  0.00  0.00     0.418 HD
ENDBRANCH   4   7
TORSDOF 1
ENDMDL
