MODEL 1
REMARK minimizedAffinity 2.31285214
REMARK minimizedRMSD -1
REMARK  1 active torsions:
REMARK  status: ('A' for Active; 'I' for Inactive)
REMARK    1  A    between atoms: C3_4  and  O_7 
ROOT
ATOM      1  C   UNL d   1       2.627   1.406  -0.793  0.00  0.00    -0.033 A 
ATOM      2  C1  UNL d   1       3.772   0.625  -0.962  0.00  0.00     0.039 A 
ATOM      3  C2  UNL d   1       4.313  -0.069   0.122  0.00  0.00    -0.080 A 
ATOM      4  C3  UNL d   1       3.699   0.026   1.368  0.00  0.00     0.150 A 
ATOM      5  C4  UNL d   1       2.556   0.799   1.543  0.00  0.00    -0.007 A 
ATOM      6  C5  UNL d   1       2.018   1.492   0.459  0.00  0.00     0.039 A 
ENDROOT
BRANCH   4   7
ATOM      7  O   UNL d   1       4.192  -0.630   2.457  0.00  0.00    -0.526 OA
ATOM      8  H5  UNL d   1       5.000  -1.100   2.192  0.00  0.00     0.418 HD
ENDBRANCH   4   7
TORSDOF 1
ENDMDL
