MODEL 1
REMARK minimizedAffinity 10.5836668
REMARK minimizedRMSD -1
REMARK  1 active torsions:
REMARK  status: ('A' for Active; 'I' for Inactive)
REMARK    1  A    between atoms: C3_4  and  O_7 
ROOT
ATOM      1  C   UNL d   1      -1.565  -2.348   0.722  0.00  0.00    -0.033 A 
ATOM      2  C1  UNL d   1      -2.658  -2.528   1.573  0.00  0.00     0.039 A 
ATOM      3  C2  UNL d   1      -2.838  -3.746   2.232  0.00  0.00    -0.080 A 
ATOM      4  C3  UNL d   1      -1.920  -4.773   2.033  0.00  0.00     0.150 A 
ATOM      5  C4  UNL d   1      -0.827  -4.599   1.190  0.00  0.00    -0.007 A 
ATOM      6  C5  UNL d   1      -0.649  -3.383   0.532  0.00  0.00     0.039 A 
ENDROOT
BRANCH   4   7
ATOM      7  O   UNL d   1      -2.057  -5.981   2.650  0.00  0.00    -0.526 OA
ATOM      8  H5  UNL d   1      -2.873  -5.966   3.179  0.00  0.00     0.418 HD
ENDBRANCH   4   7
TORSDOF 1
ENDMDL
