MODEL 1
REMARK minimizedAffinity 2.31140256
REMARK minimizedRMSD -1
REMARK  1 active torsions:
REMARK  status: ('A' for Active; 'I' for Inactive)
REMARK    1  A    between atoms: C3_4  and  O_7 
ROOT
ATOM      1  C   UNL d   1       2.473   1.645   0.305  0.00  0.00    -0.033 A 
ATOM      2  C1  UNL d   1       2.845   1.360  -1.010  0.00  0.00     0.039 A 
ATOM      3  C2  UNL d   1       3.754   0.334  -1.274  0.00  0.00    -0.080 A 
ATOM      4  C3  UNL d   1       4.282  -0.400  -0.215  0.00  0.00     0.150 A 
ATOM      5  C4  UNL d   1       3.912  -0.124   1.097  0.00  0.00    -0.007 A 
ATOM      6  C5  UNL d   1       3.005   0.902   1.359  0.00  0.00     0.039 A 
ENDROOT
BRANCH   4   7
ATOM      7  O   UNL d   1       5.176  -1.408  -0.423  0.00  0.00    -0.526 OA
ATOM      8  H5  UNL d   1       5.359  -1.465  -1.375  0.00  0.00     0.418 HD
ENDBRANCH   4   7
TORSDOF 1
ENDMDL
