MODEL 1
REMARK minimizedAffinity 0.551591873
REMARK minimizedRMSD -1
REMARK  1 active torsions:
REMARK  status: ('A' for Active; 'I' for Inactive)
REMARK    1  A    between atoms: C3_4  and  O_7 
ROOT
ATOM      1  C   UNL d   1      -1.377   1.235   2.539  0.00  0.00    -0.033 A 
ATOM      2  C1  UNL d   1      -2.234   0.196   2.909  0.00  0.00     0.039 A 
ATOM      3  C2  UNL d   1      -3.412   0.475   3.604  0.00  0.00    -0.080 A 
ATOM      4  C3  UNL d   1      -3.721   1.795   3.923  0.00  0.00     0.150 A 
ATOM      5  C4  UNL d   1      -2.874   2.834   3.555  0.00  0.00    -0.007 A 
ATOM      6  C5  UNL d   1      -1.698   2.554   2.861  0.00  0.00     0.039 A 
ENDROOT
BRANCH   4   7
ATOM      7  O   UNL d   1      -4.857   2.116   4.605  0.00  0.00    -0.526 OA
ATOM      8  H5  UNL d   1      -5.331   1.294   4.818  0.00  0.00     0.418 HD
ENDBRANCH   4   7
TORSDOF 1
ENDMDL
