MODEL 1
REMARK minimizedAffinity 4.76797247
REMARK minimizedRMSD -1
REMARK  1 active torsions:
REMARK  status: ('A' for Active; 'I' for Inactive)
REMARK    1  A    between atoms: C3_4  and  O_7 
ROOT
ATOM      1  C   UNL d   1       1.456   1.173   1.689  0.00  0.00    -0.033 A 
ATOM      2  C1  UNL d   1       0.576   0.178   2.118  0.00  0.00     0.039 A 
ATOM      3  C2  UNL d   1      -0.765   0.483   2.355  0.00  0.00    -0.080 A 
ATOM      4  C3  UNL d   1      -1.214   1.786   2.158  0.00  0.00     0.150 A 
ATOM      5  C4  UNL d   1      -0.344   2.782   1.726  0.00  0.00    -0.007 A 
ATOM      6  C5  UNL d   1       0.995   2.475   1.491  0.00  0.00     0.039 A 
ENDROOT
BRANCH   4   7
ATOM      7  O   UNL d   1      -2.513   2.134   2.381  0.00  0.00    -0.526 OA
ATOM      8  H5  UNL d   1      -2.990   1.351   2.702  0.00  0.00     0.418 HD
ENDBRANCH   4   7
TORSDOF 1
ENDMDL
