MODEL 1
REMARK minimizedAffinity -1.26020253
REMARK minimizedRMSD -1
REMARK  0 active torsions:
REMARK  status: ('A' for Active; 'I' for Inactive)
ROOT
ATOM      1  O1  BZF d   1       1.762   0.937   1.293  0.00  0.00    -0.204 OA
ATOM      2  C2  BZF d   1       1.096   1.699   2.234  0.00  0.00     0.174 A 
ATOM      3  C3  BZF d   1      -0.239   1.616   2.059  0.00  0.00    -0.012 A 
ATOM      4  C3A BZF d   1      -0.422   0.676   0.997  0.00  0.00    -0.107 A 
ATOM      5  C4  BZF d   1      -1.525   0.162   0.377  0.00  0.00     0.055 A 
ATOM      6  C5  BZF d   1      -1.358  -0.681  -0.676  0.00  0.00    -0.016 A 
ATOM      7  C6  BZF d   1      -0.105  -1.028  -1.137  0.00  0.00     0.022 A 
ATOM      8  C7  BZF d   1       1.019  -0.549  -0.551  0.00  0.00     0.029 A 
ATOM      9  C7A BZF d   1       0.854   0.278   0.533  0.00  0.00     0.058 A 
ENDROOT
TORSDOF 0
ENDMDL
