MODEL 1
REMARK minimizedAffinity -3.82806945
REMARK minimizedRMSD -1
REMARK  0 active torsions:
REMARK  status: ('A' for Active; 'I' for Inactive)
ROOT
ATOM      1  O1  BZF d   1       0.604  -1.106  -0.031  0.00  0.00    -0.204 OA
ATOM      2  C2  BZF d   1       1.855  -1.032   0.551  0.00  0.00     0.174 A 
ATOM      3  C3  BZF d   1       1.883  -0.081   1.506  0.00  0.00    -0.012 A 
ATOM      4  C3A BZF d   1       0.541   0.411   1.587  0.00  0.00    -0.107 A 
ATOM      5  C4  BZF d   1      -0.067   1.355   2.363  0.00  0.00     0.055 A 
ATOM      6  C5  BZF d   1      -1.376   1.649   2.141  0.00  0.00    -0.016 A 
ATOM      7  C6  BZF d   1      -2.103   1.023   1.150  0.00  0.00     0.022 A 
ATOM      8  C7  BZF d   1      -1.543   0.076   0.358  0.00  0.00     0.029 A 
ATOM      9  C7A BZF d   1      -0.231  -0.247   0.601  0.00  0.00     0.058 A 
ENDROOT
TORSDOF 0
ENDMDL
