MODEL 1
REMARK minimizedAffinity -1.58602655
REMARK minimizedRMSD -1
REMARK  0 active torsions:
REMARK  status: ('A' for Active; 'I' for Inactive)
ROOT
ATOM      1  O1  BZF d   1       0.772  -1.687  -0.628  0.00  0.00    -0.204 OA
ATOM      2  C2  BZF d   1      -0.366  -1.080  -1.121  0.00  0.00     0.174 A 
ATOM      3  C3  BZF d   1      -0.582   0.102  -0.508  0.00  0.00    -0.012 A 
ATOM      4  C3A BZF d   1       0.540   0.286   0.360  0.00  0.00    -0.107 A 
ATOM      5  C4  BZF d   1       0.907   1.280   1.222  0.00  0.00     0.055 A 
ATOM      6  C5  BZF d   1       2.026   1.119   1.977  0.00  0.00    -0.016 A 
ATOM      7  C6  BZF d   1       2.797  -0.022   1.899  0.00  0.00     0.022 A 
ATOM      8  C7  BZF d   1       2.475  -1.033   1.056  0.00  0.00     0.029 A 
ATOM      9  C7A BZF d   1       1.364  -0.860   0.268  0.00  0.00     0.058 A 
ENDROOT
TORSDOF 0
ENDMDL
