MODEL 1
REMARK minimizedAffinity -3.98878002
REMARK minimizedRMSD -1
REMARK  0 active torsions:
REMARK  status: ('A' for Active; 'I' for Inactive)
ROOT
ATOM      1  O1  BZF d   1       1.577  -0.193   1.082  0.00  0.00    -0.204 OA
ATOM      2  C2  BZF d   1       1.500  -1.125   0.066  0.00  0.00     0.174 A 
ATOM      3  C3  BZF d   1       0.283  -1.101  -0.514  0.00  0.00    -0.012 A 
ATOM      4  C3A BZF d   1      -0.417  -0.028   0.122  0.00  0.00    -0.107 A 
ATOM      5  C4  BZF d   1      -1.666   0.501  -0.032  0.00  0.00     0.055 A 
ATOM      6  C5  BZF d   1      -2.068   1.500   0.797  0.00  0.00    -0.016 A 
ATOM      7  C6  BZF d   1      -1.250   1.989   1.794  0.00  0.00     0.022 A 
ATOM      8  C7  BZF d   1       0.000   1.500   1.983  0.00  0.00     0.029 A 
ATOM      9  C7A BZF d   1       0.421   0.513   1.125  0.00  0.00     0.058 A 
ENDROOT
TORSDOF 0
ENDMDL
