MODEL 1
REMARK minimizedAffinity -1.74069464
REMARK minimizedRMSD -1
REMARK  0 active torsions:
REMARK  status: ('A' for Active; 'I' for Inactive)
ROOT
ATOM      1  C   UNL d   1      -2.217   0.518   1.863  0.00  0.00     0.020 A 
ATOM      2  C1  UNL d   1      -1.986   0.553   0.489  0.00  0.00     0.020 A 
ATOM      3  C2  UNL d   1      -0.754   0.139  -0.023  0.00  0.00     0.034 A 
ATOM      4  C3  UNL d   1       0.251  -0.312   0.841  0.00  0.00     0.017 A 
ATOM      5  C4  UNL d   1       0.018  -0.346   2.220  0.00  0.00     0.017 A 
ATOM      6  C5  UNL d   1      -1.217   0.070   2.727  0.00  0.00     0.034 A 
ATOM      7 Cl   UNL d   1       1.210  -0.889   3.348  0.00  0.00    -0.070 Cl
ATOM      8 Cl1  UNL d   1       1.750  -0.809   0.139  0.00  0.00    -0.070 Cl
ENDROOT
TORSDOF 0
ENDMDL
