MODEL 1
REMARK minimizedAffinity 0.672638953
REMARK minimizedRMSD -1
REMARK  0 active torsions:
REMARK  status: ('A' for Active; 'I' for Inactive)
ROOT
ATOM      1  C   UNL d   1       0.975  -1.464   4.069  0.00  0.00     0.020 A 
ATOM      2  C1  UNL d   1       1.684  -1.154   2.909  0.00  0.00     0.020 A 
ATOM      3  C2  UNL d   1       1.000  -0.770   1.754  0.00  0.00     0.034 A 
ATOM      4  C3  UNL d   1      -0.398  -0.696   1.756  0.00  0.00     0.017 A 
ATOM      5  C4  UNL d   1      -1.109  -1.007   2.920  0.00  0.00     0.017 A 
ATOM      6  C5  UNL d   1      -0.419  -1.390   4.074  0.00  0.00     0.034 A 
ATOM      7 Cl   UNL d   1      -2.834  -0.937   2.999  0.00  0.00    -0.070 Cl
ATOM      8 Cl1  UNL d   1      -1.179  -0.214   0.291  0.00  0.00    -0.070 Cl
ENDROOT
TORSDOF 0
ENDMDL
