MODEL 1
REMARK minimizedAffinity -2.25740504
REMARK minimizedRMSD -1
REMARK  0 active torsions:
REMARK  status: ('A' for Active; 'I' for Inactive)
ROOT
ATOM      1  C   UNL d   1      -1.354   0.375   1.178  0.00  0.00     0.020 A 
ATOM      2  C1  UNL d   1      -1.498   0.283   2.562  0.00  0.00     0.020 A 
ATOM      3  C2  UNL d   1      -0.467  -0.252   3.337  0.00  0.00     0.034 A 
ATOM      4  C3  UNL d   1       0.713  -0.696   2.729  0.00  0.00     0.017 A 
ATOM      5  C4  UNL d   1       0.856  -0.603   1.340  0.00  0.00     0.017 A 
ATOM      6  C5  UNL d   1      -0.180  -0.067   0.568  0.00  0.00     0.034 A 
ATOM      7 Cl   UNL d   1       2.283  -1.130   0.518  0.00  0.00    -0.070 Cl
ATOM      8 Cl1  UNL d   1       1.948  -1.345   3.749  0.00  0.00    -0.070 Cl
ENDROOT
TORSDOF 0
ENDMDL
