MODEL 1
REMARK minimizedAffinity 6.90128517
REMARK minimizedRMSD -1
REMARK  0 active torsions:
REMARK  status: ('A' for Active; 'I' for Inactive)
ROOT
ATOM      1  C   UNL d   1      -2.186  -0.216   2.598  0.00  0.00     0.020 A 
ATOM      2  C1  UNL d   1      -3.193  -1.126   2.918  0.00  0.00     0.020 A 
ATOM      3  C2  UNL d   1      -3.783  -1.896   1.914  0.00  0.00     0.034 A 
ATOM      4  C3  UNL d   1      -3.367  -1.758   0.584  0.00  0.00     0.017 A 
ATOM      5  C4  UNL d   1      -2.357  -0.844   0.264  0.00  0.00     0.017 A 
ATOM      6  C5  UNL d   1      -1.769  -0.076   1.273  0.00  0.00     0.034 A 
ATOM      7 Cl   UNL d   1      -1.790  -0.618  -1.353  0.00  0.00    -0.070 Cl
ATOM      8 Cl1  UNL d   1      -4.141  -2.743  -0.606  0.00  0.00    -0.070 Cl
ENDROOT
TORSDOF 0
ENDMDL
