MODEL 1
REMARK minimizedAffinity -1.37137234
REMARK minimizedRMSD -1
REMARK  0 active torsions:
REMARK  status: ('A' for Active; 'I' for Inactive)
ROOT
ATOM      1  C   UNL d   1      -0.788  -1.180   4.144  0.00  0.00     0.020 A 
ATOM      2  C1  UNL d   1       0.573  -1.444   4.002  0.00  0.00     0.020 A 
ATOM      3  C2  UNL d   1       1.194  -1.268   2.764  0.00  0.00     0.034 A 
ATOM      4  C3  UNL d   1       0.453  -0.826   1.662  0.00  0.00     0.017 A 
ATOM      5  C4  UNL d   1      -0.914  -0.560   1.805  0.00  0.00     0.017 A 
ATOM      6  C5  UNL d   1      -1.530  -0.739   3.047  0.00  0.00     0.034 A 
ATOM      7 Cl   UNL d   1      -1.894  -0.012   0.491  0.00  0.00    -0.070 Cl
ATOM      8 Cl1  UNL d   1       1.285  -0.629   0.160  0.00  0.00    -0.070 Cl
ENDROOT
TORSDOF 0
ENDMDL
