MODEL 1
REMARK minimizedAffinity -1.1016798
REMARK minimizedRMSD -1
REMARK  0 active torsions:
REMARK  status: ('A' for Active; 'I' for Inactive)
ROOT
ATOM      1  C   UNL d   1      -2.128  -0.782  -1.595  0.00  0.00     0.020 A 
ATOM      2  C1  UNL d   1      -3.168  -0.371  -0.763  0.00  0.00     0.020 A 
ATOM      3  C2  UNL d   1      -2.905  -0.024   0.564  0.00  0.00     0.034 A 
ATOM      4  C3  UNL d   1      -1.599  -0.086   1.062  0.00  0.00     0.017 A 
ATOM      5  C4  UNL d   1      -0.555  -0.499   0.225  0.00  0.00     0.017 A 
ATOM      6  C5  UNL d   1      -0.824  -0.845  -1.102  0.00  0.00     0.034 A 
ATOM      7 Cl   UNL d   1       1.083  -0.601   0.768  0.00  0.00    -0.070 Cl
ATOM      8 Cl1  UNL d   1      -1.346   0.358   2.712  0.00  0.00    -0.070 Cl
ENDROOT
TORSDOF 0
ENDMDL
