MODEL 1
REMARK minimizedAffinity -0.031782981
REMARK minimizedRMSD -1
REMARK  0 active torsions:
REMARK  status: ('A' for Active; 'I' for Inactive)
ROOT
ATOM      1  C   UNL d   1      -1.544   0.923   2.186  0.00  0.00     0.020 A 
ATOM      2  C1  UNL d   1      -2.599   0.374   1.460  0.00  0.00     0.020 A 
ATOM      3  C2  UNL d   1      -2.338  -0.484   0.389  0.00  0.00     0.034 A 
ATOM      4  C3  UNL d   1      -1.018  -0.794   0.041  0.00  0.00     0.017 A 
ATOM      5  C4  UNL d   1       0.041  -0.241   0.771  0.00  0.00     0.017 A 
ATOM      6  C5  UNL d   1      -0.227   0.617   1.843  0.00  0.00     0.034 A 
ATOM      7 Cl   UNL d   1       1.696  -0.577   0.402  0.00  0.00    -0.070 Cl
ATOM      8 Cl1  UNL d   1      -0.768  -1.861  -1.294  0.00  0.00    -0.070 Cl
ENDROOT
TORSDOF 0
ENDMDL
