MODEL 1
REMARK minimizedAffinity 3.10284376
REMARK minimizedRMSD -1
REMARK  3 active torsions:
REMARK  status: ('A' for Active; 'I' for Inactive)
REMARK    1  A    between atoms: C3'_2  and  C2'_3 
REMARK    2  A    between atoms: C2'_3  and  C1'_4 
REMARK    3  A    between atoms: C1'_4  and  C1_5 
ROOT
ATOM      1  C1  N4B d   1      -0.217   3.248  -0.591  0.00  0.00    -0.075 A 
ATOM      2  C2  N4B d   1      -0.049   2.647   0.676  0.00  0.00     0.002 A 
ATOM      3  C3  N4B d   1       0.968   3.060   1.501  0.00  0.00     0.002 A 
ATOM      4  C4  N4B d   1       1.837   4.054   1.075  0.00  0.00    -0.004 A 
ATOM      5  C5  N4B d   1       1.651   4.647  -0.139  0.00  0.00     0.002 A 
ATOM      6  C6  N4B d   1       0.631   4.245  -0.978  0.00  0.00     0.002 A 
ENDROOT
BRANCH   1   7
ATOM      7  C1' N4B d   1      -1.262   2.771  -1.563  0.00  0.00     0.057 C 
BRANCH   7   8
ATOM      8  C2' N4B d   1      -1.183   1.252  -1.677  0.00  0.00     0.009 C 
BRANCH   8   9
ATOM      9  C3' N4B d   1      -2.330   0.684  -2.496  0.00  0.00     0.004 C 
ATOM     10  C4' N4B d   1      -3.017  -0.463  -1.816  0.00  0.00     0.003 C 
ENDBRANCH   8   9
ENDBRANCH   7   8
ENDBRANCH   1   7
TORSDOF 3
ENDMDL
