MODEL 1
REMARK minimizedAffinity 3.99309492
REMARK minimizedRMSD -1
REMARK  3 active torsions:
REMARK  status: ('A' for Active; 'I' for Inactive)
REMARK    1  A    between atoms: C3'_2  and  C2'_3 
REMARK    2  A    between atoms: C2'_3  and  C1'_4 
REMARK    3  A    between atoms: C1'_4  and  C1_5 
ROOT
ATOM      1  C1  N4B d   1       0.196  -4.628  -5.417  0.00  0.00    -0.075 A 
ATOM      2  C2  N4B d   1      -0.347  -5.794  -4.835  0.00  0.00     0.002 A 
ATOM      3  C3  N4B d   1      -1.705  -6.000  -4.848  0.00  0.00     0.002 A 
ATOM      4  C4  N4B d   1      -2.537  -5.048  -5.418  0.00  0.00    -0.004 A 
ATOM      5  C5  N4B d   1      -2.003  -3.936  -6.000  0.00  0.00     0.002 A 
ATOM      6  C6  N4B d   1      -0.640  -3.718  -5.998  0.00  0.00     0.002 A 
ENDROOT
BRANCH   1   7
ATOM      7  C1' N4B d   1       1.666  -4.318  -5.351  0.00  0.00     0.057 C 
BRANCH   7   8
ATOM      8  C2' N4B d   1       1.960  -3.552  -4.065  0.00  0.00     0.009 C 
BRANCH   8   9
ATOM      9  C3' N4B d   1       3.155  -2.627  -4.215  0.00  0.00     0.004 C 
ATOM     10  C4' N4B d   1       4.383  -3.338  -4.700  0.00  0.00     0.003 C 
ENDBRANCH   8   9
ENDBRANCH   7   8
ENDBRANCH   1   7
TORSDOF 3
ENDMDL
