MODEL 1
REMARK minimizedAffinity 5.10094166
REMARK minimizedRMSD -1
REMARK  3 active torsions:
REMARK  status: ('A' for Active; 'I' for Inactive)
REMARK    1  A    between atoms: C3'_2  and  C2'_3 
REMARK    2  A    between atoms: C2'_3  and  C1'_4 
REMARK    3  A    between atoms: C1'_4  and  C1_5 
ROOT
ATOM      1  C1  N4B d   1       3.818  -4.475  -2.683  0.00  0.00    -0.075 A 
ATOM      2  C2  N4B d   1       3.167  -5.254  -1.701  0.00  0.00     0.002 A 
ATOM      3  C3  N4B d   1       3.906  -5.999  -0.815  0.00  0.00     0.002 A 
ATOM      4  C4  N4B d   1       5.290  -5.996  -0.904  0.00  0.00    -0.004 A 
ATOM      5  C5  N4B d   1       5.911  -5.222  -1.839  0.00  0.00     0.002 A 
ATOM      6  C6  N4B d   1       5.182  -4.464  -2.733  0.00  0.00     0.002 A 
ENDROOT
BRANCH   1   7
ATOM      7  C1' N4B d   1       3.051  -3.711  -3.727  0.00  0.00     0.057 C 
BRANCH   7   8
ATOM      8  C2' N4B d   1       3.676  -2.330  -3.897  0.00  0.00     0.009 C 
BRANCH   8   9
ATOM      9  C3' N4B d   1       4.133  -1.745  -2.572  0.00  0.00     0.004 C 
ATOM     10  C4' N4B d   1       3.103  -1.883  -1.491  0.00  0.00     0.003 C 
ENDBRANCH   8   9
ENDBRANCH   7   8
ENDBRANCH   1   7
TORSDOF 3
ENDMDL
