MODEL 1
REMARK minimizedAffinity 7.66586876
REMARK minimizedRMSD -1
REMARK  3 active torsions:
REMARK  status: ('A' for Active; 'I' for Inactive)
REMARK    1  A    between atoms: C3'_2  and  C2'_3 
REMARK    2  A    between atoms: C2'_3  and  C1'_4 
REMARK    3  A    between atoms: C1'_4  and  C1_5 
ROOT
ATOM      1  C1  N4B d   1       3.764  -2.110  -1.011  0.00  0.00    -0.075 A 
ATOM      2  C2  N4B d   1       4.861  -2.947  -0.709  0.00  0.00     0.002 A 
ATOM      3  C3  N4B d   1       5.689  -3.382  -1.714  0.00  0.00     0.002 A 
ATOM      4  C4  N4B d   1       5.432  -3.011  -3.025  0.00  0.00    -0.004 A 
ATOM      5  C5  N4B d   1       4.385  -2.182  -3.305  0.00  0.00     0.002 A 
ATOM      6  C6  N4B d   1       3.546  -1.733  -2.305  0.00  0.00     0.002 A 
ENDROOT
BRANCH   1   7
ATOM      7  C1' N4B d   1       2.780  -1.678   0.042  0.00  0.00     0.057 C 
BRANCH   7   8
ATOM      8  C2' N4B d   1       2.128  -2.914   0.654  0.00  0.00     0.009 C 
BRANCH   8   9
ATOM      9  C3' N4B d   1       0.765  -3.198   0.045  0.00  0.00     0.004 C 
ATOM     10  C4' N4B d   1       0.599  -4.631  -0.364  0.00  0.00     0.003 C 
ENDBRANCH   8   9
ENDBRANCH   7   8
ENDBRANCH   1   7
TORSDOF 3
ENDMDL
