MODEL 1
REMARK minimizedAffinity 2.16637659
REMARK minimizedRMSD -1
REMARK  3 active torsions:
REMARK  status: ('A' for Active; 'I' for Inactive)
REMARK    1  A    between atoms: C3'_2  and  C2'_3 
REMARK    2  A    between atoms: C2'_3  and  C1'_4 
REMARK    3  A    between atoms: C1'_4  and  C1_5 
ROOT
ATOM      1  C1  N4B d   1       4.253  -2.838  -1.366  0.00  0.00    -0.075 A 
ATOM      2  C2  N4B d   1       5.015  -3.993  -1.081  0.00  0.00     0.002 A 
ATOM      3  C3  N4B d   1       5.155  -4.974  -2.032  0.00  0.00     0.002 A 
ATOM      4  C4  N4B d   1       4.530  -4.832  -3.262  0.00  0.00    -0.004 A 
ATOM      5  C5  N4B d   1       3.817  -3.702  -3.537  0.00  0.00     0.002 A 
ATOM      6  C6  N4B d   1       3.671  -2.706  -2.593  0.00  0.00     0.002 A 
ENDROOT
BRANCH   1   7
ATOM      7  C1' N4B d   1       4.000  -1.778  -0.329  0.00  0.00     0.057 C 
BRANCH   7   8
ATOM      8  C2' N4B d   1       2.544  -1.854   0.120  0.00  0.00     0.009 C 
BRANCH   8   9
ATOM      9  C3' N4B d   1       2.167  -3.247   0.595  0.00  0.00     0.004 C 
ATOM     10  C4' N4B d   1       1.303  -3.981  -0.386  0.00  0.00     0.003 C 
ENDBRANCH   8   9
ENDBRANCH   7   8
ENDBRANCH   1   7
TORSDOF 3
ENDMDL
