MODEL 1
REMARK minimizedAffinity 10.7532434
REMARK minimizedRMSD -1
REMARK  3 active torsions:
REMARK  status: ('A' for Active; 'I' for Inactive)
REMARK    1  A    between atoms: C3'_2  and  C2'_3 
REMARK    2  A    between atoms: C2'_3  and  C1'_4 
REMARK    3  A    between atoms: C1'_4  and  C1_5 
ROOT
ATOM      1  C1  N4B d   1       3.444  -3.425  -1.028  0.00  0.00    -0.075 A 
ATOM      2  C2  N4B d   1       2.486  -3.500   0.006  0.00  0.00     0.002 A 
ATOM      3  C3  N4B d   1       1.532  -4.487  -0.012  0.00  0.00     0.002 A 
ATOM      4  C4  N4B d   1       1.505  -5.396  -1.059  0.00  0.00    -0.004 A 
ATOM      5  C5  N4B d   1       2.450  -5.332  -2.041  0.00  0.00     0.002 A 
ATOM      6  C6  N4B d   1       3.417  -4.347  -2.034  0.00  0.00     0.002 A 
ENDROOT
BRANCH   1   7
ATOM      7  C1' N4B d   1       4.453  -2.311  -1.097  0.00  0.00     0.057 C 
BRANCH   7   8
ATOM      8  C2' N4B d   1       5.006  -2.223  -2.516  0.00  0.00     0.009 C 
BRANCH   8   9
ATOM      9  C3' N4B d   1       3.911  -1.966  -3.537  0.00  0.00     0.004 C 
ATOM     10  C4' N4B d   1       4.444  -1.465  -4.846  0.00  0.00     0.003 C 
ENDBRANCH   8   9
ENDBRANCH   7   8
ENDBRANCH   1   7
TORSDOF 3
ENDMDL
