MODEL 1
REMARK minimizedAffinity 2.42341018
REMARK minimizedRMSD -1
REMARK  0 active torsions:
REMARK  status: ('A' for Active; 'I' for Inactive)
ROOT
ATOM      1  C1  BNZ d   1       0.811   2.223   3.763  0.00  0.00     0.000 A 
ATOM      2  C2  BNZ d   1      -0.464   2.580   4.113  0.00  0.00     0.000 A 
ATOM      3  C3  BNZ d   1      -1.533   2.188   3.357  0.00  0.00     0.000 A 
ATOM      4  C4  BNZ d   1      -1.324   1.476   2.231  0.00  0.00     0.000 A 
ATOM      5  C5  BNZ d   1      -0.044   1.116   1.859  0.00  0.00     0.000 A 
ATOM      6  C6  BNZ d   1       1.027   1.479   2.644  0.00  0.00     0.000 A 
ENDROOT
TORSDOF 0
ENDMDL
