MODEL 1
REMARK minimizedAffinity 5.82525682
REMARK minimizedRMSD -1
REMARK  0 active torsions:
REMARK  status: ('A' for Active; 'I' for Inactive)
ROOT
ATOM      1  C1  BNZ d   1      -2.035   2.135  -3.492  0.00  0.00     0.000 A 
ATOM      2  C2  BNZ d   1      -2.655   3.351  -3.600  0.00  0.00     0.000 A 
ATOM      3  C3  BNZ d   1      -3.028   3.840  -4.821  0.00  0.00     0.000 A 
ATOM      4  C4  BNZ d   1      -2.745   3.132  -5.934  0.00  0.00     0.000 A 
ATOM      5  C5  BNZ d   1      -2.111   1.909  -5.841  0.00  0.00     0.000 A 
ATOM      6  C6  BNZ d   1      -1.772   1.402  -4.608  0.00  0.00     0.000 A 
ENDROOT
TORSDOF 0
ENDMDL
