MODEL 1
REMARK minimizedAffinity 10.1255512
REMARK minimizedRMSD -1
REMARK  0 active torsions:
REMARK  status: ('A' for Active; 'I' for Inactive)
ROOT
ATOM      1  C1  BNZ d   1      -6.000  -4.466  -6.000  0.00  0.00     0.000 A 
ATOM      2  C2  BNZ d   1      -5.971  -3.137  -5.670  0.00  0.00     0.000 A 
ATOM      3  C3  BNZ d   1      -4.881  -2.593  -5.050  0.00  0.00     0.000 A 
ATOM      4  C4  BNZ d   1      -3.840  -3.386  -4.724  0.00  0.00     0.000 A 
ATOM      5  C5  BNZ d   1      -3.858  -4.729  -5.041  0.00  0.00     0.000 A 
ATOM      6  C6  BNZ d   1      -4.940  -5.265  -5.701  0.00  0.00     0.000 A 
ENDROOT
TORSDOF 0
ENDMDL
