MODEL 1
REMARK minimizedAffinity -0.97992599
REMARK minimizedRMSD -1
REMARK  0 active torsions:
REMARK  status: ('A' for Active; 'I' for Inactive)
ROOT
ATOM      1  C1  BNZ d   1      -3.372   3.942  -6.000  0.00  0.00     0.000 A 
ATOM      2  C2  BNZ d   1      -3.368   5.311  -5.986  0.00  0.00     0.000 A 
ATOM      3  C3  BNZ d   1      -2.604   6.000  -5.085  0.00  0.00     0.000 A 
ATOM      4  C4  BNZ d   1      -1.878   5.320  -4.175  0.00  0.00     0.000 A 
ATOM      5  C5  BNZ d   1      -1.878   3.939  -4.170  0.00  0.00     0.000 A 
ATOM      6  C6  BNZ d   1      -2.618   3.249  -5.103  0.00  0.00     0.000 A 
ENDROOT
TORSDOF 0
ENDMDL
