MODEL 1
REMARK minimizedAffinity 9.93203068
REMARK minimizedRMSD -1
REMARK  0 active torsions:
REMARK  status: ('A' for Active; 'I' for Inactive)
ROOT
ATOM      1  C1  BNZ d   1      -2.956   1.113   2.791  0.00  0.00     0.000 A 
ATOM      2  C2  BNZ d   1      -1.712   1.463   2.338  0.00  0.00     0.000 A 
ATOM      3  C3  BNZ d   1      -0.747   1.896   3.204  0.00  0.00     0.000 A 
ATOM      4  C4  BNZ d   1      -1.039   2.017   4.515  0.00  0.00     0.000 A 
ATOM      5  C5  BNZ d   1      -2.292   1.678   4.986  0.00  0.00     0.000 A 
ATOM      6  C6  BNZ d   1      -3.248   1.205   4.117  0.00  0.00     0.000 A 
ENDROOT
TORSDOF 0
ENDMDL
