MODEL 1
REMARK minimizedAffinity 8.5101366
REMARK minimizedRMSD -1
REMARK  0 active torsions:
REMARK  status: ('A' for Active; 'I' for Inactive)
ROOT
ATOM      1  C1  BNZ d   1      -0.059   0.251   3.720  0.00  0.00     0.000 A 
ATOM      2  C2  BNZ d   1       0.217   0.235   5.061  0.00  0.00     0.000 A 
ATOM      3  C3  BNZ d   1       1.198   1.031   5.584  0.00  0.00     0.000 A 
ATOM      4  C4  BNZ d   1       1.928   1.810   4.760  0.00  0.00     0.000 A 
ATOM      5  C5  BNZ d   1       1.668   1.831   3.404  0.00  0.00     0.000 A 
ATOM      6  C6  BNZ d   1       0.654   1.058   2.888  0.00  0.00     0.000 A 
ENDROOT
TORSDOF 0
ENDMDL
