MODEL 1
REMARK minimizedAffinity 13.4641438
REMARK minimizedRMSD -1
REMARK  0 active torsions:
REMARK  status: ('A' for Active; 'I' for Inactive)
ROOT
ATOM      1  C1  BNZ d   1      -5.359   2.999   4.870  0.00  0.00     0.000 A 
ATOM      2  C2  BNZ d   1      -5.104   2.251   3.751  0.00  0.00     0.000 A 
ATOM      3  C3  BNZ d   1      -4.125   1.298   3.754  0.00  0.00     0.000 A 
ATOM      4  C4  BNZ d   1      -3.375   1.121   4.862  0.00  0.00     0.000 A 
ATOM      5  C5  BNZ d   1      -3.614   1.874   5.994  0.00  0.00     0.000 A 
ATOM      6  C6  BNZ d   1      -4.626   2.805   6.000  0.00  0.00     0.000 A 
ENDROOT
TORSDOF 0
ENDMDL
