MODEL 1
REMARK minimizedAffinity -0.507427096
REMARK minimizedRMSD -1
REMARK  0 active torsions:
REMARK  status: ('A' for Active; 'I' for Inactive)
ROOT
ATOM      1  C1  BNZ d   1      -3.739   3.926  -5.997  0.00  0.00     0.000 A 
ATOM      2  C2  BNZ d   1      -3.725   5.295  -5.999  0.00  0.00     0.000 A 
ATOM      3  C3  BNZ d   1      -2.921   5.988  -5.138  0.00  0.00     0.000 A 
ATOM      4  C4  BNZ d   1      -2.163   5.313  -4.250  0.00  0.00     0.000 A 
ATOM      5  C5  BNZ d   1      -2.173   3.932  -4.229  0.00  0.00     0.000 A 
ATOM      6  C6  BNZ d   1      -2.955   3.237  -5.124  0.00  0.00     0.000 A 
ENDROOT
TORSDOF 0
ENDMDL
