MODEL 1
REMARK minimizedAffinity 8.3369379
REMARK minimizedRMSD -1
REMARK  0 active torsions:
REMARK  status: ('A' for Active; 'I' for Inactive)
ROOT
ATOM      1  C1  BNZ d   1      -0.027  -1.718  -3.153  0.00  0.00     0.000 A 
ATOM      2  C2  BNZ d   1      -0.813  -2.671  -3.744  0.00  0.00     0.000 A 
ATOM      3  C3  BNZ d   1      -2.077  -2.371  -4.168  0.00  0.00     0.000 A 
ATOM      4  C4  BNZ d   1      -2.568  -1.132  -3.965  0.00  0.00     0.000 A 
ATOM      5  C5  BNZ d   1      -1.792  -0.162  -3.362  0.00  0.00     0.000 A 
ATOM      6  C6  BNZ d   1      -0.505  -0.457  -2.972  0.00  0.00     0.000 A 
ENDROOT
TORSDOF 0
ENDMDL
