MODEL 1
REMARK minimizedAffinity 10.5979462
REMARK minimizedRMSD -1
REMARK  0 active torsions:
REMARK  status: ('A' for Active; 'I' for Inactive)
ROOT
ATOM      1  C1  BNZ d   1       1.057   5.499  -0.243  0.00  0.00     0.000 A 
ATOM      2  C2  BNZ d   1      -0.124   5.614  -0.927  0.00  0.00     0.000 A 
ATOM      3  C3  BNZ d   1      -0.132   5.845  -2.274  0.00  0.00     0.000 A 
ATOM      4  C4  BNZ d   1       1.037   6.000  -2.928  0.00  0.00     0.000 A 
ATOM      5  C5  BNZ d   1       2.236   5.896  -2.250  0.00  0.00     0.000 A 
ATOM      6  C6  BNZ d   1       2.241   5.625  -0.901  0.00  0.00     0.000 A 
ENDROOT
TORSDOF 0
ENDMDL
