MODEL 1
REMARK minimizedAffinity 13.7342691
REMARK minimizedRMSD -1
REMARK  0 active torsions:
REMARK  status: ('A' for Active; 'I' for Inactive)
ROOT
ATOM      1  C1  BNZ d   1      -4.728   1.565   3.685  0.00  0.00     0.000 A 
ATOM      2  C2  BNZ d   1      -4.878   2.276   4.845  0.00  0.00     0.000 A 
ATOM      3  C3  BNZ d   1      -4.265   1.873   5.999  0.00  0.00     0.000 A 
ATOM      4  C4  BNZ d   1      -3.537   0.738   6.000  0.00  0.00     0.000 A 
ATOM      5  C5  BNZ d   1      -3.383   0.004   4.840  0.00  0.00     0.000 A 
ATOM      6  C6  BNZ d   1      -3.969   0.435   3.672  0.00  0.00     0.000 A 
ENDROOT
TORSDOF 0
ENDMDL
