MODEL 1
REMARK minimizedAffinity 6.83759499
REMARK minimizedRMSD -1
REMARK  0 active torsions:
REMARK  status: ('A' for Active; 'I' for Inactive)
ROOT
ATOM      1  C1  BNZ d   1      -3.266   0.876   5.617  0.00  0.00     0.000 A 
ATOM      2  C2  BNZ d   1      -4.044   1.978   5.852  0.00  0.00     0.000 A 
ATOM      3  C3  BNZ d   1      -4.759   2.558   4.841  0.00  0.00     0.000 A 
ATOM      4  C4  BNZ d   1      -4.664   2.061   3.592  0.00  0.00     0.000 A 
ATOM      5  C5  BNZ d   1      -3.876   0.956   3.337  0.00  0.00     0.000 A 
ATOM      6  C6  BNZ d   1      -3.188   0.351   4.364  0.00  0.00     0.000 A 
ENDROOT
TORSDOF 0
ENDMDL
