MODEL 1
REMARK minimizedAffinity 13.1133928
REMARK minimizedRMSD -1
REMARK  0 active torsions:
REMARK  status: ('A' for Active; 'I' for Inactive)
ROOT
ATOM      1  C1  BNZ d   1       3.060   0.369  -5.250  0.00  0.00     0.000 A 
ATOM      2  C2  BNZ d   1       1.931   0.473  -4.482  0.00  0.00     0.000 A 
ATOM      3  C3  BNZ d   1       1.012  -0.538  -4.448  0.00  0.00     0.000 A 
ATOM      4  C4  BNZ d   1       1.203  -1.633  -5.212  0.00  0.00     0.000 A 
ATOM      5  C5  BNZ d   1       2.332  -1.749  -5.998  0.00  0.00     0.000 A 
ATOM      6  C6  BNZ d   1       3.274  -0.746  -6.000  0.00  0.00     0.000 A 
ENDROOT
TORSDOF 0
ENDMDL
