MODEL 1
REMARK minimizedAffinity 1.85357308
REMARK minimizedRMSD -1
REMARK  0 active torsions:
REMARK  status: ('A' for Active; 'I' for Inactive)
ROOT
ATOM      1  C1  BNZ d   1      -1.987   3.829  -4.129  0.00  0.00     0.000 A 
ATOM      2  C2  BNZ d   1      -1.685   5.165  -4.146  0.00  0.00     0.000 A 
ATOM      3  C3  BNZ d   1      -2.251   5.999  -5.069  0.00  0.00     0.000 A 
ATOM      4  C4  BNZ d   1      -3.086   5.490  -5.998  0.00  0.00     0.000 A 
ATOM      5  C5  BNZ d   1      -3.393   4.144  -6.000  0.00  0.00     0.000 A 
ATOM      6  C6  BNZ d   1      -2.852   3.314  -5.045  0.00  0.00     0.000 A 
ENDROOT
TORSDOF 0
ENDMDL
