MODEL 1
REMARK minimizedAffinity 9.62298965
REMARK minimizedRMSD -1
REMARK  0 active torsions:
REMARK  status: ('A' for Active; 'I' for Inactive)
ROOT
ATOM      1  C1  BNZ d   1       0.845   1.124   3.705  0.00  0.00     0.000 A 
ATOM      2  C2  BNZ d   1      -0.001   2.201   3.723  0.00  0.00     0.000 A 
ATOM      3  C3  BNZ d   1      -0.187   2.926   4.867  0.00  0.00     0.000 A 
ATOM      4  C4  BNZ d   1       0.441   2.549   6.000  0.00  0.00     0.000 A 
ATOM      5  C5  BNZ d   1       1.290   1.460   6.000  0.00  0.00     0.000 A 
ATOM      6  C6  BNZ d   1       1.505   0.757   4.837  0.00  0.00     0.000 A 
ENDROOT
TORSDOF 0
ENDMDL
