MODEL 1
REMARK minimizedAffinity 2.19153118
REMARK minimizedRMSD -1
REMARK  0 active torsions:
REMARK  status: ('A' for Active; 'I' for Inactive)
ROOT
ATOM      1  C1  BNZ d   1      -2.543   3.741  -6.000  0.00  0.00     0.000 A 
ATOM      2  C2  BNZ d   1      -1.895   2.534  -5.999  0.00  0.00     0.000 A 
ATOM      3  C3  BNZ d   1      -1.387   2.013  -4.842  0.00  0.00     0.000 A 
ATOM      4  C4  BNZ d   1      -1.493   2.716  -3.696  0.00  0.00     0.000 A 
ATOM      5  C5  BNZ d   1      -2.134   3.938  -3.682  0.00  0.00     0.000 A 
ATOM      6  C6  BNZ d   1      -2.678   4.442  -4.842  0.00  0.00     0.000 A 
ENDROOT
TORSDOF 0
ENDMDL
