MODEL 1
REMARK minimizedAffinity 5.59734583
REMARK minimizedRMSD -1
REMARK  0 active torsions:
REMARK  status: ('A' for Active; 'I' for Inactive)
ROOT
ATOM      1  C1  BNZ d   1      -3.493  -0.834   2.578  0.00  0.00     0.000 A 
ATOM      2  C2  BNZ d   1      -2.337  -0.391   1.991  0.00  0.00     0.000 A 
ATOM      3  C3  BNZ d   1      -1.857   0.863   2.249  0.00  0.00     0.000 A 
ATOM      4  C4  BNZ d   1      -2.553   1.685   3.059  0.00  0.00     0.000 A 
ATOM      5  C5  BNZ d   1      -3.725   1.257   3.651  0.00  0.00     0.000 A 
ATOM      6  C6  BNZ d   1      -4.184  -0.019   3.420  0.00  0.00     0.000 A 
ENDROOT
TORSDOF 0
ENDMDL
