MODEL 1
REMARK minimizedAffinity 8.35898495
REMARK minimizedRMSD -1
REMARK  1 active torsions:
REMARK  status: ('A' for Active; 'I' for Inactive)
REMARK    1  A    between atoms: C1_2  and  C2_3 
ROOT
ATOM      1  C2  UNL d   1       1.514   0.574   0.413  0.00  0.00    -0.073 A 
ATOM      2  C3  UNL d   1       0.241   1.021   0.784  0.00  0.00    -0.002 A 
ATOM      3  C4  UNL d   1       0.088   1.906   1.851  0.00  0.00     0.004 A 
ATOM      4  C5  UNL d   1       1.205   2.358   2.554  0.00  0.00    -0.004 A 
ATOM      5  C6  UNL d   1       2.487   1.932   2.191  0.00  0.00    -0.075 A 
ATOM      6  C7  UNL d   1       3.698   2.407   2.938  0.00  0.00     0.076 C 
ATOM      7  C8  UNL d   1       2.632   1.041   1.119  0.00  0.00     0.001 A 
ENDROOT
BRANCH   1   8
ATOM      8  C1  UNL d   1       1.685  -0.377  -0.744  0.00  0.00     0.053 C 
ATOM      9  C   UNL d   1       2.243   0.318  -1.975  0.00  0.00     0.018 C 
ENDBRANCH   1   8
TORSDOF 1
ENDMDL
