MODEL 1
REMARK minimizedAffinity 10.9767189
REMARK minimizedRMSD -1
REMARK  1 active torsions:
REMARK  status: ('A' for Active; 'I' for Inactive)
REMARK    1  A    between atoms: C1_2  and  C2_3 
ROOT
ATOM      1  C2  UNL d   1       1.863   0.788  -0.692  0.00  0.00    -0.073 A 
ATOM      2  C3  UNL d   1       2.947  -0.028  -1.032  0.00  0.00    -0.002 A 
ATOM      3  C4  UNL d   1       3.289  -0.224  -2.371  0.00  0.00     0.004 A 
ATOM      4  C5  UNL d   1       2.555   0.398  -3.381  0.00  0.00    -0.004 A 
ATOM      5  C6  UNL d   1       1.475   1.227  -3.060  0.00  0.00    -0.075 A 
ATOM      6  C7  UNL d   1       0.675   1.902  -4.135  0.00  0.00     0.076 C 
ATOM      7  C8  UNL d   1       1.137   1.417  -1.713  0.00  0.00     0.001 A 
ENDROOT
BRANCH   1   8
ATOM      8  C1  UNL d   1       1.494   1.008   0.753  0.00  0.00     0.053 C 
ATOM      9  C   UNL d   1       0.112   1.624   0.901  0.00  0.00     0.018 C 
ENDBRANCH   1   8
TORSDOF 1
ENDMDL
