MODEL 1
REMARK minimizedAffinity 6.84695053
REMARK minimizedRMSD -1
REMARK  1 active torsions:
REMARK  status: ('A' for Active; 'I' for Inactive)
REMARK    1  A    between atoms: C1_2  and  C2_3 
ROOT
ATOM      1  C2  UNL d   1       3.397   0.981  -1.351  0.00  0.00    -0.073 A 
ATOM      2  C3  UNL d   1       4.532   1.792  -1.456  0.00  0.00    -0.002 A 
ATOM      3  C4  UNL d   1       4.912   2.613  -0.393  0.00  0.00     0.004 A 
ATOM      4  C5  UNL d   1       4.167   2.625   0.786  0.00  0.00    -0.004 A 
ATOM      5  C6  UNL d   1       3.036   1.813   0.914  0.00  0.00    -0.075 A 
ATOM      6  C7  UNL d   1       2.222   1.816   2.174  0.00  0.00     0.076 C 
ATOM      7  C8  UNL d   1       2.659   0.994  -0.159  0.00  0.00     0.001 A 
ENDROOT
BRANCH   1   8
ATOM      8  C1  UNL d   1       2.986   0.089  -2.494  0.00  0.00     0.053 C 
ATOM      9  C   UNL d   1       1.936   0.742  -3.379  0.00  0.00     0.018 C 
ENDBRANCH   1   8
TORSDOF 1
ENDMDL
