MODEL 1
REMARK minimizedAffinity 5.18991089
REMARK minimizedRMSD -1
REMARK  1 active torsions:
REMARK  status: ('A' for Active; 'I' for Inactive)
REMARK    1  A    between atoms: C1_2  and  C2_3 
ROOT
ATOM      1  C2  UNL d   1       2.123  -0.101  -1.889  0.00  0.00    -0.073 A 
ATOM      2  C3  UNL d   1       1.892  -1.440  -1.552  0.00  0.00    -0.002 A 
ATOM      3  C4  UNL d   1       1.532  -1.787  -0.249  0.00  0.00     0.004 A 
ATOM      4  C5  UNL d   1       1.391  -0.800   0.727  0.00  0.00    -0.004 A 
ATOM      5  C6  UNL d   1       1.606   0.544   0.407  0.00  0.00    -0.075 A 
ATOM      6  C7  UNL d   1       1.461   1.618   1.445  0.00  0.00     0.076 C 
ATOM      7  C8  UNL d   1       1.970   0.885  -0.903  0.00  0.00     0.001 A 
ENDROOT
BRANCH   1   8
ATOM      8  C1  UNL d   1       2.506   0.279  -3.296  0.00  0.00     0.053 C 
ATOM      9  C   UNL d   1       1.334   0.866  -4.067  0.00  0.00     0.018 C 
ENDBRANCH   1   8
TORSDOF 1
ENDMDL
