MODEL 1
REMARK minimizedAffinity 7.99647141
REMARK minimizedRMSD -1
REMARK  1 active torsions:
REMARK  status: ('A' for Active; 'I' for Inactive)
REMARK    1  A    between atoms: C1_2  and  C2_3 
ROOT
ATOM      1  C2  UNL d   1       2.846   0.892  -0.826  0.00  0.00    -0.073 A 
ATOM      2  C3  UNL d   1       1.539   0.515  -0.496  0.00  0.00    -0.002 A 
ATOM      3  C4  UNL d   1       0.977   0.910   0.719  0.00  0.00     0.004 A 
ATOM      4  C5  UNL d   1       1.711   1.692   1.611  0.00  0.00    -0.004 A 
ATOM      5  C6  UNL d   1       3.014   2.089   1.294  0.00  0.00    -0.075 A 
ATOM      6  C7  UNL d   1       3.818   2.928   2.243  0.00  0.00     0.076 C 
ATOM      7  C8  UNL d   1       3.573   1.685   0.073  0.00  0.00     0.001 A 
ENDROOT
BRANCH   1   8
ATOM      8  C1  UNL d   1       3.455   0.473  -2.139  0.00  0.00     0.053 C 
ATOM      9  C   UNL d   1       2.406   0.308  -3.227  0.00  0.00     0.018 C 
ENDBRANCH   1   8
TORSDOF 1
ENDMDL
