MODEL 1
REMARK minimizedAffinity 7.45046854
REMARK minimizedRMSD -1
REMARK  1 active torsions:
REMARK  status: ('A' for Active; 'I' for Inactive)
REMARK    1  A    between atoms: C1_2  and  C2_3 
ROOT
ATOM      1  C2  UNL d   1       2.269   0.890  -1.074  0.00  0.00    -0.073 A 
ATOM      2  C3  UNL d   1       1.181   0.433  -0.323  0.00  0.00    -0.002 A 
ATOM      3  C4  UNL d   1       0.934   0.952   0.949  0.00  0.00     0.004 A 
ATOM      4  C5  UNL d   1       1.767   1.937   1.478  0.00  0.00    -0.004 A 
ATOM      5  C6  UNL d   1       2.853   2.416   0.738  0.00  0.00    -0.075 A 
ATOM      6  C7  UNL d   1       3.759   3.474   1.295  0.00  0.00     0.076 C 
ATOM      7  C8  UNL d   1       3.095   1.888  -0.537  0.00  0.00     0.001 A 
ENDROOT
BRANCH   1   8
ATOM      8  C1  UNL d   1       2.536   0.337  -2.450  0.00  0.00     0.053 C 
ATOM      9  C   UNL d   1       1.437   0.705  -3.435  0.00  0.00     0.018 C 
ENDBRANCH   1   8
TORSDOF 1
ENDMDL
