MODEL 1
REMARK minimizedAffinity 11.1542292
REMARK minimizedRMSD -1
REMARK  1 active torsions:
REMARK  status: ('A' for Active; 'I' for Inactive)
REMARK    1  A    between atoms: C1_2  and  C2_3 
ROOT
ATOM      1  C2  UNL d   1       1.749   1.698  -3.558  0.00  0.00    -0.073 A 
ATOM      2  C3  UNL d   1       0.536   1.150  -3.126  0.00  0.00    -0.002 A 
ATOM      3  C4  UNL d   1       0.519  -0.047  -2.408  0.00  0.00     0.004 A 
ATOM      4  C5  UNL d   1       1.713  -0.703  -2.109  0.00  0.00    -0.004 A 
ATOM      5  C6  UNL d   1       2.936  -0.165  -2.522  0.00  0.00    -0.075 A 
ATOM      6  C7  UNL d   1       4.229  -0.860  -2.211  0.00  0.00     0.076 C 
ATOM      7  C8  UNL d   1       2.945   1.035  -3.245  0.00  0.00     0.001 A 
ENDROOT
BRANCH   1   8
ATOM      8  C1  UNL d   1       1.773   2.993  -4.328  0.00  0.00     0.053 C 
ATOM      9  C   UNL d   1       2.792   2.967  -5.456  0.00  0.00     0.018 C 
ENDBRANCH   1   8
TORSDOF 1
ENDMDL
