MODEL 1
REMARK minimizedAffinity 9.86446857
REMARK minimizedRMSD -1
REMARK  1 active torsions:
REMARK  status: ('A' for Active; 'I' for Inactive)
REMARK    1  A    between atoms: C1_2  and  C2_3 
ROOT
ATOM      1  C2  UNL d   1       2.269   0.442  -0.201  0.00  0.00    -0.073 A 
ATOM      2  C3  UNL d   1       3.227   0.938   0.692  0.00  0.00    -0.002 A 
ATOM      3  C4  UNL d   1       2.835   1.695   1.797  0.00  0.00     0.004 A 
ATOM      4  C5  UNL d   1       1.484   1.958   2.024  0.00  0.00    -0.004 A 
ATOM      5  C6  UNL d   1       0.512   1.462   1.150  0.00  0.00    -0.075 A 
ATOM      6  C7  UNL d   1      -0.945   1.738   1.380  0.00  0.00     0.076 C 
ATOM      7  C8  UNL d   1       0.913   0.704   0.041  0.00  0.00     0.001 A 
ENDROOT
BRANCH   1   8
ATOM      8  C1  UNL d   1       2.687  -0.381  -1.392  0.00  0.00     0.053 C 
ATOM      9  C   UNL d   1       2.586   0.403  -2.690  0.00  0.00     0.018 C 
ENDBRANCH   1   8
TORSDOF 1
ENDMDL
