MODEL 1
REMARK minimizedAffinity 7.54737473
REMARK minimizedRMSD -1
REMARK  1 active torsions:
REMARK  status: ('A' for Active; 'I' for Inactive)
REMARK    1  A    between atoms: C1_2  and  C2_3 
ROOT
ATOM      1  C2  UNL d   1      -3.297   2.378   1.411  0.00  0.00    -0.073 A 
ATOM      2  C3  UNL d   1      -3.958   1.187   1.090  0.00  0.00    -0.002 A 
ATOM      3  C4  UNL d   1      -5.269   1.216   0.611  0.00  0.00     0.004 A 
ATOM      4  C5  UNL d   1      -5.928   2.434   0.444  0.00  0.00    -0.004 A 
ATOM      5  C6  UNL d   1      -5.280   3.635   0.748  0.00  0.00    -0.075 A 
ATOM      6  C7  UNL d   1      -5.976   4.953   0.575  0.00  0.00     0.076 C 
ATOM      7  C8  UNL d   1      -3.964   3.598   1.231  0.00  0.00     0.001 A 
ENDROOT
BRANCH   1   8
ATOM      8  C1  UNL d   1      -1.879   2.352   1.922  0.00  0.00     0.053 C 
ATOM      9  C   UNL d   1      -0.866   2.319   0.789  0.00  0.00     0.018 C 
ENDBRANCH   1   8
TORSDOF 1
ENDMDL
