MODEL 1
REMARK minimizedAffinity 7.30151415
REMARK minimizedRMSD -1
REMARK  1 active torsions:
REMARK  status: ('A' for Active; 'I' for Inactive)
REMARK    1  A    between atoms: C1_2  and  C2_3 
ROOT
ATOM      1  C2  UNL d   1       0.745   1.560   1.045  0.00  0.00    -0.073 A 
ATOM      2  C3  UNL d   1       0.121   2.135  -0.068  0.00  0.00    -0.002 A 
ATOM      3  C4  UNL d   1      -1.165   2.667   0.042  0.00  0.00     0.004 A 
ATOM      4  C5  UNL d   1      -1.834   2.638   1.266  0.00  0.00    -0.004 A 
ATOM      5  C6  UNL d   1      -1.222   2.079   2.392  0.00  0.00    -0.075 A 
ATOM      6  C7  UNL d   1      -1.930   2.038   3.714  0.00  0.00     0.076 C 
ATOM      7  C8  UNL d   1       0.068   1.544   2.273  0.00  0.00     0.001 A 
ENDROOT
BRANCH   1   8
ATOM      8  C1  UNL d   1       2.135   0.990   0.933  0.00  0.00     0.053 C 
ATOM      9  C   UNL d   1       2.135  -0.392   0.298  0.00  0.00     0.018 C 
ENDBRANCH   1   8
TORSDOF 1
ENDMDL
