MODEL 1
REMARK minimizedAffinity 7.02868462
REMARK minimizedRMSD -1
REMARK  1 active torsions:
REMARK  status: ('A' for Active; 'I' for Inactive)
REMARK    1  A    between atoms: C1_2  and  C2_3 
ROOT
ATOM      1  C2  UNL d   1       1.829   0.405   0.575  0.00  0.00    -0.073 A 
ATOM      2  C3  UNL d   1       2.269  -0.804   1.127  0.00  0.00    -0.002 A 
ATOM      3  C4  UNL d   1       2.800  -1.801   0.307  0.00  0.00     0.004 A 
ATOM      4  C5  UNL d   1       2.901  -1.598  -1.069  0.00  0.00    -0.004 A 
ATOM      5  C6  UNL d   1       2.477  -0.392  -1.638  0.00  0.00    -0.075 A 
ATOM      6  C7  UNL d   1       2.578  -0.159  -3.117  0.00  0.00     0.076 C 
ATOM      7  C8  UNL d   1       1.943   0.603  -0.808  0.00  0.00     0.001 A 
ENDROOT
BRANCH   1   8
ATOM      8  C1  UNL d   1       1.261   1.487   1.457  0.00  0.00     0.053 C 
ATOM      9  C   UNL d   1       0.017   2.120   0.854  0.00  0.00     0.018 C 
ENDBRANCH   1   8
TORSDOF 1
ENDMDL
