MODEL 1
REMARK minimizedAffinity 4.31834936
REMARK minimizedRMSD -1
REMARK  0 active torsions:
REMARK  status: ('A' for Active; 'I' for Inactive)
ROOT
ATOM      1  C   UNL d   1       2.139  -0.168  -0.316  0.00  0.00     0.023 A 
ATOM      2  C1  UNL d   1       2.995   0.888  -0.001  0.00  0.00     0.003 A 
ATOM      3  C2  UNL d   1       4.085   0.676   0.845  0.00  0.00     0.048 A 
ATOM      4  C3  UNL d   1       4.314  -0.594   1.373  0.00  0.00     0.023 A 
ATOM      5  C4  UNL d   1       3.461  -1.654   1.059  0.00  0.00     0.048 A 
ATOM      6  C5  UNL d   1       2.371  -1.437   0.213  0.00  0.00     0.003 A 
ATOM      7  I   UNL d   1       5.936  -0.913   2.633  0.00  0.00    -0.146 I 
ENDROOT
TORSDOF 0
ENDMDL
