MODEL 1
REMARK minimizedAffinity 3.92949224
REMARK minimizedRMSD -1
REMARK  0 active torsions:
REMARK  status: ('A' for Active; 'I' for Inactive)
ROOT
ATOM      1  C   UNL d   1       3.371  -1.889  -1.578  0.00  0.00     0.023 A 
ATOM      2  C1  UNL d   1       3.722  -0.569  -1.297  0.00  0.00     0.003 A 
ATOM      3  C2  UNL d   1       2.833   0.261  -0.611  0.00  0.00     0.048 A 
ATOM      4  C3  UNL d   1       1.594  -0.236  -0.208  0.00  0.00     0.023 A 
ATOM      5  C4  UNL d   1       1.239  -1.557  -0.486  0.00  0.00     0.048 A 
ATOM      6  C5  UNL d   1       2.131  -2.383  -1.173  0.00  0.00     0.003 A 
ATOM      7  I   UNL d   1       0.269   0.996   0.813  0.00  0.00    -0.146 I 
ENDROOT
TORSDOF 0
ENDMDL
