MODEL 1
REMARK minimizedAffinity 3.27555799
REMARK minimizedRMSD -1
REMARK  0 active torsions:
REMARK  status: ('A' for Active; 'I' for Inactive)
ROOT
ATOM      1  C   UNL d   1       0.055   1.173   2.058  0.00  0.00     0.023 A 
ATOM      2  C1  UNL d   1       0.751   1.930   1.116  0.00  0.00     0.003 A 
ATOM      3  C2  UNL d   1       1.930   2.585   1.479  0.00  0.00     0.048 A 
ATOM      4  C3  UNL d   1       2.407   2.478   2.785  0.00  0.00     0.023 A 
ATOM      5  C4  UNL d   1       1.713   1.720   3.730  0.00  0.00     0.048 A 
ATOM      6  C5  UNL d   1       0.535   1.068   3.363  0.00  0.00     0.003 A 
ATOM      7  I   UNL d   1       4.161   3.451   3.328  0.00  0.00    -0.146 I 
ENDROOT
TORSDOF 0
ENDMDL
