MODEL 1
REMARK minimizedAffinity 10.0038042
REMARK minimizedRMSD -1
REMARK  0 active torsions:
REMARK  status: ('A' for Active; 'I' for Inactive)
ROOT
ATOM      1  C   UNL d   1      -0.623  -4.421  -0.753  0.00  0.00     0.023 A 
ATOM      2  C1  UNL d   1      -1.422  -5.545  -0.543  0.00  0.00     0.003 A 
ATOM      3  C2  UNL d   1      -2.270  -5.999  -1.556  0.00  0.00     0.048 A 
ATOM      4  C3  UNL d   1      -2.312  -5.325  -2.776  0.00  0.00     0.023 A 
ATOM      5  C4  UNL d   1      -1.513  -4.201  -2.990  0.00  0.00     0.048 A 
ATOM      6  C5  UNL d   1      -0.668  -3.750  -1.975  0.00  0.00     0.003 A 
ATOM      7  I   UNL d   1      -3.572  -5.999  -4.285  0.00  0.00    -0.146 I 
ENDROOT
TORSDOF 0
ENDMDL
