MODEL 1
REMARK minimizedAffinity 4.13498068
REMARK minimizedRMSD -1
REMARK  0 active torsions:
REMARK  status: ('A' for Active; 'I' for Inactive)
ROOT
ATOM      1  C   UNL d   1       0.766  -3.083  -0.842  0.00  0.00     0.023 A 
ATOM      2  C1  UNL d   1      -0.464  -2.493  -0.555  0.00  0.00     0.003 A 
ATOM      3  C2  UNL d   1      -0.547  -1.115  -0.344  0.00  0.00     0.048 A 
ATOM      4  C3  UNL d   1       0.606  -0.333  -0.421  0.00  0.00     0.023 A 
ATOM      5  C4  UNL d   1       1.839  -0.920  -0.708  0.00  0.00     0.048 A 
ATOM      6  C5  UNL d   1       1.917  -2.298  -0.918  0.00  0.00     0.003 A 
ATOM      7  I   UNL d   1       0.486   1.718  -0.107  0.00  0.00    -0.146 I 
ENDROOT
TORSDOF 0
ENDMDL
