MODEL 1
REMARK minimizedAffinity 1.79046249
REMARK minimizedRMSD -1
REMARK  0 active torsions:
REMARK  status: ('A' for Active; 'I' for Inactive)
ROOT
ATOM      1  C   UNL d   1       4.016  -2.156  -2.185  0.00  0.00     0.023 A 
ATOM      2  C1  UNL d   1       4.415  -0.824  -2.072  0.00  0.00     0.003 A 
ATOM      3  C2  UNL d   1       3.660   0.071  -1.311  0.00  0.00     0.048 A 
ATOM      4  C3  UNL d   1       2.508  -0.373  -0.664  0.00  0.00     0.023 A 
ATOM      5  C4  UNL d   1       2.105  -1.705  -0.773  0.00  0.00     0.048 A 
ATOM      6  C5  UNL d   1       2.862  -2.596  -1.536  0.00  0.00     0.003 A 
ATOM      7  I   UNL d   1       1.383   0.956   0.470  0.00  0.00    -0.146 I 
ENDROOT
TORSDOF 0
ENDMDL
