MODEL 1
REMARK minimizedAffinity 0.615317762
REMARK minimizedRMSD -1
REMARK  0 active torsions:
REMARK  status: ('A' for Active; 'I' for Inactive)
ROOT
ATOM      1  C   UNL d   1       1.600  -3.143  -1.075  0.00  0.00     0.023 A 
ATOM      2  C1  UNL d   1       0.232  -2.879  -1.141  0.00  0.00     0.003 A 
ATOM      3  C2  UNL d   1      -0.257  -1.625  -0.769  0.00  0.00     0.048 A 
ATOM      4  C3  UNL d   1       0.628  -0.640  -0.332  0.00  0.00     0.023 A 
ATOM      5  C4  UNL d   1       1.998  -0.900  -0.265  0.00  0.00     0.048 A 
ATOM      6  C5  UNL d   1       2.482  -2.155  -0.638  0.00  0.00     0.003 A 
ATOM      7  I   UNL d   1      -0.097   1.227   0.223  0.00  0.00    -0.146 I 
ENDROOT
TORSDOF 0
ENDMDL
