MODEL 1
REMARK minimizedAffinity 6.92489004
REMARK minimizedRMSD -1
REMARK  0 active torsions:
REMARK  status: ('A' for Active; 'I' for Inactive)
ROOT
ATOM      1  C   UNL d   1      -0.090  -2.397  -1.253  0.00  0.00     0.023 A 
ATOM      2  C1  UNL d   1      -1.166  -1.590  -1.624  0.00  0.00     0.003 A 
ATOM      3  C2  UNL d   1      -1.217  -0.257  -1.211  0.00  0.00     0.048 A 
ATOM      4  C3  UNL d   1      -0.187   0.263  -0.428  0.00  0.00     0.023 A 
ATOM      5  C4  UNL d   1       0.892  -0.540  -0.055  0.00  0.00     0.048 A 
ATOM      6  C5  UNL d   1       0.938  -1.872  -0.470  0.00  0.00     0.003 A 
ATOM      7  I   UNL d   1      -0.259   2.247   0.187  0.00  0.00    -0.146 I 
ENDROOT
TORSDOF 0
ENDMDL
