MODEL 1
REMARK minimizedAffinity 6.95056486
REMARK minimizedRMSD -1
REMARK  0 active torsions:
REMARK  status: ('A' for Active; 'I' for Inactive)
ROOT
ATOM      1  C   UNL d   1       2.728   1.261  -0.763  0.00  0.00     0.020 A 
ATOM      2  C1  UNL d   1       2.147   2.341  -0.100  0.00  0.00     0.020 A 
ATOM      3  C2  UNL d   1       2.598   2.704   1.171  0.00  0.00     0.034 A 
ATOM      4  C3  UNL d   1       3.633   1.987   1.782  0.00  0.00     0.017 A 
ATOM      5  C4  UNL d   1       4.215   0.903   1.115  0.00  0.00     0.017 A 
ATOM      6  C5  UNL d   1       3.760   0.544  -0.157  0.00  0.00     0.034 A 
ATOM      7 Cl   UNL d   1       5.497  -0.029   1.805  0.00  0.00    -0.070 Cl
ATOM      8 Cl1  UNL d   1       4.141   2.492   3.355  0.00  0.00    -0.070 Cl
ENDROOT
TORSDOF 0
ENDMDL
