MODEL 1
REMARK minimizedAffinity 2.19857526
REMARK minimizedRMSD -1
REMARK  0 active torsions:
REMARK  status: ('A' for Active; 'I' for Inactive)
ROOT
ATOM      1  C   UNL d   1       1.252  -0.668   4.986  0.00  0.00     0.020 A 
ATOM      2  C1  UNL d   1       0.011  -0.531   4.365  0.00  0.00     0.020 A 
ATOM      3  C2  UNL d   1      -0.818  -1.644   4.211  0.00  0.00     0.034 A 
ATOM      4  C3  UNL d   1      -0.408  -2.898   4.678  0.00  0.00     0.017 A 
ATOM      5  C4  UNL d   1       0.838  -3.034   5.301  0.00  0.00     0.017 A 
ATOM      6  C5  UNL d   1       1.664  -1.916   5.453  0.00  0.00     0.034 A 
ATOM      7 Cl   UNL d   1       1.413  -4.549   5.903  0.00  0.00    -0.070 Cl
ATOM      8 Cl1  UNL d   1      -1.484  -4.231   4.454  0.00  0.00    -0.070 Cl
ENDROOT
TORSDOF 0
ENDMDL
