MODEL 1
REMARK minimizedAffinity 1.17658508
REMARK minimizedRMSD -1
REMARK  0 active torsions:
REMARK  status: ('A' for Active; 'I' for Inactive)
ROOT
ATOM      1  C   UNL d   1      -4.243   5.723   1.814  0.00  0.00     0.020 A 
ATOM      2  C1  UNL d   1      -5.475   5.074   1.882  0.00  0.00     0.020 A 
ATOM      3  C2  UNL d   1      -5.999   4.700   3.122  0.00  0.00     0.034 A 
ATOM      4  C3  UNL d   1      -5.291   4.974   4.297  0.00  0.00     0.017 A 
ATOM      5  C4  UNL d   1      -4.054   5.626   4.227  0.00  0.00     0.017 A 
ATOM      6  C5  UNL d   1      -3.534   5.998   2.984  0.00  0.00     0.034 A 
ATOM      7 Cl   UNL d   1      -3.122   5.999   5.634  0.00  0.00    -0.070 Cl
ATOM      8 Cl1  UNL d   1      -5.999   4.484   5.795  0.00  0.00    -0.070 Cl
ENDROOT
TORSDOF 0
ENDMDL
