MODEL 1
REMARK minimizedAffinity 0.784871459
REMARK minimizedRMSD -1
REMARK  0 active torsions:
REMARK  status: ('A' for Active; 'I' for Inactive)
ROOT
ATOM      1  C   UNL d   1      -4.734   5.819   4.645  0.00  0.00     0.020 A 
ATOM      2  C1  UNL d   1      -5.931   5.523   3.995  0.00  0.00     0.020 A 
ATOM      3  C2  UNL d   1      -5.951   5.362   2.608  0.00  0.00     0.034 A 
ATOM      4  C3  UNL d   1      -4.772   5.499   1.866  0.00  0.00     0.017 A 
ATOM      5  C4  UNL d   1      -3.571   5.797   2.520  0.00  0.00     0.017 A 
ATOM      6  C5  UNL d   1      -3.557   5.956   3.909  0.00  0.00     0.034 A 
ATOM      7 Cl   UNL d   1      -2.076   5.980   1.673  0.00  0.00    -0.070 Cl
ATOM      8 Cl1  UNL d   1      -4.871   5.287   0.154  0.00  0.00    -0.070 Cl
ENDROOT
TORSDOF 0
ENDMDL
