MODEL 1
REMARK minimizedAffinity -0.354267389
REMARK minimizedRMSD -1
REMARK  0 active torsions:
REMARK  status: ('A' for Active; 'I' for Inactive)
ROOT
ATOM      1  C   UNL d   1      -4.171   5.951   1.525  0.00  0.00     0.020 A 
ATOM      2  C1  UNL d   1      -5.477   5.939   2.012  0.00  0.00     0.020 A 
ATOM      3  C2  UNL d   1      -5.708   5.946   3.389  0.00  0.00     0.034 A 
ATOM      4  C3  UNL d   1      -4.631   5.965   4.284  0.00  0.00     0.017 A 
ATOM      5  C4  UNL d   1      -3.321   5.977   3.793  0.00  0.00     0.017 A 
ATOM      6  C5  UNL d   1      -3.095   5.970   2.413  0.00  0.00     0.034 A 
ATOM      7 Cl   UNL d   1      -1.941   6.000   4.835  0.00  0.00    -0.070 Cl
ATOM      8 Cl1  UNL d   1      -4.991   5.972   5.974  0.00  0.00    -0.070 Cl
ENDROOT
TORSDOF 0
ENDMDL
