MODEL 1
REMARK minimizedAffinity 11.6392422
REMARK minimizedRMSD -1
REMARK  3 active torsions:
REMARK  status: ('A' for Active; 'I' for Inactive)
REMARK    1  A    between atoms: C3'_2  and  C2'_3 
REMARK    2  A    between atoms: C2'_3  and  C1'_4 
REMARK    3  A    between atoms: C1'_4  and  C1_5 
ROOT
ATOM      1  C1  N4B d   1       1.019  -4.345   3.559  0.00  0.00    -0.075 A 
ATOM      2  C2  N4B d   1       0.549  -4.300   4.890  0.00  0.00     0.002 A 
ATOM      3  C3  N4B d   1       0.084  -3.119   5.414  0.00  0.00     0.002 A 
ATOM      4  C4  N4B d   1       0.096  -1.971   4.636  0.00  0.00    -0.004 A 
ATOM      5  C5  N4B d   1       0.528  -2.029   3.343  0.00  0.00     0.002 A 
ATOM      6  C6  N4B d   1       0.994  -3.210   2.802  0.00  0.00     0.002 A 
ENDROOT
BRANCH   1   7
ATOM      7  C1' N4B d   1       1.617  -5.593   2.970  0.00  0.00     0.057 C 
BRANCH   7   8
ATOM      8  C2' N4B d   1       1.835  -5.387   1.474  0.00  0.00     0.009 C 
BRANCH   8   9
ATOM      9  C3' N4B d   1       0.712  -5.989   0.648  0.00  0.00     0.004 C 
ATOM     10  C4' N4B d   1       1.011  -5.996  -0.822  0.00  0.00     0.003 C 
ENDBRANCH   8   9
ENDBRANCH   7   8
ENDBRANCH   1   7
TORSDOF 3
ENDMDL
