MODEL 1
REMARK minimizedAffinity 5.47119236
REMARK minimizedRMSD -1
REMARK  3 active torsions:
REMARK  status: ('A' for Active; 'I' for Inactive)
REMARK    1  A    between atoms: C3'_2  and  C2'_3 
REMARK    2  A    between atoms: C2'_3  and  C1'_4 
REMARK    3  A    between atoms: C1'_4  and  C1_5 
ROOT
ATOM      1  C1  N4B d   1      -5.069  -3.319  -4.909  0.00  0.00    -0.075 A 
ATOM      2  C2  N4B d   1      -5.997  -4.008  -5.720  0.00  0.00     0.002 A 
ATOM      3  C3  N4B d   1      -5.810  -5.339  -5.999  0.00  0.00     0.002 A 
ATOM      4  C4  N4B d   1      -4.696  -5.995  -5.496  0.00  0.00    -0.004 A 
ATOM      5  C5  N4B d   1      -3.818  -5.329  -4.693  0.00  0.00     0.002 A 
ATOM      6  C6  N4B d   1      -3.996  -3.992  -4.400  0.00  0.00     0.002 A 
ENDROOT
BRANCH   1   7
ATOM      7  C1' N4B d   1      -5.186  -1.842  -4.646  0.00  0.00     0.057 C 
BRANCH   7   8
ATOM      8  C2' N4B d   1      -4.625  -1.534  -3.261  0.00  0.00     0.009 C 
BRANCH   8   9
ATOM      9  C3' N4B d   1      -4.890  -0.096  -2.848  0.00  0.00     0.004 C 
ATOM     10  C4' N4B d   1      -3.665   0.593  -2.325  0.00  0.00     0.003 C 
ENDBRANCH   8   9
ENDBRANCH   7   8
ENDBRANCH   1   7
TORSDOF 3
ENDMDL
