MODEL 1
REMARK minimizedAffinity 9.64652348
REMARK minimizedRMSD -1
REMARK  3 active torsions:
REMARK  status: ('A' for Active; 'I' for Inactive)
REMARK    1  A    between atoms: C3'_2  and  C2'_3 
REMARK    2  A    between atoms: C2'_3  and  C1'_4 
REMARK    3  A    between atoms: C1'_4  and  C1_5 
ROOT
ATOM      1  C1  N4B d   1      -4.772  -3.326  -4.894  0.00  0.00    -0.075 A 
ATOM      2  C2  N4B d   1      -3.707  -4.165  -4.500  0.00  0.00     0.002 A 
ATOM      3  C3  N4B d   1      -3.705  -5.490  -4.864  0.00  0.00     0.002 A 
ATOM      4  C4  N4B d   1      -4.763  -5.999  -5.602  0.00  0.00    -0.004 A 
ATOM      5  C5  N4B d   1      -5.776  -5.177  -5.999  0.00  0.00     0.002 A 
ATOM      6  C6  N4B d   1      -5.789  -3.843  -5.644  0.00  0.00     0.002 A 
ENDROOT
BRANCH   1   7
ATOM      7  C1' N4B d   1      -4.861  -1.892  -4.447  0.00  0.00     0.057 C 
BRANCH   7   8
ATOM      8  C2' N4B d   1      -3.752  -1.613  -3.437  0.00  0.00     0.009 C 
BRANCH   8   9
ATOM      9  C3' N4B d   1      -4.207  -0.665  -2.341  0.00  0.00     0.004 C 
ATOM     10  C4' N4B d   1      -3.407   0.602  -2.300  0.00  0.00     0.003 C 
ENDBRANCH   8   9
ENDBRANCH   7   8
ENDBRANCH   1   7
TORSDOF 3
ENDMDL
