MODEL 1
REMARK minimizedAffinity 9.75731182
REMARK minimizedRMSD -1
REMARK  3 active torsions:
REMARK  status: ('A' for Active; 'I' for Inactive)
REMARK    1  A    between atoms: C3'_2  and  C2'_3 
REMARK    2  A    between atoms: C2'_3  and  C1'_4 
REMARK    3  A    between atoms: C1'_4  and  C1_5 
ROOT
ATOM      1  C1  N4B d   1      -5.088   1.515  -3.334  0.00  0.00    -0.075 A 
ATOM      2  C2  N4B d   1      -3.689   1.616  -3.168  0.00  0.00     0.002 A 
ATOM      3  C3  N4B d   1      -3.087   1.065  -2.062  0.00  0.00     0.002 A 
ATOM      4  C4  N4B d   1      -3.863   0.428  -1.105  0.00  0.00    -0.004 A 
ATOM      5  C5  N4B d   1      -5.210   0.313  -1.286  0.00  0.00     0.002 A 
ATOM      6  C6  N4B d   1      -5.828   0.858  -2.394  0.00  0.00     0.002 A 
ENDROOT
BRANCH   1   7
ATOM      7  C1' N4B d   1      -5.800   2.175  -4.482  0.00  0.00     0.057 C 
BRANCH   7   8
ATOM      8  C2' N4B d   1      -5.268   3.595  -4.652  0.00  0.00     0.009 C 
BRANCH   8   9
ATOM      9  C3' N4B d   1      -6.000   4.586  -3.762  0.00  0.00     0.004 C 
ATOM     10  C4' N4B d   1      -5.990   5.980  -4.315  0.00  0.00     0.003 C 
ENDBRANCH   8   9
ENDBRANCH   7   8
ENDBRANCH   1   7
TORSDOF 3
ENDMDL
