MODEL 1
REMARK minimizedAffinity -0.242444113
REMARK minimizedRMSD -1
REMARK  0 active torsions:
REMARK  status: ('A' for Active; 'I' for Inactive)
ROOT
ATOM      1  C4' PXY d   1      -0.347  -1.650   0.025  0.00  0.00     0.077 C 
ATOM      2  C1' PXY d   1      -4.907   1.384   1.873  0.00  0.00     0.077 C 
ATOM      3  C1  PXY d   1      -3.705   0.591   1.399  0.00  0.00    -0.082 A 
ATOM      4  C2  PXY d   1      -3.533   0.373   0.106  0.00  0.00     0.003 A 
ATOM      5  C3  PXY d   1      -2.469  -0.369  -0.338  0.00  0.00     0.003 A 
ATOM      6  C4  PXY d   1      -1.541  -0.847   0.548  0.00  0.00    -0.082 A 
ATOM      7  C5  PXY d   1      -1.703  -0.620   1.869  0.00  0.00     0.003 A 
ATOM      8  C6  PXY d   1      -2.813   0.100   2.302  0.00  0.00     0.003 A 
ENDROOT
TORSDOF 0
ENDMDL
