MODEL 1
REMARK minimizedAffinity -5.48731947
REMARK minimizedRMSD -1
REMARK  0 active torsions:
REMARK  status: ('A' for Active; 'I' for Inactive)
ROOT
ATOM      1  C4' PXY d   1       2.620  -1.882  -1.247  0.00  0.00     0.077 C 
ATOM      2  C1' PXY d   1      -2.607  -0.510   0.805  0.00  0.00     0.077 C 
ATOM      3  C1  PXY d   1      -1.242  -0.880   0.260  0.00  0.00    -0.082 A 
ATOM      4  C2  PXY d   1      -0.154  -0.502   0.912  0.00  0.00     0.003 A 
ATOM      5  C3  PXY d   1       1.090  -0.801   0.416  0.00  0.00     0.003 A 
ATOM      6  C4  PXY d   1       1.220  -1.539  -0.729  0.00  0.00    -0.082 A 
ATOM      7  C5  PXY d   1       0.114  -1.937  -1.394  0.00  0.00     0.003 A 
ATOM      8  C6  PXY d   1      -1.138  -1.589  -0.896  0.00  0.00     0.003 A 
ENDROOT
TORSDOF 0
ENDMDL
