MODEL 1
REMARK minimizedAffinity -5.39507818
REMARK minimizedRMSD -1
REMARK  0 active torsions:
REMARK  status: ('A' for Active; 'I' for Inactive)
ROOT
ATOM      1  C4' PXY d   1       0.679  -1.491   1.149  0.00  0.00     0.077 C 
ATOM      2  C1' PXY d   1      -4.252   1.435   1.884  0.00  0.00     0.077 C 
ATOM      3  C1  PXY d   1      -2.966   0.657   1.690  0.00  0.00    -0.082 A 
ATOM      4  C2  PXY d   1      -1.836   1.124   2.195  0.00  0.00     0.003 A 
ATOM      5  C3  PXY d   1      -0.658   0.449   2.001  0.00  0.00     0.003 A 
ATOM      6  C4  PXY d   1      -0.645  -0.743   1.329  0.00  0.00    -0.082 A 
ATOM      7  C5  PXY d   1      -1.796  -1.232   0.819  0.00  0.00     0.003 A 
ATOM      8  C6  PXY d   1      -2.974  -0.511   0.992  0.00  0.00     0.003 A 
ENDROOT
TORSDOF 0
ENDMDL
