MODEL 1
REMARK minimizedAffinity -5.61156845
REMARK minimizedRMSD -1
REMARK  0 active torsions:
REMARK  status: ('A' for Active; 'I' for Inactive)
ROOT
ATOM      1  C4' PXY d   1      -3.750   0.346   0.715  0.00  0.00     0.077 C 
ATOM      2  C1' PXY d   1       1.680  -1.469   1.513  0.00  0.00     0.077 C 
ATOM      3  C1  PXY d   1       0.253  -0.997   1.316  0.00  0.00    -0.082 A 
ATOM      4  C2  PXY d   1      -0.239  -0.892   0.092  0.00  0.00     0.003 A 
ATOM      5  C3  PXY d   1      -1.517  -0.436  -0.106  0.00  0.00     0.003 A 
ATOM      6  C4  PXY d   1      -2.318  -0.135   0.962  0.00  0.00    -0.082 A 
ATOM      7  C5  PXY d   1      -1.828  -0.249   2.215  0.00  0.00     0.003 A 
ATOM      8  C6  PXY d   1      -0.514  -0.674   2.393  0.00  0.00     0.003 A 
ENDROOT
TORSDOF 0
ENDMDL
