MODEL 1
REMARK minimizedAffinity -4.05771923
REMARK minimizedRMSD -1
REMARK  0 active torsions:
REMARK  status: ('A' for Active; 'I' for Inactive)
ROOT
ATOM      1  C4' PXY d   1       0.477  -1.634   1.577  0.00  0.00     0.077 C 
ATOM      2  C1' PXY d   1      -4.681   0.505   0.081  0.00  0.00     0.077 C 
ATOM      3  C1  PXY d   1      -3.329  -0.065   0.464  0.00  0.00    -0.082 A 
ATOM      4  C2  PXY d   1      -2.859   0.130   1.685  0.00  0.00     0.003 A 
ATOM      5  C3  PXY d   1      -1.625  -0.351   2.039  0.00  0.00     0.003 A 
ATOM      6  C4  PXY d   1      -0.887  -1.085   1.150  0.00  0.00    -0.082 A 
ATOM      7  C5  PXY d   1      -1.364  -1.298  -0.095  0.00  0.00     0.003 A 
ATOM      8  C6  PXY d   1      -2.601  -0.766  -0.447  0.00  0.00     0.003 A 
ENDROOT
TORSDOF 0
ENDMDL
