MODEL 1
REMARK minimizedAffinity -5.94487429
REMARK minimizedRMSD -1
REMARK  0 active torsions:
REMARK  status: ('A' for Active; 'I' for Inactive)
ROOT
ATOM      1  C4' PXY d   1      -0.720  -1.657  -2.346  0.00  0.00     0.077 C 
ATOM      2  C1' PXY d   1      -1.491   0.613   2.914  0.00  0.00     0.077 C 
ATOM      3  C1  PXY d   1      -1.276   0.021   1.535  0.00  0.00    -0.082 A 
ATOM      4  C2  PXY d   1      -2.298  -0.084   0.702  0.00  0.00     0.003 A 
ATOM      5  C3  PXY d   1      -2.128  -0.646  -0.537  0.00  0.00     0.003 A 
ATOM      6  C4  PXY d   1      -0.888  -1.057  -0.947  0.00  0.00    -0.082 A 
ATOM      7  C5  PXY d   1       0.162  -0.944  -0.107  0.00  0.00     0.003 A 
ATOM      8  C6  PXY d   1      -0.040  -0.408   1.162  0.00  0.00     0.003 A 
ENDROOT
TORSDOF 0
ENDMDL
