MODEL 1
REMARK minimizedAffinity -5.39241123
REMARK minimizedRMSD -1
REMARK  0 active torsions:
REMARK  status: ('A' for Active; 'I' for Inactive)
ROOT
ATOM      1  C4' PXY d   1      -3.802   0.285   0.822  0.00  0.00     0.077 C 
ATOM      2  C1' PXY d   1       1.655  -1.475   1.555  0.00  0.00     0.077 C 
ATOM      3  C1  PXY d   1       0.221  -1.017   1.375  0.00  0.00    -0.082 A 
ATOM      4  C2  PXY d   1      -0.289  -0.927   0.157  0.00  0.00     0.003 A 
ATOM      5  C3  PXY d   1      -1.574  -0.484  -0.026  0.00  0.00     0.003 A 
ATOM      6  C4  PXY d   1      -2.362  -0.182   1.052  0.00  0.00    -0.082 A 
ATOM      7  C5  PXY d   1      -1.853  -0.282   2.298  0.00  0.00     0.003 A 
ATOM      8  C6  PXY d   1      -0.533  -0.693   2.460  0.00  0.00     0.003 A 
ENDROOT
TORSDOF 0
ENDMDL
