MODEL 1
REMARK minimizedAffinity -3.32570934
REMARK minimizedRMSD -1
REMARK  0 active torsions:
REMARK  status: ('A' for Active; 'I' for Inactive)
ROOT
ATOM      1  C4' PXY d   1       1.041  -1.593   2.029  0.00  0.00     0.077 C 
ATOM      2  C1' PXY d   1      -4.215   0.168   0.387  0.00  0.00     0.077 C 
ATOM      3  C1  PXY d   1      -2.838  -0.306   0.812  0.00  0.00    -0.082 A 
ATOM      4  C2  PXY d   1      -2.255   0.241   1.866  0.00  0.00     0.003 A 
ATOM      5  C3  PXY d   1      -0.998  -0.153   2.245  0.00  0.00     0.003 A 
ATOM      6  C4  PXY d   1      -0.352  -1.153   1.569  0.00  0.00    -0.082 A 
ATOM      7  C5  PXY d   1      -0.945  -1.724   0.499  0.00  0.00     0.003 A 
ATOM      8  C6  PXY d   1      -2.204  -1.281   0.106  0.00  0.00     0.003 A 
ENDROOT
TORSDOF 0
ENDMDL
