MODEL 1
REMARK minimizedAffinity -3.69697165
REMARK minimizedRMSD -1
REMARK  0 active torsions:
REMARK  status: ('A' for Active; 'I' for Inactive)
ROOT
ATOM      1  C4' PXY d   1       1.227  -1.220   1.885  0.00  0.00     0.077 C 
ATOM      2  C1' PXY d   1      -4.163   0.435   0.611  0.00  0.00     0.077 C 
ATOM      3  C1  PXY d   1      -2.750   0.009   0.955  0.00  0.00    -0.082 A 
ATOM      4  C2  PXY d   1      -1.977  -0.514   0.017  0.00  0.00     0.003 A 
ATOM      5  C3  PXY d   1      -0.707  -0.934   0.318  0.00  0.00     0.003 A 
ATOM      6  C4  PXY d   1      -0.204  -0.767   1.581  0.00  0.00    -0.082 A 
ATOM      7  C5  PXY d   1      -0.982  -0.225   2.541  0.00  0.00     0.003 A 
ATOM      8  C6  PXY d   1      -2.283   0.157   2.225  0.00  0.00     0.003 A 
ENDROOT
TORSDOF 0
ENDMDL
