MODEL 1
REMARK minimizedAffinity -3.88655162
REMARK minimizedRMSD -1
REMARK  0 active torsions:
REMARK  status: ('A' for Active; 'I' for Inactive)
ROOT
ATOM      1  C1  BNZ d   1      -1.236   0.897  -0.080  0.00  0.00     0.000 A 
ATOM      2  C2  BNZ d   1      -0.316   1.700  -0.701  0.00  0.00     0.000 A 
ATOM      3  C3  BNZ d   1       0.977   1.287  -0.863  0.00  0.00     0.000 A 
ATOM      4  C4  BNZ d   1       1.358   0.092  -0.369  0.00  0.00     0.000 A 
ATOM      5  C5  BNZ d   1       0.445  -0.725   0.268  0.00  0.00     0.000 A 
ATOM      6  C6  BNZ d   1      -0.865  -0.323   0.394  0.00  0.00     0.000 A 
ENDROOT
TORSDOF 0
ENDMDL
