MODEL 1
REMARK minimizedAffinity -4.41564798
REMARK minimizedRMSD -1
REMARK  0 active torsions:
REMARK  status: ('A' for Active; 'I' for Inactive)
ROOT
ATOM      1  C1  BNZ d   1       1.621   0.942  -0.431  0.00  0.00     0.000 A 
ATOM      2  C2  BNZ d   1       0.490   1.406  -1.047  0.00  0.00     0.000 A 
ATOM      3  C3  BNZ d   1      -0.749   1.007  -0.630  0.00  0.00     0.000 A 
ATOM      4  C4  BNZ d   1      -0.854   0.114   0.375  0.00  0.00     0.000 A 
ATOM      5  C5  BNZ d   1       0.277  -0.370   1.001  0.00  0.00     0.000 A 
ATOM      6  C6  BNZ d   1       1.521   0.063   0.604  0.00  0.00     0.000 A 
ENDROOT
TORSDOF 0
ENDMDL
