MODEL 1
REMARK minimizedAffinity -4.86112404
REMARK minimizedRMSD -1
REMARK  0 active torsions:
REMARK  status: ('A' for Active; 'I' for Inactive)
ROOT
ATOM      1  C1  BNZ d   1       0.435  -0.346   0.450  0.00  0.00     0.000 A 
ATOM      2  C2  BNZ d   1       1.326   0.670   0.227  0.00  0.00     0.000 A 
ATOM      3  C3  BNZ d   1       2.346   0.522  -0.671  0.00  0.00     0.000 A 
ATOM      4  C4  BNZ d   1       2.498  -0.654  -1.314  0.00  0.00     0.000 A 
ATOM      5  C5  BNZ d   1       1.613  -1.691  -1.093  0.00  0.00     0.000 A 
ATOM      6  C6  BNZ d   1       0.565  -1.524  -0.217  0.00  0.00     0.000 A 
ENDROOT
TORSDOF 0
ENDMDL
