MODEL 1
REMARK minimizedAffinity -3.87993407
REMARK minimizedRMSD -1
REMARK  0 active torsions:
REMARK  status: ('A' for Active; 'I' for Inactive)
ROOT
ATOM      1  C1  BNZ d   1       0.197  -0.036  -0.362  0.00  0.00     0.000 A 
ATOM      2  C2  BNZ d   1       0.887  -1.168  -0.022  0.00  0.00     0.000 A 
ATOM      3  C3  BNZ d   1       1.963  -1.580  -0.758  0.00  0.00     0.000 A 
ATOM      4  C4  BNZ d   1       2.322  -0.883  -1.855  0.00  0.00     0.000 A 
ATOM      5  C5  BNZ d   1       1.631   0.256  -2.216  0.00  0.00     0.000 A 
ATOM      6  C6  BNZ d   1       0.572   0.690  -1.451  0.00  0.00     0.000 A 
ENDROOT
TORSDOF 0
ENDMDL
