MODEL 1
REMARK minimizedAffinity -4.93615198
REMARK minimizedRMSD -1
REMARK  0 active torsions:
REMARK  status: ('A' for Active; 'I' for Inactive)
ROOT
ATOM      1  C1  BNZ d   1       2.693   0.055  -2.240  0.00  0.00     0.000 A 
ATOM      2  C2  BNZ d   1       2.297  -0.865  -1.306  0.00  0.00     0.000 A 
ATOM      3  C3  BNZ d   1       1.230  -0.619  -0.489  0.00  0.00     0.000 A 
ATOM      4  C4  BNZ d   1       0.586   0.563  -0.577  0.00  0.00     0.000 A 
ATOM      5  C5  BNZ d   1       0.978   1.505  -1.507  0.00  0.00     0.000 A 
ATOM      6  C6  BNZ d   1       2.028   1.237  -2.355  0.00  0.00     0.000 A 
ENDROOT
TORSDOF 0
ENDMDL
