MODEL 1
REMARK minimizedAffinity -5.18084812
REMARK minimizedRMSD -1
REMARK  0 active torsions:
REMARK  status: ('A' for Active; 'I' for Inactive)
ROOT
ATOM      1  C1  BNZ d   1       1.008  -1.239  -1.071  0.00  0.00     0.000 A 
ATOM      2  C2  BNZ d   1       2.110  -1.608  -1.796  0.00  0.00     0.000 A 
ATOM      3  C3  BNZ d   1       3.087  -0.700  -2.094  0.00  0.00     0.000 A 
ATOM      4  C4  BNZ d   1       2.943   0.583  -1.703  0.00  0.00     0.000 A 
ATOM      5  C5  BNZ d   1       1.833   0.972  -0.979  0.00  0.00     0.000 A 
ATOM      6  C6  BNZ d   1       0.870   0.047  -0.647  0.00  0.00     0.000 A 
ENDROOT
TORSDOF 0
ENDMDL
