MODEL 1
REMARK minimizedAffinity -4.17868662
REMARK minimizedRMSD -1
REMARK  0 active torsions:
REMARK  status: ('A' for Active; 'I' for Inactive)
ROOT
ATOM      1  C1  BNZ d   1       2.089   0.468  -1.047  0.00  0.00     0.000 A 
ATOM      2  C2  BNZ d   1       1.120   0.607  -0.090  0.00  0.00     0.000 A 
ATOM      3  C3  BNZ d   1       0.331  -0.451   0.266  0.00  0.00     0.000 A 
ATOM      4  C4  BNZ d   1       0.485  -1.634  -0.363  0.00  0.00     0.000 A 
ATOM      5  C5  BNZ d   1       1.451  -1.787  -1.337  0.00  0.00     0.000 A 
ATOM      6  C6  BNZ d   1       2.270  -0.731  -1.665  0.00  0.00     0.000 A 
ENDROOT
TORSDOF 0
ENDMDL
