MODEL 1
REMARK minimizedAffinity -4.43802643
REMARK minimizedRMSD -1
REMARK  0 active torsions:
REMARK  status: ('A' for Active; 'I' for Inactive)
ROOT
ATOM      1  C1  BNZ d   1       0.788   1.108  -0.897  0.00  0.00     0.000 A 
ATOM      2  C2  BNZ d   1      -0.324   0.812  -0.154  0.00  0.00     0.000 A 
ATOM      3  C3  BNZ d   1      -0.577  -0.471   0.245  0.00  0.00     0.000 A 
ATOM      4  C4  BNZ d   1       0.258  -1.460  -0.133  0.00  0.00     0.000 A 
ATOM      5  C5  BNZ d   1       1.378  -1.179  -0.890  0.00  0.00     0.000 A 
ATOM      6  C6  BNZ d   1       1.651   0.119  -1.257  0.00  0.00     0.000 A 
ENDROOT
TORSDOF 0
ENDMDL
