MODEL 1
REMARK minimizedAffinity -4.77855158
REMARK minimizedRMSD -1
REMARK  0 active torsions:
REMARK  status: ('A' for Active; 'I' for Inactive)
ROOT
ATOM      1  C1  BNZ d   1       2.905  -0.722  -1.834  0.00  0.00     0.000 A 
ATOM      2  C2  BNZ d   1       2.500  -1.459  -0.753  0.00  0.00     0.000 A 
ATOM      3  C3  BNZ d   1       1.380  -1.113  -0.050  0.00  0.00     0.000 A 
ATOM      4  C4  BNZ d   1       0.690  -0.010  -0.403  0.00  0.00     0.000 A 
ATOM      5  C5  BNZ d   1       1.090   0.749  -1.486  0.00  0.00     0.000 A 
ATOM      6  C6  BNZ d   1       2.196   0.375  -2.215  0.00  0.00     0.000 A 
ENDROOT
TORSDOF 0
ENDMDL
