MODEL 1
REMARK minimizedAffinity -3.82875514
REMARK minimizedRMSD -1
REMARK  0 active torsions:
REMARK  status: ('A' for Active; 'I' for Inactive)
ROOT
ATOM      1  C1  BNZ d   1       2.279   0.415  -0.683  0.00  0.00     0.000 A 
ATOM      2  C2  BNZ d   1       1.147   0.496   0.084  0.00  0.00     0.000 A 
ATOM      3  C3  BNZ d   1       0.258  -0.542   0.129  0.00  0.00     0.000 A 
ATOM      4  C4  BNZ d   1       0.481  -1.640  -0.621  0.00  0.00     0.000 A 
ATOM      5  C5  BNZ d   1       1.613  -1.732  -1.406  0.00  0.00     0.000 A 
ATOM      6  C6  BNZ d   1       2.525  -0.702  -1.419  0.00  0.00     0.000 A 
ENDROOT
TORSDOF 0
ENDMDL
