MODEL 1
REMARK minimizedAffinity -5.71842957
REMARK minimizedRMSD -1
REMARK  0 active torsions:
REMARK  status: ('A' for Active; 'I' for Inactive)
ROOT
ATOM      1  C1  BNZ d   1       0.642   1.782  -1.516  0.00  0.00     0.000 A 
ATOM      2  C2  BNZ d   1       1.592   1.641  -2.492  0.00  0.00     0.000 A 
ATOM      3  C3  BNZ d   1       2.402   0.540  -2.526  0.00  0.00     0.000 A 
ATOM      4  C4  BNZ d   1       2.288  -0.397  -1.563  0.00  0.00     0.000 A 
ATOM      5  C5  BNZ d   1       1.342  -0.264  -0.566  0.00  0.00     0.000 A 
ATOM      6  C6  BNZ d   1       0.502   0.827  -0.557  0.00  0.00     0.000 A 
ENDROOT
TORSDOF 0
ENDMDL
