MODEL 1
REMARK minimizedAffinity -2.12200689
REMARK minimizedRMSD -1
REMARK  0 active torsions:
REMARK  status: ('A' for Active; 'I' for Inactive)
ROOT
ATOM      1  C1  BNZ d   1      -2.651   0.459   3.049  0.00  0.00     0.000 A 
ATOM      2  C2  BNZ d   1      -2.389  -0.269   1.919  0.00  0.00     0.000 A 
ATOM      3  C3  BNZ d   1      -1.447   0.148   1.021  0.00  0.00     0.000 A 
ATOM      4  C4  BNZ d   1      -0.799   1.312   1.233  0.00  0.00     0.000 A 
ATOM      5  C5  BNZ d   1      -1.059   2.062   2.362  0.00  0.00     0.000 A 
ATOM      6  C6  BNZ d   1      -1.979   1.619   3.284  0.00  0.00     0.000 A 
ENDROOT
TORSDOF 0
ENDMDL
