MODEL 1
REMARK minimizedAffinity -5.11749125
REMARK minimizedRMSD -1
REMARK  0 active torsions:
REMARK  status: ('A' for Active; 'I' for Inactive)
ROOT
ATOM      1  C1  BNZ d   1       1.252  -1.780  -0.873  0.00  0.00     0.000 A 
ATOM      2  C2  BNZ d   1       0.003  -1.802  -0.312  0.00  0.00     0.000 A 
ATOM      3  C3  BNZ d   1      -0.715  -0.649  -0.155  0.00  0.00     0.000 A 
ATOM      4  C4  BNZ d   1      -0.167   0.527  -0.522  0.00  0.00     0.000 A 
ATOM      5  C5  BNZ d   1       1.094   0.567  -1.081  0.00  0.00     0.000 A 
ATOM      6  C6  BNZ d   1       1.798  -0.599  -1.273  0.00  0.00     0.000 A 
ENDROOT
TORSDOF 0
ENDMDL
