MODEL 1
REMARK minimizedAffinity -5.00310135
REMARK minimizedRMSD -1
REMARK  0 active torsions:
REMARK  status: ('A' for Active; 'I' for Inactive)
ROOT
ATOM      1  C1  BNZ d   1       2.147  -0.713  -1.209  0.00  0.00     0.000 A 
ATOM      2  C2  BNZ d   1       1.321  -1.802  -1.294  0.00  0.00     0.000 A 
ATOM      3  C3  BNZ d   1       0.070  -1.776  -0.746  0.00  0.00     0.000 A 
ATOM      4  C4  BNZ d   1      -0.340  -0.677  -0.080  0.00  0.00     0.000 A 
ATOM      5  C5  BNZ d   1       0.485   0.426   0.022  0.00  0.00     0.000 A 
ATOM      6  C6  BNZ d   1       1.729   0.410  -0.564  0.00  0.00     0.000 A 
ENDROOT
TORSDOF 0
ENDMDL
