MODEL 1
REMARK minimizedAffinity -3.68800998
REMARK minimizedRMSD -1
REMARK  0 active torsions:
REMARK  status: ('A' for Active; 'I' for Inactive)
ROOT
ATOM      1  C1  BNZ d   1       1.756  -0.361   0.068  0.00  0.00     0.000 A 
ATOM      2  C2  BNZ d   1       0.744  -0.472   0.984  0.00  0.00     0.000 A 
ATOM      3  C3  BNZ d   1      -0.380   0.299   0.882  0.00  0.00     0.000 A 
ATOM      4  C4  BNZ d   1      -0.475   1.205  -0.112  0.00  0.00     0.000 A 
ATOM      5  C5  BNZ d   1       0.540   1.335  -1.039  0.00  0.00     0.000 A 
ATOM      6  C6  BNZ d   1       1.654   0.531  -0.955  0.00  0.00     0.000 A 
ENDROOT
TORSDOF 0
ENDMDL
