MODEL 1
REMARK minimizedAffinity -5.1624136
REMARK minimizedRMSD -1
REMARK  0 active torsions:
REMARK  status: ('A' for Active; 'I' for Inactive)
ROOT
ATOM      1  C1  BNZ d   1       1.402  -1.677  -0.961  0.00  0.00     0.000 A 
ATOM      2  C2  BNZ d   1       2.462  -0.810  -0.966  0.00  0.00     0.000 A 
ATOM      3  C3  BNZ d   1       2.339   0.448  -0.446  0.00  0.00     0.000 A 
ATOM      4  C4  BNZ d   1       1.147   0.851   0.041  0.00  0.00     0.000 A 
ATOM      5  C5  BNZ d   1       0.067  -0.009   0.045  0.00  0.00     0.000 A 
ATOM      6  C6  BNZ d   1       0.205  -1.288  -0.443  0.00  0.00     0.000 A 
ENDROOT
TORSDOF 0
ENDMDL
