MODEL 1
REMARK minimizedAffinity 7.91552782
REMARK minimizedRMSD -1
REMARK  0 active torsions:
REMARK  status: ('A' for Active; 'I' for Inactive)
ROOT
ATOM      1  C   UNL d   1       0.745  -0.040   3.042  0.00  0.00     0.172 C 
ATOM      2  N   UNL d   1       1.076   0.936   2.031  0.00  0.00    -0.070 N 
ATOM      3  C1  UNL d   1       2.094   0.830   1.121  0.00  0.00    -0.004 A 
ATOM      4  C2  UNL d   1       2.077   1.962   0.335  0.00  0.00    -0.047 A 
ATOM      5  C3  UNL d   1       1.013   2.777   0.789  0.00  0.00    -0.047 A 
ATOM      6  C4  UNL d   1       0.410   2.118   1.839  0.00  0.00    -0.004 A 
ENDROOT
TORSDOF 0
ENDMDL
