MODEL 1
REMARK minimizedAffinity 4.8212862
REMARK minimizedRMSD -1
REMARK  0 active torsions:
REMARK  status: ('A' for Active; 'I' for Inactive)
ROOT
ATOM      1  C   UNL d   1       5.791   5.199  -5.999  0.00  0.00     0.172 C 
ATOM      2  N   UNL d   1       5.829   4.465  -4.756  0.00  0.00    -0.070 N 
ATOM      3  C1  UNL d   1       5.998   3.112  -4.632  0.00  0.00    -0.004 A 
ATOM      4  C2  UNL d   1       5.977   2.805  -3.289  0.00  0.00    -0.047 A 
ATOM      5  C3  UNL d   1       5.789   4.016  -2.581  0.00  0.00    -0.047 A 
ATOM      6  C4  UNL d   1       5.700   5.028  -3.513  0.00  0.00    -0.004 A 
ENDROOT
TORSDOF 0
ENDMDL
