MODEL 1
REMARK minimizedAffinity 12.5625343
REMARK minimizedRMSD -1
REMARK  0 active torsions:
REMARK  status: ('A' for Active; 'I' for Inactive)
ROOT
ATOM      1  C   UNL d   1      -5.997  -3.649  -3.372  0.00  0.00     0.172 C 
ATOM      2  N   UNL d   1      -5.020  -4.417  -2.638  0.00  0.00    -0.070 N 
ATOM      3  C1  UNL d   1      -3.683  -4.132  -2.548  0.00  0.00    -0.004 A 
ATOM      4  C2  UNL d   1      -3.097  -5.099  -1.760  0.00  0.00    -0.047 A 
ATOM      5  C3  UNL d   1      -4.117  -5.998  -1.364  0.00  0.00    -0.047 A 
ATOM      6  C4  UNL d   1      -5.296  -5.552  -1.921  0.00  0.00    -0.004 A 
ENDROOT
TORSDOF 0
ENDMDL
