MODEL 1
REMARK minimizedAffinity 2.68445158
REMARK minimizedRMSD -1
REMARK  0 active torsions:
REMARK  status: ('A' for Active; 'I' for Inactive)
ROOT
ATOM      1  C   UNL d   1       3.755   0.480   2.368  0.00  0.00     0.172 C 
ATOM      2  N   UNL d   1       2.969   0.562   1.159  0.00  0.00    -0.070 N 
ATOM      3  C1  UNL d   1       3.172   1.446   0.133  0.00  0.00    -0.004 A 
ATOM      4  C2  UNL d   1       2.217   1.202  -0.829  0.00  0.00    -0.047 A 
ATOM      5  C3  UNL d   1       1.411   0.135  -0.366  0.00  0.00    -0.047 A 
ATOM      6  C4  UNL d   1       1.899  -0.242   0.868  0.00  0.00    -0.004 A 
ENDROOT
TORSDOF 0
ENDMDL
