MODEL 1
REMARK minimizedAffinity 2.47106385
REMARK minimizedRMSD -1
REMARK  0 active torsions:
REMARK  status: ('A' for Active; 'I' for Inactive)
ROOT
ATOM      1  C   UNL d   1      -3.027  -3.151  -2.478  0.00  0.00     0.172 C 
ATOM      2  N   UNL d   1      -4.098  -4.100  -2.669  0.00  0.00    -0.070 N 
ATOM      3  C1  UNL d   1      -5.232  -3.886  -3.407  0.00  0.00    -0.004 A 
ATOM      4  C2  UNL d   1      -6.000  -5.029  -3.342  0.00  0.00    -0.047 A 
ATOM      5  C3  UNL d   1      -5.304  -5.961  -2.536  0.00  0.00    -0.047 A 
ATOM      6  C4  UNL d   1      -4.131  -5.360  -2.133  0.00  0.00    -0.004 A 
ENDROOT
TORSDOF 0
ENDMDL
