MODEL 1
REMARK minimizedAffinity 6.26533747
REMARK minimizedRMSD -1
REMARK  0 active torsions:
REMARK  status: ('A' for Active; 'I' for Inactive)
ROOT
ATOM      1  C   UNL d   1       1.775   3.703   0.823  0.00  0.00     0.172 C 
ATOM      2  N   UNL d   1       1.681   2.398   1.434  0.00  0.00    -0.070 N 
ATOM      3  C1  UNL d   1       0.838   2.054   2.456  0.00  0.00    -0.004 A 
ATOM      4  C2  UNL d   1       1.052   0.725   2.751  0.00  0.00    -0.047 A 
ATOM      5  C3  UNL d   1       2.060   0.254   1.877  0.00  0.00    -0.047 A 
ATOM      6  C4  UNL d   1       2.432   1.311   1.072  0.00  0.00    -0.004 A 
ENDROOT
TORSDOF 0
ENDMDL
