MODEL 1
REMARK minimizedAffinity 8.74876118
REMARK minimizedRMSD -1
REMARK  0 active torsions:
REMARK  status: ('A' for Active; 'I' for Inactive)
ROOT
ATOM      1  C   UNL d   1       3.342   1.126  -5.992  0.00  0.00     0.172 C 
ATOM      2  N   UNL d   1       3.949   1.458  -4.725  0.00  0.00    -0.070 N 
ATOM      3  C1  UNL d   1       3.948   2.695  -4.138  0.00  0.00    -0.004 A 
ATOM      4  C2  UNL d   1       4.627   2.597  -2.943  0.00  0.00    -0.047 A 
ATOM      5  C3  UNL d   1       5.051   1.254  -2.806  0.00  0.00    -0.047 A 
ATOM      6  C4  UNL d   1       4.618   0.571  -3.924  0.00  0.00    -0.004 A 
ENDROOT
TORSDOF 0
ENDMDL
