MODEL 1
REMARK minimizedAffinity 7.91381311
REMARK minimizedRMSD -1
REMARK  0 active torsions:
REMARK  status: ('A' for Active; 'I' for Inactive)
ROOT
ATOM      1  C   UNL d   1       3.373   1.498  -5.033  0.00  0.00     0.172 C 
ATOM      2  N   UNL d   1       2.938   1.866  -3.707  0.00  0.00    -0.070 N 
ATOM      3  C1  UNL d   1       3.687   1.767  -2.565  0.00  0.00    -0.004 A 
ATOM      4  C2  UNL d   1       2.917   2.216  -1.514  0.00  0.00    -0.047 A 
ATOM      5  C3  UNL d   1       1.660   2.596  -2.042  0.00  0.00    -0.047 A 
ATOM      6  C4  UNL d   1       1.701   2.369  -3.402  0.00  0.00    -0.004 A 
ENDROOT
TORSDOF 0
ENDMDL
