MODEL 1
REMARK minimizedAffinity 4.41859913
REMARK minimizedRMSD -1
REMARK  0 active torsions:
REMARK  status: ('A' for Active; 'I' for Inactive)
ROOT
ATOM      1  C   UNL d   1       1.679   1.280  -0.833  0.00  0.00     0.172 C 
ATOM      2  N   UNL d   1       2.276   1.551  -2.119  0.00  0.00    -0.070 N 
ATOM      3  C1  UNL d   1       1.824   2.467  -3.032  0.00  0.00    -0.004 A 
ATOM      4  C2  UNL d   1       2.663   2.423  -4.124  0.00  0.00    -0.047 A 
ATOM      5  C3  UNL d   1       3.652   1.446  -3.859  0.00  0.00    -0.047 A 
ATOM      6  C4  UNL d   1       3.388   0.922  -2.612  0.00  0.00    -0.004 A 
ENDROOT
TORSDOF 0
ENDMDL
