MODEL 1
REMARK minimizedAffinity 4.6484561
REMARK minimizedRMSD -1
REMARK  0 active torsions:
REMARK  status: ('A' for Active; 'I' for Inactive)
ROOT
ATOM      1  C   UNL d   1       2.602   2.493  -5.116  0.00  0.00     0.172 C 
ATOM      2  N   UNL d   1       2.735   3.914  -5.335  0.00  0.00    -0.070 N 
ATOM      3  C1  UNL d   1       1.836   4.707  -5.998  0.00  0.00    -0.004 A 
ATOM      4  C2  UNL d   1       2.325   5.995  -5.991  0.00  0.00    -0.047 A 
ATOM      5  C3  UNL d   1       3.560   5.976  -5.301  0.00  0.00    -0.047 A 
ATOM      6  C4  UNL d   1       3.790   4.676  -4.905  0.00  0.00    -0.004 A 
ENDROOT
TORSDOF 0
ENDMDL
