MODEL 1
REMARK minimizedAffinity -0.411234498
REMARK minimizedRMSD -1
REMARK  0 active torsions:
REMARK  status: ('A' for Active; 'I' for Inactive)
ROOT
ATOM      1  C   UNL d   1      -5.030   1.045   5.994  0.00  0.00     0.172 C 
ATOM      2  N   UNL d   1      -5.151   2.406   5.527  0.00  0.00    -0.070 N 
ATOM      3  C1  UNL d   1      -4.443   3.479   6.000  0.00  0.00    -0.004 A 
ATOM      4  C2  UNL d   1      -4.846   4.594   5.297  0.00  0.00    -0.047 A 
ATOM      5  C3  UNL d   1      -5.831   4.177   4.370  0.00  0.00    -0.047 A 
ATOM      6  C4  UNL d   1      -6.000   2.818   4.534  0.00  0.00    -0.004 A 
ENDROOT
TORSDOF 0
ENDMDL
