MODEL 1
REMARK minimizedAffinity 0.528137624
REMARK minimizedRMSD -1
REMARK  0 active torsions:
REMARK  status: ('A' for Active; 'I' for Inactive)
ROOT
ATOM      1  C   UNL d   1      -6.000  -0.137   5.939  0.00  0.00     0.172 C 
ATOM      2  N   UNL d   1      -5.984   1.171   5.329  0.00  0.00    -0.070 N 
ATOM      3  C1  UNL d   1      -5.994   2.365   6.000  0.00  0.00    -0.004 A 
ATOM      4  C2  UNL d   1      -5.972   3.376   5.063  0.00  0.00    -0.047 A 
ATOM      5  C3  UNL d   1      -5.949   2.768   3.785  0.00  0.00    -0.047 A 
ATOM      6  C4  UNL d   1      -5.957   1.403   3.979  0.00  0.00    -0.004 A 
ENDROOT
TORSDOF 0
ENDMDL
