MODEL 1
REMARK minimizedAffinity 3.60450315
REMARK minimizedRMSD -1
REMARK  0 active torsions:
REMARK  status: ('A' for Active; 'I' for Inactive)
ROOT
ATOM      1  C   UNL d   1      -4.541   0.789   3.013  0.00  0.00     0.172 C 
ATOM      2  N   UNL d   1      -5.031   1.611   4.094  0.00  0.00    -0.070 N 
ATOM      3  C1  UNL d   1      -4.912   2.973   4.179  0.00  0.00    -0.004 A 
ATOM      4  C2  UNL d   1      -5.506   3.376   5.355  0.00  0.00    -0.047 A 
ATOM      5  C3  UNL d   1      -5.998   2.216   6.000  0.00  0.00    -0.047 A 
ATOM      6  C4  UNL d   1      -5.691   1.138   5.197  0.00  0.00    -0.004 A 
ENDROOT
TORSDOF 0
ENDMDL
