MODEL 1
REMARK minimizedAffinity 6.5637722
REMARK minimizedRMSD -1
REMARK  0 active torsions:
REMARK  status: ('A' for Active; 'I' for Inactive)
ROOT
ATOM      1  C   UNL d   1       3.173  -2.759  -5.431  0.00  0.00     0.172 C 
ATOM      2  N   UNL d   1       2.198  -3.352  -4.547  0.00  0.00    -0.070 N 
ATOM      3  C1  UNL d   1       1.001  -3.898  -4.929  0.00  0.00    -0.004 A 
ATOM      4  C2  UNL d   1       0.364  -4.355  -3.796  0.00  0.00    -0.047 A 
ATOM      5  C3  UNL d   1       1.207  -4.074  -2.694  0.00  0.00    -0.047 A 
ATOM      6  C4  UNL d   1       2.335  -3.453  -3.188  0.00  0.00    -0.004 A 
ENDROOT
TORSDOF 0
ENDMDL
