MODEL 1
REMARK minimizedAffinity 3.06689215
REMARK minimizedRMSD -1
REMARK  0 active torsions:
REMARK  status: ('A' for Active; 'I' for Inactive)
ROOT
ATOM      1  C   UNL d   1      -4.586   2.151   4.261  0.00  0.00     0.172 C 
ATOM      2  N   UNL d   1      -3.519   1.608   3.454  0.00  0.00    -0.070 N 
ATOM      3  C1  UNL d   1      -3.340   0.285   3.152  0.00  0.00    -0.004 A 
ATOM      4  C2  UNL d   1      -2.215   0.179   2.363  0.00  0.00    -0.047 A 
ATOM      5  C3  UNL d   1      -1.698   1.485   2.186  0.00  0.00    -0.047 A 
ATOM      6  C4  UNL d   1      -2.525   2.350   2.872  0.00  0.00    -0.004 A 
ENDROOT
TORSDOF 0
ENDMDL
