MODEL 1
REMARK minimizedAffinity 0.954279065
REMARK minimizedRMSD -1
REMARK  0 active torsions:
REMARK  status: ('A' for Active; 'I' for Inactive)
ROOT
ATOM      1  C   UNL d   1      -2.150   2.234   2.147  0.00  0.00     0.172 C 
ATOM      2  N   UNL d   1      -0.839   1.796   1.731  0.00  0.00    -0.070 N 
ATOM      3  C1  UNL d   1      -0.285   0.572   1.995  0.00  0.00    -0.004 A 
ATOM      4  C2  UNL d   1       0.971   0.546   1.429  0.00  0.00    -0.047 A 
ATOM      5  C3  UNL d   1       1.180   1.798   0.804  0.00  0.00    -0.047 A 
ATOM      6  C4  UNL d   1       0.044   2.552   1.006  0.00  0.00    -0.004 A 
ENDROOT
TORSDOF 0
ENDMDL
