MODEL 1
REMARK minimizedAffinity -0.264181852
REMARK minimizedRMSD -1
REMARK  2 active torsions:
REMARK  status: ('A' for Active; 'I' for Inactive)
REMARK    1  A    between atoms: C2'_3  and  C1'_4 
REMARK    2  A    between atoms: C1'_4  and  C1_5 
ROOT
ATOM      1  C1  I4B d   1      -0.320   0.289   1.147  0.00  0.00    -0.075 A 
ATOM      2  C2  I4B d   1       0.059   0.856   2.338  0.00  0.00     0.003 A 
ATOM      3  C3  I4B d   1      -0.600   2.014   2.817  0.00  0.00     0.002 A 
ATOM      4  C4  I4B d   1      -1.590   2.597   2.054  0.00  0.00    -0.004 A 
ATOM      5  C5  I4B d   1      -1.988   2.008   0.858  0.00  0.00     0.002 A 
ATOM      6  C6  I4B d   1      -1.358   0.840   0.406  0.00  0.00     0.003 A 
ENDROOT
BRANCH   1   7
ATOM      7  C1' I4B d   1       0.420  -0.915   0.654  0.00  0.00     0.060 C 
BRANCH   7   8
ATOM      8  C2' I4B d   1       0.213  -1.009  -0.844  0.00  0.00    -0.013 C 
ATOM      9  C4' I4B d   1       0.799   0.185  -1.551  0.00  0.00     0.013 C 
ATOM     10  C3' I4B d   1       0.845  -2.283  -1.319  0.00  0.00     0.013 C 
ENDBRANCH   7   8
ENDBRANCH   1   7
TORSDOF 2
ENDMDL
