MODEL 1
REMARK minimizedAffinity -3.72815704
REMARK minimizedRMSD -1
REMARK  2 active torsions:
REMARK  status: ('A' for Active; 'I' for Inactive)
REMARK    1  A    between atoms: C2'_3  and  C1'_4 
REMARK    2  A    between atoms: C1'_4  and  C1_5 
ROOT
ATOM      1  C1  I4B d   1       0.533  -0.368  -0.688  0.00  0.00    -0.075 A 
ATOM      2  C2  I4B d   1       0.266   0.970  -0.839  0.00  0.00     0.003 A 
ATOM      3  C3  I4B d   1      -0.425   1.678   0.174  0.00  0.00     0.002 A 
ATOM      4  C4  I4B d   1      -0.871   1.003   1.292  0.00  0.00    -0.004 A 
ATOM      5  C5  I4B d   1      -0.580  -0.349   1.454  0.00  0.00     0.002 A 
ATOM      6  C6  I4B d   1       0.137  -1.036   0.464  0.00  0.00     0.003 A 
ENDROOT
BRANCH   1   7
ATOM      7  C1' I4B d   1       1.235  -1.092  -1.792  0.00  0.00     0.060 C 
BRANCH   7   8
ATOM      8  C2' I4B d   1       0.712  -2.514  -1.825  0.00  0.00    -0.013 C 
ATOM      9  C4' I4B d   1      -0.129  -2.757  -3.050  0.00  0.00     0.013 C 
ATOM     10  C3' I4B d   1       1.890  -3.441  -1.783  0.00  0.00     0.013 C 
ENDBRANCH   7   8
ENDBRANCH   1   7
TORSDOF 2
ENDMDL
