MODEL 1
REMARK minimizedAffinity -5.15976286
REMARK minimizedRMSD -1
REMARK  2 active torsions:
REMARK  status: ('A' for Active; 'I' for Inactive)
REMARK    1  A    between atoms: C2'_3  and  C1'_4 
REMARK    2  A    between atoms: C1'_4  and  C1_5 
ROOT
ATOM      1  C1  I4B d   1       0.224  -0.071  -0.268  0.00  0.00    -0.075 A 
ATOM      2  C2  I4B d   1      -0.681   0.904  -0.607  0.00  0.00     0.003 A 
ATOM      3  C3  I4B d   1      -1.606   1.383   0.353  0.00  0.00     0.002 A 
ATOM      4  C4  I4B d   1      -1.624   0.827   1.616  0.00  0.00    -0.004 A 
ATOM      5  C5  I4B d   1      -0.691  -0.145   1.964  0.00  0.00     0.002 A 
ATOM      6  C6  I4B d   1       0.247  -0.589   1.021  0.00  0.00     0.003 A 
ENDROOT
BRANCH   1   7
ATOM      7  C1' I4B d   1       1.164  -0.577  -1.315  0.00  0.00     0.060 C 
BRANCH   7   8
ATOM      8  C2' I4B d   1       0.588  -1.859  -1.880  0.00  0.00    -0.013 C 
ATOM      9  C4' I4B d   1       0.369  -1.750  -3.366  0.00  0.00     0.013 C 
ATOM     10  C3' I4B d   1       1.534  -2.976  -1.552  0.00  0.00     0.013 C 
ENDBRANCH   7   8
ENDBRANCH   1   7
TORSDOF 2
ENDMDL
