MODEL 1
REMARK minimizedAffinity -5.65030813
REMARK minimizedRMSD -1
REMARK  2 active torsions:
REMARK  status: ('A' for Active; 'I' for Inactive)
REMARK    1  A    between atoms: C2'_3  and  C1'_4 
REMARK    2  A    between atoms: C1'_4  and  C1_5 
ROOT
ATOM      1  C1  I4B d   1      -0.594   0.192   0.056  0.00  0.00    -0.075 A 
ATOM      2  C2  I4B d   1      -1.079   1.414  -0.337  0.00  0.00     0.003 A 
ATOM      3  C3  I4B d   1      -1.469   2.371   0.630  0.00  0.00     0.002 A 
ATOM      4  C4  I4B d   1      -1.405   2.048   1.970  0.00  0.00    -0.004 A 
ATOM      5  C5  I4B d   1      -0.891   0.818   2.368  0.00  0.00     0.002 A 
ATOM      6  C6  I4B d   1      -0.471  -0.112   1.406  0.00  0.00     0.003 A 
ENDROOT
BRANCH   1   7
ATOM      7  C1' I4B d   1      -0.222  -0.808  -0.993  0.00  0.00     0.060 C 
BRANCH   7   8
ATOM      8  C2' I4B d   1       1.252  -1.122  -0.836  0.00  0.00    -0.013 C 
ATOM      9  C4' I4B d   1       1.600  -2.437  -1.482  0.00  0.00     0.013 C 
ATOM     10  C3' I4B d   1       2.032   0.004  -1.446  0.00  0.00     0.013 C 
ENDBRANCH   7   8
ENDBRANCH   1   7
TORSDOF 2
ENDMDL
