MODEL 1
REMARK minimizedAffinity -2.03376532
REMARK minimizedRMSD -1
REMARK  2 active torsions:
REMARK  status: ('A' for Active; 'I' for Inactive)
REMARK    1  A    between atoms: C2'_3  and  C1'_4 
REMARK    2  A    between atoms: C1'_4  and  C1_5 
ROOT
ATOM      1  C1  I4B d   1       0.292  -0.176  -0.069  0.00  0.00    -0.075 A 
ATOM      2  C2  I4B d   1      -0.027  -0.743   1.140  0.00  0.00     0.003 A 
ATOM      3  C3  I4B d   1      -0.889  -0.069   2.038  0.00  0.00     0.002 A 
ATOM      4  C4  I4B d   1      -1.367   1.184   1.711  0.00  0.00    -0.004 A 
ATOM      5  C5  I4B d   1      -1.061   1.747   0.475  0.00  0.00     0.002 A 
ATOM      6  C6  I4B d   1      -0.236   1.058  -0.426  0.00  0.00     0.003 A 
ENDROOT
BRANCH   1   7
ATOM      7  C1' I4B d   1       1.232  -0.901  -0.980  0.00  0.00     0.060 C 
BRANCH   7   8
ATOM      8  C2' I4B d   1       0.549  -2.173  -1.438  0.00  0.00    -0.013 C 
ATOM      9  C4' I4B d   1       0.085  -2.059  -2.866  0.00  0.00     0.013 C 
ATOM     10  C3' I4B d   1       1.520  -3.304  -1.274  0.00  0.00     0.013 C 
ENDBRANCH   7   8
ENDBRANCH   1   7
TORSDOF 2
ENDMDL
