MODEL 1
REMARK minimizedAffinity -6.08381605
REMARK minimizedRMSD -1
REMARK  2 active torsions:
REMARK  status: ('A' for Active; 'I' for Inactive)
REMARK    1  A    between atoms: C2'_3  and  C1'_4 
REMARK    2  A    between atoms: C1'_4  and  C1_5 
ROOT
ATOM      1  C1  I4B d   1       0.249  -0.104   0.116  0.00  0.00    -0.075 A 
ATOM      2  C2  I4B d   1      -0.239   1.174   0.003  0.00  0.00     0.003 A 
ATOM      3  C3  I4B d   1      -1.118   1.691   0.986  0.00  0.00     0.002 A 
ATOM      4  C4  I4B d   1      -1.519   0.883   2.031  0.00  0.00    -0.004 A 
ATOM      5  C5  I4B d   1      -1.005  -0.404   2.155  0.00  0.00     0.002 A 
ATOM      6  C6  I4B d   1      -0.106  -0.897   1.199  0.00  0.00     0.003 A 
ENDROOT
BRANCH   1   7
ATOM      7  C1' I4B d   1       1.149  -0.628  -0.958  0.00  0.00     0.060 C 
BRANCH   7   8
ATOM      8  C2' I4B d   1       0.681  -2.024  -1.318  0.00  0.00    -0.013 C 
ATOM      9  C4' I4B d   1       0.177  -2.081  -2.736  0.00  0.00     0.013 C 
ATOM     10  C3' I4B d   1       1.832  -2.964  -1.114  0.00  0.00     0.013 C 
ENDBRANCH   7   8
ENDBRANCH   1   7
TORSDOF 2
ENDMDL
