MODEL 1
REMARK minimizedAffinity -1.87976587
REMARK minimizedRMSD -1
REMARK  2 active torsions:
REMARK  status: ('A' for Active; 'I' for Inactive)
REMARK    1  A    between atoms: C2'_3  and  C1'_4 
REMARK    2  A    between atoms: C1'_4  and  C1_5 
ROOT
ATOM      1  C1  I4B d   1       0.246  -0.666  -0.194  0.00  0.00    -0.075 A 
ATOM      2  C2  I4B d   1      -0.201   0.461  -0.838  0.00  0.00     0.003 A 
ATOM      3  C3  I4B d   1      -0.903   1.460  -0.122  0.00  0.00     0.002 A 
ATOM      4  C4  I4B d   1      -1.180   1.269   1.217  0.00  0.00    -0.004 A 
ATOM      5  C5  I4B d   1      -0.706   0.137   1.873  0.00  0.00     0.002 A 
ATOM      6  C6  I4B d   1       0.021  -0.832   1.166  0.00  0.00     0.003 A 
ENDROOT
BRANCH   1   7
ATOM      7  C1' I4B d   1       0.955  -1.717  -0.989  0.00  0.00     0.060 C 
BRANCH   7   8
ATOM      8  C2' I4B d   1      -0.059  -2.378  -1.899  0.00  0.00    -0.013 C 
ATOM      9  C4' I4B d   1      -0.058  -1.745  -3.266  0.00  0.00     0.013 C 
ATOM     10  C3' I4B d   1       0.273  -3.838  -1.979  0.00  0.00     0.013 C 
ENDBRANCH   7   8
ENDBRANCH   1   7
TORSDOF 2
ENDMDL
