MODEL 1
REMARK minimizedAffinity -5.80780554
REMARK minimizedRMSD -1
REMARK  2 active torsions:
REMARK  status: ('A' for Active; 'I' for Inactive)
REMARK    1  A    between atoms: C2'_3  and  C1'_4 
REMARK    2  A    between atoms: C1'_4  and  C1_5 
ROOT
ATOM      1  C1  I4B d   1       0.490   0.193  -0.239  0.00  0.00    -0.075 A 
ATOM      2  C2  I4B d   1      -0.131   1.352  -0.634  0.00  0.00     0.003 A 
ATOM      3  C3  I4B d   1      -1.082   1.974   0.211  0.00  0.00     0.002 A 
ATOM      4  C4  I4B d   1      -1.417   1.381   1.411  0.00  0.00    -0.004 A 
ATOM      5  C5  I4B d   1      -0.769   0.218   1.819  0.00  0.00     0.002 A 
ATOM      6  C6  I4B d   1       0.199  -0.373   0.995  0.00  0.00     0.003 A 
ENDROOT
BRANCH   1   7
ATOM      7  C1' I4B d   1       1.464  -0.456  -1.170  0.00  0.00     0.060 C 
BRANCH   7   8
ATOM      8  C2' I4B d   1       1.026  -1.891  -1.379  0.00  0.00    -0.013 C 
ATOM      9  C4' I4B d   1       0.330  -2.061  -2.704  0.00  0.00     0.013 C 
ATOM     10  C3' I4B d   1       2.243  -2.764  -1.291  0.00  0.00     0.013 C 
ENDBRANCH   7   8
ENDBRANCH   1   7
TORSDOF 2
ENDMDL
