MODEL 1
REMARK minimizedAffinity -6.05571365
REMARK minimizedRMSD -1
REMARK  2 active torsions:
REMARK  status: ('A' for Active; 'I' for Inactive)
REMARK    1  A    between atoms: C2'_3  and  C1'_4 
REMARK    2  A    between atoms: C1'_4  and  C1_5 
ROOT
ATOM      1  C1  I4B d   1      -0.001   0.121  -0.254  0.00  0.00    -0.075 A 
ATOM      2  C2  I4B d   1      -0.195  -0.544   0.931  0.00  0.00     0.003 A 
ATOM      3  C3  I4B d   1      -1.072  -0.016   1.910  0.00  0.00     0.002 A 
ATOM      4  C4  I4B d   1      -1.692   1.195   1.684  0.00  0.00    -0.004 A 
ATOM      5  C5  I4B d   1      -1.513   1.857   0.472  0.00  0.00     0.002 A 
ATOM      6  C6  I4B d   1      -0.672   1.311  -0.508  0.00  0.00     0.003 A 
ENDROOT
BRANCH   1   7
ATOM      7  C1' I4B d   1       0.957  -0.447  -1.252  0.00  0.00     0.060 C 
BRANCH   7   8
ATOM      8  C2' I4B d   1       0.610  -1.908  -1.453  0.00  0.00    -0.013 C 
ATOM      9  C4' I4B d   1       0.082  -2.156  -2.841  0.00  0.00     0.013 C 
ATOM     10  C3' I4B d   1       1.844  -2.718  -1.190  0.00  0.00     0.013 C 
ENDBRANCH   7   8
ENDBRANCH   1   7
TORSDOF 2
ENDMDL
