MODEL 1
REMARK minimizedAffinity -1.67346549
REMARK minimizedRMSD -1
REMARK  2 active torsions:
REMARK  status: ('A' for Active; 'I' for Inactive)
REMARK    1  A    between atoms: C2'_3  and  C1'_4 
REMARK    2  A    between atoms: C1'_4  and  C1_5 
ROOT
ATOM      1  C1  I4B d   1       0.335  -0.822  -0.480  0.00  0.00    -0.075 A 
ATOM      2  C2  I4B d   1       0.358   0.405  -1.096  0.00  0.00     0.003 A 
ATOM      3  C3  I4B d   1      -0.290   1.513  -0.500  0.00  0.00     0.002 A 
ATOM      4  C4  I4B d   1      -0.988   1.341   0.678  0.00  0.00    -0.004 A 
ATOM      5  C5  I4B d   1      -0.991   0.102   1.312  0.00  0.00     0.002 A 
ATOM      6  C6  I4B d   1      -0.315  -0.984   0.736  0.00  0.00     0.003 A 
ENDROOT
BRANCH   1   7
ATOM      7  C1' I4B d   1       1.002  -1.979  -1.154  0.00  0.00     0.060 C 
BRANCH   7   8
ATOM      8  C2' I4B d   1      -0.075  -2.829  -1.797  0.00  0.00    -0.013 C 
ATOM      9  C4' I4B d   1      -0.368  -2.367  -3.200  0.00  0.00     0.013 C 
ATOM     10  C3' I4B d   1       0.390  -4.255  -1.783  0.00  0.00     0.013 C 
ENDBRANCH   7   8
ENDBRANCH   1   7
TORSDOF 2
ENDMDL
