MODEL 1
REMARK minimizedAffinity -3.94586039
REMARK minimizedRMSD -1
REMARK  0 active torsions:
REMARK  status: ('A' for Active; 'I' for Inactive)
ROOT
ATOM      1  O1  BZF d   1       0.591   1.697  -2.246  0.00  0.00    -0.204 OA
ATOM      2  C2  BZF d   1       1.538   1.589  -3.246  0.00  0.00     0.174 A 
ATOM      3  C3  BZF d   1       2.278   0.473  -3.085  0.00  0.00    -0.012 A 
ATOM      4  C3A BZF d   1       1.701  -0.203  -1.964  0.00  0.00    -0.107 A 
ATOM      5  C4  BZF d   1       1.987  -1.376  -1.326  0.00  0.00     0.055 A 
ATOM      6  C5  BZF d   1       1.279  -1.714  -0.217  0.00  0.00    -0.016 A 
ATOM      7  C6  BZF d   1       0.283  -0.902   0.285  0.00  0.00     0.022 A 
ATOM      8  C7  BZF d   1      -0.039   0.269  -0.316  0.00  0.00     0.029 A 
ATOM      9  C7A BZF d   1       0.652   0.598  -1.456  0.00  0.00     0.058 A 
ENDROOT
TORSDOF 0
ENDMDL
