MODEL 1
REMARK minimizedAffinity -3.41018081
REMARK minimizedRMSD -1
REMARK  0 active torsions:
REMARK  status: ('A' for Active; 'I' for Inactive)
ROOT
ATOM      1  O1  BZF d   1       0.753   1.921  -2.249  0.00  0.00    -0.204 OA
ATOM      2  C2  BZF d   1       1.582   1.933  -3.353  0.00  0.00     0.174 A 
ATOM      3  C3  BZF d   1       2.248   0.766  -3.465  0.00  0.00    -0.012 A 
ATOM      4  C3A BZF d   1       1.739  -0.059  -2.413  0.00  0.00    -0.107 A 
ATOM      5  C4  BZF d   1       1.998  -1.340  -2.015  0.00  0.00     0.055 A 
ATOM      6  C5  BZF d   1       1.383  -1.824  -0.904  0.00  0.00    -0.016 A 
ATOM      7  C6  BZF d   1       0.508  -1.055  -0.166  0.00  0.00     0.022 A 
ATOM      8  C7  BZF d   1       0.216   0.219  -0.524  0.00  0.00     0.029 A 
ATOM      9  C7A BZF d   1       0.810   0.700  -1.664  0.00  0.00     0.058 A 
ENDROOT
TORSDOF 0
ENDMDL
