MODEL 1
REMARK minimizedAffinity -3.48522925
REMARK minimizedRMSD -1
REMARK  0 active torsions:
REMARK  status: ('A' for Active; 'I' for Inactive)
ROOT
ATOM      1  O1  BZF d   1      -4.486  -1.612   2.535  0.00  0.00    -0.204 OA
ATOM      2  C2  BZF d   1      -4.755  -1.996   3.834  0.00  0.00     0.174 A 
ATOM      3  C3  BZF d   1      -3.912  -1.391   4.696  0.00  0.00    -0.012 A 
ATOM      4  C3A BZF d   1      -3.123  -0.508   3.893  0.00  0.00    -0.107 A 
ATOM      5  C4  BZF d   1      -2.121   0.376   4.176  0.00  0.00     0.055 A 
ATOM      6  C5  BZF d   1      -1.509   1.030   3.155  0.00  0.00    -0.016 A 
ATOM      7  C6  BZF d   1      -1.869   0.821   1.840  0.00  0.00     0.022 A 
ATOM      8  C7  BZF d   1      -2.860  -0.042   1.509  0.00  0.00     0.029 A 
ATOM      9  C7A BZF d   1      -3.503  -0.680   2.542  0.00  0.00     0.058 A 
ENDROOT
TORSDOF 0
ENDMDL
