MODEL 1
REMARK minimizedAffinity -1.03731215
REMARK minimizedRMSD -1
REMARK  0 active torsions:
REMARK  status: ('A' for Active; 'I' for Inactive)
ROOT
ATOM      1  O1  BZF d   1       0.288   0.890   0.624  0.00  0.00    -0.204 OA
ATOM      2  C2  BZF d   1       0.139  -0.228  -0.173  0.00  0.00     0.174 A 
ATOM      3  C3  BZF d   1      -0.948  -0.937   0.195  0.00  0.00    -0.012 A 
ATOM      4  C3A BZF d   1      -1.566  -0.167   1.230  0.00  0.00    -0.107 A 
ATOM      5  C4  BZF d   1      -2.691  -0.340   1.984  0.00  0.00     0.055 A 
ATOM      6  C5  BZF d   1      -2.976   0.560   2.962  0.00  0.00    -0.016 A 
ATOM      7  C6  BZF d   1      -2.157   1.640   3.215  0.00  0.00     0.022 A 
ATOM      8  C7  BZF d   1      -1.032   1.856   2.490  0.00  0.00     0.029 A 
ATOM      9  C7A BZF d   1      -0.759   0.967   1.480  0.00  0.00     0.058 A 
ENDROOT
TORSDOF 0
ENDMDL
