MODEL 1
REMARK minimizedAffinity -1.56485534
REMARK minimizedRMSD -1
REMARK  0 active torsions:
REMARK  status: ('A' for Active; 'I' for Inactive)
ROOT
ATOM      1  O1  BZF d   1       0.506   1.339  -2.049  0.00  0.00    -0.204 OA
ATOM      2  C2  BZF d   1       1.512   0.876  -2.876  0.00  0.00     0.174 A 
ATOM      3  C3  BZF d   1       1.929  -0.346  -2.484  0.00  0.00    -0.012 A 
ATOM      4  C3A BZF d   1       1.070  -0.705  -1.397  0.00  0.00    -0.107 A 
ATOM      5  C4  BZF d   1       0.977  -1.811  -0.600  0.00  0.00     0.055 A 
ATOM      6  C5  BZF d   1       0.078  -1.817   0.418  0.00  0.00    -0.016 A 
ATOM      7  C6  BZF d   1      -0.740  -0.735   0.671  0.00  0.00     0.022 A 
ATOM      8  C7  BZF d   1      -0.688   0.382  -0.095  0.00  0.00     0.029 A 
ATOM      9  C7A BZF d   1       0.197   0.378  -1.145  0.00  0.00     0.058 A 
ENDROOT
TORSDOF 0
ENDMDL
