MODEL 1
REMARK minimizedAffinity -4.21607828
REMARK minimizedRMSD -1
REMARK  0 active torsions:
REMARK  status: ('A' for Active; 'I' for Inactive)
ROOT
ATOM      1  O1  BZF d   1       2.161  -2.019  -1.124  0.00  0.00    -0.204 OA
ATOM      2  C2  BZF d   1       3.094  -1.017  -1.305  0.00  0.00     0.174 A 
ATOM      3  C3  BZF d   1       2.557   0.191  -1.041  0.00  0.00    -0.012 A 
ATOM      4  C3A BZF d   1       1.229  -0.080  -0.581  0.00  0.00    -0.107 A 
ATOM      5  C4  BZF d   1       0.204   0.713  -0.151  0.00  0.00     0.055 A 
ATOM      6  C5  BZF d   1      -0.989   0.141   0.158  0.00  0.00    -0.016 A 
ATOM      7  C6  BZF d   1      -1.194  -1.218   0.043  0.00  0.00     0.022 A 
ATOM      8  C7  BZF d   1      -0.205  -2.046  -0.375  0.00  0.00     0.029 A 
ATOM      9  C7A BZF d   1       1.012  -1.475  -0.656  0.00  0.00     0.058 A 
ENDROOT
TORSDOF 0
ENDMDL
