MODEL 1
REMARK minimizedAffinity -5.89288616
REMARK minimizedRMSD -1
REMARK  0 active torsions:
REMARK  status: ('A' for Active; 'I' for Inactive)
ROOT
ATOM      1  O1  BZF d   1      -0.720   0.342  -0.130  0.00  0.00    -0.204 OA
ATOM      2  C2  BZF d   1      -0.732   1.685  -0.455  0.00  0.00     0.174 A 
ATOM      3  C3  BZF d   1       0.503   2.105  -0.798  0.00  0.00    -0.012 A 
ATOM      4  C3A BZF d   1       1.321   0.931  -0.770  0.00  0.00    -0.107 A 
ATOM      5  C4  BZF d   1       2.641   0.700  -1.032  0.00  0.00     0.055 A 
ATOM      6  C5  BZF d   1       3.145  -0.547  -0.839  0.00  0.00    -0.016 A 
ATOM      7  C6  BZF d   1       2.359  -1.584  -0.381  0.00  0.00     0.022 A 
ATOM      8  C7  BZF d   1       1.043  -1.405  -0.112  0.00  0.00     0.029 A 
ATOM      9  C7A BZF d   1       0.524  -0.154  -0.337  0.00  0.00     0.058 A 
ENDROOT
TORSDOF 0
ENDMDL
