MODEL 1
REMARK minimizedAffinity -2.64419317
REMARK minimizedRMSD -1
REMARK  0 active torsions:
REMARK  status: ('A' for Active; 'I' for Inactive)
ROOT
ATOM      1  O1  BZF d   1      -1.067   0.746  -0.509  0.00  0.00    -0.204 OA
ATOM      2  C2  BZF d   1      -1.361  -0.410   0.189  0.00  0.00     0.174 A 
ATOM      3  C3  BZF d   1      -0.452  -1.371  -0.074  0.00  0.00    -0.012 A 
ATOM      4  C3A BZF d   1       0.519  -0.749  -0.922  0.00  0.00    -0.107 A 
ATOM      5  C4  BZF d   1       1.673  -1.187  -1.506  0.00  0.00     0.055 A 
ATOM      6  C5  BZF d   1       2.351  -0.352  -2.336  0.00  0.00    -0.016 A 
ATOM      7  C6  BZF d   1       1.902   0.924  -2.607  0.00  0.00     0.022 A 
ATOM      8  C7  BZF d   1       0.766   1.405  -2.047  0.00  0.00     0.029 A 
ATOM      9  C7A BZF d   1       0.096   0.574  -1.182  0.00  0.00     0.058 A 
ENDROOT
TORSDOF 0
ENDMDL
