MODEL 1
REMARK minimizedAffinity -5.17066765
REMARK minimizedRMSD -1
REMARK  0 active torsions:
REMARK  status: ('A' for Active; 'I' for Inactive)
ROOT
ATOM      1  O1  BZF d   1      -0.849   0.494  -0.255  0.00  0.00    -0.204 OA
ATOM      2  C2  BZF d   1      -0.946  -0.693   0.445  0.00  0.00     0.174 A 
ATOM      3  C3  BZF d   1       0.163  -1.441   0.274  0.00  0.00    -0.012 A 
ATOM      4  C3A BZF d   1       1.045  -0.632  -0.512  0.00  0.00    -0.107 A 
ATOM      5  C4  BZF d   1       2.308  -0.819  -0.997  0.00  0.00     0.055 A 
ATOM      6  C5  BZF d   1       2.858   0.136  -1.792  0.00  0.00    -0.016 A 
ATOM      7  C6  BZF d   1       2.172   1.286  -2.125  0.00  0.00     0.022 A 
ATOM      8  C7  BZF d   1       0.919   1.518  -1.664  0.00  0.00     0.029 A 
ATOM      9  C7A BZF d   1       0.373   0.570  -0.834  0.00  0.00     0.058 A 
ENDROOT
TORSDOF 0
ENDMDL
