MODEL 1
REMARK minimizedAffinity -4.43804312
REMARK minimizedRMSD -1
REMARK  0 active torsions:
REMARK  status: ('A' for Active; 'I' for Inactive)
ROOT
ATOM      1  O1  BZF d   1       1.867   1.517  -1.478  0.00  0.00    -0.204 OA
ATOM      2  C2  BZF d   1       2.765   0.468  -1.423  0.00  0.00     0.174 A 
ATOM      3  C3  BZF d   1       2.181  -0.636  -0.914  0.00  0.00    -0.012 A 
ATOM      4  C3A BZF d   1       0.809  -0.279  -0.718  0.00  0.00    -0.107 A 
ATOM      5  C4  BZF d   1      -0.280  -0.959  -0.253  0.00  0.00     0.055 A 
ATOM      6  C5  BZF d   1      -1.461  -0.300  -0.118  0.00  0.00    -0.016 A 
ATOM      7  C6  BZF d   1      -1.587   1.037  -0.434  0.00  0.00     0.022 A 
ATOM      8  C7  BZF d   1      -0.536   1.751  -0.904  0.00  0.00     0.029 A 
ATOM      9  C7A BZF d   1       0.650   1.080  -1.073  0.00  0.00     0.058 A 
ENDROOT
TORSDOF 0
ENDMDL
