MODEL 1
REMARK minimizedAffinity -4.20776987
REMARK minimizedRMSD -1
REMARK  0 active torsions:
REMARK  status: ('A' for Active; 'I' for Inactive)
ROOT
ATOM      1  O1  BZF d   1       2.133   1.351  -0.750  0.00  0.00    -0.204 OA
ATOM      2  C2  BZF d   1       3.191   0.475  -0.900  0.00  0.00     0.174 A 
ATOM      3  C3  BZF d   1       2.808  -0.789  -0.628  0.00  0.00    -0.012 A 
ATOM      4  C3A BZF d   1       1.401  -0.710  -0.377  0.00  0.00    -0.107 A 
ATOM      5  C4  BZF d   1       0.449  -1.639  -0.067  0.00  0.00     0.055 A 
ATOM      6  C5  BZF d   1      -0.820  -1.225   0.187  0.00  0.00    -0.016 A 
ATOM      7  C6  BZF d   1      -1.170   0.109   0.146  0.00  0.00     0.022 A 
ATOM      8  C7  BZF d   1      -0.262   1.066  -0.162  0.00  0.00     0.029 A 
ATOM      9  C7A BZF d   1       1.014   0.647  -0.452  0.00  0.00     0.058 A 
ENDROOT
TORSDOF 0
ENDMDL
