MODEL 1
REMARK minimizedAffinity -5.95331192
REMARK minimizedRMSD -1
REMARK  0 active torsions:
REMARK  status: ('A' for Active; 'I' for Inactive)
ROOT
ATOM      1  O1  BZF d   1      -0.681   0.723  -0.720  0.00  0.00    -0.204 OA
ATOM      2  C2  BZF d   1      -0.860  -0.351   0.131  0.00  0.00     0.174 A 
ATOM      3  C3  BZF d   1       0.207  -1.175   0.092  0.00  0.00    -0.012 A 
ATOM      4  C3A BZF d   1       1.148  -0.531  -0.772  0.00  0.00    -0.107 A 
ATOM      5  C4  BZF d   1       2.407  -0.852  -1.194  0.00  0.00     0.055 A 
ATOM      6  C5  BZF d   1       3.026  -0.045  -2.096  0.00  0.00    -0.016 A 
ATOM      7  C6  BZF d   1       2.416   1.085  -2.599  0.00  0.00     0.022 A 
ATOM      8  C7  BZF d   1       1.170   1.446  -2.207  0.00  0.00     0.029 A 
ATOM      9  C7A BZF d   1       0.554   0.651  -1.271  0.00  0.00     0.058 A 
ENDROOT
TORSDOF 0
ENDMDL
