MODEL 1
REMARK minimizedAffinity -4.43728781
REMARK minimizedRMSD -1
REMARK  0 active torsions:
REMARK  status: ('A' for Active; 'I' for Inactive)
ROOT
ATOM      1  O1  BZF d   1      -0.327   1.032   0.182  0.00  0.00    -0.204 OA
ATOM      2  C2  BZF d   1      -0.785  -0.135   0.763  0.00  0.00     0.174 A 
ATOM      3  C3  BZF d   1      -0.084  -1.198   0.317  0.00  0.00    -0.012 A 
ATOM      4  C3A BZF d   1       0.931  -0.651  -0.530  0.00  0.00    -0.107 A 
ATOM      5  C4  BZF d   1       1.948  -1.204  -1.254  0.00  0.00     0.055 A 
ATOM      6  C5  BZF d   1       2.717  -0.400  -2.034  0.00  0.00    -0.016 A 
ATOM      7  C6  BZF d   1       2.494   0.959  -2.118  0.00  0.00     0.022 A 
ATOM      8  C7  BZF d   1       1.500   1.554  -1.414  0.00  0.00     0.029 A 
ATOM      9  C7A BZF d   1       0.742   0.749  -0.600  0.00  0.00     0.058 A 
ENDROOT
TORSDOF 0
ENDMDL
