MODEL 1
REMARK minimizedAffinity -3.01538301
REMARK minimizedRMSD -1
REMARK  0 active torsions:
REMARK  status: ('A' for Active; 'I' for Inactive)
ROOT
ATOM      1  O1  BZF d   1      -0.820   0.711  -1.046  0.00  0.00    -0.204 OA
ATOM      2  C2  BZF d   1      -0.378   1.936  -1.507  0.00  0.00     0.174 A 
ATOM      3  C3  BZF d   1       0.969   1.975  -1.548  0.00  0.00    -0.012 A 
ATOM      4  C3A BZF d   1       1.395   0.662  -1.170  0.00  0.00    -0.107 A 
ATOM      5  C4  BZF d   1       2.620   0.074  -1.039  0.00  0.00     0.055 A 
ATOM      6  C5  BZF d   1       2.693  -1.204  -0.581  0.00  0.00    -0.016 A 
ATOM      7  C6  BZF d   1       1.564  -1.919  -0.241  0.00  0.00     0.022 A 
ATOM      8  C7  BZF d   1       0.326  -1.380  -0.359  0.00  0.00     0.029 A 
ATOM      9  C7A BZF d   1       0.247  -0.101  -0.853  0.00  0.00     0.058 A 
ENDROOT
TORSDOF 0
ENDMDL
