MODEL 1
REMARK minimizedAffinity -6.32476759
REMARK minimizedRMSD -1
REMARK  0 active torsions:
REMARK  status: ('A' for Active; 'I' for Inactive)
ROOT
ATOM      1  O1  BZF d   1      -0.918   0.857  -0.323  0.00  0.00    -0.204 OA
ATOM      2  C2  BZF d   1      -1.163  -0.301   0.390  0.00  0.00     0.174 A 
ATOM      3  C3  BZF d   1      -0.159  -1.187   0.224  0.00  0.00    -0.012 A 
ATOM      4  C3A BZF d   1       0.815  -0.506  -0.573  0.00  0.00    -0.107 A 
ATOM      5  C4  BZF d   1       2.042  -0.858  -1.059  0.00  0.00     0.055 A 
ATOM      6  C5  BZF d   1       2.706   0.010  -1.866  0.00  0.00    -0.016 A 
ATOM      7  C6  BZF d   1       2.173   1.235  -2.210  0.00  0.00     0.022 A 
ATOM      8  C7  BZF d   1       0.962   1.630  -1.748  0.00  0.00     0.029 A 
ATOM      9  C7A BZF d   1       0.302   0.769  -0.906  0.00  0.00     0.058 A 
ENDROOT
TORSDOF 0
ENDMDL
