MODEL 1
REMARK minimizedAffinity -4.08119917
REMARK minimizedRMSD -1
REMARK  0 active torsions:
REMARK  status: ('A' for Active; 'I' for Inactive)
ROOT
ATOM      1  O1  BZF d   1       2.477  -1.438  -0.882  0.00  0.00    -0.204 OA
ATOM      2  C2  BZF d   1       3.246  -0.291  -0.925  0.00  0.00     0.174 A 
ATOM      3  C3  BZF d   1       2.487   0.802  -0.702  0.00  0.00    -0.012 A 
ATOM      4  C3A BZF d   1       1.178   0.300  -0.417  0.00  0.00    -0.107 A 
ATOM      5  C4  BZF d   1      -0.008   0.898  -0.100  0.00  0.00     0.055 A 
ATOM      6  C5  BZF d   1      -1.118   0.127   0.046  0.00  0.00    -0.016 A 
ATOM      7  C6  BZF d   1      -1.079  -1.242  -0.123  0.00  0.00     0.022 A 
ATOM      8  C7  BZF d   1       0.076  -1.880  -0.433  0.00  0.00     0.029 A 
ATOM      9  C7A BZF d   1       1.206  -1.108  -0.549  0.00  0.00     0.058 A 
ENDROOT
TORSDOF 0
ENDMDL
