MODEL 1
REMARK minimizedAffinity 3.85284233
REMARK minimizedRMSD -1
REMARK  0 active torsions:
REMARK  status: ('A' for Active; 'I' for Inactive)
ROOT
ATOM      1  C   UNL d   1      -1.434  -1.556   2.602  0.00  0.00     0.077 C 
ATOM      2  C1  UNL d   1      -1.360  -0.098   2.259  0.00  0.00    -0.074 A 
ATOM      3  C2  UNL d   1      -2.428   0.761   2.539  0.00  0.00    -0.005 A 
ATOM      4  C3  UNL d   1      -2.342   2.116   2.222  0.00  0.00     0.006 A 
ATOM      5  C4  UNL d   1      -1.189   2.626   1.624  0.00  0.00    -0.005 A 
ATOM      6  C5  UNL d   1      -0.111   1.783   1.337  0.00  0.00    -0.074 A 
ATOM      7  C6  UNL d   1       1.139   2.317   0.704  0.00  0.00     0.077 C 
ATOM      8  C7  UNL d   1      -0.203   0.423   1.665  0.00  0.00    -0.001 A 
ENDROOT
TORSDOF 0
ENDMDL
