MODEL 1
REMARK minimizedAffinity -4.76552868
REMARK minimizedRMSD -1
REMARK  0 active torsions:
REMARK  status: ('A' for Active; 'I' for Inactive)
ROOT
ATOM      1  C   UNL d   1       1.062   1.629   0.515  0.00  0.00     0.077 C 
ATOM      2  C1  UNL d   1      -0.193   1.045   1.094  0.00  0.00    -0.074 A 
ATOM      3  C2  UNL d   1      -0.375  -0.339   1.166  0.00  0.00    -0.005 A 
ATOM      4  C3  UNL d   1      -1.543  -0.868   1.716  0.00  0.00     0.006 A 
ATOM      5  C4  UNL d   1      -2.539  -0.018   2.198  0.00  0.00    -0.005 A 
ATOM      6  C5  UNL d   1      -2.374   1.370   2.136  0.00  0.00    -0.074 A 
ATOM      7  C6  UNL d   1      -3.430   2.297   2.659  0.00  0.00     0.077 C 
ATOM      8  C7  UNL d   1      -1.195   1.892   1.589  0.00  0.00    -0.001 A 
ENDROOT
TORSDOF 0
ENDMDL
