MODEL 1
REMARK minimizedAffinity 0.680646718
REMARK minimizedRMSD -1
REMARK  0 active torsions:
REMARK  status: ('A' for Active; 'I' for Inactive)
ROOT
ATOM      1  C   UNL d   1      -1.412   3.354   1.426  0.00  0.00     0.077 C 
ATOM      2  C1  UNL d   1      -0.751   2.017   1.590  0.00  0.00    -0.074 A 
ATOM      3  C2  UNL d   1       0.630   1.873   1.426  0.00  0.00    -0.005 A 
ATOM      4  C3  UNL d   1       1.231   0.625   1.592  0.00  0.00     0.006 A 
ATOM      5  C4  UNL d   1       0.459  -0.489   1.923  0.00  0.00    -0.005 A 
ATOM      6  C5  UNL d   1      -0.924  -0.363   2.092  0.00  0.00    -0.074 A 
ATOM      7  C6  UNL d   1      -1.767  -1.548   2.457  0.00  0.00     0.077 C 
ATOM      8  C7  UNL d   1      -1.520   0.895   1.930  0.00  0.00    -0.001 A 
ENDROOT
TORSDOF 0
ENDMDL
