MODEL 1
REMARK minimizedAffinity 0.64283371
REMARK minimizedRMSD -1
REMARK  0 active torsions:
REMARK  status: ('A' for Active; 'I' for Inactive)
ROOT
ATOM      1  C   UNL d   1      -3.402   1.590   3.208  0.00  0.00     0.077 C 
ATOM      2  C1  UNL d   1      -4.306   2.436   4.055  0.00  0.00    -0.074 A 
ATOM      3  C2  UNL d   1      -4.893   1.921   5.215  0.00  0.00    -0.005 A 
ATOM      4  C3  UNL d   1      -5.725   2.722   5.997  0.00  0.00     0.006 A 
ATOM      5  C4  UNL d   1      -5.977   4.044   5.628  0.00  0.00    -0.005 A 
ATOM      6  C5  UNL d   1      -5.397   4.577   4.472  0.00  0.00    -0.074 A 
ATOM      7  C6  UNL d   1      -5.650   5.998   4.066  0.00  0.00     0.077 C 
ATOM      8  C7  UNL d   1      -4.558   3.767   3.695  0.00  0.00    -0.001 A 
ENDROOT
TORSDOF 0
ENDMDL
