MODEL 1
REMARK minimizedAffinity -4.42253542
REMARK minimizedRMSD -1
REMARK  0 active torsions:
REMARK  status: ('A' for Active; 'I' for Inactive)
ROOT
ATOM      1  C   UNL d   1      -3.774   1.670   3.263  0.00  0.00     0.077 C 
ATOM      2  C1  UNL d   1      -2.471   1.173   2.712  0.00  0.00    -0.074 A 
ATOM      3  C2  UNL d   1      -2.092  -0.166   2.858  0.00  0.00    -0.005 A 
ATOM      4  C3  UNL d   1      -0.881  -0.616   2.331  0.00  0.00     0.006 A 
ATOM      5  C4  UNL d   1      -0.038   0.267   1.655  0.00  0.00    -0.005 A 
ATOM      6  C5  UNL d   1      -0.401   1.609   1.498  0.00  0.00    -0.074 A 
ATOM      7  C6  UNL d   1       0.489   2.568   0.765  0.00  0.00     0.077 C 
ATOM      8  C7  UNL d   1      -1.622   2.051   2.024  0.00  0.00    -0.001 A 
ENDROOT
TORSDOF 0
ENDMDL
