MODEL 1
REMARK minimizedAffinity 6.99665213
REMARK minimizedRMSD -1
REMARK  0 active torsions:
REMARK  status: ('A' for Active; 'I' for Inactive)
ROOT
ATOM      1  C   UNL d   1      -2.029   2.223   2.940  0.00  0.00     0.077 C 
ATOM      2  C1  UNL d   1      -0.802   1.661   2.286  0.00  0.00    -0.074 A 
ATOM      3  C2  UNL d   1      -0.475   1.990   0.967  0.00  0.00    -0.005 A 
ATOM      4  C3  UNL d   1       0.675   1.468   0.375  0.00  0.00     0.006 A 
ATOM      5  C4  UNL d   1       1.509   0.612   1.096  0.00  0.00    -0.005 A 
ATOM      6  C5  UNL d   1       1.199   0.272   2.417  0.00  0.00    -0.074 A 
ATOM      7  C6  UNL d   1       2.089  -0.639   3.209  0.00  0.00     0.077 C 
ATOM      8  C7  UNL d   1       0.045   0.807   3.006  0.00  0.00    -0.001 A 
ENDROOT
TORSDOF 0
ENDMDL
