MODEL 1
REMARK minimizedAffinity -0.589719057
REMARK minimizedRMSD -1
REMARK  0 active torsions:
REMARK  status: ('A' for Active; 'I' for Inactive)
ROOT
ATOM      1  C   UNL d   1      -3.279   0.669   2.653  0.00  0.00     0.077 C 
ATOM      2  C1  UNL d   1      -2.045   1.308   2.088  0.00  0.00    -0.074 A 
ATOM      3  C2  UNL d   1      -2.133   2.415   1.237  0.00  0.00    -0.005 A 
ATOM      4  C3  UNL d   1      -0.976   3.004   0.728  0.00  0.00     0.006 A 
ATOM      5  C4  UNL d   1       0.278   2.493   1.063  0.00  0.00    -0.005 A 
ATOM      6  C5  UNL d   1       0.386   1.388   1.913  0.00  0.00    -0.074 A 
ATOM      7  C6  UNL d   1       1.727   0.833   2.292  0.00  0.00     0.077 C 
ATOM      8  C7  UNL d   1      -0.781   0.806   2.427  0.00  0.00    -0.001 A 
ENDROOT
TORSDOF 0
ENDMDL
