MODEL 1
REMARK minimizedAffinity -0.727625668
REMARK minimizedRMSD -1
REMARK  0 active torsions:
REMARK  status: ('A' for Active; 'I' for Inactive)
ROOT
ATOM      1  C   UNL d   1       1.994   2.530   0.394  0.00  0.00     0.077 C 
ATOM      2  C1  UNL d   1       0.845   1.620   0.708  0.00  0.00    -0.074 A 
ATOM      3  C2  UNL d   1      -0.474   2.013   0.455  0.00  0.00    -0.005 A 
ATOM      4  C3  UNL d   1      -1.532   1.152   0.744  0.00  0.00     0.006 A 
ATOM      5  C4  UNL d   1      -1.284  -0.109   1.288  0.00  0.00    -0.005 A 
ATOM      6  C5  UNL d   1       0.028  -0.520   1.547  0.00  0.00    -0.074 A 
ATOM      7  C6  UNL d   1       0.313  -1.876   2.122  0.00  0.00     0.077 C 
ATOM      8  C7  UNL d   1       1.086   0.348   1.247  0.00  0.00    -0.001 A 
ENDROOT
TORSDOF 0
ENDMDL
