MODEL 1
REMARK minimizedAffinity 5.03800583
REMARK minimizedRMSD -1
REMARK  0 active torsions:
REMARK  status: ('A' for Active; 'I' for Inactive)
ROOT
ATOM      1  C   UNL d   1      -3.397   1.527   2.865  0.00  0.00     0.077 C 
ATOM      2  C1  UNL d   1      -4.302   2.011   3.959  0.00  0.00    -0.074 A 
ATOM      3  C2  UNL d   1      -4.726   1.149   4.975  0.00  0.00    -0.005 A 
ATOM      4  C3  UNL d   1      -5.560   1.617   5.991  0.00  0.00     0.006 A 
ATOM      5  C4  UNL d   1      -5.979   2.948   6.000  0.00  0.00    -0.005 A 
ATOM      6  C5  UNL d   1      -5.565   3.824   4.992  0.00  0.00    -0.074 A 
ATOM      7  C6  UNL d   1      -5.997   5.260   4.992  0.00  0.00     0.077 C 
ATOM      8  C7  UNL d   1      -4.721   3.349   3.979  0.00  0.00    -0.001 A 
ENDROOT
TORSDOF 0
ENDMDL
