MODEL 1
REMARK minimizedAffinity 4.04589891
REMARK minimizedRMSD -1
REMARK  0 active torsions:
REMARK  status: ('A' for Active; 'I' for Inactive)
ROOT
ATOM      1  C   UNL d   1       0.317  -4.492  -0.489  0.00  0.00     0.077 C 
ATOM      2  C1  UNL d   1      -0.874  -3.627  -0.197  0.00  0.00    -0.074 A 
ATOM      3  C2  UNL d   1      -2.046  -3.740  -0.951  0.00  0.00    -0.005 A 
ATOM      4  C3  UNL d   1      -3.148  -2.935  -0.661  0.00  0.00     0.006 A 
ATOM      5  C4  UNL d   1      -3.089  -2.011   0.383  0.00  0.00    -0.005 A 
ATOM      6  C5  UNL d   1      -1.925  -1.885   1.148  0.00  0.00    -0.074 A 
ATOM      7  C6  UNL d   1      -1.849  -0.904   2.280  0.00  0.00     0.077 C 
ATOM      8  C7  UNL d   1      -0.825  -2.702   0.856  0.00  0.00    -0.001 A 
ENDROOT
TORSDOF 0
ENDMDL
