MODEL 1
REMARK minimizedAffinity 4.32447243
REMARK minimizedRMSD -1
REMARK  0 active torsions:
REMARK  status: ('A' for Active; 'I' for Inactive)
ROOT
ATOM      1  C   UNL d   1      -0.745  -4.835   0.008  0.00  0.00     0.077 C 
ATOM      2  C1  UNL d   1      -1.920  -4.078  -0.535  0.00  0.00    -0.074 A 
ATOM      3  C2  UNL d   1      -3.162  -4.122   0.107  0.00  0.00    -0.005 A 
ATOM      4  C3  UNL d   1      -4.244  -3.405  -0.405  0.00  0.00     0.006 A 
ATOM      5  C4  UNL d   1      -4.095  -2.639  -1.562  0.00  0.00    -0.005 A 
ATOM      6  C5  UNL d   1      -2.860  -2.582  -2.216  0.00  0.00    -0.074 A 
ATOM      7  C6  UNL d   1      -2.680  -1.756  -3.455  0.00  0.00     0.077 C 
ATOM      8  C7  UNL d   1      -1.776  -3.300  -1.692  0.00  0.00    -0.001 A 
ENDROOT
TORSDOF 0
ENDMDL
