MODEL 1
REMARK minimizedAffinity 6.11891794
REMARK minimizedRMSD -1
REMARK  0 active torsions:
REMARK  status: ('A' for Active; 'I' for Inactive)
ROOT
ATOM      1  C   UNL d   1      -2.363   2.586   2.303  0.00  0.00     0.077 C 
ATOM      2  C1  UNL d   1      -0.996   2.132   1.882  0.00  0.00    -0.074 A 
ATOM      3  C2  UNL d   1      -0.188   2.940   1.075  0.00  0.00    -0.005 A 
ATOM      4  C3  UNL d   1       1.084   2.509   0.699  0.00  0.00     0.006 A 
ATOM      5  C4  UNL d   1       1.560   1.268   1.125  0.00  0.00    -0.005 A 
ATOM      6  C5  UNL d   1       0.766   0.448   1.933  0.00  0.00    -0.074 A 
ATOM      7  C6  UNL d   1       1.267  -0.884   2.408  0.00  0.00     0.077 C 
ATOM      8  C7  UNL d   1      -0.508   0.891   2.312  0.00  0.00    -0.001 A 
ENDROOT
TORSDOF 0
ENDMDL
