MODEL 1
REMARK minimizedAffinity 3.05114055
REMARK minimizedRMSD -1
REMARK  0 active torsions:
REMARK  status: ('A' for Active; 'I' for Inactive)
ROOT
ATOM      1  C   UNL d   1      -3.589   1.663   3.146  0.00  0.00     0.077 C 
ATOM      2  C1  UNL d   1      -2.263   1.792   2.457  0.00  0.00    -0.074 A 
ATOM      3  C2  UNL d   1      -2.007   2.854   1.584  0.00  0.00    -0.005 A 
ATOM      4  C3  UNL d   1      -0.765   2.966   0.958  0.00  0.00     0.006 A 
ATOM      5  C4  UNL d   1       0.231   2.020   1.199  0.00  0.00    -0.005 A 
ATOM      6  C5  UNL d   1      -0.006   0.951   2.070  0.00  0.00    -0.074 A 
ATOM      7  C6  UNL d   1       1.057  -0.069   2.348  0.00  0.00     0.077 C 
ATOM      8  C7  UNL d   1      -1.254   0.849   2.700  0.00  0.00    -0.001 A 
ENDROOT
TORSDOF 0
ENDMDL
