MODEL 1
REMARK minimizedAffinity 4.44418716
REMARK minimizedRMSD -1
REMARK  0 active torsions:
REMARK  status: ('A' for Active; 'I' for Inactive)
ROOT
ATOM      1  C   UNL d   1      -2.599  -1.099   2.586  0.00  0.00     0.077 C 
ATOM      2  C1  UNL d   1      -2.032   0.246   2.241  0.00  0.00    -0.074 A 
ATOM      3  C2  UNL d   1      -2.800   1.406   2.374  0.00  0.00    -0.005 A 
ATOM      4  C3  UNL d   1      -2.256   2.651   2.058  0.00  0.00     0.006 A 
ATOM      5  C4  UNL d   1      -0.940   2.747   1.605  0.00  0.00    -0.005 A 
ATOM      6  C5  UNL d   1      -0.155   1.598   1.466  0.00  0.00    -0.074 A 
ATOM      7  C6  UNL d   1       1.264   1.685   0.991  0.00  0.00     0.077 C 
ATOM      8  C7  UNL d   1      -0.707   0.351   1.793  0.00  0.00    -0.001 A 
ENDROOT
TORSDOF 0
ENDMDL
