MODEL 1
REMARK minimizedAffinity 2.65308785
REMARK minimizedRMSD -1
REMARK  0 active torsions:
REMARK  status: ('A' for Active; 'I' for Inactive)
ROOT
ATOM      1  C   UNL d   1      -2.928  -2.156  -4.147  0.00  0.00     0.077 C 
ATOM      2  C1  UNL d   1      -3.095  -2.527  -2.704  0.00  0.00    -0.074 A 
ATOM      3  C2  UNL d   1      -3.583  -1.601  -1.776  0.00  0.00    -0.005 A 
ATOM      4  C3  UNL d   1      -3.743  -1.963  -0.439  0.00  0.00     0.006 A 
ATOM      5  C4  UNL d   1      -3.416  -3.252  -0.016  0.00  0.00    -0.005 A 
ATOM      6  C5  UNL d   1      -2.927  -4.192  -0.929  0.00  0.00    -0.074 A 
ATOM      7  C6  UNL d   1      -2.581  -5.585  -0.494  0.00  0.00     0.077 C 
ATOM      8  C7  UNL d   1      -2.777  -3.823  -2.273  0.00  0.00    -0.001 A 
ENDROOT
TORSDOF 0
ENDMDL
