MODEL 1
REMARK minimizedAffinity 11.6714907
REMARK minimizedRMSD -1
REMARK  0 active torsions:
REMARK  status: ('A' for Active; 'I' for Inactive)
ROOT
ATOM      1  C   UNL d   1       3.482   5.957  -1.654  0.00  0.00     0.077 C 
ATOM      2  C1  UNL d   1       3.535   5.640  -3.119  0.00  0.00    -0.074 A 
ATOM      3  C2  UNL d   1       2.444   5.055  -3.768  0.00  0.00    -0.005 A 
ATOM      4  C3  UNL d   1       2.505   4.774  -5.133  0.00  0.00     0.006 A 
ATOM      5  C4  UNL d   1       3.656   5.075  -5.861  0.00  0.00    -0.005 A 
ATOM      6  C5  UNL d   1       4.758   5.661  -5.229  0.00  0.00    -0.074 A 
ATOM      7  C6  UNL d   1       5.999   6.000  -6.000  0.00  0.00     0.077 C 
ATOM      8  C7  UNL d   1       4.686   5.946  -3.859  0.00  0.00    -0.001 A 
ENDROOT
TORSDOF 0
ENDMDL
