MODEL 1
REMARK minimizedAffinity 1.14125514
REMARK minimizedRMSD -1
REMARK  0 active torsions:
REMARK  status: ('A' for Active; 'I' for Inactive)
ROOT
ATOM      1  C   UNL d   1      -0.860   3.306  -3.551  0.00  0.00     0.023 A 
ATOM      2  C1  UNL d   1      -0.576   2.578  -4.706  0.00  0.00     0.003 A 
ATOM      3  C2  UNL d   1      -1.465   1.597  -5.152  0.00  0.00     0.048 A 
ATOM      4  C3  UNL d   1      -2.637   1.350  -4.438  0.00  0.00     0.023 A 
ATOM      5  C4  UNL d   1      -2.926   2.077  -3.281  0.00  0.00     0.048 A 
ATOM      6  C5  UNL d   1      -2.034   3.055  -2.839  0.00  0.00     0.003 A 
ATOM      7  I   UNL d   1      -3.961  -0.108  -5.099  0.00  0.00    -0.146 I 
ENDROOT
TORSDOF 0
ENDMDL
