MODEL 1
REMARK minimizedAffinity 3.3804574
REMARK minimizedRMSD -1
REMARK  0 active torsions:
REMARK  status: ('A' for Active; 'I' for Inactive)
ROOT
ATOM      1  C   UNL d   1       0.806  -3.512   2.335  0.00  0.00     0.023 A 
ATOM      2  C1  UNL d   1       1.349  -2.833   1.244  0.00  0.00     0.003 A 
ATOM      3  C2  UNL d   1       0.811  -1.608   0.844  0.00  0.00     0.048 A 
ATOM      4  C3  UNL d   1      -0.269  -1.067   1.540  0.00  0.00     0.023 A 
ATOM      5  C4  UNL d   1      -0.815  -1.741   2.633  0.00  0.00     0.048 A 
ATOM      6  C5  UNL d   1      -0.275  -2.966   3.029  0.00  0.00     0.003 A 
ATOM      7  I   UNL d   1      -1.071   0.757   0.947  0.00  0.00    -0.146 I 
ENDROOT
TORSDOF 0
ENDMDL
