MODEL 1
REMARK minimizedAffinity -2.02950287
REMARK minimizedRMSD -1
REMARK  0 active torsions:
REMARK  status: ('A' for Active; 'I' for Inactive)
ROOT
ATOM      1  C   UNL d   1      -1.419  -0.512   2.222  0.00  0.00     0.023 A 
ATOM      2  C1  UNL d   1      -1.236  -1.528   3.161  0.00  0.00     0.003 A 
ATOM      3  C2  UNL d   1      -0.218  -2.468   2.984  0.00  0.00     0.048 A 
ATOM      4  C3  UNL d   1       0.613  -2.386   1.868  0.00  0.00     0.023 A 
ATOM      5  C4  UNL d   1       0.434  -1.371   0.926  0.00  0.00     0.048 A 
ATOM      6  C5  UNL d   1      -0.586  -0.434   1.106  0.00  0.00     0.003 A 
ATOM      7  I   UNL d   1       2.128  -3.784   1.603  0.00  0.00    -0.146 I 
ENDROOT
TORSDOF 0
ENDMDL
