MODEL 1
REMARK minimizedAffinity 0.97540307
REMARK minimizedRMSD -1
REMARK  0 active torsions:
REMARK  status: ('A' for Active; 'I' for Inactive)
ROOT
ATOM      1  C   UNL d   1       2.987   2.284  -3.268  0.00  0.00     0.023 A 
ATOM      2  C1  UNL d   1       3.403   0.998  -2.921  0.00  0.00     0.003 A 
ATOM      3  C2  UNL d   1       2.567   0.172  -2.167  0.00  0.00     0.048 A 
ATOM      4  C3  UNL d   1       1.315   0.637  -1.765  0.00  0.00     0.023 A 
ATOM      5  C4  UNL d   1       0.894   1.922  -2.111  0.00  0.00     0.048 A 
ATOM      6  C5  UNL d   1       1.734   2.745  -2.863  0.00  0.00     0.003 A 
ATOM      7  I   UNL d   1       0.068  -0.591  -0.644  0.00  0.00    -0.146 I 
ENDROOT
TORSDOF 0
ENDMDL
