MODEL 1
REMARK minimizedAffinity -2.84306312
REMARK minimizedRMSD -1
REMARK  0 active torsions:
REMARK  status: ('A' for Active; 'I' for Inactive)
ROOT
ATOM      1  C   UNL d   1      -1.538  -0.280   1.564  0.00  0.00     0.023 A 
ATOM      2  C1  UNL d   1      -1.125  -0.822   2.781  0.00  0.00     0.003 A 
ATOM      3  C2  UNL d   1      -0.128  -1.800   2.808  0.00  0.00     0.048 A 
ATOM      4  C3  UNL d   1       0.453  -2.229   1.615  0.00  0.00     0.023 A 
ATOM      5  C4  UNL d   1       0.043  -1.689   0.395  0.00  0.00     0.048 A 
ATOM      6  C5  UNL d   1      -0.954  -0.712   0.373  0.00  0.00     0.003 A 
ATOM      7  I   UNL d   1       1.937  -3.684   1.654  0.00  0.00    -0.146 I 
ENDROOT
TORSDOF 0
ENDMDL
