MODEL 1
REMARK minimizedAffinity -1.91280067
REMARK minimizedRMSD -1
REMARK  0 active torsions:
REMARK  status: ('A' for Active; 'I' for Inactive)
ROOT
ATOM      1  C   UNL d   1      -1.216  -0.759   2.069  0.00  0.00     0.023 A 
ATOM      2  C1  UNL d   1      -0.508  -0.960   0.884  0.00  0.00     0.003 A 
ATOM      3  C2  UNL d   1       0.376  -2.035   0.771  0.00  0.00     0.048 A 
ATOM      4  C3  UNL d   1       0.547  -2.906   1.847  0.00  0.00     0.023 A 
ATOM      5  C4  UNL d   1      -0.160  -2.709   3.034  0.00  0.00     0.048 A 
ATOM      6  C5  UNL d   1      -1.043  -1.633   3.143  0.00  0.00     0.003 A 
ATOM      7  I   UNL d   1       1.863  -4.506   1.682  0.00  0.00    -0.146 I 
ENDROOT
TORSDOF 0
ENDMDL
