MODEL 1
REMARK minimizedAffinity 2.45584536
REMARK minimizedRMSD -1
REMARK  0 active torsions:
REMARK  status: ('A' for Active; 'I' for Inactive)
ROOT
ATOM      1  C   UNL d   1      -0.263  -0.481   0.751  0.00  0.00     0.023 A 
ATOM      2  C1  UNL d   1      -1.114  -0.384  -0.350  0.00  0.00     0.003 A 
ATOM      3  C2  UNL d   1      -2.498  -0.423  -0.169  0.00  0.00     0.048 A 
ATOM      4  C3  UNL d   1      -3.024  -0.558   1.116  0.00  0.00     0.023 A 
ATOM      5  C4  UNL d   1      -2.176  -0.654   2.220  0.00  0.00     0.048 A 
ATOM      6  C5  UNL d   1      -0.793  -0.615   2.034  0.00  0.00     0.003 A 
ATOM      7  I   UNL d   1      -5.084  -0.616   1.388  0.00  0.00    -0.146 I 
ENDROOT
TORSDOF 0
ENDMDL
