MODEL 1
REMARK minimizedAffinity 5.93083
REMARK minimizedRMSD -1
REMARK  0 active torsions:
REMARK  status: ('A' for Active; 'I' for Inactive)
ROOT
ATOM      1  C4' PXY d   1      -3.101   1.202  -0.314  0.00  0.00     0.077 C 
ATOM      2  C1' PXY d   1       1.067  -1.107   2.958  0.00  0.00     0.077 C 
ATOM      3  C1  PXY d   1      -0.025  -0.491   2.107  0.00  0.00    -0.082 A 
ATOM      4  C2  PXY d   1      -0.896  -1.274   1.492  0.00  0.00     0.003 A 
ATOM      5  C3  PXY d   1      -1.870  -0.735   0.692  0.00  0.00     0.003 A 
ATOM      6  C4  PXY d   1      -1.988   0.623   0.563  0.00  0.00    -0.082 A 
ATOM      7  C5  PXY d   1      -1.109   1.430   1.196  0.00  0.00     0.003 A 
ATOM      8  C6  PXY d   1      -0.102   0.861   1.970  0.00  0.00     0.003 A 
ENDROOT
TORSDOF 0
ENDMDL
