MODEL 1
REMARK minimizedAffinity -3.4464345
REMARK minimizedRMSD -1
REMARK  0 active torsions:
REMARK  status: ('A' for Active; 'I' for Inactive)
ROOT
ATOM      1  C4' PXY d   1       1.524  -2.233   5.166  0.00  0.00     0.077 C 
ATOM      2  C1' PXY d   1      -1.791   0.270   1.147  0.00  0.00     0.077 C 
ATOM      3  C1  PXY d   1      -0.932  -0.389   2.208  0.00  0.00    -0.082 A 
ATOM      4  C2  PXY d   1       0.353  -0.084   2.292  0.00  0.00     0.003 A 
ATOM      5  C3  PXY d   1       1.151  -0.694   3.225  0.00  0.00     0.003 A 
ATOM      6  C4  PXY d   1       0.617  -1.586   4.117  0.00  0.00    -0.082 A 
ATOM      7  C5  PXY d   1      -0.695  -1.894   4.044  0.00  0.00     0.003 A 
ATOM      8  C6  PXY d   1      -1.479  -1.295   3.063  0.00  0.00     0.003 A 
ENDROOT
TORSDOF 0
ENDMDL
