MODEL 1
REMARK minimizedAffinity 0.598987222
REMARK minimizedRMSD -1
REMARK  0 active torsions:
REMARK  status: ('A' for Active; 'I' for Inactive)
ROOT
ATOM      1  C4' PXY d   1       1.570  -1.977   4.783  0.00  0.00     0.077 C 
ATOM      2  C1' PXY d   1      -1.041   0.621   0.327  0.00  0.00     0.077 C 
ATOM      3  C1  PXY d   1      -0.347  -0.065   1.488  0.00  0.00    -0.082 A 
ATOM      4  C2  PXY d   1      -1.030  -0.343   2.586  0.00  0.00     0.003 A 
ATOM      5  C3  PXY d   1      -0.411  -0.934   3.657  0.00  0.00     0.003 A 
ATOM      6  C4  PXY d   1       0.908  -1.293   3.583  0.00  0.00    -0.082 A 
ATOM      7  C5  PXY d   1       1.609  -1.023   2.462  0.00  0.00     0.003 A 
ATOM      8  C6  PXY d   1       0.973  -0.384   1.401  0.00  0.00     0.003 A 
ENDROOT
TORSDOF 0
ENDMDL
