MODEL 1
REMARK minimizedAffinity -1.75161397
REMARK minimizedRMSD -1
REMARK  0 active torsions:
REMARK  status: ('A' for Active; 'I' for Inactive)
ROOT
ATOM      1  C4' PXY d   1      -0.762   0.407   0.721  0.00  0.00     0.077 C 
ATOM      2  C1' PXY d   1       1.994  -2.143   5.116  0.00  0.00     0.077 C 
ATOM      3  C1  PXY d   1       1.283  -1.471   3.959  0.00  0.00    -0.082 A 
ATOM      4  C2  PXY d   1       0.027  -1.079   4.101  0.00  0.00     0.003 A 
ATOM      5  C3  PXY d   1      -0.641  -0.498   3.055  0.00  0.00     0.003 A 
ATOM      6  C4  PXY d   1      -0.001  -0.268   1.866  0.00  0.00    -0.082 A 
ATOM      7  C5  PXY d   1       1.283  -0.655   1.716  0.00  0.00     0.003 A 
ATOM      8  C6  PXY d   1       1.931  -1.281   2.778  0.00  0.00     0.003 A 
ENDROOT
TORSDOF 0
ENDMDL
