MODEL 1
REMARK minimizedAffinity 0.603222966
REMARK minimizedRMSD -1
REMARK  0 active torsions:
REMARK  status: ('A' for Active; 'I' for Inactive)
ROOT
ATOM      1  C4' PXY d   1       1.999  -2.822   4.880  0.00  0.00     0.077 C 
ATOM      2  C1' PXY d   1      -1.437   0.086   1.253  0.00  0.00     0.077 C 
ATOM      3  C1  PXY d   1      -0.546  -0.679   2.212  0.00  0.00    -0.082 A 
ATOM      4  C2  PXY d   1       0.749  -0.412   2.255  0.00  0.00     0.003 A 
ATOM      5  C3  PXY d   1       1.574  -1.117   3.093  0.00  0.00     0.003 A 
ATOM      6  C4  PXY d   1       1.060  -2.068   3.934  0.00  0.00    -0.082 A 
ATOM      7  C5  PXY d   1      -0.262  -2.338   3.903  0.00  0.00     0.003 A 
ATOM      8  C6  PXY d   1      -1.076  -1.641   3.015  0.00  0.00     0.003 A 
ENDROOT
TORSDOF 0
ENDMDL
