MODEL 1
REMARK minimizedAffinity -0.786233306
REMARK minimizedRMSD -1
REMARK  0 active torsions:
REMARK  status: ('A' for Active; 'I' for Inactive)
ROOT
ATOM      1  C4' PXY d   1      -2.255   0.587   0.598  0.00  0.00     0.077 C 
ATOM      2  C1' PXY d   1       1.795  -1.425   4.199  0.00  0.00     0.077 C 
ATOM      3  C1  PXY d   1       0.736  -0.885   3.258  0.00  0.00    -0.082 A 
ATOM      4  C2  PXY d   1      -0.299  -1.643   2.934  0.00  0.00     0.003 A 
ATOM      5  C3  PXY d   1      -1.249  -1.182   2.059  0.00  0.00     0.003 A 
ATOM      6  C4  PXY d   1      -1.167   0.087   1.552  0.00  0.00    -0.082 A 
ATOM      7  C5  PXY d   1      -0.119   0.870   1.886  0.00  0.00     0.003 A 
ATOM      8  C6  PXY d   1       0.856   0.369   2.743  0.00  0.00     0.003 A 
ENDROOT
TORSDOF 0
ENDMDL
