MODEL 1
REMARK minimizedAffinity 2.26630497
REMARK minimizedRMSD -1
REMARK  0 active torsions:
REMARK  status: ('A' for Active; 'I' for Inactive)
ROOT
ATOM      1  C4' PXY d   1      -0.723   0.387   1.458  0.00  0.00     0.077 C 
ATOM      2  C1' PXY d   1       2.714  -1.897   5.507  0.00  0.00     0.077 C 
ATOM      3  C1  PXY d   1       1.821  -1.301   4.436  0.00  0.00    -0.082 A 
ATOM      4  C2  PXY d   1       0.944  -0.366   4.761  0.00  0.00     0.003 A 
ATOM      5  C3  PXY d   1       0.107   0.161   3.812  0.00  0.00     0.003 A 
ATOM      6  C4  PXY d   1       0.205  -0.236   2.505  0.00  0.00    -0.082 A 
ATOM      7  C5  PXY d   1       1.105  -1.183   2.163  0.00  0.00     0.003 A 
ATOM      8  C6  PXY d   1       1.917  -1.734   3.150  0.00  0.00     0.003 A 
ENDROOT
TORSDOF 0
ENDMDL
