MODEL 1
REMARK minimizedAffinity 4.99957085
REMARK minimizedRMSD -1
REMARK  0 active torsions:
REMARK  status: ('A' for Active; 'I' for Inactive)
ROOT
ATOM      1  C4' PXY d   1       0.835  -1.455   3.908  0.00  0.00     0.077 C 
ATOM      2  C1' PXY d   1      -2.424   1.015  -0.178  0.00  0.00     0.077 C 
ATOM      3  C1  PXY d   1      -1.580   0.365   0.901  0.00  0.00    -0.082 A 
ATOM      4  C2  PXY d   1      -0.293   0.659   0.991  0.00  0.00     0.003 A 
ATOM      5  C3  PXY d   1       0.492   0.057   1.940  0.00  0.00     0.003 A 
ATOM      6  C4  PXY d   1      -0.058  -0.816   2.840  0.00  0.00    -0.082 A 
ATOM      7  C5  PXY d   1      -1.372  -1.114   2.762  0.00  0.00     0.003 A 
ATOM      8  C6  PXY d   1      -2.143  -0.522   1.766  0.00  0.00     0.003 A 
ENDROOT
TORSDOF 0
ENDMDL
