MODEL 1
REMARK minimizedAffinity 10.0313148
REMARK minimizedRMSD -1
REMARK  0 active torsions:
REMARK  status: ('A' for Active; 'I' for Inactive)
ROOT
ATOM      1  C4' PXY d   1      -0.627   0.384   1.567  0.00  0.00     0.077 C 
ATOM      2  C1' PXY d   1       2.282  -1.919   6.000  0.00  0.00     0.077 C 
ATOM      3  C1  PXY d   1       1.526  -1.322   4.829  0.00  0.00    -0.082 A 
ATOM      4  C2  PXY d   1       0.894  -0.169   4.978  0.00  0.00     0.003 A 
ATOM      5  C3  PXY d   1       0.179   0.369   3.939  0.00  0.00     0.003 A 
ATOM      6  C4  PXY d   1       0.156  -0.252   2.719  0.00  0.00    -0.082 A 
ATOM      7  C5  PXY d   1       0.808  -1.422   2.556  0.00  0.00     0.003 A 
ATOM      8  C6  PXY d   1       1.493  -1.973   3.635  0.00  0.00     0.003 A 
ENDROOT
TORSDOF 0
ENDMDL
