MODEL 1
REMARK minimizedAffinity 0.612941086
REMARK minimizedRMSD -1
REMARK  0 active torsions:
REMARK  status: ('A' for Active; 'I' for Inactive)
ROOT
ATOM      1  C4' PXY d   1       1.540  -1.521   4.061  0.00  0.00     0.077 C 
ATOM      2  C1' PXY d   1      -1.537   0.825  -0.234  0.00  0.00     0.077 C 
ATOM      3  C1  PXY d   1      -0.721   0.206   0.884  0.00  0.00    -0.082 A 
ATOM      4  C2  PXY d   1      -1.317  -0.148   2.011  0.00  0.00     0.003 A 
ATOM      5  C3  PXY d   1      -0.589  -0.680   3.044  0.00  0.00     0.003 A 
ATOM      6  C4  PXY d   1       0.754  -0.901   2.902  0.00  0.00    -0.082 A 
ATOM      7  C5  PXY d   1       1.369  -0.552   1.752  0.00  0.00     0.003 A 
ATOM      8  C6  PXY d   1       0.619   0.024   0.731  0.00  0.00     0.003 A 
ENDROOT
TORSDOF 0
ENDMDL
