MODEL 1
REMARK minimizedAffinity -0.344451964
REMARK minimizedRMSD -1
REMARK  0 active torsions:
REMARK  status: ('A' for Active; 'I' for Inactive)
ROOT
ATOM      1  C4' PXY d   1       2.960  -1.255   4.575  0.00  0.00     0.077 C 
ATOM      2  C1' PXY d   1      -2.044  -0.349   1.826  0.00  0.00     0.077 C 
ATOM      3  C1  PXY d   1      -0.728  -0.593   2.537  0.00  0.00    -0.082 A 
ATOM      4  C2  PXY d   1      -0.676  -0.534   3.858  0.00  0.00     0.003 A 
ATOM      5  C3  PXY d   1       0.513  -0.720   4.515  0.00  0.00     0.003 A 
ATOM      6  C4  PXY d   1       1.650  -1.024   3.816  0.00  0.00    -0.082 A 
ATOM      7  C5  PXY d   1       1.604  -1.097   2.469  0.00  0.00     0.003 A 
ATOM      8  C6  PXY d   1       0.396  -0.864   1.818  0.00  0.00     0.003 A 
ENDROOT
TORSDOF 0
ENDMDL
