MODEL 1
REMARK minimizedAffinity 0.466419756
REMARK minimizedRMSD -1
REMARK  0 active torsions:
REMARK  status: ('A' for Active; 'I' for Inactive)
ROOT
ATOM      1  C4' PXY d   1       1.854  -2.229   4.637  0.00  0.00     0.077 C 
ATOM      2  C1' PXY d   1      -1.158   0.819   0.758  0.00  0.00     0.077 C 
ATOM      3  C1  PXY d   1      -0.358   0.018   1.767  0.00  0.00    -0.082 A 
ATOM      4  C2  PXY d   1      -0.984  -0.599   2.756  0.00  0.00     0.003 A 
ATOM      5  C3  PXY d   1      -0.274  -1.301   3.695  0.00  0.00     0.003 A 
ATOM      6  C4  PXY d   1       1.087  -1.417   3.591  0.00  0.00    -0.082 A 
ATOM      7  C5  PXY d   1       1.731  -0.799   2.579  0.00  0.00     0.003 A 
ATOM      8  C6  PXY d   1       0.996  -0.057   1.659  0.00  0.00     0.003 A 
ENDROOT
TORSDOF 0
ENDMDL
