MODEL 1
REMARK minimizedAffinity -2.52704024
REMARK minimizedRMSD -1
REMARK  0 active torsions:
REMARK  status: ('A' for Active; 'I' for Inactive)
ROOT
ATOM      1  C1  BNZ d   1       2.664   0.888   1.467  0.00  0.00     0.000 A 
ATOM      2  C2  BNZ d   1       3.149   0.427   2.662  0.00  0.00     0.000 A 
ATOM      3  C3  BNZ d   1       2.548  -0.621   3.303  0.00  0.00     0.000 A 
ATOM      4  C4  BNZ d   1       1.443  -1.179   2.769  0.00  0.00     0.000 A 
ATOM      5  C5  BNZ d   1       0.937  -0.719   1.570  0.00  0.00     0.000 A 
ATOM      6  C6  BNZ d   1       1.566   0.310   0.908  0.00  0.00     0.000 A 
ENDROOT
TORSDOF 0
ENDMDL
