MODEL 1
REMARK minimizedAffinity -1.42930377
REMARK minimizedRMSD -1
REMARK  0 active torsions:
REMARK  status: ('A' for Active; 'I' for Inactive)
ROOT
ATOM      1  C1  BNZ d   1      -5.887  -3.257  -4.639  0.00  0.00     0.000 A 
ATOM      2  C2  BNZ d   1      -5.759  -4.058  -3.535  0.00  0.00     0.000 A 
ATOM      3  C3  BNZ d   1      -5.726  -5.419  -3.659  0.00  0.00     0.000 A 
ATOM      4  C4  BNZ d   1      -5.860  -5.978  -4.879  0.00  0.00     0.000 A 
ATOM      5  C5  BNZ d   1      -5.999  -5.184  -6.000  0.00  0.00     0.000 A 
ATOM      6  C6  BNZ d   1      -5.994  -3.813  -5.876  0.00  0.00     0.000 A 
ENDROOT
TORSDOF 0
ENDMDL
