MODEL 1
REMARK minimizedAffinity -0.823881567
REMARK minimizedRMSD -1
REMARK  0 active torsions:
REMARK  status: ('A' for Active; 'I' for Inactive)
ROOT
ATOM      1  C1  BNZ d   1       4.941  -2.004  -5.963  0.00  0.00     0.000 A 
ATOM      2  C2  BNZ d   1       5.964  -1.095  -5.995  0.00  0.00     0.000 A 
ATOM      3  C3  BNZ d   1       5.707   0.248  -5.992  0.00  0.00     0.000 A 
ATOM      4  C4  BNZ d   1       4.429   0.678  -5.998  0.00  0.00     0.000 A 
ATOM      5  C5  BNZ d   1       3.387  -0.227  -5.976  0.00  0.00     0.000 A 
ATOM      6  C6  BNZ d   1       3.649  -1.577  -5.940  0.00  0.00     0.000 A 
ENDROOT
TORSDOF 0
ENDMDL
