MODEL 1
REMARK minimizedAffinity 8.8653698
REMARK minimizedRMSD -1
REMARK  0 active torsions:
REMARK  status: ('A' for Active; 'I' for Inactive)
ROOT
ATOM      1  C   UNL d   1       4.117  -4.276   5.927  0.00  0.00     0.020 A 
ATOM      2  C1  UNL d   1       5.440  -3.842   6.000  0.00  0.00     0.020 A 
ATOM      3  C2  UNL d   1       6.000  -3.128   4.938  0.00  0.00     0.034 A 
ATOM      4  C3  UNL d   1       5.237  -2.846   3.800  0.00  0.00     0.017 A 
ATOM      5  C4  UNL d   1       3.908  -3.282   3.728  0.00  0.00     0.017 A 
ATOM      6  C5  UNL d   1       3.353  -3.996   4.794  0.00  0.00     0.034 A 
ATOM      7 Cl   UNL d   1       2.904  -2.972   2.356  0.00  0.00    -0.070 Cl
ATOM      8 Cl1  UNL d   1       5.993  -1.958   2.525  0.00  0.00    -0.070 Cl
ENDROOT
TORSDOF 0
ENDMDL
