MODEL 1
REMARK minimizedAffinity 1.83180022
REMARK minimizedRMSD -1
REMARK  0 active torsions:
REMARK  status: ('A' for Active; 'I' for Inactive)
ROOT
ATOM      1  C   UNL d   1      -2.724  -2.603   1.439  0.00  0.00     0.020 A 
ATOM      2  C1  UNL d   1      -1.949  -1.480   1.726  0.00  0.00     0.020 A 
ATOM      3  C2  UNL d   1      -1.250  -0.835   0.704  0.00  0.00     0.034 A 
ATOM      4  C3  UNL d   1      -1.323  -1.313  -0.610  0.00  0.00     0.017 A 
ATOM      5  C4  UNL d   1      -2.100  -2.440  -0.897  0.00  0.00     0.017 A 
ATOM      6  C5  UNL d   1      -2.799  -3.082   0.130  0.00  0.00     0.034 A 
ATOM      7 Cl   UNL d   1      -2.239  -3.089  -2.493  0.00  0.00    -0.070 Cl
ATOM      8 Cl1  UNL d   1      -0.432  -0.465  -1.824  0.00  0.00    -0.070 Cl
ENDROOT
TORSDOF 0
ENDMDL
