MODEL 1
REMARK minimizedAffinity -5.86659241
REMARK minimizedRMSD -1
REMARK  0 active torsions:
REMARK  status: ('A' for Active; 'I' for Inactive)
ROOT
ATOM      1  C   UNL d   1       0.229  -2.929  -0.552  0.00  0.00     0.020 A 
ATOM      2  C1  UNL d   1      -0.040  -3.572   0.655  0.00  0.00     0.020 A 
ATOM      3  C2  UNL d   1      -0.509  -2.839   1.747  0.00  0.00     0.034 A 
ATOM      4  C3  UNL d   1      -0.711  -1.458   1.634  0.00  0.00     0.017 A 
ATOM      5  C4  UNL d   1      -0.441  -0.814   0.421  0.00  0.00     0.017 A 
ATOM      6  C5  UNL d   1       0.028  -1.553  -0.669  0.00  0.00     0.034 A 
ATOM      7 Cl   UNL d   1      -0.665   0.886   0.205  0.00  0.00    -0.070 Cl
ATOM      8 Cl1  UNL d   1      -1.293  -0.614   3.025  0.00  0.00    -0.070 Cl
ENDROOT
TORSDOF 0
ENDMDL
