MODEL 1
REMARK minimizedAffinity -4.80727196
REMARK minimizedRMSD -1
REMARK  0 active torsions:
REMARK  status: ('A' for Active; 'I' for Inactive)
ROOT
ATOM      1  C   UNL d   1      -0.327  -3.010  -0.088  0.00  0.00     0.020 A 
ATOM      2  C1  UNL d   1       0.724  -2.327  -0.700  0.00  0.00     0.020 A 
ATOM      3  C2  UNL d   1       0.898  -0.962  -0.466  0.00  0.00     0.034 A 
ATOM      4  C3  UNL d   1       0.021  -0.275   0.381  0.00  0.00     0.017 A 
ATOM      5  C4  UNL d   1      -1.033  -0.961   0.995  0.00  0.00     0.017 A 
ATOM      6  C5  UNL d   1      -1.203  -2.329   0.757  0.00  0.00     0.034 A 
ATOM      7 Cl   UNL d   1      -2.156  -0.182   2.052  0.00  0.00    -0.070 Cl
ATOM      8 Cl1  UNL d   1       0.297   1.414   0.625  0.00  0.00    -0.070 Cl
ENDROOT
TORSDOF 0
ENDMDL
