MODEL 1
REMARK minimizedAffinity -2.40033579
REMARK minimizedRMSD -1
REMARK  0 active torsions:
REMARK  status: ('A' for Active; 'I' for Inactive)
ROOT
ATOM      1  C   UNL d   1      -0.012   0.899  -1.065  0.00  0.00     0.020 A 
ATOM      2  C1  UNL d   1       0.849  -0.059  -1.602  0.00  0.00     0.020 A 
ATOM      3  C2  UNL d   1       0.964  -1.311  -0.995  0.00  0.00     0.034 A 
ATOM      4  C3  UNL d   1       0.219  -1.610   0.151  0.00  0.00     0.017 A 
ATOM      5  C4  UNL d   1      -0.645  -0.648   0.689  0.00  0.00     0.017 A 
ATOM      6  C5  UNL d   1      -0.757   0.604   0.077  0.00  0.00     0.034 A 
ATOM      7 Cl   UNL d   1      -1.597  -0.944   2.100  0.00  0.00    -0.070 Cl
ATOM      8 Cl1  UNL d   1       0.411  -3.179   0.848  0.00  0.00    -0.070 Cl
ENDROOT
TORSDOF 0
ENDMDL
