MODEL 1
REMARK minimizedAffinity -5.13394737
REMARK minimizedRMSD -1
REMARK  0 active torsions:
REMARK  status: ('A' for Active; 'I' for Inactive)
ROOT
ATOM      1  C   UNL d   1      -0.518  -2.085   1.530  0.00  0.00     0.020 A 
ATOM      2  C1  UNL d   1      -0.011  -2.987   0.596  0.00  0.00     0.020 A 
ATOM      3  C2  UNL d   1       0.383  -2.538  -0.666  0.00  0.00     0.034 A 
ATOM      4  C3  UNL d   1       0.270  -1.184  -0.998  0.00  0.00     0.017 A 
ATOM      5  C4  UNL d   1      -0.240  -0.279  -0.060  0.00  0.00     0.017 A 
ATOM      6  C5  UNL d   1      -0.633  -0.734   1.202  0.00  0.00     0.034 A 
ATOM      7 Cl   UNL d   1      -0.410   1.408  -0.397  0.00  0.00    -0.070 Cl
ATOM      8 Cl1  UNL d   1       0.776  -0.698  -2.577  0.00  0.00    -0.070 Cl
ENDROOT
TORSDOF 0
ENDMDL
