MODEL 1
REMARK minimizedAffinity -2.40958905
REMARK minimizedRMSD -1
REMARK  0 active torsions:
REMARK  status: ('A' for Active; 'I' for Inactive)
ROOT
ATOM      1  C   UNL d   1       0.782  -2.739   0.180  0.00  0.00     0.020 A 
ATOM      2  C1  UNL d   1      -0.410  -3.276   0.667  0.00  0.00     0.020 A 
ATOM      3  C2  UNL d   1      -1.468  -2.431   1.009  0.00  0.00     0.034 A 
ATOM      4  C3  UNL d   1      -1.336  -1.045   0.864  0.00  0.00     0.017 A 
ATOM      5  C4  UNL d   1      -0.140  -0.507   0.375  0.00  0.00     0.017 A 
ATOM      6  C5  UNL d   1       0.916  -1.358   0.034  0.00  0.00     0.034 A 
ATOM      7 Cl   UNL d   1       0.096   1.192   0.168  0.00  0.00    -0.070 Cl
ATOM      8 Cl1  UNL d   1      -2.685  -0.059   1.305  0.00  0.00    -0.070 Cl
ENDROOT
TORSDOF 0
ENDMDL
