MODEL 1
REMARK minimizedAffinity -5.53709269
REMARK minimizedRMSD -1
REMARK  0 active torsions:
REMARK  status: ('A' for Active; 'I' for Inactive)
ROOT
ATOM      1  C   UNL d   1      -0.726  -3.354   0.615  0.00  0.00     0.020 A 
ATOM      2  C1  UNL d   1       0.208  -2.871  -0.302  0.00  0.00     0.020 A 
ATOM      3  C2  UNL d   1       0.366  -1.495  -0.478  0.00  0.00     0.034 A 
ATOM      4  C3  UNL d   1      -0.411  -0.596   0.263  0.00  0.00     0.017 A 
ATOM      5  C4  UNL d   1      -1.347  -1.082   1.182  0.00  0.00     0.017 A 
ATOM      6  C5  UNL d   1      -1.502  -2.461   1.355  0.00  0.00     0.034 A 
ATOM      7 Cl   UNL d   1      -2.342  -0.035   2.132  0.00  0.00    -0.070 Cl
ATOM      8 Cl1  UNL d   1      -0.162   1.092  -0.007  0.00  0.00    -0.070 Cl
ENDROOT
TORSDOF 0
ENDMDL
