MODEL 1
REMARK minimizedAffinity -3.8615427
REMARK minimizedRMSD -1
REMARK  0 active torsions:
REMARK  status: ('A' for Active; 'I' for Inactive)
ROOT
ATOM      1  C   UNL d   1      -1.313  -2.550   1.518  0.00  0.00     0.020 A 
ATOM      2  C1  UNL d   1      -1.313  -3.445   0.449  0.00  0.00     0.020 A 
ATOM      3  C2  UNL d   1      -0.891  -3.024  -0.814  0.00  0.00     0.034 A 
ATOM      4  C3  UNL d   1      -0.466  -1.705  -1.010  0.00  0.00     0.017 A 
ATOM      5  C4  UNL d   1      -0.466  -0.807   0.063  0.00  0.00     0.017 A 
ATOM      6  C5  UNL d   1      -0.890  -1.234   1.326  0.00  0.00     0.034 A 
ATOM      7 Cl   UNL d   1       0.043   0.836  -0.102  0.00  0.00    -0.070 Cl
ATOM      8 Cl1  UNL d   1       0.043  -1.253  -2.599  0.00  0.00    -0.070 Cl
ENDROOT
TORSDOF 0
ENDMDL
