MODEL 1
REMARK minimizedAffinity -4.53195667
REMARK minimizedRMSD -1
REMARK  0 active torsions:
REMARK  status: ('A' for Active; 'I' for Inactive)
ROOT
ATOM      1  C   UNL d   1       0.892  -2.586   0.440  0.00  0.00     0.020 A 
ATOM      2  C1  UNL d   1      -0.355  -3.093   0.806  0.00  0.00     0.020 A 
ATOM      3  C2  UNL d   1      -1.424  -2.223   1.029  0.00  0.00     0.034 A 
ATOM      4  C3  UNL d   1      -1.250  -0.842   0.887  0.00  0.00     0.017 A 
ATOM      5  C4  UNL d   1       0.002  -0.334   0.520  0.00  0.00     0.017 A 
ATOM      6  C5  UNL d   1       1.069  -1.209   0.298  0.00  0.00     0.034 A 
ATOM      7 Cl   UNL d   1       0.294   1.359   0.324  0.00  0.00    -0.070 Cl
ATOM      8 Cl1  UNL d   1      -2.616   0.175   1.177  0.00  0.00    -0.070 Cl
ENDROOT
TORSDOF 0
ENDMDL
