MODEL 1
REMARK minimizedAffinity -4.42939329
REMARK minimizedRMSD -1
REMARK  0 active torsions:
REMARK  status: ('A' for Active; 'I' for Inactive)
ROOT
ATOM      1  C   UNL d   1      -0.041  -1.146   1.025  0.00  0.00     0.020 A 
ATOM      2  C1  UNL d   1      -0.113  -1.591  -0.294  0.00  0.00     0.020 A 
ATOM      3  C2  UNL d   1      -0.194  -0.667  -1.338  0.00  0.00     0.034 A 
ATOM      4  C3  UNL d   1      -0.204   0.706  -1.065  0.00  0.00     0.017 A 
ATOM      5  C4  UNL d   1      -0.131   1.151   0.260  0.00  0.00     0.017 A 
ATOM      6  C5  UNL d   1      -0.050   0.221   1.302  0.00  0.00     0.034 A 
ATOM      7 Cl   UNL d   1      -0.137   2.828   0.676  0.00  0.00    -0.070 Cl
ATOM      8 Cl1  UNL d   1      -0.306   1.792  -2.405  0.00  0.00    -0.070 Cl
ENDROOT
TORSDOF 0
ENDMDL
