MODEL 1
REMARK minimizedAffinity -3.65495682
REMARK minimizedRMSD -1
REMARK  0 active torsions:
REMARK  status: ('A' for Active; 'I' for Inactive)
ROOT
ATOM      1  C   UNL d   1       0.396  -3.094   0.710  0.00  0.00     0.020 A 
ATOM      2  C1  UNL d   1       1.569  -2.454   0.313  0.00  0.00     0.020 A 
ATOM      3  C2  UNL d   1       1.573  -1.075   0.093  0.00  0.00     0.034 A 
ATOM      4  C3  UNL d   1       0.401  -0.331   0.270  0.00  0.00     0.017 A 
ATOM      5  C4  UNL d   1      -0.777  -0.974   0.669  0.00  0.00     0.017 A 
ATOM      6  C5  UNL d   1      -0.775  -2.355   0.888  0.00  0.00     0.034 A 
ATOM      7 Cl   UNL d   1      -2.262  -0.122   0.908  0.00  0.00    -0.070 Cl
ATOM      8 Cl1  UNL d   1       0.478   1.371  -0.020  0.00  0.00    -0.070 Cl
ENDROOT
TORSDOF 0
ENDMDL
