MODEL 1
REMARK minimizedAffinity -2.85003281
REMARK minimizedRMSD -1
REMARK  0 active torsions:
REMARK  status: ('A' for Active; 'I' for Inactive)
ROOT
ATOM      1  C   UNL d   1      -0.472  -3.104   1.211  0.00  0.00     0.020 A 
ATOM      2  C1  UNL d   1       0.645  -2.782   0.440  0.00  0.00     0.020 A 
ATOM      3  C2  UNL d   1       0.746  -1.520  -0.149  0.00  0.00     0.034 A 
ATOM      4  C3  UNL d   1      -0.271  -0.575   0.031  0.00  0.00     0.017 A 
ATOM      5  C4  UNL d   1      -1.391  -0.899   0.804  0.00  0.00     0.017 A 
ATOM      6  C5  UNL d   1      -1.488  -2.164   1.392  0.00  0.00     0.034 A 
ATOM      7 Cl   UNL d   1      -2.686   0.214   1.071  0.00  0.00    -0.070 Cl
ATOM      8 Cl1  UNL d   1      -0.079   0.965  -0.727  0.00  0.00    -0.070 Cl
ENDROOT
TORSDOF 0
ENDMDL
