MODEL 1
REMARK minimizedAffinity -5.51188946
REMARK minimizedRMSD -1
REMARK  0 active torsions:
REMARK  status: ('A' for Active; 'I' for Inactive)
ROOT
ATOM      1  C   UNL d   1      -0.895  -2.212   1.575  0.00  0.00     0.020 A 
ATOM      2  C1  UNL d   1      -0.447  -3.153   0.650  0.00  0.00     0.020 A 
ATOM      3  C2  UNL d   1       0.050  -2.735  -0.586  0.00  0.00     0.034 A 
ATOM      4  C3  UNL d   1       0.100  -1.372  -0.901  0.00  0.00     0.017 A 
ATOM      5  C4  UNL d   1      -0.350  -0.428   0.029  0.00  0.00     0.017 A 
ATOM      6  C5  UNL d   1      -0.847  -0.852   1.266  0.00  0.00     0.034 A 
ATOM      7 Cl   UNL d   1      -0.320   1.271  -0.287  0.00  0.00    -0.070 Cl
ATOM      8 Cl1  UNL d   1       0.727  -0.927  -2.448  0.00  0.00    -0.070 Cl
ENDROOT
TORSDOF 0
ENDMDL
