MODEL 1
REMARK minimizedAffinity -2.86155915
REMARK minimizedRMSD -1
REMARK  0 active torsions:
REMARK  status: ('A' for Active; 'I' for Inactive)
ROOT
ATOM      1  C   UNL d   1       0.929   4.086   2.037  0.00  0.00     0.020 A 
ATOM      2  C1  UNL d   1      -0.375   3.760   1.669  0.00  0.00     0.020 A 
ATOM      3  C2  UNL d   1      -0.602   2.863   0.623  0.00  0.00     0.034 A 
ATOM      4  C3  UNL d   1       0.477   2.289  -0.059  0.00  0.00     0.017 A 
ATOM      5  C4  UNL d   1       1.786   2.617   0.312  0.00  0.00     0.017 A 
ATOM      6  C5  UNL d   1       2.008   3.516   1.360  0.00  0.00     0.034 A 
ATOM      7 Cl   UNL d   1       3.169   1.949  -0.482  0.00  0.00    -0.070 Cl
ATOM      8 Cl1  UNL d   1       0.123   1.188  -1.342  0.00  0.00    -0.070 Cl
ENDROOT
TORSDOF 0
ENDMDL
