MODEL 1
REMARK minimizedAffinity -5.32565737
REMARK minimizedRMSD -1
REMARK  0 active torsions:
REMARK  status: ('A' for Active; 'I' for Inactive)
ROOT
ATOM      1  C   UNL d   1      -0.220  -3.525   0.439  0.00  0.00     0.020 A 
ATOM      2  C1  UNL d   1      -0.507  -2.503   1.343  0.00  0.00     0.020 A 
ATOM      3  C2  UNL d   1      -0.475  -1.171   0.924  0.00  0.00     0.034 A 
ATOM      4  C3  UNL d   1      -0.156  -0.858  -0.403  0.00  0.00     0.017 A 
ATOM      5  C4  UNL d   1       0.131  -1.885  -1.309  0.00  0.00     0.017 A 
ATOM      6  C5  UNL d   1       0.098  -3.217  -0.884  0.00  0.00     0.034 A 
ATOM      7 Cl   UNL d   1       0.532  -1.578  -2.962  0.00  0.00    -0.070 Cl
ATOM      8 Cl1  UNL d   1      -0.136   0.810  -0.853  0.00  0.00    -0.070 Cl
ENDROOT
TORSDOF 0
ENDMDL
