MODEL 1
REMARK minimizedAffinity -5.56802416
REMARK minimizedRMSD -1
REMARK  0 active torsions:
REMARK  status: ('A' for Active; 'I' for Inactive)
ROOT
ATOM      1  C   UNL d   1      -0.167  -3.595   0.164  0.00  0.00     0.020 A 
ATOM      2  C1  UNL d   1      -0.477  -2.640   1.132  0.00  0.00     0.020 A 
ATOM      3  C2  UNL d   1      -0.387  -1.281   0.825  0.00  0.00     0.034 A 
ATOM      4  C3  UNL d   1       0.015  -0.872  -0.452  0.00  0.00     0.017 A 
ATOM      5  C4  UNL d   1       0.326  -1.831  -1.423  0.00  0.00     0.017 A 
ATOM      6  C5  UNL d   1       0.233  -3.191  -1.111  0.00  0.00     0.034 A 
ATOM      7 Cl   UNL d   1       0.828  -1.404  -3.020  0.00  0.00    -0.070 Cl
ATOM      8 Cl1  UNL d   1       0.104   0.825  -0.761  0.00  0.00    -0.070 Cl
ENDROOT
TORSDOF 0
ENDMDL
