MODEL 1
REMARK minimizedAffinity 0.907834709
REMARK minimizedRMSD -1
REMARK  1 active torsions:
REMARK  status: ('A' for Active; 'I' for Inactive)
REMARK    1  A    between atoms: C1_2  and  C2_3 
ROOT
ATOM      1  C2  UNL d   1       4.448   5.950   0.402  0.00  0.00    -0.076 A 
ATOM      2  C3  UNL d   1       5.753   5.911   0.922  0.00  0.00     0.004 A 
ATOM      3  C4  UNL d   1       5.979   5.926   2.297  0.00  0.00    -0.003 A 
ATOM      4  C5  UNL d   1       4.902   5.978   3.176  0.00  0.00     0.000 A 
ATOM      5  C6  UNL d   1       3.600   5.999   2.678  0.00  0.00     0.000 A 
ATOM      6  C7  UNL d   1       3.354   5.969   1.295  0.00  0.00    -0.073 A 
ATOM      7  C8  UNL d   1       1.930   6.000   0.814  0.00  0.00     0.078 C 
ENDROOT
BRANCH   1   8
ATOM      8  C1  UNL d   1       4.265   5.960  -1.099  0.00  0.00     0.053 C 
ATOM      9  C   UNL d   1       3.324   4.865  -1.578  0.00  0.00     0.018 C 
ENDBRANCH   1   8
TORSDOF 1
ENDMDL
