MODEL 1
REMARK minimizedAffinity 14.3578682
REMARK minimizedRMSD -1
REMARK  1 active torsions:
REMARK  status: ('A' for Active; 'I' for Inactive)
REMARK    1  A    between atoms: C1_2  and  C2_3 
ROOT
ATOM      1  C2  UNL d   1      -0.033  -3.546   0.071  0.00  0.00    -0.076 A 
ATOM      2  C3  UNL d   1      -0.453  -4.450   1.062  0.00  0.00     0.004 A 
ATOM      3  C4  UNL d   1       0.469  -5.228   1.761  0.00  0.00    -0.003 A 
ATOM      4  C5  UNL d   1       1.826  -5.113   1.481  0.00  0.00     0.000 A 
ATOM      5  C6  UNL d   1       2.262  -4.207   0.514  0.00  0.00     0.000 A 
ATOM      6  C7  UNL d   1       1.347  -3.405  -0.189  0.00  0.00    -0.073 A 
ATOM      7  C8  UNL d   1       1.871  -2.450  -1.226  0.00  0.00     0.078 C 
ENDROOT
BRANCH   1   8
ATOM      8  C1  UNL d   1      -1.081  -2.749  -0.673  0.00  0.00     0.053 C 
ATOM      9  C   UNL d   1      -2.004  -1.983   0.262  0.00  0.00     0.018 C 
ENDBRANCH   1   8
TORSDOF 1
ENDMDL
