MODEL 1
REMARK minimizedAffinity 7.38239288
REMARK minimizedRMSD -1
REMARK  1 active torsions:
REMARK  status: ('A' for Active; 'I' for Inactive)
REMARK    1  A    between atoms: C1_2  and  C2_3 
ROOT
ATOM      1  C2  UNL d   1       3.475  -0.160  -2.427  0.00  0.00    -0.076 A 
ATOM      2  C3  UNL d   1       3.698   0.513  -3.641  0.00  0.00     0.004 A 
ATOM      3  C4  UNL d   1       4.947   0.483  -4.259  0.00  0.00    -0.003 A 
ATOM      4  C5  UNL d   1       5.994  -0.220  -3.673  0.00  0.00     0.000 A 
ATOM      5  C6  UNL d   1       5.786  -0.907  -2.478  0.00  0.00     0.000 A 
ATOM      6  C7  UNL d   1       4.529  -0.901  -1.850  0.00  0.00    -0.073 A 
ATOM      7  C8  UNL d   1       4.363  -1.654  -0.559  0.00  0.00     0.078 C 
ENDROOT
BRANCH   1   8
ATOM      8  C1  UNL d   1       2.108  -0.069  -1.789  0.00  0.00     0.053 C 
ATOM      9  C   UNL d   1       0.990   0.012  -2.817  0.00  0.00     0.018 C 
ENDBRANCH   1   8
TORSDOF 1
ENDMDL
