MODEL 1
REMARK minimizedAffinity 19.5282631
REMARK minimizedRMSD -1
REMARK  1 active torsions:
REMARK  status: ('A' for Active; 'I' for Inactive)
REMARK    1  A    between atoms: C1_2  and  C2_3 
ROOT
ATOM      1  C2  UNL d   1      -4.668  -0.064   2.817  0.00  0.00    -0.076 A 
ATOM      2  C3  UNL d   1      -3.647   0.294   1.919  0.00  0.00     0.004 A 
ATOM      3  C4  UNL d   1      -2.409   0.737   2.380  0.00  0.00    -0.003 A 
ATOM      4  C5  UNL d   1      -2.170   0.828   3.747  0.00  0.00     0.000 A 
ATOM      5  C6  UNL d   1      -3.165   0.461   4.652  0.00  0.00     0.000 A 
ATOM      6  C7  UNL d   1      -4.414  -0.003   4.204  0.00  0.00    -0.073 A 
ATOM      7  C8  UNL d   1      -5.453  -0.380   5.225  0.00  0.00     0.078 C 
ENDROOT
BRANCH   1   8
ATOM      8  C1  UNL d   1      -6.000  -0.511   2.259  0.00  0.00     0.053 C 
ATOM      9  C   UNL d   1      -5.999  -1.977   1.852  0.00  0.00     0.018 C 
ENDBRANCH   1   8
TORSDOF 1
ENDMDL
