MODEL 1
REMARK minimizedAffinity 8.75940609
REMARK minimizedRMSD -1
REMARK  1 active torsions:
REMARK  status: ('A' for Active; 'I' for Inactive)
REMARK    1  A    between atoms: C1_2  and  C2_3 
ROOT
ATOM      1  C2  UNL d   1       1.506  -1.352  -1.858  0.00  0.00    -0.076 A 
ATOM      2  C3  UNL d   1       2.636  -1.121  -1.055  0.00  0.00     0.004 A 
ATOM      3  C4  UNL d   1       3.197  -2.145  -0.294  0.00  0.00    -0.003 A 
ATOM      4  C5  UNL d   1       2.637  -3.417  -0.323  0.00  0.00     0.000 A 
ATOM      5  C6  UNL d   1       1.526  -3.669  -1.128  0.00  0.00     0.000 A 
ATOM      6  C7  UNL d   1       0.958  -2.652  -1.914  0.00  0.00    -0.073 A 
ATOM      7  C8  UNL d   1      -0.243  -2.977  -2.759  0.00  0.00     0.078 C 
ENDROOT
BRANCH   1   8
ATOM      8  C1  UNL d   1       0.925  -0.196  -2.641  0.00  0.00     0.053 C 
ATOM      9  C   UNL d   1       0.326   0.874  -1.742  0.00  0.00     0.018 C 
ENDBRANCH   1   8
TORSDOF 1
ENDMDL
