MODEL 1
REMARK minimizedAffinity -0.10948775
REMARK minimizedRMSD -1
REMARK  1 active torsions:
REMARK  status: ('A' for Active; 'I' for Inactive)
REMARK    1  A    between atoms: C1_2  and  C2_3 
ROOT
ATOM      1  C2  UNL d   1       4.880  -3.247   3.959  0.00  0.00    -0.076 A 
ATOM      2  C3  UNL d   1       4.233  -4.348   3.371  0.00  0.00     0.004 A 
ATOM      3  C4  UNL d   1       4.041  -5.531   4.081  0.00  0.00    -0.003 A 
ATOM      4  C5  UNL d   1       4.494  -5.634   5.392  0.00  0.00     0.000 A 
ATOM      5  C6  UNL d   1       5.123  -4.546   5.997  0.00  0.00     0.000 A 
ATOM      6  C7  UNL d   1       5.309  -3.340   5.300  0.00  0.00    -0.073 A 
ATOM      7  C8  UNL d   1       6.000  -2.201   5.999  0.00  0.00     0.078 C 
ENDROOT
BRANCH   1   8
ATOM      8  C1  UNL d   1       5.084  -1.999   3.130  0.00  0.00     0.053 C 
ATOM      9  C   UNL d   1       4.822  -0.726   3.921  0.00  0.00     0.018 C 
ENDBRANCH   1   8
TORSDOF 1
ENDMDL
