MODEL 1
REMARK minimizedAffinity 9.38399124
REMARK minimizedRMSD -1
REMARK  1 active torsions:
REMARK  status: ('A' for Active; 'I' for Inactive)
REMARK    1  A    between atoms: C1_2  and  C2_3 
ROOT
ATOM      1  C2  UNL d   1      -0.351  -3.274  -1.254  0.00  0.00    -0.076 A 
ATOM      2  C3  UNL d   1       0.292  -2.581  -2.294  0.00  0.00     0.004 A 
ATOM      3  C4  UNL d   1       1.681  -2.467  -2.328  0.00  0.00    -0.003 A 
ATOM      4  C5  UNL d   1       2.449  -3.043  -1.323  0.00  0.00     0.000 A 
ATOM      5  C6  UNL d   1       1.828  -3.749  -0.292  0.00  0.00     0.000 A 
ATOM      6  C7  UNL d   1       0.430  -3.888  -0.252  0.00  0.00    -0.073 A 
ATOM      7  C8  UNL d   1      -0.186  -4.655   0.886  0.00  0.00     0.078 C 
ENDROOT
BRANCH   1   8
ATOM      8  C1  UNL d   1      -1.862  -3.342  -1.255  0.00  0.00     0.053 C 
ATOM      9  C   UNL d   1      -2.505  -2.033  -0.824  0.00  0.00     0.018 C 
ENDBRANCH   1   8
TORSDOF 1
ENDMDL
