MODEL 1
REMARK minimizedAffinity 7.3988657
REMARK minimizedRMSD -1
REMARK  1 active torsions:
REMARK  status: ('A' for Active; 'I' for Inactive)
REMARK    1  A    between atoms: C1_2  and  C2_3 
ROOT
ATOM      1  C2  UNL d   1       0.586  -0.347  -2.025  0.00  0.00    -0.076 A 
ATOM      2  C3  UNL d   1      -0.036   0.632  -2.820  0.00  0.00     0.004 A 
ATOM      3  C4  UNL d   1       0.696   1.687  -3.362  0.00  0.00    -0.003 A 
ATOM      4  C5  UNL d   1       2.062   1.780  -3.119  0.00  0.00     0.000 A 
ATOM      5  C6  UNL d   1       2.698   0.809  -2.347  0.00  0.00     0.000 A 
ATOM      6  C7  UNL d   1       1.978  -0.270  -1.806  0.00  0.00    -0.073 A 
ATOM      7  C8  UNL d   1       2.714  -1.286  -0.976  0.00  0.00     0.078 C 
ENDROOT
BRANCH   1   8
ATOM      8  C1  UNL d   1      -0.264  -1.453  -1.442  0.00  0.00     0.053 C 
ATOM      9  C   UNL d   1      -1.521  -0.927  -0.766  0.00  0.00     0.018 C 
ENDBRANCH   1   8
TORSDOF 1
ENDMDL
