MODEL 1
REMARK minimizedAffinity 5.16496277
REMARK minimizedRMSD -1
REMARK  1 active torsions:
REMARK  status: ('A' for Active; 'I' for Inactive)
REMARK    1  A    between atoms: C1_2  and  C2_3 
ROOT
ATOM      1  C2  UNL d   1      -2.924  -0.740   1.379  0.00  0.00    -0.076 A 
ATOM      2  C3  UNL d   1      -3.339  -0.885   2.714  0.00  0.00     0.004 A 
ATOM      3  C4  UNL d   1      -2.930   0.018   3.694  0.00  0.00    -0.003 A 
ATOM      4  C5  UNL d   1      -2.101   1.082   3.355  0.00  0.00     0.000 A 
ATOM      5  C6  UNL d   1      -1.695   1.251   2.032  0.00  0.00     0.000 A 
ATOM      6  C7  UNL d   1      -2.111   0.359   1.028  0.00  0.00    -0.073 A 
ATOM      7  C8  UNL d   1      -1.637   0.586  -0.381  0.00  0.00     0.078 C 
ENDROOT
BRANCH   1   8
ATOM      8  C1  UNL d   1      -3.376  -1.766   0.364  0.00  0.00     0.053 C 
ATOM      9  C   UNL d   1      -4.840  -2.143   0.530  0.00  0.00     0.018 C 
ENDBRANCH   1   8
TORSDOF 1
ENDMDL
