MODEL 1
REMARK minimizedAffinity 11.9333134
REMARK minimizedRMSD -1
REMARK  0 active torsions:
REMARK  status: ('A' for Active; 'I' for Inactive)
ROOT
ATOM      1  C4' PXY d   1       2.881   2.426   2.168  0.00  0.00     0.077 C 
ATOM      2  C1' PXY d   1      -2.658   0.780   2.003  0.00  0.00     0.077 C 
ATOM      3  C1  PXY d   1      -1.203   1.202   2.056  0.00  0.00    -0.082 A 
ATOM      4  C2  PXY d   1      -0.864   2.426   1.685  0.00  0.00     0.003 A 
ATOM      5  C3  PXY d   1       0.451   2.815   1.695  0.00  0.00     0.003 A 
ATOM      6  C4  PXY d   1       1.423   1.959   2.141  0.00  0.00    -0.082 A 
ATOM      7  C5  PXY d   1       1.084   0.712   2.531  0.00  0.00     0.003 A 
ATOM      8  C6  PXY d   1      -0.252   0.324   2.474  0.00  0.00     0.003 A 
ENDROOT
TORSDOF 0
ENDMDL
