MODEL 1
REMARK minimizedAffinity 7.02007341
REMARK minimizedRMSD -1
REMARK  0 active torsions:
REMARK  status: ('A' for Active; 'I' for Inactive)
ROOT
ATOM      1  C4' PXY d   1      -4.558  -0.226   3.092  0.00  0.00     0.077 C 
ATOM      2  C1' PXY d   1       0.715  -0.101   0.726  0.00  0.00     0.077 C 
ATOM      3  C1  PXY d   1      -0.671  -0.123   1.341  0.00  0.00    -0.082 A 
ATOM      4  C2  PXY d   1      -0.888  -0.825   2.441  0.00  0.00     0.003 A 
ATOM      5  C3  PXY d   1      -2.142  -0.881   2.992  0.00  0.00     0.003 A 
ATOM      6  C4  PXY d   1      -3.173  -0.168   2.442  0.00  0.00    -0.082 A 
ATOM      7  C5  PXY d   1      -2.958   0.559   1.325  0.00  0.00     0.003 A 
ATOM      8  C6  PXY d   1      -1.687   0.570   0.758  0.00  0.00     0.003 A 
ENDROOT
TORSDOF 0
ENDMDL
