MODEL 1
REMARK minimizedAffinity 6.3879137
REMARK minimizedRMSD -1
REMARK  0 active torsions:
REMARK  status: ('A' for Active; 'I' for Inactive)
ROOT
ATOM      1  C4' PXY d   1      -4.884  -5.574  -0.167  0.00  0.00     0.077 C 
ATOM      2  C1' PXY d   1      -4.472  -5.577  -5.933  0.00  0.00     0.077 C 
ATOM      3  C1  PXY d   1      -4.592  -5.571  -4.421  0.00  0.00    -0.082 A 
ATOM      4  C2  PXY d   1      -3.497  -5.572  -3.678  0.00  0.00     0.003 A 
ATOM      5  C3  PXY d   1      -3.587  -5.599  -2.310  0.00  0.00     0.003 A 
ATOM      6  C4  PXY d   1      -4.810  -5.571  -1.696  0.00  0.00    -0.082 A 
ATOM      7  C5  PXY d   1      -5.932  -5.559  -2.447  0.00  0.00     0.003 A 
ATOM      8  C6  PXY d   1      -5.819  -5.574  -3.834  0.00  0.00     0.003 A 
ENDROOT
TORSDOF 0
ENDMDL
