MODEL 1
REMARK minimizedAffinity 4.0247159
REMARK minimizedRMSD -1
REMARK  0 active torsions:
REMARK  status: ('A' for Active; 'I' for Inactive)
ROOT
ATOM      1  C4' PXY d   1      -5.989  -2.865   1.403  0.00  0.00     0.077 C 
ATOM      2  C1' PXY d   1      -3.714   1.336   4.658  0.00  0.00     0.077 C 
ATOM      3  C1  PXY d   1      -4.304   0.239   3.794  0.00  0.00    -0.082 A 
ATOM      4  C2  PXY d   1      -5.465  -0.302   4.125  0.00  0.00     0.003 A 
ATOM      5  C3  PXY d   1      -5.997  -1.317   3.373  0.00  0.00     0.003 A 
ATOM      6  C4  PXY d   1      -5.360  -1.748   2.241  0.00  0.00    -0.082 A 
ATOM      7  C5  PXY d   1      -4.180  -1.194   1.890  0.00  0.00     0.003 A 
ATOM      8  C6  PXY d   1      -3.636  -0.193   2.690  0.00  0.00     0.003 A 
ENDROOT
TORSDOF 0
ENDMDL
