MODEL 1
REMARK minimizedAffinity 12.9976997
REMARK minimizedRMSD -1
REMARK  0 active torsions:
REMARK  status: ('A' for Active; 'I' for Inactive)
ROOT
ATOM      1  C4' PXY d   1       2.450  -2.148  -0.917  0.00  0.00     0.077 C 
ATOM      2  C1' PXY d   1       5.062   2.794   0.556  0.00  0.00     0.077 C 
ATOM      3  C1  PXY d   1       4.366   1.505   0.165  0.00  0.00    -0.082 A 
ATOM      4  C2  PXY d   1       4.712   0.371   0.753  0.00  0.00     0.003 A 
ATOM      5  C3  PXY d   1       4.116  -0.809   0.389  0.00  0.00     0.003 A 
ATOM      6  C4  PXY d   1       3.118  -0.821  -0.548  0.00  0.00    -0.082 A 
ATOM      7  C5  PXY d   1       2.752   0.334  -1.145  0.00  0.00     0.003 A 
ATOM      8  C6  PXY d   1       3.398   1.515  -0.791  0.00  0.00     0.003 A 
ENDROOT
TORSDOF 0
ENDMDL
