MODEL 1
REMARK minimizedAffinity 5.69281387
REMARK minimizedRMSD -1
REMARK  0 active torsions:
REMARK  status: ('A' for Active; 'I' for Inactive)
ROOT
ATOM      1  C4' PXY d   1      -2.970  -1.108  -3.875  0.00  0.00     0.077 C 
ATOM      2  C1' PXY d   1      -5.994  -5.746  -5.537  0.00  0.00     0.077 C 
ATOM      3  C1  PXY d   1      -5.199  -4.527  -5.114  0.00  0.00    -0.082 A 
ATOM      4  C2  PXY d   1      -4.649  -4.490  -3.911  0.00  0.00     0.003 A 
ATOM      5  C3  PXY d   1      -3.954  -3.382  -3.500  0.00  0.00     0.003 A 
ATOM      6  C4  PXY d   1      -3.774  -2.322  -4.349  0.00  0.00    -0.082 A 
ATOM      7  C5  PXY d   1      -4.322  -2.357  -5.582  0.00  0.00     0.003 A 
ATOM      8  C6  PXY d   1      -5.059  -3.474  -5.965  0.00  0.00     0.003 A 
ENDROOT
TORSDOF 0
ENDMDL
