MODEL 1
REMARK minimizedAffinity 9.41132927
REMARK minimizedRMSD -1
REMARK  0 active torsions:
REMARK  status: ('A' for Active; 'I' for Inactive)
ROOT
ATOM      1  C4' PXY d   1      -1.326   1.212   1.890  0.00  0.00     0.077 C 
ATOM      2  C1' PXY d   1      -6.000  -1.907   3.247  0.00  0.00     0.077 C 
ATOM      3  C1  PXY d   1      -4.775  -1.094   2.879  0.00  0.00    -0.082 A 
ATOM      4  C2  PXY d   1      -3.916  -0.741   3.822  0.00  0.00     0.003 A 
ATOM      5  C3  PXY d   1      -2.820   0.022   3.512  0.00  0.00     0.003 A 
ATOM      6  C4  PXY d   1      -2.572   0.383   2.214  0.00  0.00    -0.082 A 
ATOM      7  C5  PXY d   1      -3.437   0.017   1.245  0.00  0.00     0.003 A 
ATOM      8  C6  PXY d   1      -4.566  -0.722   1.587  0.00  0.00     0.003 A 
ENDROOT
TORSDOF 0
ENDMDL
