MODEL 1
REMARK minimizedAffinity 9.634408
REMARK minimizedRMSD -1
REMARK  0 active torsions:
REMARK  status: ('A' for Active; 'I' for Inactive)
ROOT
ATOM      1  C4' PXY d   1      -0.233  -0.707   3.114  0.00  0.00     0.077 C 
ATOM      2  C1' PXY d   1      -5.999  -0.393   2.858  0.00  0.00     0.077 C 
ATOM      3  C1  PXY d   1      -4.486  -0.471   2.913  0.00  0.00    -0.082 A 
ATOM      4  C2  PXY d   1      -3.904  -1.250   3.810  0.00  0.00     0.003 A 
ATOM      5  C3  PXY d   1      -2.536  -1.309   3.894  0.00  0.00     0.003 A 
ATOM      6  C4  PXY d   1      -1.757  -0.603   3.016  0.00  0.00    -0.082 A 
ATOM      7  C5  PXY d   1      -2.344   0.185   2.092  0.00  0.00     0.003 A 
ATOM      8  C6  PXY d   1      -3.733   0.263   2.049  0.00  0.00     0.003 A 
ENDROOT
TORSDOF 0
ENDMDL
