MODEL 1
REMARK minimizedAffinity 11.0464525
REMARK minimizedRMSD -1
REMARK  0 active torsions:
REMARK  status: ('A' for Active; 'I' for Inactive)
ROOT
ATOM      1  C4' PXY d   1      -3.344  -5.932  -1.757  0.00  0.00     0.077 C 
ATOM      2  C1' PXY d   1      -5.999  -3.040  -6.000  0.00  0.00     0.077 C 
ATOM      3  C1  PXY d   1      -5.314  -3.805  -4.885  0.00  0.00    -0.082 A 
ATOM      4  C2  PXY d   1      -4.237  -3.296  -4.308  0.00  0.00     0.003 A 
ATOM      5  C3  PXY d   1      -3.586  -3.989  -3.320  0.00  0.00     0.003 A 
ATOM      6  C4  PXY d   1      -4.074  -5.191  -2.881  0.00  0.00    -0.082 A 
ATOM      7  C5  PXY d   1      -5.178  -5.711  -3.457  0.00  0.00     0.003 A 
ATOM      8  C6  PXY d   1      -5.800  -5.011  -4.486  0.00  0.00     0.003 A 
ENDROOT
TORSDOF 0
ENDMDL
