MODEL 1
REMARK minimizedAffinity 0.19265306
REMARK minimizedRMSD -1
REMARK  0 active torsions:
REMARK  status: ('A' for Active; 'I' for Inactive)
ROOT
ATOM      1  C4' PXY d   1       0.991  -4.075  -2.524  0.00  0.00     0.077 C 
ATOM      2  C1' PXY d   1       2.941   1.276  -1.533  0.00  0.00     0.077 C 
ATOM      3  C1  PXY d   1       2.435  -0.132  -1.782  0.00  0.00    -0.082 A 
ATOM      4  C2  PXY d   1       2.115  -0.504  -3.010  0.00  0.00     0.003 A 
ATOM      5  C3  PXY d   1       1.626  -1.762  -3.249  0.00  0.00     0.003 A 
ATOM      6  C4  PXY d   1       1.514  -2.667  -2.227  0.00  0.00    -0.082 A 
ATOM      7  C5  PXY d   1       1.849  -2.298  -0.972  0.00  0.00     0.003 A 
ATOM      8  C6  PXY d   1       2.304  -1.003  -0.745  0.00  0.00     0.003 A 
ENDROOT
TORSDOF 0
ENDMDL
