MODEL 1
REMARK minimizedAffinity 10.0786772
REMARK minimizedRMSD -1
REMARK  0 active torsions:
REMARK  status: ('A' for Active; 'I' for Inactive)
ROOT
ATOM      1  C4' PXY d   1      -6.000  -2.991  -5.892  0.00  0.00     0.077 C 
ATOM      2  C1' PXY d   1      -4.524  -5.976  -1.167  0.00  0.00     0.077 C 
ATOM      3  C1  PXY d   1      -4.912  -5.205  -2.413  0.00  0.00    -0.082 A 
ATOM      4  C2  PXY d   1      -4.538  -3.942  -2.543  0.00  0.00     0.003 A 
ATOM      5  C3  PXY d   1      -4.908  -3.220  -3.649  0.00  0.00     0.003 A 
ATOM      6  C4  PXY d   1      -5.622  -3.812  -4.656  0.00  0.00    -0.082 A 
ATOM      7  C5  PXY d   1      -5.998  -5.103  -4.535  0.00  0.00     0.003 A 
ATOM      8  C6  PXY d   1      -5.648  -5.806  -3.386  0.00  0.00     0.003 A 
ENDROOT
TORSDOF 0
ENDMDL
