MODEL 1
REMARK minimizedAffinity 3.83991313
REMARK minimizedRMSD -1
REMARK  0 active torsions:
REMARK  status: ('A' for Active; 'I' for Inactive)
ROOT
ATOM      1  C4' PXY d   1       3.089   0.682  -0.701  0.00  0.00     0.077 C 
ATOM      2  C1' PXY d   1       1.626  -4.417  -2.997  0.00  0.00     0.077 C 
ATOM      3  C1  PXY d   1       2.010  -3.086  -2.383  0.00  0.00    -0.082 A 
ATOM      4  C2  PXY d   1       1.650  -1.961  -2.981  0.00  0.00     0.003 A 
ATOM      5  C3  PXY d   1       2.018  -0.749  -2.456  0.00  0.00     0.003 A 
ATOM      6  C4  PXY d   1       2.715  -0.685  -1.280  0.00  0.00    -0.082 A 
ATOM      7  C5  PXY d   1       3.076  -1.828  -0.658  0.00  0.00     0.003 A 
ATOM      8  C6  PXY d   1       2.730  -3.049  -1.228  0.00  0.00     0.003 A 
ENDROOT
TORSDOF 0
ENDMDL
