MODEL 1
REMARK minimizedAffinity 5.38933611
REMARK minimizedRMSD -1
REMARK  0 active torsions:
REMARK  status: ('A' for Active; 'I' for Inactive)
ROOT
ATOM      1  C4' PXY d   1      -4.305  -6.000  -1.270  0.00  0.00     0.077 C 
ATOM      2  C1' PXY d   1      -6.000  -3.140  -6.000  0.00  0.00     0.077 C 
ATOM      3  C1  PXY d   1      -5.565  -3.899  -4.761  0.00  0.00    -0.082 A 
ATOM      4  C2  PXY d   1      -4.860  -3.279  -3.829  0.00  0.00     0.003 A 
ATOM      5  C3  PXY d   1      -4.432  -3.958  -2.717  0.00  0.00     0.003 A 
ATOM      6  C4  PXY d   1      -4.774  -5.271  -2.533  0.00  0.00    -0.082 A 
ATOM      7  C5  PXY d   1      -5.502  -5.908  -3.475  0.00  0.00     0.003 A 
ATOM      8  C6  PXY d   1      -5.892  -5.212  -4.615  0.00  0.00     0.003 A 
ENDROOT
TORSDOF 0
ENDMDL
