MODEL 1
REMARK minimizedAffinity 9.94210625
REMARK minimizedRMSD -1
REMARK  0 active torsions:
REMARK  status: ('A' for Active; 'I' for Inactive)
ROOT
ATOM      1  C4' PXY d   1       1.798   1.831   2.246  0.00  0.00     0.077 C 
ATOM      2  C1' PXY d   1      -3.634  -0.139   2.409  0.00  0.00     0.077 C 
ATOM      3  C1  PXY d   1      -2.206   0.369   2.376  0.00  0.00    -0.082 A 
ATOM      4  C2  PXY d   1      -1.955   1.587   1.923  0.00  0.00     0.003 A 
ATOM      5  C3  PXY d   1      -0.667   2.051   1.856  0.00  0.00     0.003 A 
ATOM      6  C4  PXY d   1       0.371   1.280   2.307  0.00  0.00    -0.082 A 
ATOM      7  C5  PXY d   1       0.123   0.040   2.780  0.00  0.00     0.003 A 
ATOM      8  C6  PXY d   1      -1.188  -0.427   2.801  0.00  0.00     0.003 A 
ENDROOT
TORSDOF 0
ENDMDL
