MODEL 1
REMARK minimizedAffinity 7.39067602
REMARK minimizedRMSD -1
REMARK  0 active torsions:
REMARK  status: ('A' for Active; 'I' for Inactive)
ROOT
ATOM      1  C4' PXY d   1       0.589  -5.154  -2.939  0.00  0.00     0.077 C 
ATOM      2  C1' PXY d   1       2.922  -0.070  -1.480  0.00  0.00     0.077 C 
ATOM      3  C1  PXY d   1       2.302  -1.397  -1.871  0.00  0.00    -0.082 A 
ATOM      4  C2  PXY d   1       2.423  -2.438  -1.064  0.00  0.00     0.003 A 
ATOM      5  C3  PXY d   1       1.896  -3.654  -1.416  0.00  0.00     0.003 A 
ATOM      6  C4  PXY d   1       1.191  -3.792  -2.581  0.00  0.00    -0.082 A 
ATOM      7  C5  PXY d   1       1.053  -2.731  -3.405  0.00  0.00     0.003 A 
ATOM      8  C6  PXY d   1       1.632  -1.516  -3.049  0.00  0.00     0.003 A 
ENDROOT
TORSDOF 0
ENDMDL
