MODEL 1
REMARK minimizedAffinity 4.53142691
REMARK minimizedRMSD -1
REMARK  0 active torsions:
REMARK  status: ('A' for Active; 'I' for Inactive)
ROOT
ATOM      1  C4' PXY d   1      -6.000  -2.461   4.143  0.00  0.00     0.077 C 
ATOM      2  C1' PXY d   1      -2.592   1.277   1.344  0.00  0.00     0.077 C 
ATOM      3  C1  PXY d   1      -3.496   0.301   2.072  0.00  0.00    -0.082 A 
ATOM      4  C2  PXY d   1      -3.119  -0.194   3.240  0.00  0.00     0.003 A 
ATOM      5  C3  PXY d   1      -3.910  -1.102   3.896  0.00  0.00     0.003 A 
ATOM      6  C4  PXY d   1      -5.123  -1.466   3.377  0.00  0.00    -0.082 A 
ATOM      7  C5  PXY d   1      -5.520  -0.957   2.192  0.00  0.00     0.003 A 
ATOM      8  C6  PXY d   1      -4.684  -0.068   1.521  0.00  0.00     0.003 A 
ENDROOT
TORSDOF 0
ENDMDL
