MODEL 1
REMARK minimizedAffinity 2.1029582
REMARK minimizedRMSD -1
REMARK  0 active torsions:
REMARK  status: ('A' for Active; 'I' for Inactive)
ROOT
ATOM      1  C4' PXY d   1      -3.349  -5.703  -1.889  0.00  0.00     0.077 C 
ATOM      2  C1' PXY d   1      -6.000  -2.623  -6.000  0.00  0.00     0.077 C 
ATOM      3  C1  PXY d   1      -5.316  -3.436  -4.918  0.00  0.00    -0.082 A 
ATOM      4  C2  PXY d   1      -4.141  -3.046  -4.451  0.00  0.00     0.003 A 
ATOM      5  C3  PXY d   1      -3.494  -3.786  -3.495  0.00  0.00     0.003 A 
ATOM      6  C4  PXY d   1      -4.081  -4.908  -2.974  0.00  0.00    -0.082 A 
ATOM      7  C5  PXY d   1      -5.284  -5.307  -3.438  0.00  0.00     0.003 A 
ATOM      8  C6  PXY d   1      -5.905  -4.564  -4.438  0.00  0.00     0.003 A 
ENDROOT
TORSDOF 0
ENDMDL
