MODEL 1
REMARK minimizedAffinity 2.09803057
REMARK minimizedRMSD -1
REMARK  0 active torsions:
REMARK  status: ('A' for Active; 'I' for Inactive)
ROOT
ATOM      1  C4' PXY d   1      -5.998  -3.675  -5.874  0.00  0.00     0.077 C 
ATOM      2  C1' PXY d   1      -3.607  -5.992  -1.149  0.00  0.00     0.077 C 
ATOM      3  C1  PXY d   1      -4.241  -5.396  -2.390  0.00  0.00    -0.082 A 
ATOM      4  C2  PXY d   1      -3.644  -4.391  -3.010  0.00  0.00     0.003 A 
ATOM      5  C3  PXY d   1      -4.219  -3.818  -4.116  0.00  0.00     0.003 A 
ATOM      6  C4  PXY d   1      -5.390  -4.314  -4.623  0.00  0.00    -0.082 A 
ATOM      7  C5  PXY d   1      -6.000  -5.346  -4.002  0.00  0.00     0.003 A 
ATOM      8  C6  PXY d   1      -5.421  -5.886  -2.857  0.00  0.00     0.003 A 
ENDROOT
TORSDOF 0
ENDMDL
