MODEL 1
REMARK minimizedAffinity 6.79759216
REMARK minimizedRMSD -1
REMARK  0 active torsions:
REMARK  status: ('A' for Active; 'I' for Inactive)
ROOT
ATOM      1  C4' PXY d   1      -2.589   4.654   5.646  0.00  0.00     0.077 C 
ATOM      2  C1' PXY d   1      -3.177   0.506   1.663  0.00  0.00     0.077 C 
ATOM      3  C1  PXY d   1      -3.034   1.599   2.704  0.00  0.00    -0.082 A 
ATOM      4  C2  PXY d   1      -1.828   1.968   3.103  0.00  0.00     0.003 A 
ATOM      5  C3  PXY d   1      -1.682   2.933   4.067  0.00  0.00     0.003 A 
ATOM      6  C4  PXY d   1      -2.780   3.562   4.590  0.00  0.00    -0.082 A 
ATOM      7  C5  PXY d   1      -4.014   3.198   4.180  0.00  0.00     0.003 A 
ATOM      8  C6  PXY d   1      -4.142   2.188   3.230  0.00  0.00     0.003 A 
ENDROOT
TORSDOF 0
ENDMDL
