MODEL 1
REMARK minimizedAffinity 3.15075874
REMARK minimizedRMSD -1
REMARK  0 active torsions:
REMARK  status: ('A' for Active; 'I' for Inactive)
ROOT
ATOM      1  C4' PXY d   1      -5.975  -3.330  -6.000  0.00  0.00     0.077 C 
ATOM      2  C1' PXY d   1      -4.361  -5.943  -1.103  0.00  0.00     0.077 C 
ATOM      3  C1  PXY d   1      -4.778  -5.267  -2.394  0.00  0.00    -0.082 A 
ATOM      4  C2  PXY d   1      -5.022  -3.967  -2.402  0.00  0.00     0.003 A 
ATOM      5  C3  PXY d   1      -5.432  -3.346  -3.554  0.00  0.00     0.003 A 
ATOM      6  C4  PXY d   1      -5.541  -4.052  -4.721  0.00  0.00    -0.082 A 
ATOM      7  C5  PXY d   1      -5.284  -5.378  -4.723  0.00  0.00     0.003 A 
ATOM      8  C6  PXY d   1      -4.909  -5.997  -3.535  0.00  0.00     0.003 A 
ENDROOT
TORSDOF 0
ENDMDL
