MODEL 1
REMARK minimizedAffinity -5.26962423
REMARK minimizedRMSD -1
REMARK  1 active torsions:
REMARK  status: ('A' for Active; 'I' for Inactive)
REMARK    1  A    between atoms: C3_4  and  O_7 
ROOT
ATOM      1  C   UNL d   1      -1.698   2.737   1.289  0.00  0.00    -0.033 A 
ATOM      2  C1  UNL d   1      -1.034   2.830   0.065  0.00  0.00     0.039 A 
ATOM      3  C2  UNL d   1      -0.295   1.747  -0.415  0.00  0.00    -0.080 A 
ATOM      4  C3  UNL d   1      -0.229   0.578   0.338  0.00  0.00     0.150 A 
ATOM      5  C4  UNL d   1      -0.892   0.477   1.557  0.00  0.00    -0.007 A 
ATOM      6  C5  UNL d   1      -1.628   1.560   2.035  0.00  0.00     0.039 A 
ENDROOT
BRANCH   4   7
ATOM      7  O   UNL d   1       0.483  -0.504  -0.087  0.00  0.00    -0.526 OA
ATOM      8  H5  UNL d   1       0.911  -0.279  -0.931  0.00  0.00     0.418 HD
ENDBRANCH   4   7
TORSDOF 1
ENDMDL
