MODEL 1
REMARK minimizedAffinity -4.9607172
REMARK minimizedRMSD -1
REMARK  1 active torsions:
REMARK  status: ('A' for Active; 'I' for Inactive)
REMARK    1  A    between atoms: C3_4  and  O_7 
ROOT
ATOM      1  C   UNL d   1       0.229  -0.648   0.646  0.00  0.00    -0.033 A 
ATOM      2  C1  UNL d   1      -0.080  -0.412   1.987  0.00  0.00     0.039 A 
ATOM      3  C2  UNL d   1      -1.136   0.437   2.322  0.00  0.00    -0.080 A 
ATOM      4  C3  UNL d   1      -1.874   1.043   1.309  0.00  0.00     0.150 A 
ATOM      5  C4  UNL d   1      -1.574   0.809  -0.029  0.00  0.00    -0.007 A 
ATOM      6  C5  UNL d   1      -0.518  -0.039  -0.362  0.00  0.00     0.039 A 
ENDROOT
BRANCH   4   7
ATOM      7  O   UNL d   1      -2.911   1.884   1.587  0.00  0.00    -0.526 OA
ATOM      8  H5  UNL d   1      -2.984   1.973   2.552  0.00  0.00     0.418 HD
ENDBRANCH   4   7
TORSDOF 1
ENDMDL
