MODEL 1
REMARK minimizedAffinity -3.96901584
REMARK minimizedRMSD -1
REMARK  1 active torsions:
REMARK  status: ('A' for Active; 'I' for Inactive)
REMARK    1  A    between atoms: C3_4  and  O_7 
ROOT
ATOM      1  C   UNL d   1      -0.085  -1.136   0.640  0.00  0.00    -0.033 A 
ATOM      2  C1  UNL d   1      -0.217  -0.198  -0.386  0.00  0.00     0.039 A 
ATOM      3  C2  UNL d   1      -0.716   1.076  -0.110  0.00  0.00    -0.080 A 
ATOM      4  C3  UNL d   1      -1.080   1.400   1.194  0.00  0.00     0.150 A 
ATOM      5  C4  UNL d   1      -0.948   0.472   2.222  0.00  0.00    -0.007 A 
ATOM      6  C5  UNL d   1      -0.449  -0.800   1.945  0.00  0.00     0.039 A 
ENDROOT
BRANCH   4   7
ATOM      7  O   UNL d   1      -1.577   2.629   1.511  0.00  0.00    -0.526 OA
ATOM      8  H5  UNL d   1      -1.639   3.155   0.697  0.00  0.00     0.418 HD
ENDBRANCH   4   7
TORSDOF 1
ENDMDL
