MODEL 1
REMARK minimizedAffinity -3.97565556
REMARK minimizedRMSD -1
REMARK  1 active torsions:
REMARK  status: ('A' for Active; 'I' for Inactive)
REMARK    1  A    between atoms: C3_4  and  O_7 
ROOT
ATOM      1  C   UNL d   1       0.280  -0.721   0.187  0.00  0.00    -0.033 A 
ATOM      2  C1  UNL d   1      -0.065   0.447  -0.495  0.00  0.00     0.039 A 
ATOM      3  C2  UNL d   1      -1.032   1.306   0.032  0.00  0.00    -0.080 A 
ATOM      4  C3  UNL d   1      -1.644   0.987   1.241  0.00  0.00     0.150 A 
ATOM      5  C4  UNL d   1      -1.302  -0.173   1.928  0.00  0.00    -0.007 A 
ATOM      6  C5  UNL d   1      -0.337  -1.031   1.400  0.00  0.00     0.039 A 
ENDROOT
BRANCH   4   7
ATOM      7  O   UNL d   1      -2.595   1.792   1.792  0.00  0.00    -0.526 OA
ATOM      8  H5  UNL d   1      -2.750   2.541   1.193  0.00  0.00     0.418 HD
ENDBRANCH   4   7
TORSDOF 1
ENDMDL
