MODEL 1
REMARK minimizedAffinity -3.86696744
REMARK minimizedRMSD -1
REMARK  1 active torsions:
REMARK  status: ('A' for Active; 'I' for Inactive)
REMARK    1  A    between atoms: C3_4  and  O_7 
ROOT
ATOM      1  C   UNL d   1       0.335  -1.498   0.387  0.00  0.00    -0.033 A 
ATOM      2  C1  UNL d   1       0.222  -0.522  -0.605  0.00  0.00     0.039 A 
ATOM      3  C2  UNL d   1      -0.376   0.705  -0.315  0.00  0.00    -0.080 A 
ATOM      4  C3  UNL d   1      -0.856   0.945   0.970  0.00  0.00     0.150 A 
ATOM      5  C4  UNL d   1      -0.743  -0.021   1.964  0.00  0.00    -0.007 A 
ATOM      6  C5  UNL d   1      -0.146  -1.247   1.672  0.00  0.00     0.039 A 
ENDROOT
BRANCH   4   7
ATOM      7  O   UNL d   1      -1.452   2.126   1.299  0.00  0.00    -0.526 OA
ATOM      8  H5  UNL d   1      -1.486   2.685   0.505  0.00  0.00     0.418 HD
ENDBRANCH   4   7
TORSDOF 1
ENDMDL
