MODEL 1
REMARK minimizedAffinity -4.75484562
REMARK minimizedRMSD -1
REMARK  1 active torsions:
REMARK  status: ('A' for Active; 'I' for Inactive)
REMARK    1  A    between atoms: C3_4  and  O_7 
ROOT
ATOM      1  C   UNL d   1      -0.040   0.051  -0.534  0.00  0.00    -0.033 A 
ATOM      2  C1  UNL d   1      -0.897  -0.730   0.244  0.00  0.00     0.039 A 
ATOM      3  C2  UNL d   1      -1.847  -0.120   1.066  0.00  0.00    -0.080 A 
ATOM      4  C3  UNL d   1      -1.930   1.269   1.100  0.00  0.00     0.150 A 
ATOM      5  C4  UNL d   1      -1.082   2.053   0.325  0.00  0.00    -0.007 A 
ATOM      6  C5  UNL d   1      -0.133   1.442  -0.494  0.00  0.00     0.039 A 
ENDROOT
BRANCH   4   7
ATOM      7  O   UNL d   1      -2.838   1.909   1.890  0.00  0.00    -0.526 OA
ATOM      8  H5  UNL d   1      -3.337   1.241   2.389  0.00  0.00     0.418 HD
ENDBRANCH   4   7
TORSDOF 1
ENDMDL
