MODEL 1
REMARK minimizedAffinity -4.05154562
REMARK minimizedRMSD -1
REMARK  1 active torsions:
REMARK  status: ('A' for Active; 'I' for Inactive)
REMARK    1  A    between atoms: C3_4  and  O_7 
ROOT
ATOM      1  C   UNL d   1       0.571  -0.565  -0.337  0.00  0.00    -0.033 A 
ATOM      2  C1  UNL d   1       0.233   0.567  -1.081  0.00  0.00     0.039 A 
ATOM      3  C2  UNL d   1      -0.714   1.468  -0.592  0.00  0.00    -0.080 A 
ATOM      4  C3  UNL d   1      -1.316   1.227   0.640  0.00  0.00     0.150 A 
ATOM      5  C4  UNL d   1      -0.981   0.103   1.388  0.00  0.00    -0.007 A 
ATOM      6  C5  UNL d   1      -0.035  -0.797   0.898  0.00  0.00     0.039 A 
ENDROOT
BRANCH   4   7
ATOM      7  O   UNL d   1      -2.250   2.076   1.156  0.00  0.00    -0.526 OA
ATOM      8  H5  UNL d   1      -2.401   2.792   0.517  0.00  0.00     0.418 HD
ENDBRANCH   4   7
TORSDOF 1
ENDMDL
