MODEL 1
REMARK minimizedAffinity -2.93580604
REMARK minimizedRMSD -1
REMARK  1 active torsions:
REMARK  status: ('A' for Active; 'I' for Inactive)
REMARK    1  A    between atoms: C3_4  and  O_7 
ROOT
ATOM      1  C   UNL d   1       0.295  -0.762   0.834  0.00  0.00    -0.033 A 
ATOM      2  C1  UNL d   1      -0.213  -0.840   2.132  0.00  0.00     0.039 A 
ATOM      3  C2  UNL d   1      -1.108   0.128   2.594  0.00  0.00    -0.080 A 
ATOM      4  C3  UNL d   1      -1.486   1.167   1.748  0.00  0.00     0.150 A 
ATOM      5  C4  UNL d   1      -0.987   1.249   0.453  0.00  0.00    -0.007 A 
ATOM      6  C5  UNL d   1      -0.093   0.282  -0.006  0.00  0.00     0.039 A 
ENDROOT
BRANCH   4   7
ATOM      7  O   UNL d   1      -2.352   2.137   2.156  0.00  0.00    -0.526 OA
ATOM      8  H5  UNL d   1      -2.592   1.967   3.082  0.00  0.00     0.418 HD
ENDBRANCH   4   7
TORSDOF 1
ENDMDL
