MODEL 1
REMARK minimizedAffinity -1.8855598
REMARK minimizedRMSD -1
REMARK  1 active torsions:
REMARK  status: ('A' for Active; 'I' for Inactive)
REMARK    1  A    between atoms: C3_4  and  O_7 
ROOT
ATOM      1  C   UNL d   1       1.285  -3.752  -2.295  0.00  0.00    -0.033 A 
ATOM      2  C1  UNL d   1       1.924  -3.296  -1.141  0.00  0.00     0.039 A 
ATOM      3  C2  UNL d   1       1.439  -2.171  -0.471  0.00  0.00    -0.080 A 
ATOM      4  C3  UNL d   1       0.316  -1.513  -0.964  0.00  0.00     0.150 A 
ATOM      5  C4  UNL d   1      -0.329  -1.965  -2.111  0.00  0.00    -0.007 A 
ATOM      6  C5  UNL d   1       0.158  -3.088  -2.780  0.00  0.00     0.039 A 
ENDROOT
BRANCH   4   7
ATOM      7  O   UNL d   1      -0.191  -0.408  -0.347  0.00  0.00    -0.526 OA
ATOM      8  H5  UNL d   1       0.373  -0.195   0.415  0.00  0.00     0.418 HD
ENDBRANCH   4   7
TORSDOF 1
ENDMDL
