MODEL 1
REMARK minimizedAffinity -2.5223043
REMARK minimizedRMSD -1
REMARK  1 active torsions:
REMARK  status: ('A' for Active; 'I' for Inactive)
REMARK    1  A    between atoms: C3_4  and  O_7 
ROOT
ATOM      1  C   UNL d   1       0.876  -0.798  -0.312  0.00  0.00    -0.033 A 
ATOM      2  C1  UNL d   1       0.563   0.525  -0.631  0.00  0.00     0.039 A 
ATOM      3  C2  UNL d   1      -0.219   1.288   0.239  0.00  0.00    -0.080 A 
ATOM      4  C3  UNL d   1      -0.680   0.717   1.422  0.00  0.00     0.150 A 
ATOM      5  C4  UNL d   1      -0.369  -0.599   1.748  0.00  0.00    -0.007 A 
ATOM      6  C5  UNL d   1       0.412  -1.359   0.878  0.00  0.00     0.039 A 
ENDROOT
BRANCH   4   7
ATOM      7  O   UNL d   1      -1.451   1.421   2.299  0.00  0.00    -0.526 OA
ATOM      8  H5  UNL d   1      -1.609   2.305   1.929  0.00  0.00     0.418 HD
ENDBRANCH   4   7
TORSDOF 1
ENDMDL
