MODEL 1
REMARK minimizedAffinity -4.95918655
REMARK minimizedRMSD -1
REMARK  1 active torsions:
REMARK  status: ('A' for Active; 'I' for Inactive)
REMARK    1  A    between atoms: C3_4  and  O_7 
ROOT
ATOM      1  C   UNL d   1       0.106  -0.944   0.119  0.00  0.00    -0.033 A 
ATOM      2  C1  UNL d   1       0.175  -0.357   1.384  0.00  0.00     0.039 A 
ATOM      3  C2  UNL d   1      -0.643   0.730   1.697  0.00  0.00    -0.080 A 
ATOM      4  C3  UNL d   1      -1.525   1.220   0.738  0.00  0.00     0.150 A 
ATOM      5  C4  UNL d   1      -1.602   0.637  -0.523  0.00  0.00    -0.007 A 
ATOM      6  C5  UNL d   1      -0.784  -0.448  -0.834  0.00  0.00     0.039 A 
ENDROOT
BRANCH   4   7
ATOM      7  O   UNL d   1      -2.340   2.282   0.995  0.00  0.00    -0.526 OA
ATOM      8  H5  UNL d   1      -2.156   2.600   1.895  0.00  0.00     0.418 HD
ENDBRANCH   4   7
TORSDOF 1
ENDMDL
