MODEL 1
REMARK minimizedAffinity -4.4406867
REMARK minimizedRMSD -1
REMARK  1 active torsions:
REMARK  status: ('A' for Active; 'I' for Inactive)
REMARK    1  A    between atoms: C3_4  and  O_7 
ROOT
ATOM      1  C   UNL d   1      -1.692   1.944   1.575  0.00  0.00    -0.033 A 
ATOM      2  C1  UNL d   1      -1.647   0.632   2.051  0.00  0.00     0.039 A 
ATOM      3  C2  UNL d   1      -0.759  -0.287   1.487  0.00  0.00    -0.080 A 
ATOM      4  C3  UNL d   1       0.077   0.118   0.450  0.00  0.00     0.150 A 
ATOM      5  C4  UNL d   1       0.040   1.425  -0.026  0.00  0.00    -0.007 A 
ATOM      6  C5  UNL d   1      -0.847   2.341   0.538  0.00  0.00     0.039 A 
ENDROOT
BRANCH   4   7
ATOM      7  O   UNL d   1       0.956  -0.744  -0.135  0.00  0.00    -0.526 OA
ATOM      8  H5  UNL d   1       0.850  -1.618   0.277  0.00  0.00     0.418 HD
ENDBRANCH   4   7
TORSDOF 1
ENDMDL
