MODEL 1
REMARK minimizedAffinity -2.10584092
REMARK minimizedRMSD -1
REMARK  1 active torsions:
REMARK  status: ('A' for Active; 'I' for Inactive)
REMARK    1  A    between atoms: C3_4  and  O_7 
ROOT
ATOM      1  C   UNL d   1      -0.453   0.824   1.239  0.00  0.00    -0.033 A 
ATOM      2  C1  UNL d   1       0.431   1.074   0.187  0.00  0.00     0.039 A 
ATOM      3  C2  UNL d   1       0.955   0.012  -0.553  0.00  0.00    -0.080 A 
ATOM      4  C3  UNL d   1       0.588  -1.292  -0.232  0.00  0.00     0.150 A 
ATOM      5  C4  UNL d   1      -0.295  -1.547   0.812  0.00  0.00    -0.007 A 
ATOM      6  C5  UNL d   1      -0.817  -0.486   1.550  0.00  0.00     0.039 A 
ENDROOT
BRANCH   4   7
ATOM      7  O   UNL d   1       1.077  -2.360  -0.923  0.00  0.00    -0.526 OA
ATOM      8  H5  UNL d   1       1.697  -2.033  -1.597  0.00  0.00     0.418 HD
ENDBRANCH   4   7
TORSDOF 1
ENDMDL
