MODEL 1
REMARK minimizedAffinity -5.14623117
REMARK minimizedRMSD -1
REMARK  1 active torsions:
REMARK  status: ('A' for Active; 'I' for Inactive)
REMARK    1  A    between atoms: C3_4  and  O_7 
ROOT
ATOM      1  C   UNL d   1      -1.811   1.707   1.347  0.00  0.00    -0.033 A 
ATOM      2  C1  UNL d   1      -1.218   0.676   0.616  0.00  0.00     0.039 A 
ATOM      3  C2  UNL d   1      -0.306   0.972  -0.399  0.00  0.00    -0.080 A 
ATOM      4  C3  UNL d   1       0.006   2.301  -0.671  0.00  0.00     0.150 A 
ATOM      5  C4  UNL d   1      -0.578   3.333   0.055  0.00  0.00    -0.007 A 
ATOM      6  C5  UNL d   1      -1.490   3.036   1.067  0.00  0.00     0.039 A 
ENDROOT
BRANCH   4   7
ATOM      7  O   UNL d   1       0.887   2.639  -1.655  0.00  0.00    -0.526 OA
ATOM      8  H5  UNL d   1       1.188   1.825  -2.092  0.00  0.00     0.418 HD
ENDBRANCH   4   7
TORSDOF 1
ENDMDL
