MODEL 1
REMARK minimizedAffinity -3.65678883
REMARK minimizedRMSD -1
REMARK  1 active torsions:
REMARK  status: ('A' for Active; 'I' for Inactive)
REMARK    1  A    between atoms: C3_4  and  O_7 
ROOT
ATOM      1  C   UNL d   1      -0.764   3.130   1.020  0.00  0.00    -0.033 A 
ATOM      2  C1  UNL d   1      -0.980   1.935   1.709  0.00  0.00     0.039 A 
ATOM      3  C2  UNL d   1      -0.467   0.736   1.211  0.00  0.00    -0.080 A 
ATOM      4  C3  UNL d   1       0.261   0.746   0.024  0.00  0.00     0.150 A 
ATOM      5  C4  UNL d   1       0.484   1.933  -0.666  0.00  0.00    -0.007 A 
ATOM      6  C5  UNL d   1      -0.031   3.129  -0.167  0.00  0.00     0.039 A 
ENDROOT
BRANCH   4   7
ATOM      7  O   UNL d   1       0.778  -0.399  -0.505  0.00  0.00    -0.526 OA
ATOM      8  H5  UNL d   1       0.520  -1.144   0.064  0.00  0.00     0.418 HD
ENDBRANCH   4   7
TORSDOF 1
ENDMDL
