MODEL 1
REMARK minimizedAffinity -3.3097682
REMARK minimizedRMSD -1
REMARK  1 active torsions:
REMARK  status: ('A' for Active; 'I' for Inactive)
REMARK    1  A    between atoms: C3_4  and  O_7 
ROOT
ATOM      1  C   UNL d   1      -1.277  -0.313   1.730  0.00  0.00    -0.033 A 
ATOM      2  C1  UNL d   1      -0.488  -0.918   0.750  0.00  0.00     0.039 A 
ATOM      3  C2  UNL d   1       0.135  -0.139  -0.227  0.00  0.00    -0.080 A 
ATOM      4  C3  UNL d   1      -0.037   1.243  -0.211  0.00  0.00     0.150 A 
ATOM      5  C4  UNL d   1      -0.819   1.852   0.765  0.00  0.00    -0.007 A 
ATOM      6  C5  UNL d   1      -1.441   1.072   1.739  0.00  0.00     0.039 A 
ENDROOT
BRANCH   4   7
ATOM      7  O   UNL d   1       0.547   2.044  -1.146  0.00  0.00    -0.526 OA
ATOM      8  H5  UNL d   1       1.033   1.483  -1.773  0.00  0.00     0.418 HD
ENDBRANCH   4   7
TORSDOF 1
ENDMDL
