MODEL 1
REMARK minimizedAffinity -3.6141789
REMARK minimizedRMSD -1
REMARK  1 active torsions:
REMARK  status: ('A' for Active; 'I' for Inactive)
REMARK    1  A    between atoms: C3_4  and  O_7 
ROOT
ATOM      1  C   UNL d   1       0.580  -0.437   0.560  0.00  0.00    -0.033 A 
ATOM      2  C1  UNL d   1       1.530  -1.153  -0.170  0.00  0.00     0.039 A 
ATOM      3  C2  UNL d   1       1.132  -1.954  -1.242  0.00  0.00    -0.080 A 
ATOM      4  C3  UNL d   1      -0.218  -2.028  -1.575  0.00  0.00     0.150 A 
ATOM      5  C4  UNL d   1      -1.170  -1.314  -0.855  0.00  0.00    -0.007 A 
ATOM      6  C5  UNL d   1      -0.770  -0.516   0.216  0.00  0.00     0.039 A 
ENDROOT
BRANCH   4   7
ATOM      7  O   UNL d   1      -0.655  -2.799  -2.611  0.00  0.00    -0.526 OA
ATOM      8  H5  UNL d   1       0.110  -3.257  -2.998  0.00  0.00     0.418 HD
ENDBRANCH   4   7
TORSDOF 1
ENDMDL
