MODEL 1
REMARK minimizedAffinity -3.26634812
REMARK minimizedRMSD -1
REMARK  0 active torsions:
REMARK  status: ('A' for Active; 'I' for Inactive)
ROOT
ATOM      1  C   UNL d   1       1.617   0.440  -3.641  0.00  0.00     0.172 C 
ATOM      2  N   UNL d   1       0.969   0.006  -2.426  0.00  0.00    -0.070 N 
ATOM      3  C1  UNL d   1       0.649   0.806  -1.361  0.00  0.00    -0.004 A 
ATOM      4  C2  UNL d   1       0.045   0.017  -0.406  0.00  0.00    -0.047 A 
ATOM      5  C3  UNL d   1       0.001  -1.303  -0.914  0.00  0.00    -0.047 A 
ATOM      6  C4  UNL d   1       0.579  -1.282  -2.166  0.00  0.00    -0.004 A 
ENDROOT
TORSDOF 0
ENDMDL
