MODEL 1
REMARK minimizedAffinity -2.66536427
REMARK minimizedRMSD -1
REMARK  0 active torsions:
REMARK  status: ('A' for Active; 'I' for Inactive)
ROOT
ATOM      1  C   UNL d   1       1.217   0.277  -2.433  0.00  0.00     0.172 C 
ATOM      2  N   UNL d   1       0.432   0.149  -1.227  0.00  0.00    -0.070 N 
ATOM      3  C1  UNL d   1       0.088  -1.028  -0.619  0.00  0.00    -0.004 A 
ATOM      4  C2  UNL d   1      -0.658  -0.724   0.499  0.00  0.00    -0.047 A 
ATOM      5  C3  UNL d   1      -0.767   0.685   0.565  0.00  0.00    -0.047 A 
ATOM      6  C4  UNL d   1      -0.083   1.201  -0.516  0.00  0.00    -0.004 A 
ENDROOT
TORSDOF 0
ENDMDL
