MODEL 1
REMARK minimizedAffinity -3.36340809
REMARK minimizedRMSD -1
REMARK  0 active torsions:
REMARK  status: ('A' for Active; 'I' for Inactive)
ROOT
ATOM      1  C   UNL d   1      -0.737   0.235  -0.081  0.00  0.00     0.172 C 
ATOM      2  N   UNL d   1      -0.071   0.217  -1.362  0.00  0.00    -0.070 N 
ATOM      3  C1  UNL d   1       0.762  -0.770  -1.815  0.00  0.00    -0.004 A 
ATOM      4  C2  UNL d   1       1.190  -0.416  -3.076  0.00  0.00    -0.047 A 
ATOM      5  C3  UNL d   1       0.594   0.828  -3.391  0.00  0.00    -0.047 A 
ATOM      6  C4  UNL d   1      -0.182   1.197  -2.313  0.00  0.00    -0.004 A 
ENDROOT
TORSDOF 0
ENDMDL
