MODEL 1
REMARK minimizedAffinity -2.8600328
REMARK minimizedRMSD -1
REMARK  0 active torsions:
REMARK  status: ('A' for Active; 'I' for Inactive)
ROOT
ATOM      1  C   UNL d   1      -1.081   1.307   2.902  0.00  0.00     0.172 C 
ATOM      2  N   UNL d   1      -0.684   0.881   1.581  0.00  0.00    -0.070 N 
ATOM      3  C1  UNL d   1       0.602   0.658   1.167  0.00  0.00    -0.004 A 
ATOM      4  C2  UNL d   1       0.559   0.265  -0.154  0.00  0.00    -0.047 A 
ATOM      5  C3  UNL d   1      -0.800   0.253  -0.547  0.00  0.00    -0.047 A 
ATOM      6  C4  UNL d   1      -1.548   0.638   0.546  0.00  0.00    -0.004 A 
ENDROOT
TORSDOF 0
ENDMDL
