MODEL 1
REMARK minimizedAffinity -3.75893831
REMARK minimizedRMSD -1
REMARK  0 active torsions:
REMARK  status: ('A' for Active; 'I' for Inactive)
ROOT
ATOM      1  C   UNL d   1       0.968  -1.368   0.036  0.00  0.00     0.172 C 
ATOM      2  N   UNL d   1       0.140  -0.213   0.292  0.00  0.00    -0.070 N 
ATOM      3  C1  UNL d   1       0.169   0.962  -0.411  0.00  0.00    -0.004 A 
ATOM      4  C2  UNL d   1      -0.769   1.808   0.141  0.00  0.00    -0.047 A 
ATOM      5  C3  UNL d   1      -1.382   1.117   1.214  0.00  0.00    -0.047 A 
ATOM      6  C4  UNL d   1      -0.801  -0.131   1.284  0.00  0.00    -0.004 A 
ENDROOT
TORSDOF 0
ENDMDL
