MODEL 1
REMARK minimizedAffinity -3.30420732
REMARK minimizedRMSD -1
REMARK  0 active torsions:
REMARK  status: ('A' for Active; 'I' for Inactive)
ROOT
ATOM      1  C   UNL d   1      -1.406   0.690   2.278  0.00  0.00     0.172 C 
ATOM      2  N   UNL d   1      -0.705  -0.173   1.357  0.00  0.00    -0.070 N 
ATOM      3  C1  UNL d   1       0.624  -0.498   1.421  0.00  0.00    -0.004 A 
ATOM      4  C2  UNL d   1       0.904  -1.341   0.367  0.00  0.00    -0.047 A 
ATOM      5  C3  UNL d   1      -0.298  -1.528  -0.356  0.00  0.00    -0.047 A 
ATOM      6  C4  UNL d   1      -1.278  -0.794   0.278  0.00  0.00    -0.004 A 
ENDROOT
TORSDOF 0
ENDMDL
