MODEL 1
REMARK minimizedAffinity -1.15423298
REMARK minimizedRMSD -1
REMARK  0 active torsions:
REMARK  status: ('A' for Active; 'I' for Inactive)
ROOT
ATOM      1  C   UNL d   1       0.376  -0.309  -1.192  0.00  0.00     0.172 C 
ATOM      2  N   UNL d   1      -0.321   0.090   0.009  0.00  0.00    -0.070 N 
ATOM      3  C1  UNL d   1      -1.447   0.867   0.057  0.00  0.00    -0.004 A 
ATOM      4  C2  UNL d   1      -1.799   1.018   1.381  0.00  0.00    -0.047 A 
ATOM      5  C3  UNL d   1      -0.851   0.307   2.155  0.00  0.00    -0.047 A 
ATOM      6  C4  UNL d   1       0.052  -0.258   1.280  0.00  0.00    -0.004 A 
ENDROOT
TORSDOF 0
ENDMDL
