MODEL 1
REMARK minimizedAffinity -1.48476779
REMARK minimizedRMSD -1
REMARK  0 active torsions:
REMARK  status: ('A' for Active; 'I' for Inactive)
ROOT
ATOM      1  C   UNL d   1       0.609  -0.040  -3.116  0.00  0.00     0.172 C 
ATOM      2  N   UNL d   1       0.382   0.078  -1.694  0.00  0.00    -0.070 N 
ATOM      3  C1  UNL d   1       1.065  -0.597  -0.718  0.00  0.00    -0.004 A 
ATOM      4  C2  UNL d   1       0.552  -0.209   0.501  0.00  0.00    -0.047 A 
ATOM      5  C3  UNL d   1      -0.474   0.732   0.248  0.00  0.00    -0.047 A 
ATOM      6  C4  UNL d   1      -0.559   0.890  -1.119  0.00  0.00    -0.004 A 
ENDROOT
TORSDOF 0
ENDMDL
