MODEL 1
REMARK minimizedAffinity 9.28860188
REMARK minimizedRMSD -1
REMARK  0 active torsions:
REMARK  status: ('A' for Active; 'I' for Inactive)
ROOT
ATOM      1  C1  DEN d   1      -4.497  -1.497   2.165  0.00  0.00     0.130 A 
ATOM      2  C2  DEN d   1      -3.191  -0.885   2.390  0.00  0.00    -0.031 A 
ATOM      3  C3  DEN d   1      -2.717  -0.335   1.103  0.00  0.00     0.027 A 
ATOM      4  C4  DEN d   1      -3.876  -0.368  -1.201  0.00  0.00     0.027 A 
ATOM      5  C5  DEN d   1      -4.994  -0.786  -1.889  0.00  0.00    -0.003 A 
ATOM      6  C6  DEN d   1      -6.000  -1.494  -1.287  0.00  0.00     0.001 A 
ATOM      7  C7  DEN d   1      -5.930  -1.766   0.054  0.00  0.00     0.017 A 
ATOM      8  C8  DEN d   1      -4.803  -1.355   0.753  0.00  0.00    -0.094 A 
ATOM      9  C9  DEN d   1      -3.802  -0.630   0.129  0.00  0.00    -0.072 A 
ENDROOT
TORSDOF 0
ENDMDL
