MODEL 1
REMARK minimizedAffinity 8.1681366
REMARK minimizedRMSD -1
REMARK  0 active torsions:
REMARK  status: ('A' for Active; 'I' for Inactive)
ROOT
ATOM      1  C1  DEN d   1      -2.440   0.455   1.148  0.00  0.00     0.130 A 
ATOM      2  C2  DEN d   1      -3.426  -0.618   1.047  0.00  0.00    -0.031 A 
ATOM      3  C3  DEN d   1      -3.405  -1.377   2.314  0.00  0.00     0.027 A 
ATOM      4  C4  DEN d   1      -1.954  -0.993   4.412  0.00  0.00     0.027 A 
ATOM      5  C5  DEN d   1      -0.964  -0.211   4.964  0.00  0.00    -0.003 A 
ATOM      6  C6  DEN d   1      -0.377   0.818   4.276  0.00  0.00     0.001 A 
ATOM      7  C7  DEN d   1      -0.808   1.122   3.011  0.00  0.00     0.017 A 
ATOM      8  C8  DEN d   1      -1.801   0.333   2.445  0.00  0.00    -0.094 A 
ATOM      9  C9  DEN d   1      -2.390  -0.695   3.162  0.00  0.00    -0.072 A 
ENDROOT
TORSDOF 0
ENDMDL
