MODEL 1
REMARK minimizedAffinity 16.4233055
REMARK minimizedRMSD -1
REMARK  0 active torsions:
REMARK  status: ('A' for Active; 'I' for Inactive)
ROOT
ATOM      1  C1  DEN d   1       5.973   5.798   0.854  0.00  0.00     0.130 A 
ATOM      2  C2  DEN d   1       5.921   5.966   2.304  0.00  0.00    -0.031 A 
ATOM      3  C3  DEN d   1       5.906   4.623   2.919  0.00  0.00     0.027 A 
ATOM      4  C4  DEN d   1       5.962   2.313   1.772  0.00  0.00     0.027 A 
ATOM      5  C5  DEN d   1       5.998   1.663   0.558  0.00  0.00    -0.003 A 
ATOM      6  C6  DEN d   1       5.993   2.339  -0.633  0.00  0.00     0.001 A 
ATOM      7  C7  DEN d   1       5.998   3.709  -0.635  0.00  0.00     0.017 A 
ATOM      8  C8  DEN d   1       5.955   4.372   0.584  0.00  0.00    -0.094 A 
ATOM      9  C9  DEN d   1       5.972   3.670   1.778  0.00  0.00    -0.072 A 
ENDROOT
TORSDOF 0
ENDMDL
