MODEL 1
REMARK minimizedAffinity 10.9463749
REMARK minimizedRMSD -1
REMARK  0 active torsions:
REMARK  status: ('A' for Active; 'I' for Inactive)
ROOT
ATOM      1  C1  DEN d   1      -4.445  -0.380   1.682  0.00  0.00     0.130 A 
ATOM      2  C2  DEN d   1      -3.001  -0.195   1.800  0.00  0.00    -0.031 A 
ATOM      3  C3  DEN d   1      -2.425  -0.221   0.441  0.00  0.00     0.027 A 
ATOM      4  C4  DEN d   1      -3.621  -0.525  -1.823  0.00  0.00     0.027 A 
ATOM      5  C5  DEN d   1      -4.841  -0.729  -2.430  0.00  0.00    -0.003 A 
ATOM      6  C6  DEN d   1      -6.000  -0.864  -1.712  0.00  0.00     0.001 A 
ATOM      7  C7  DEN d   1      -5.970  -0.752  -0.348  0.00  0.00     0.017 A 
ATOM      8  C8  DEN d   1      -4.743  -0.553   0.272  0.00  0.00    -0.094 A 
ATOM      9  C9  DEN d   1      -3.585  -0.407  -0.472  0.00  0.00    -0.072 A 
ENDROOT
TORSDOF 0
ENDMDL
