MODEL 1
REMARK minimizedAffinity 11.1686459
REMARK minimizedRMSD -1
REMARK  0 active torsions:
REMARK  status: ('A' for Active; 'I' for Inactive)
ROOT
ATOM      1  C1  DEN d   1      -1.394  -3.988  -0.245  0.00  0.00     0.130 A 
ATOM      2  C2  DEN d   1      -1.237  -5.146   0.631  0.00  0.00    -0.031 A 
ATOM      3  C3  DEN d   1      -1.542  -4.719   2.012  0.00  0.00     0.027 A 
ATOM      4  C4  DEN d   1      -2.243  -2.391   2.873  0.00  0.00     0.027 A 
ATOM      5  C5  DEN d   1      -2.498  -1.088   2.505  0.00  0.00    -0.003 A 
ATOM      6  C6  DEN d   1      -2.371  -0.656   1.212  0.00  0.00     0.001 A 
ATOM      7  C7  DEN d   1      -2.022  -1.546   0.230  0.00  0.00     0.017 A 
ATOM      8  C8  DEN d   1      -1.756  -2.859   0.594  0.00  0.00    -0.094 A 
ATOM      9  C9  DEN d   1      -1.902  -3.280   1.905  0.00  0.00    -0.072 A 
ENDROOT
TORSDOF 0
ENDMDL
