MODEL 1
REMARK minimizedAffinity -0.429668248
REMARK minimizedRMSD -1
REMARK  0 active torsions:
REMARK  status: ('A' for Active; 'I' for Inactive)
ROOT
ATOM      1  C1  DEN d   1      -2.352   0.345   2.778  0.00  0.00     0.130 A 
ATOM      2  C2  DEN d   1      -1.594   1.337   3.535  0.00  0.00    -0.031 A 
ATOM      3  C3  DEN d   1      -0.391   1.687   2.753  0.00  0.00     0.027 A 
ATOM      4  C4  DEN d   1       0.365   0.797   0.453  0.00  0.00     0.027 A 
ATOM      5  C5  DEN d   1       0.053  -0.067  -0.574  0.00  0.00    -0.003 A 
ATOM      6  C6  DEN d   1      -1.054  -0.872  -0.540  0.00  0.00     0.001 A 
ATOM      7  C7  DEN d   1      -1.916  -0.797   0.522  0.00  0.00     0.017 A 
ATOM      8  C8  DEN d   1      -1.605   0.066   1.565  0.00  0.00    -0.094 A 
ATOM      9  C9  DEN d   1      -0.487   0.880   1.507  0.00  0.00    -0.072 A 
ENDROOT
TORSDOF 0
ENDMDL
