MODEL 1
REMARK minimizedAffinity 4.36810541
REMARK minimizedRMSD -1
REMARK  0 active torsions:
REMARK  status: ('A' for Active; 'I' for Inactive)
ROOT
ATOM      1  C1  DEN d   1      -2.173  -3.812   1.141  0.00  0.00     0.130 A 
ATOM      2  C2  DEN d   1      -1.248  -4.039   0.034  0.00  0.00    -0.031 A 
ATOM      3  C3  DEN d   1      -1.344  -2.888  -0.886  0.00  0.00     0.027 A 
ATOM      4  C4  DEN d   1      -2.824  -0.784  -0.702  0.00  0.00     0.027 A 
ATOM      5  C5  DEN d   1      -3.783  -0.148   0.056  0.00  0.00    -0.003 A 
ATOM      6  C6  DEN d   1      -4.292  -0.701   1.201  0.00  0.00     0.001 A 
ATOM      7  C7  DEN d   1      -3.813  -1.904   1.646  0.00  0.00     0.017 A 
ATOM      8  C8  DEN d   1      -2.852  -2.554   0.883  0.00  0.00    -0.094 A 
ATOM      9  C9  DEN d   1      -2.340  -1.974  -0.265  0.00  0.00    -0.072 A 
ENDROOT
TORSDOF 0
ENDMDL
