MODEL 1
REMARK minimizedAffinity 11.2350245
REMARK minimizedRMSD -1
REMARK  0 active torsions:
REMARK  status: ('A' for Active; 'I' for Inactive)
ROOT
ATOM      1  C1  DEN d   1       3.767  -0.653  -3.040  0.00  0.00     0.130 A 
ATOM      2  C2  DEN d   1       3.004  -1.866  -3.324  0.00  0.00    -0.031 A 
ATOM      3  C3  DEN d   1       2.173  -2.170  -2.142  0.00  0.00     0.027 A 
ATOM      4  C4  DEN d   1       1.991  -0.886   0.087  0.00  0.00     0.027 A 
ATOM      5  C5  DEN d   1       2.454   0.198   0.799  0.00  0.00    -0.003 A 
ATOM      6  C6  DEN d   1       3.405   1.048   0.299  0.00  0.00     0.001 A 
ATOM      7  C7  DEN d   1       3.890   0.854  -0.967  0.00  0.00     0.017 A 
ATOM      8  C8  DEN d   1       3.433  -0.241  -1.689  0.00  0.00    -0.094 A 
ATOM      9  C9  DEN d   1       2.463  -1.082  -1.170  0.00  0.00    -0.072 A 
ENDROOT
TORSDOF 0
ENDMDL
