MODEL 1
REMARK minimizedAffinity 4.96447229
REMARK minimizedRMSD -1
REMARK  0 active torsions:
REMARK  status: ('A' for Active; 'I' for Inactive)
ROOT
ATOM      1  C1  DEN d   1      -2.247  -5.976   2.310  0.00  0.00     0.130 A 
ATOM      2  C2  DEN d   1      -1.151  -5.956   1.345  0.00  0.00    -0.031 A 
ATOM      3  C3  DEN d   1       0.120  -5.955   2.097  0.00  0.00     0.027 A 
ATOM      4  C4  DEN d   1       0.495  -5.989   4.649  0.00  0.00     0.027 A 
ATOM      5  C5  DEN d   1      -0.132  -5.999   5.875  0.00  0.00    -0.003 A 
ATOM      6  C6  DEN d   1      -1.496  -5.968   5.999  0.00  0.00     0.001 A 
ATOM      7  C7  DEN d   1      -2.279  -5.971   4.875  0.00  0.00     0.017 A 
ATOM      8  C8  DEN d   1      -1.655  -5.954   3.635  0.00  0.00    -0.094 A 
ATOM      9  C9  DEN d   1      -0.275  -5.998   3.531  0.00  0.00    -0.072 A 
ENDROOT
TORSDOF 0
ENDMDL
