MODEL 1
REMARK minimizedAffinity -4.30864143
REMARK minimizedRMSD -1
REMARK  0 active torsions:
REMARK  status: ('A' for Active; 'I' for Inactive)
ROOT
ATOM      1  C1  DEN d   1      -3.757   5.925   5.331  0.00  0.00     0.130 A 
ATOM      2  C2  DEN d   1      -5.168   5.872   5.703  0.00  0.00    -0.031 A 
ATOM      3  C3  DEN d   1      -5.967   5.837   4.461  0.00  0.00     0.027 A 
ATOM      4  C4  DEN d   1      -5.159   5.854   2.012  0.00  0.00     0.027 A 
ATOM      5  C5  DEN d   1      -4.051   5.904   1.196  0.00  0.00    -0.003 A 
ATOM      6  C6  DEN d   1      -2.779   5.999   1.696  0.00  0.00     0.001 A 
ATOM      7  C7  DEN d   1      -2.582   6.000   3.052  0.00  0.00     0.017 A 
ATOM      8  C8  DEN d   1      -3.695   5.957   3.881  0.00  0.00    -0.094 A 
ATOM      9  C9  DEN d   1      -4.971   5.850   3.356  0.00  0.00    -0.072 A 
ENDROOT
TORSDOF 0
ENDMDL
