MODEL 1
REMARK minimizedAffinity -2.28290534
REMARK minimizedRMSD -1
REMARK  0 active torsions:
REMARK  status: ('A' for Active; 'I' for Inactive)
ROOT
ATOM      1  C   UNL d   1       2.828   0.266   1.880  0.00  0.00     0.078 C 
ATOM      2  C1  UNL d   1       2.203  -1.051   2.231  0.00  0.00    -0.077 A 
ATOM      3  C2  UNL d   1       2.359  -1.606   3.507  0.00  0.00    -0.001 A 
ATOM      4  C3  UNL d   1       1.780  -2.838   3.816  0.00  0.00     0.003 A 
ATOM      5  C4  UNL d   1       1.042  -3.525   2.855  0.00  0.00    -0.005 A 
ATOM      6  C5  UNL d   1       0.883  -2.982   1.582  0.00  0.00     0.003 A 
ATOM      7  C6  UNL d   1       1.461  -1.750   1.271  0.00  0.00    -0.001 A 
ENDROOT
TORSDOF 0
ENDMDL
