MODEL 1
REMARK minimizedAffinity -1.30680323
REMARK minimizedRMSD -1
REMARK  0 active torsions:
REMARK  status: ('A' for Active; 'I' for Inactive)
ROOT
ATOM      1  C   UNL d   1       6.000  -2.622   3.908  0.00  0.00     0.078 C 
ATOM      2  C1  UNL d   1       4.553  -2.250   3.775  0.00  0.00    -0.077 A 
ATOM      3  C2  UNL d   1       4.126  -1.357   2.785  0.00  0.00    -0.001 A 
ATOM      4  C3  UNL d   1       2.778  -1.013   2.679  0.00  0.00     0.003 A 
ATOM      5  C4  UNL d   1       1.845  -1.556   3.560  0.00  0.00    -0.005 A 
ATOM      6  C5  UNL d   1       2.261  -2.444   4.550  0.00  0.00     0.003 A 
ATOM      7  C6  UNL d   1       3.609  -2.789   4.658  0.00  0.00    -0.001 A 
ENDROOT
TORSDOF 0
ENDMDL
