MODEL 1
REMARK minimizedAffinity -2.08403492
REMARK minimizedRMSD -1
REMARK  0 active torsions:
REMARK  status: ('A' for Active; 'I' for Inactive)
ROOT
ATOM      1  C   UNL d   1       5.871  -2.494   5.989  0.00  0.00     0.078 C 
ATOM      2  C1  UNL d   1       4.620  -2.149   5.238  0.00  0.00    -0.077 A 
ATOM      3  C2  UNL d   1       4.620  -2.053   3.842  0.00  0.00    -0.001 A 
ATOM      4  C3  UNL d   1       3.450  -1.721   3.156  0.00  0.00     0.003 A 
ATOM      5  C4  UNL d   1       2.272  -1.481   3.860  0.00  0.00    -0.005 A 
ATOM      6  C5  UNL d   1       2.262  -1.572   5.250  0.00  0.00     0.003 A 
ATOM      7  C6  UNL d   1       3.431  -1.903   5.937  0.00  0.00    -0.001 A 
ENDROOT
TORSDOF 0
ENDMDL
