MODEL 1
REMARK minimizedAffinity 3.16564941
REMARK minimizedRMSD -1
REMARK  0 active torsions:
REMARK  status: ('A' for Active; 'I' for Inactive)
ROOT
ATOM      1  C   UNL d   1       5.889  -2.039   4.038  0.00  0.00     0.078 C 
ATOM      2  C1  UNL d   1       4.391  -2.001   3.983  0.00  0.00    -0.077 A 
ATOM      3  C2  UNL d   1       3.724  -1.173   3.072  0.00  0.00    -0.001 A 
ATOM      4  C3  UNL d   1       2.329  -1.141   3.039  0.00  0.00     0.003 A 
ATOM      5  C4  UNL d   1       1.589  -1.934   3.914  0.00  0.00    -0.005 A 
ATOM      6  C5  UNL d   1       2.245  -2.759   4.825  0.00  0.00     0.003 A 
ATOM      7  C6  UNL d   1       3.640  -2.793   4.860  0.00  0.00    -0.001 A 
ENDROOT
TORSDOF 0
ENDMDL
