MODEL 1
REMARK minimizedAffinity 1.20905912
REMARK minimizedRMSD -1
REMARK  0 active torsions:
REMARK  status: ('A' for Active; 'I' for Inactive)
ROOT
ATOM      1  C   UNL d   1       5.999  -2.635   5.999  0.00  0.00     0.078 C 
ATOM      2  C1  UNL d   1       4.675  -2.396   5.337  0.00  0.00    -0.077 A 
ATOM      3  C2  UNL d   1       3.476  -2.686   5.999  0.00  0.00    -0.001 A 
ATOM      4  C3  UNL d   1       2.250  -2.468   5.368  0.00  0.00     0.003 A 
ATOM      5  C4  UNL d   1       2.212  -1.959   4.071  0.00  0.00    -0.005 A 
ATOM      6  C5  UNL d   1       3.401  -1.670   3.403  0.00  0.00     0.003 A 
ATOM      7  C6  UNL d   1       4.627  -1.888   4.033  0.00  0.00    -0.001 A 
ENDROOT
TORSDOF 0
ENDMDL
