MODEL 1
REMARK minimizedAffinity -1.07580423
REMARK minimizedRMSD -1
REMARK  0 active torsions:
REMARK  status: ('A' for Active; 'I' for Inactive)
ROOT
ATOM      1  C   UNL d   1       2.087  -1.886   3.750  0.00  0.00     0.078 C 
ATOM      2  C1  UNL d   1       3.454  -2.139   4.312  0.00  0.00    -0.077 A 
ATOM      3  C2  UNL d   1       4.597  -1.626   3.687  0.00  0.00    -0.001 A 
ATOM      4  C3  UNL d   1       5.864  -1.877   4.216  0.00  0.00     0.003 A 
ATOM      5  C4  UNL d   1       6.000  -2.644   5.372  0.00  0.00    -0.005 A 
ATOM      6  C5  UNL d   1       4.868  -3.160   6.000  0.00  0.00     0.003 A 
ATOM      7  C6  UNL d   1       3.601  -2.910   5.472  0.00  0.00    -0.001 A 
ENDROOT
TORSDOF 0
ENDMDL
