MODEL 1
REMARK minimizedAffinity 2.41883779
REMARK minimizedRMSD -1
REMARK  0 active torsions:
REMARK  status: ('A' for Active; 'I' for Inactive)
ROOT
ATOM      1  C   UNL d   1      -5.657  -1.397  -5.618  0.00  0.00     0.078 C 
ATOM      2  C1  UNL d   1      -5.654  -0.019  -5.027  0.00  0.00    -0.077 A 
ATOM      3  C2  UNL d   1      -5.998   0.191  -3.686  0.00  0.00    -0.001 A 
ATOM      4  C3  UNL d   1      -6.000   1.480  -3.151  0.00  0.00     0.003 A 
ATOM      5  C4  UNL d   1      -5.661   2.570  -3.951  0.00  0.00    -0.005 A 
ATOM      6  C5  UNL d   1      -5.319   2.371  -5.287  0.00  0.00     0.003 A 
ATOM      7  C6  UNL d   1      -5.316   1.082  -5.823  0.00  0.00    -0.001 A 
ENDROOT
TORSDOF 0
ENDMDL
