MODEL 1
REMARK minimizedAffinity 11.6593122
REMARK minimizedRMSD -1
REMARK  0 active torsions:
REMARK  status: ('A' for Active; 'I' for Inactive)
ROOT
ATOM      1  C   UNL d   1       5.997  -2.234   5.113  0.00  0.00     0.078 C 
ATOM      2  C1  UNL d   1       5.285  -1.825   3.858  0.00  0.00    -0.077 A 
ATOM      3  C2  UNL d   1       6.000  -1.423   2.722  0.00  0.00    -0.001 A 
ATOM      4  C3  UNL d   1       5.324  -1.036   1.564  0.00  0.00     0.003 A 
ATOM      5  C4  UNL d   1       3.931  -1.045   1.530  0.00  0.00    -0.005 A 
ATOM      6  C5  UNL d   1       3.212  -1.441   2.656  0.00  0.00     0.003 A 
ATOM      7  C6  UNL d   1       3.886  -1.829   3.815  0.00  0.00    -0.001 A 
ENDROOT
TORSDOF 0
ENDMDL
