MODEL 1
REMARK minimizedAffinity -1.43536556
REMARK minimizedRMSD -1
REMARK  0 active torsions:
REMARK  status: ('A' for Active; 'I' for Inactive)
ROOT
ATOM      1  C   UNL d   1       5.965  -2.453  -5.078  0.00  0.00     0.078 C 
ATOM      2  C1  UNL d   1       5.590  -1.003  -4.995  0.00  0.00    -0.077 A 
ATOM      3  C2  UNL d   1       4.819  -0.517  -3.932  0.00  0.00    -0.001 A 
ATOM      4  C3  UNL d   1       4.469   0.833  -3.873  0.00  0.00     0.003 A 
ATOM      5  C4  UNL d   1       4.884   1.708  -4.876  0.00  0.00    -0.005 A 
ATOM      6  C5  UNL d   1       5.649   1.233  -5.939  0.00  0.00     0.003 A 
ATOM      7  C6  UNL d   1       6.000  -0.117  -5.999  0.00  0.00    -0.001 A 
ENDROOT
TORSDOF 0
ENDMDL
