MODEL 1
REMARK minimizedAffinity 0.565688908
REMARK minimizedRMSD -1
REMARK  1 active torsions:
REMARK  status: ('A' for Active; 'I' for Inactive)
REMARK    1  A    between atoms: C1_2  and  C2_3 
ROOT
ATOM      1  C2  UNL d   1      -0.435   5.059  -1.847  0.00  0.00    -0.081 A 
ATOM      2  C3  UNL d   1      -1.345   4.056  -1.493  0.00  0.00     0.006 A 
ATOM      3  C4  UNL d   1      -1.094   3.226  -0.398  0.00  0.00     0.002 A 
ATOM      4  C5  UNL d   1       0.066   3.391   0.366  0.00  0.00    -0.080 A 
ATOM      5  C6  UNL d   1       0.333   2.526   1.563  0.00  0.00     0.076 C 
ATOM      6  C7  UNL d   1       0.984   4.382   0.003  0.00  0.00     0.002 A 
ATOM      7  C8  UNL d   1       0.734   5.211  -1.093  0.00  0.00     0.006 A 
ENDROOT
BRANCH   1   8
ATOM      8  C1  UNL d   1      -0.734   5.998  -2.988  0.00  0.00     0.054 C 
ATOM      9  C   UNL d   1       0.392   6.000  -4.012  0.00  0.00     0.018 C 
ENDBRANCH   1   8
TORSDOF 1
ENDMDL
