MODEL 1
REMARK minimizedAffinity 1.66901827
REMARK minimizedRMSD -1
REMARK  1 active torsions:
REMARK  status: ('A' for Active; 'I' for Inactive)
REMARK    1  A    between atoms: C1_2  and  C2_3 
ROOT
ATOM      1  C2  UNL d   1      -4.949   4.796  -4.041  0.00  0.00    -0.081 A 
ATOM      2  C3  UNL d   1      -4.692   4.748  -2.665  0.00  0.00     0.006 A 
ATOM      3  C4  UNL d   1      -5.042   3.620  -1.919  0.00  0.00     0.002 A 
ATOM      4  C5  UNL d   1      -5.647   2.520  -2.537  0.00  0.00    -0.080 A 
ATOM      5  C6  UNL d   1      -6.000   1.291  -1.752  0.00  0.00     0.076 C 
ATOM      6  C7  UNL d   1      -5.919   2.575  -3.908  0.00  0.00     0.002 A 
ATOM      7  C8  UNL d   1      -5.569   3.702  -4.654  0.00  0.00     0.006 A 
ENDROOT
BRANCH   1   8
ATOM      8  C1  UNL d   1      -4.514   5.984  -4.860  0.00  0.00     0.054 C 
ATOM      9  C   UNL d   1      -3.004   6.000  -5.055  0.00  0.00     0.018 C 
ENDBRANCH   1   8
TORSDOF 1
ENDMDL
