MODEL 1
REMARK minimizedAffinity 6.60658836
REMARK minimizedRMSD -1
REMARK  1 active torsions:
REMARK  status: ('A' for Active; 'I' for Inactive)
REMARK    1  A    between atoms: C1_2  and  C2_3 
ROOT
ATOM      1  C2  UNL d   1       0.599   2.894   1.794  0.00  0.00    -0.081 A 
ATOM      2  C3  UNL d   1      -0.789   2.933   1.609  0.00  0.00     0.006 A 
ATOM      3  C4  UNL d   1      -1.330   3.384   0.403  0.00  0.00     0.002 A 
ATOM      4  C5  UNL d   1      -0.493   3.795  -0.640  0.00  0.00    -0.080 A 
ATOM      5  C6  UNL d   1      -1.061   4.252  -1.951  0.00  0.00     0.076 C 
ATOM      6  C7  UNL d   1       0.892   3.773  -0.449  0.00  0.00     0.002 A 
ATOM      7  C8  UNL d   1       1.434   3.323   0.757  0.00  0.00     0.006 A 
ENDROOT
BRANCH   1   8
ATOM      8  C1  UNL d   1       1.187   2.348   3.070  0.00  0.00     0.054 C 
ATOM      9  C   UNL d   1       2.674   2.656   3.171  0.00  0.00     0.018 C 
ENDBRANCH   1   8
TORSDOF 1
ENDMDL
