MODEL 1
REMARK minimizedAffinity 2.84055853
REMARK minimizedRMSD -1
REMARK  1 active torsions:
REMARK  status: ('A' for Active; 'I' for Inactive)
REMARK    1  A    between atoms: C1_2  and  C2_3 
ROOT
ATOM      1  C2  UNL d   1       0.947   2.719   2.248  0.00  0.00    -0.081 A 
ATOM      2  C3  UNL d   1       2.169   2.068   2.456  0.00  0.00     0.006 A 
ATOM      3  C4  UNL d   1       2.213   0.839   3.119  0.00  0.00     0.002 A 
ATOM      4  C5  UNL d   1       1.036   0.237   3.577  0.00  0.00    -0.080 A 
ATOM      5  C6  UNL d   1       1.067  -1.096   4.263  0.00  0.00     0.076 C 
ATOM      6  C7  UNL d   1      -0.183   0.895   3.385  0.00  0.00     0.002 A 
ATOM      7  C8  UNL d   1      -0.228   2.124   2.723  0.00  0.00     0.006 A 
ENDROOT
BRANCH   1   8
ATOM      8  C1  UNL d   1       0.889   4.013   1.477  0.00  0.00     0.054 C 
ATOM      9  C   UNL d   1       0.416   3.785   0.049  0.00  0.00     0.018 C 
ENDBRANCH   1   8
TORSDOF 1
ENDMDL
