MODEL 1
REMARK minimizedAffinity 2.05469894
REMARK minimizedRMSD -1
REMARK  1 active torsions:
REMARK  status: ('A' for Active; 'I' for Inactive)
REMARK    1  A    between atoms: C1_2  and  C2_3 
ROOT
ATOM      1  C2  UNL d   1      -5.770   1.933  -4.455  0.00  0.00    -0.081 A 
ATOM      2  C3  UNL d   1      -5.274   3.114  -5.022  0.00  0.00     0.006 A 
ATOM      3  C4  UNL d   1      -5.005   4.226  -4.220  0.00  0.00     0.002 A 
ATOM      4  C5  UNL d   1      -5.219   4.173  -2.838  0.00  0.00    -0.080 A 
ATOM      5  C6  UNL d   1      -4.905   5.349  -1.962  0.00  0.00     0.076 C 
ATOM      6  C7  UNL d   1      -5.730   2.999  -2.274  0.00  0.00     0.002 A 
ATOM      7  C8  UNL d   1      -6.000   1.887  -3.076  0.00  0.00     0.006 A 
ENDROOT
BRANCH   1   8
ATOM      8  C1  UNL d   1      -6.000   0.712  -5.308  0.00  0.00     0.054 C 
ATOM      9  C   UNL d   1      -4.711   0.252  -5.975  0.00  0.00     0.018 C 
ENDBRANCH   1   8
TORSDOF 1
ENDMDL
