MODEL 1
REMARK minimizedAffinity 4.19572258
REMARK minimizedRMSD -1
REMARK  1 active torsions:
REMARK  status: ('A' for Active; 'I' for Inactive)
REMARK    1  A    between atoms: C1_2  and  C2_3 
ROOT
ATOM      1  C2  UNL d   1      -0.551   3.704   1.077  0.00  0.00    -0.081 A 
ATOM      2  C3  UNL d   1      -0.742   5.091   1.118  0.00  0.00     0.006 A 
ATOM      3  C4  UNL d   1      -0.757   5.839  -0.062  0.00  0.00     0.002 A 
ATOM      4  C5  UNL d   1      -0.589   5.212  -1.302  0.00  0.00    -0.080 A 
ATOM      5  C6  UNL d   1      -0.633   6.000  -2.578  0.00  0.00     0.076 C 
ATOM      6  C7  UNL d   1      -0.380   3.830  -1.341  0.00  0.00     0.002 A 
ATOM      7  C8  UNL d   1      -0.364   3.082  -0.162  0.00  0.00     0.006 A 
ENDROOT
BRANCH   1   8
ATOM      8  C1  UNL d   1      -0.599   2.886   2.342  0.00  0.00     0.054 C 
ATOM      9  C   UNL d   1       0.754   2.259   2.647  0.00  0.00     0.018 C 
ENDBRANCH   1   8
TORSDOF 1
ENDMDL
