MODEL 1
REMARK minimizedAffinity 4.84708023
REMARK minimizedRMSD -1
REMARK  1 active torsions:
REMARK  status: ('A' for Active; 'I' for Inactive)
REMARK    1  A    between atoms: C1_2  and  C2_3 
ROOT
ATOM      1  C2  UNL d   1      -0.846   5.095  -2.247  0.00  0.00    -0.081 A 
ATOM      2  C3  UNL d   1      -1.433   5.366  -1.006  0.00  0.00     0.006 A 
ATOM      3  C4  UNL d   1      -1.154   4.561   0.101  0.00  0.00     0.002 A 
ATOM      4  C5  UNL d   1      -0.278   3.477  -0.013  0.00  0.00    -0.080 A 
ATOM      5  C6  UNL d   1       0.054   2.622   1.174  0.00  0.00     0.076 C 
ATOM      6  C7  UNL d   1       0.296   3.195  -1.258  0.00  0.00     0.002 A 
ATOM      7  C8  UNL d   1       0.016   3.999  -2.365  0.00  0.00     0.006 A 
ENDROOT
BRANCH   1   8
ATOM      8  C1  UNL d   1      -1.095   6.000  -3.427  0.00  0.00     0.054 C 
ATOM      9  C   UNL d   1       0.089   5.999  -4.384  0.00  0.00     0.018 C 
ENDBRANCH   1   8
TORSDOF 1
ENDMDL
