MODEL 1
REMARK minimizedAffinity 12.794569
REMARK minimizedRMSD -1
REMARK  1 active torsions:
REMARK  status: ('A' for Active; 'I' for Inactive)
REMARK    1  A    between atoms: C1_2  and  C2_3 
ROOT
ATOM      1  C2  UNL d   1      -0.101   4.029  -0.647  0.00  0.00    -0.081 A 
ATOM      2  C3  UNL d   1      -0.705   3.198   0.304  0.00  0.00     0.006 A 
ATOM      3  C4  UNL d   1      -0.010   2.814   1.453  0.00  0.00     0.002 A 
ATOM      4  C5  UNL d   1       1.298   3.260   1.674  0.00  0.00    -0.080 A 
ATOM      5  C6  UNL d   1       2.045   2.879   2.918  0.00  0.00     0.076 C 
ATOM      6  C7  UNL d   1       1.908   4.076   0.715  0.00  0.00     0.002 A 
ATOM      7  C8  UNL d   1       1.213   4.460  -0.434  0.00  0.00     0.006 A 
ENDROOT
BRANCH   1   8
ATOM      8  C1  UNL d   1      -0.871   4.498  -1.855  0.00  0.00     0.054 C 
ATOM      9  C   UNL d   1      -1.120   5.999  -1.804  0.00  0.00     0.018 C 
ENDBRANCH   1   8
TORSDOF 1
ENDMDL
