MODEL 1
REMARK minimizedAffinity -0.539357483
REMARK minimizedRMSD -1
REMARK  1 active torsions:
REMARK  status: ('A' for Active; 'I' for Inactive)
REMARK    1  A    between atoms: C1_2  and  C2_3 
ROOT
ATOM      1  C2  UNL d   1      -0.708   1.927  -1.106  0.00  0.00    -0.081 A 
ATOM      2  C3  UNL d   1      -0.613   2.892  -2.116  0.00  0.00     0.006 A 
ATOM      3  C4  UNL d   1       0.035   4.106  -1.878  0.00  0.00     0.002 A 
ATOM      4  C5  UNL d   1       0.606   4.372  -0.629  0.00  0.00    -0.080 A 
ATOM      5  C6  UNL d   1       1.331   5.659  -0.368  0.00  0.00     0.076 C 
ATOM      6  C7  UNL d   1       0.496   3.415   0.386  0.00  0.00     0.002 A 
ATOM      7  C8  UNL d   1      -0.153   2.202   0.148  0.00  0.00     0.006 A 
ENDROOT
BRANCH   1   8
ATOM      8  C1  UNL d   1      -1.351   0.591  -1.380  0.00  0.00     0.054 C 
ATOM      9  C   UNL d   1      -0.550  -0.545  -0.760  0.00  0.00     0.018 C 
ENDBRANCH   1   8
TORSDOF 1
ENDMDL
