MODEL 1
REMARK minimizedAffinity 6.01550627
REMARK minimizedRMSD -1
REMARK  0 active torsions:
REMARK  status: ('A' for Active; 'I' for Inactive)
ROOT
ATOM      1  C   UNL d   1       5.995  -0.722  -1.331  0.00  0.00     0.023 A 
ATOM      2  C1  UNL d   1       5.997   0.653  -1.568  0.00  0.00     0.003 A 
ATOM      3  C2  UNL d   1       5.997   1.547  -0.496  0.00  0.00     0.048 A 
ATOM      4  C3  UNL d   1       5.997   1.060   0.811  0.00  0.00     0.023 A 
ATOM      5  C4  UNL d   1       5.996  -0.315   1.053  0.00  0.00     0.048 A 
ATOM      6  C5  UNL d   1       5.995  -1.205  -0.023  0.00  0.00     0.003 A 
ATOM      7  I   UNL d   1       5.999   2.390   2.408  0.00  0.00    -0.146 I 
ENDROOT
TORSDOF 0
ENDMDL
