MODEL 1
REMARK minimizedAffinity 5.08509827
REMARK minimizedRMSD -1
REMARK  0 active torsions:
REMARK  status: ('A' for Active; 'I' for Inactive)
ROOT
ATOM      1  C   UNL d   1       2.935  -3.346   0.736  0.00  0.00     0.023 A 
ATOM      2  C1  UNL d   1       2.512  -2.153   0.150  0.00  0.00     0.003 A 
ATOM      3  C2  UNL d   1       1.463  -1.427   0.719  0.00  0.00     0.048 A 
ATOM      4  C3  UNL d   1       0.843  -1.900   1.875  0.00  0.00     0.023 A 
ATOM      5  C4  UNL d   1       1.263  -3.093   2.465  0.00  0.00     0.048 A 
ATOM      6  C5  UNL d   1       2.311  -3.815   1.892  0.00  0.00     0.003 A 
ATOM      7  I   UNL d   1      -0.718  -0.822   2.724  0.00  0.00    -0.146 I 
ENDROOT
TORSDOF 0
ENDMDL
