MODEL 1
REMARK minimizedAffinity 7.54264116
REMARK minimizedRMSD -1
REMARK  0 active torsions:
REMARK  status: ('A' for Active; 'I' for Inactive)
ROOT
ATOM      1  C   UNL d   1      -1.527  -0.786   3.187  0.00  0.00     0.023 A 
ATOM      2  C1  UNL d   1      -0.298  -0.964   3.823  0.00  0.00     0.003 A 
ATOM      3  C2  UNL d   1       0.697  -1.735   3.218  0.00  0.00     0.048 A 
ATOM      4  C3  UNL d   1       0.456  -2.325   1.978  0.00  0.00     0.023 A 
ATOM      5  C4  UNL d   1      -0.771  -2.149   1.338  0.00  0.00     0.048 A 
ATOM      6  C5  UNL d   1      -1.763  -1.378   1.946  0.00  0.00     0.003 A 
ATOM      7  I   UNL d   1       1.936  -3.474   1.077  0.00  0.00    -0.146 I 
ENDROOT
TORSDOF 0
ENDMDL
