MODEL 1
REMARK minimizedAffinity 7.92777586
REMARK minimizedRMSD -1
REMARK  0 active torsions:
REMARK  status: ('A' for Active; 'I' for Inactive)
ROOT
ATOM      1  C   UNL d   1       2.596  -2.795   2.239  0.00  0.00     0.023 A 
ATOM      2  C1  UNL d   1       3.233  -2.174   1.165  0.00  0.00     0.003 A 
ATOM      3  C2  UNL d   1       2.476  -1.585   0.150  0.00  0.00     0.048 A 
ATOM      4  C3  UNL d   1       1.084  -1.619   0.216  0.00  0.00     0.023 A 
ATOM      5  C4  UNL d   1       0.443  -2.239   1.291  0.00  0.00     0.048 A 
ATOM      6  C5  UNL d   1       1.203  -2.827   2.302  0.00  0.00     0.003 A 
ATOM      7  I   UNL d   1      -0.045  -0.742  -1.293  0.00  0.00    -0.146 I 
ENDROOT
TORSDOF 0
ENDMDL
