MODEL 1
REMARK minimizedAffinity 4.28114653
REMARK minimizedRMSD -1
REMARK  0 active torsions:
REMARK  status: ('A' for Active; 'I' for Inactive)
ROOT
ATOM      1  C   UNL d   1       4.038   3.077   2.825  0.00  0.00     0.023 A 
ATOM      2  C1  UNL d   1       3.215   2.349   1.966  0.00  0.00     0.003 A 
ATOM      3  C2  UNL d   1       3.776   1.469   1.039  0.00  0.00     0.048 A 
ATOM      4  C3  UNL d   1       5.161   1.320   0.976  0.00  0.00     0.023 A 
ATOM      5  C4  UNL d   1       5.989   2.046   1.834  0.00  0.00     0.048 A 
ATOM      6  C5  UNL d   1       5.424   2.926   2.759  0.00  0.00     0.003 A 
ATOM      7  I   UNL d   1       5.997   0.010  -0.403  0.00  0.00    -0.146 I 
ENDROOT
TORSDOF 0
ENDMDL
