MODEL 1
REMARK minimizedAffinity 0.178511307
REMARK minimizedRMSD -1
REMARK  0 active torsions:
REMARK  status: ('A' for Active; 'I' for Inactive)
ROOT
ATOM      1  C   UNL d   1      -3.215   0.075   2.542  0.00  0.00     0.023 A 
ATOM      2  C1  UNL d   1      -2.275  -0.018   3.568  0.00  0.00     0.003 A 
ATOM      3  C2  UNL d   1      -1.072  -0.695   3.356  0.00  0.00     0.048 A 
ATOM      4  C3  UNL d   1      -0.814  -1.274   2.114  0.00  0.00     0.023 A 
ATOM      5  C4  UNL d   1      -1.752  -1.183   1.084  0.00  0.00     0.048 A 
ATOM      6  C5  UNL d   1      -2.954  -0.506   1.301  0.00  0.00     0.003 A 
ATOM      7  I   UNL d   1       0.976  -2.281   1.795  0.00  0.00    -0.146 I 
ENDROOT
TORSDOF 0
ENDMDL
