MODEL 1
REMARK minimizedAffinity 10.091197
REMARK minimizedRMSD -1
REMARK  0 active torsions:
REMARK  status: ('A' for Active; 'I' for Inactive)
ROOT
ATOM      1  C   UNL d   1       2.236  -2.813   1.551  0.00  0.00     0.023 A 
ATOM      2  C1  UNL d   1       2.129  -2.685   2.936  0.00  0.00     0.003 A 
ATOM      3  C2  UNL d   1       1.034  -2.022   3.495  0.00  0.00     0.048 A 
ATOM      4  C3  UNL d   1       0.050  -1.490   2.662  0.00  0.00     0.023 A 
ATOM      5  C4  UNL d   1       0.153  -1.616   1.276  0.00  0.00     0.048 A 
ATOM      6  C5  UNL d   1       1.250  -2.279   0.722  0.00  0.00     0.003 A 
ATOM      7  I   UNL d   1      -1.580  -0.502   3.491  0.00  0.00    -0.146 I 
ENDROOT
TORSDOF 0
ENDMDL
