MODEL 1
REMARK minimizedAffinity 11.6525574
REMARK minimizedRMSD -1
REMARK  1 active torsions:
REMARK  status: ('A' for Active; 'I' for Inactive)
REMARK    1  A    between atoms: C1_2  and  C2_3 
ROOT
ATOM      1  C2  UNL d   1      -1.563   3.297  -1.942  0.00  0.00    -0.076 A 
ATOM      2  C3  UNL d   1      -1.102   4.623  -2.006  0.00  0.00     0.004 A 
ATOM      3  C4  UNL d   1      -1.814   5.598  -2.702  0.00  0.00    -0.003 A 
ATOM      4  C5  UNL d   1      -3.001   5.263  -3.344  0.00  0.00     0.000 A 
ATOM      5  C6  UNL d   1      -3.483   3.956  -3.276  0.00  0.00     0.000 A 
ATOM      6  C7  UNL d   1      -2.785   2.965  -2.565  0.00  0.00    -0.073 A 
ATOM      7  C8  UNL d   1      -3.348   1.570  -2.530  0.00  0.00     0.078 C 
ENDROOT
BRANCH   1   8
ATOM      8  C1  UNL d   1      -0.734   2.276  -1.196  0.00  0.00     0.053 C 
ATOM      9  C   UNL d   1      -0.162   2.827   0.101  0.00  0.00     0.018 C 
ENDBRANCH   1   8
TORSDOF 1
ENDMDL
