MODEL 1
REMARK minimizedAffinity 9.75337601
REMARK minimizedRMSD -1
REMARK  1 active torsions:
REMARK  status: ('A' for Active; 'I' for Inactive)
REMARK    1  A    between atoms: C1_2  and  C2_3 
ROOT
ATOM      1  C2  UNL d   1      -2.079   2.938  -2.308  0.00  0.00    -0.076 A 
ATOM      2  C3  UNL d   1      -1.160   2.309  -1.449  0.00  0.00     0.004 A 
ATOM      3  C4  UNL d   1       0.027   2.940  -1.082  0.00  0.00    -0.003 A 
ATOM      4  C5  UNL d   1       0.315   4.211  -1.567  0.00  0.00     0.000 A 
ATOM      5  C6  UNL d   1      -0.593   4.857  -2.406  0.00  0.00     0.000 A 
ATOM      6  C7  UNL d   1      -1.802   4.241  -2.773  0.00  0.00    -0.073 A 
ATOM      7  C8  UNL d   1      -2.742   4.981  -3.685  0.00  0.00     0.078 C 
ENDROOT
BRANCH   1   8
ATOM      8  C1  UNL d   1      -3.337   2.193  -2.693  0.00  0.00     0.053 C 
ATOM      9  C   UNL d   1      -3.920   1.397  -1.535  0.00  0.00     0.018 C 
ENDBRANCH   1   8
TORSDOF 1
ENDMDL
