MODEL 1
REMARK minimizedAffinity 5.51332855
REMARK minimizedRMSD -1
REMARK  1 active torsions:
REMARK  status: ('A' for Active; 'I' for Inactive)
REMARK    1  A    between atoms: C1_2  and  C2_3 
ROOT
ATOM      1  C2  UNL d   1      -0.452   4.037  -0.514  0.00  0.00    -0.076 A 
ATOM      2  C3  UNL d   1       0.061   3.471  -1.694  0.00  0.00     0.004 A 
ATOM      3  C4  UNL d   1      -0.039   4.139  -2.913  0.00  0.00    -0.003 A 
ATOM      4  C5  UNL d   1      -0.653   5.386  -2.972  0.00  0.00     0.000 A 
ATOM      5  C6  UNL d   1      -1.151   5.970  -1.808  0.00  0.00     0.000 A 
ATOM      6  C7  UNL d   1      -1.044   5.317  -0.568  0.00  0.00    -0.073 A 
ATOM      7  C8  UNL d   1      -1.604   5.991   0.654  0.00  0.00     0.078 C 
ENDROOT
BRANCH   1   8
ATOM      8  C1  UNL d   1      -0.339   3.253   0.774  0.00  0.00     0.053 C 
ATOM      9  C   UNL d   1       0.073   1.807   0.542  0.00  0.00     0.018 C 
ENDBRANCH   1   8
TORSDOF 1
ENDMDL
