MODEL 1
REMARK minimizedAffinity -0.947222054
REMARK minimizedRMSD -1
REMARK  1 active torsions:
REMARK  status: ('A' for Active; 'I' for Inactive)
REMARK    1  A    between atoms: C1_2  and  C2_3 
ROOT
ATOM      1  C2  UNL d   1      -2.418  -3.744  -5.900  0.00  0.00    -0.076 A 
ATOM      2  C3  UNL d   1      -2.242  -5.138  -5.882  0.00  0.00     0.004 A 
ATOM      3  C4  UNL d   1      -3.337  -6.000  -5.894  0.00  0.00    -0.003 A 
ATOM      4  C5  UNL d   1      -4.627  -5.481  -5.926  0.00  0.00     0.000 A 
ATOM      5  C6  UNL d   1      -4.820  -4.100  -5.962  0.00  0.00     0.000 A 
ATOM      6  C7  UNL d   1      -3.726  -3.218  -5.966  0.00  0.00    -0.073 A 
ATOM      7  C8  UNL d   1      -3.992  -1.738  -6.000  0.00  0.00     0.078 C 
ENDROOT
BRANCH   1   8
ATOM      8  C1  UNL d   1      -1.193  -2.858  -5.857  0.00  0.00     0.053 C 
ATOM      9  C   UNL d   1       0.101  -3.647  -5.991  0.00  0.00     0.018 C 
ENDBRANCH   1   8
TORSDOF 1
ENDMDL
