MODEL 1
REMARK minimizedAffinity -0.294687837
REMARK minimizedRMSD -1
REMARK  1 active torsions:
REMARK  status: ('A' for Active; 'I' for Inactive)
REMARK    1  A    between atoms: C1_2  and  C2_3 
ROOT
ATOM      1  C2  UNL d   1      -5.833   1.668  -4.227  0.00  0.00    -0.081 A 
ATOM      2  C3  UNL d   1      -5.461   2.805  -4.954  0.00  0.00     0.006 A 
ATOM      3  C4  UNL d   1      -5.248   4.024  -4.305  0.00  0.00     0.002 A 
ATOM      4  C5  UNL d   1      -5.397   4.123  -2.917  0.00  0.00    -0.080 A 
ATOM      5  C6  UNL d   1      -5.142   5.418  -2.204  0.00  0.00     0.076 C 
ATOM      6  C7  UNL d   1      -5.786   2.992  -2.193  0.00  0.00     0.002 A 
ATOM      7  C8  UNL d   1      -5.999   1.774  -2.842  0.00  0.00     0.006 A 
ENDROOT
BRANCH   1   8
ATOM      8  C1  UNL d   1      -6.000   0.338  -4.916  0.00  0.00     0.054 C 
ATOM      9  C   UNL d   1      -4.727  -0.072  -5.642  0.00  0.00     0.018 C 
ENDBRANCH   1   8
TORSDOF 1
ENDMDL
