MODEL 1
REMARK minimizedAffinity 4.44836617
REMARK minimizedRMSD -1
REMARK  1 active torsions:
REMARK  status: ('A' for Active; 'I' for Inactive)
REMARK    1  A    between atoms: C1_2  and  C2_3 
ROOT
ATOM      1  C2  UNL d   1      -5.340   2.506  -0.664  0.00  0.00    -0.081 A 
ATOM      2  C3  UNL d   1      -5.130   3.804  -1.145  0.00  0.00     0.006 A 
ATOM      3  C4  UNL d   1      -5.330   4.099  -2.496  0.00  0.00     0.002 A 
ATOM      4  C5  UNL d   1      -5.752   3.105  -3.385  0.00  0.00    -0.080 A 
ATOM      5  C6  UNL d   1      -6.000   3.416  -4.831  0.00  0.00     0.076 C 
ATOM      6  C7  UNL d   1      -5.944   1.804  -2.908  0.00  0.00     0.002 A 
ATOM      7  C8  UNL d   1      -5.743   1.508  -1.558  0.00  0.00     0.006 A 
ENDROOT
BRANCH   1   8
ATOM      8  C1  UNL d   1      -5.187   2.198   0.804  0.00  0.00     0.054 C 
ATOM      9  C   UNL d   1      -3.742   1.871   1.153  0.00  0.00     0.018 C 
ENDBRANCH   1   8
TORSDOF 1
ENDMDL
