MODEL 1
REMARK minimizedAffinity 4.57251263
REMARK minimizedRMSD -1
REMARK  1 active torsions:
REMARK  status: ('A' for Active; 'I' for Inactive)
REMARK    1  A    between atoms: C1_2  and  C2_3 
ROOT
ATOM      1  C2  UNL d   1      -4.974   2.451  -0.310  0.00  0.00    -0.081 A 
ATOM      2  C3  UNL d   1      -4.051   2.541   0.739  0.00  0.00     0.006 A 
ATOM      3  C4  UNL d   1      -4.097   1.635   1.802  0.00  0.00     0.002 A 
ATOM      4  C5  UNL d   1      -5.059   0.620   1.829  0.00  0.00    -0.080 A 
ATOM      5  C6  UNL d   1      -5.100  -0.377   2.948  0.00  0.00     0.076 C 
ATOM      6  C7  UNL d   1      -5.992   0.542   0.789  0.00  0.00     0.002 A 
ATOM      7  C8  UNL d   1      -5.948   1.447  -0.273  0.00  0.00     0.006 A 
ENDROOT
BRANCH   1   8
ATOM      8  C1  UNL d   1      -4.887   3.387  -1.489  0.00  0.00     0.054 C 
ATOM      9  C   UNL d   1      -5.627   2.826  -2.695  0.00  0.00     0.018 C 
ENDBRANCH   1   8
TORSDOF 1
ENDMDL
