MODEL 1
REMARK minimizedAffinity 4.39709759
REMARK minimizedRMSD -1
REMARK  1 active torsions:
REMARK  status: ('A' for Active; 'I' for Inactive)
REMARK    1  A    between atoms: C1_2  and  C2_3 
ROOT
ATOM      1  C2  UNL d   1      -5.946   1.668  -4.535  0.00  0.00    -0.081 A 
ATOM      2  C3  UNL d   1      -5.964   2.906  -5.189  0.00  0.00     0.006 A 
ATOM      3  C4  UNL d   1      -5.993   4.094  -4.455  0.00  0.00     0.002 A 
ATOM      4  C5  UNL d   1      -5.998   4.064  -3.056  0.00  0.00    -0.080 A 
ATOM      5  C6  UNL d   1      -5.999   5.332  -2.256  0.00  0.00     0.076 C 
ATOM      6  C7  UNL d   1      -5.999   2.827  -2.403  0.00  0.00     0.002 A 
ATOM      7  C8  UNL d   1      -5.970   1.639  -3.137  0.00  0.00     0.006 A 
ENDROOT
BRANCH   1   8
ATOM      8  C1  UNL d   1      -5.849   0.386  -5.323  0.00  0.00     0.054 C 
ATOM      9  C   UNL d   1      -4.466   0.217  -5.935  0.00  0.00     0.018 C 
ENDBRANCH   1   8
TORSDOF 1
ENDMDL
