MODEL 1
REMARK minimizedAffinity 1.50664532
REMARK minimizedRMSD -1
REMARK  1 active torsions:
REMARK  status: ('A' for Active; 'I' for Inactive)
REMARK    1  A    between atoms: C1_2  and  C2_3 
ROOT
ATOM      1  C2  UNL d   1      -5.286   2.084  -0.653  0.00  0.00    -0.081 A 
ATOM      2  C3  UNL d   1      -4.886   3.298  -1.225  0.00  0.00     0.006 A 
ATOM      3  C4  UNL d   1      -5.046   3.522  -2.594  0.00  0.00     0.002 A 
ATOM      4  C5  UNL d   1      -5.616   2.541  -3.412  0.00  0.00    -0.080 A 
ATOM      5  C6  UNL d   1      -5.821   2.781  -4.879  0.00  0.00     0.076 C 
ATOM      6  C7  UNL d   1      -6.000   1.321  -2.844  0.00  0.00     0.002 A 
ATOM      7  C8  UNL d   1      -5.839   1.096  -1.475  0.00  0.00     0.006 A 
ENDROOT
BRANCH   1   8
ATOM      8  C1  UNL d   1      -5.174   1.863   0.834  0.00  0.00     0.054 C 
ATOM      9  C   UNL d   1      -3.899   1.112   1.188  0.00  0.00     0.018 C 
ENDBRANCH   1   8
TORSDOF 1
ENDMDL
