MODEL 1
REMARK minimizedAffinity 8.26355648
REMARK minimizedRMSD -1
REMARK  1 active torsions:
REMARK  status: ('A' for Active; 'I' for Inactive)
REMARK    1  A    between atoms: C1_2  and  C2_3 
ROOT
ATOM      1  C2  UNL d   1       1.498  -2.457  -0.310  0.00  0.00    -0.081 A 
ATOM      2  C3  UNL d   1       1.300  -3.835  -0.458  0.00  0.00     0.006 A 
ATOM      3  C4  UNL d   1       0.247  -4.320  -1.238  0.00  0.00     0.002 A 
ATOM      4  C5  UNL d   1      -0.620  -3.435  -1.889  0.00  0.00    -0.080 A 
ATOM      5  C6  UNL d   1      -1.736  -3.942  -2.754  0.00  0.00     0.076 C 
ATOM      6  C7  UNL d   1      -0.433  -2.058  -1.727  0.00  0.00     0.002 A 
ATOM      7  C8  UNL d   1       0.619  -1.573  -0.946  0.00  0.00     0.006 A 
ENDROOT
BRANCH   1   8
ATOM      8  C1  UNL d   1       2.670  -1.932   0.478  0.00  0.00     0.054 C 
ATOM      9  C   UNL d   1       3.977  -2.129  -0.277  0.00  0.00     0.018 C 
ENDBRANCH   1   8
TORSDOF 1
ENDMDL
