MODEL 1
REMARK minimizedAffinity 10.0718937
REMARK minimizedRMSD -1
REMARK  1 active torsions:
REMARK  status: ('A' for Active; 'I' for Inactive)
REMARK    1  A    between atoms: C1_2  and  C2_3 
ROOT
ATOM      1  C2  UNL d   1      -0.562  -3.234  -1.651  0.00  0.00    -0.081 A 
ATOM      2  C3  UNL d   1      -0.305  -2.065  -0.925  0.00  0.00     0.006 A 
ATOM      3  C4  UNL d   1       0.854  -1.949  -0.155  0.00  0.00     0.002 A 
ATOM      4  C5  UNL d   1       1.780  -2.997  -0.103  0.00  0.00    -0.080 A 
ATOM      5  C6  UNL d   1       3.043  -2.874   0.696  0.00  0.00     0.076 C 
ATOM      6  C7  UNL d   1       1.515  -4.173  -0.814  0.00  0.00     0.002 A 
ATOM      7  C8  UNL d   1       0.356  -4.289  -1.584  0.00  0.00     0.006 A 
ENDROOT
BRANCH   1   8
ATOM      8  C1  UNL d   1      -1.779  -3.337  -2.534  0.00  0.00     0.054 C 
ATOM      9  C   UNL d   1      -1.468  -2.902  -3.959  0.00  0.00     0.018 C 
ENDBRANCH   1   8
TORSDOF 1
ENDMDL
