MODEL 1
REMARK minimizedAffinity 0.55907619
REMARK minimizedRMSD -1
REMARK  1 active torsions:
REMARK  status: ('A' for Active; 'I' for Inactive)
REMARK    1  A    between atoms: C1_2  and  C2_3 
ROOT
ATOM      1  C2  UNL d   1      -5.967   1.977  -1.313  0.00  0.00    -0.081 A 
ATOM      2  C3  UNL d   1      -5.984   1.172  -2.458  0.00  0.00     0.006 A 
ATOM      3  C4  UNL d   1      -6.000   1.751  -3.730  0.00  0.00     0.002 A 
ATOM      4  C5  UNL d   1      -5.992   3.142  -3.877  0.00  0.00    -0.080 A 
ATOM      5  C6  UNL d   1      -5.978   3.775  -5.237  0.00  0.00     0.076 C 
ATOM      6  C7  UNL d   1      -5.993   3.946  -2.733  0.00  0.00     0.002 A 
ATOM      7  C8  UNL d   1      -5.978   3.369  -1.461  0.00  0.00     0.006 A 
ENDROOT
BRANCH   1   8
ATOM      8  C1  UNL d   1      -5.885   1.357   0.059  0.00  0.00     0.054 C 
ATOM      9  C   UNL d   1      -4.463   1.400   0.601  0.00  0.00     0.018 C 
ENDBRANCH   1   8
TORSDOF 1
ENDMDL
