MODEL 1
REMARK minimizedAffinity 9.10630226
REMARK minimizedRMSD -1
REMARK  1 active torsions:
REMARK  status: ('A' for Active; 'I' for Inactive)
REMARK    1  A    between atoms: C1_2  and  C2_3 
ROOT
ATOM      1  C2  UNL d   1       0.137   2.843  -0.430  0.00  0.00    -0.081 A 
ATOM      2  C3  UNL d   1       0.920   3.983  -0.647  0.00  0.00     0.006 A 
ATOM      3  C4  UNL d   1       0.469   5.001  -1.492  0.00  0.00     0.002 A 
ATOM      4  C5  UNL d   1      -0.773   4.899  -2.126  0.00  0.00    -0.080 A 
ATOM      5  C6  UNL d   1      -1.282   5.998  -3.011  0.00  0.00     0.076 C 
ATOM      6  C7  UNL d   1      -1.547   3.751  -1.923  0.00  0.00     0.002 A 
ATOM      7  C8  UNL d   1      -1.097   2.733  -1.080  0.00  0.00     0.006 A 
ENDROOT
BRANCH   1   8
ATOM      8  C1  UNL d   1       0.591   1.773   0.530  0.00  0.00     0.054 C 
ATOM      9  C   UNL d   1       0.157   2.088   1.954  0.00  0.00     0.018 C 
ENDBRANCH   1   8
TORSDOF 1
ENDMDL
