MODEL 1
REMARK minimizedAffinity 2.98119712
REMARK minimizedRMSD -1
REMARK  0 active torsions:
REMARK  status: ('A' for Active; 'I' for Inactive)
ROOT
ATOM      1  N1  IND d   1       1.557  -0.893   2.256  0.00  0.00    -0.196 N 
ATOM      2  C2  IND d   1       0.199  -0.867   2.406  0.00  0.00     0.054 A 
ATOM      3  C3  IND d   1      -0.385  -1.737   1.552  0.00  0.00    -0.031 A 
ATOM      4  C4  IND d   1       0.700  -3.378  -0.108  0.00  0.00     0.051 A 
ATOM      5  C5  IND d   1       1.911  -3.741  -0.628  0.00  0.00    -0.031 A 
ATOM      6  C6  IND d   1       3.090  -3.164  -0.202  0.00  0.00     0.015 A 
ATOM      7  C7  IND d   1       3.103  -2.206   0.772  0.00  0.00    -0.016 A 
ATOM      8  C8  IND d   1       1.875  -1.829   1.297  0.00  0.00    -0.047 A 
ATOM      9  C9  IND d   1       0.671  -2.381   0.838  0.00  0.00    -0.096 A 
ATOM     10  HN1 IND d   1       2.119  -0.407   2.689  0.00  0.00     0.298 HD
ENDROOT
TORSDOF 0
ENDMDL
