MODEL 1
REMARK minimizedAffinity -1.2363826
REMARK minimizedRMSD -1
REMARK  0 active torsions:
REMARK  status: ('A' for Active; 'I' for Inactive)
ROOT
ATOM      1  N1  IND d   1      -0.412  -1.683   0.087  0.00  0.00    -0.196 N 
ATOM      2  C2  IND d   1      -0.025  -0.490   0.630  0.00  0.00     0.054 A 
ATOM      3  C3  IND d   1       1.288  -0.523   0.951  0.00  0.00    -0.031 A 
ATOM      4  C4  IND d   1       3.016  -2.395   0.579  0.00  0.00     0.051 A 
ATOM      5  C5  IND d   1       3.127  -3.688   0.149  0.00  0.00    -0.031 A 
ATOM      6  C6  IND d   1       2.044  -4.392  -0.335  0.00  0.00     0.015 A 
ATOM      7  C7  IND d   1       0.805  -3.822  -0.419  0.00  0.00    -0.016 A 
ATOM      8  C8  IND d   1       0.686  -2.512   0.023  0.00  0.00    -0.047 A 
ATOM      9  C9  IND d   1       1.773  -1.807   0.555  0.00  0.00    -0.096 A 
ATOM     10  HN1 IND d   1      -1.208  -1.882  -0.171  0.00  0.00     0.298 HD
ENDROOT
TORSDOF 0
ENDMDL
