MODEL 1
REMARK minimizedAffinity 1.91104805
REMARK minimizedRMSD -1
REMARK  0 active torsions:
REMARK  status: ('A' for Active; 'I' for Inactive)
ROOT
ATOM      1  N1  IND d   1      -0.109  -0.092   2.669  0.00  0.00    -0.196 N 
ATOM      2  C2  IND d   1      -1.207  -0.824   2.311  0.00  0.00     0.054 A 
ATOM      3  C3  IND d   1      -1.102  -1.230   1.025  0.00  0.00    -0.031 A 
ATOM      4  C4  IND d   1       0.829  -0.892  -0.644  0.00  0.00     0.051 A 
ATOM      5  C5  IND d   1       2.031  -0.257  -0.787  0.00  0.00    -0.031 A 
ATOM      6  C6  IND d   1       2.593   0.478   0.236  0.00  0.00     0.015 A 
ATOM      7  C7  IND d   1       1.977   0.596   1.450  0.00  0.00    -0.016 A 
ATOM      8  C8  IND d   1       0.753  -0.041   1.597  0.00  0.00    -0.047 A 
ATOM      9  C9  IND d   1       0.158  -0.754   0.548  0.00  0.00    -0.096 A 
ATOM     10  HN1 IND d   1       0.020   0.275   3.436  0.00  0.00     0.298 HD
ENDROOT
TORSDOF 0
ENDMDL
