MODEL 1
REMARK minimizedAffinity 1.45362866
REMARK minimizedRMSD -1
REMARK  0 active torsions:
REMARK  status: ('A' for Active; 'I' for Inactive)
ROOT
ATOM      1  N1  IND d   1      -0.487  -2.710   0.680  0.00  0.00    -0.196 N 
ATOM      2  C2  IND d   1      -1.017  -1.487   0.984  0.00  0.00     0.054 A 
ATOM      3  C3  IND d   1      -0.064  -0.531   0.915  0.00  0.00    -0.031 A 
ATOM      4  C4  IND d   1       2.408  -0.733   0.222  0.00  0.00     0.051 A 
ATOM      5  C5  IND d   1       3.362  -1.653  -0.109  0.00  0.00    -0.031 A 
ATOM      6  C6  IND d   1       3.075  -3.000  -0.198  0.00  0.00     0.015 A 
ATOM      7  C7  IND d   1       1.816  -3.477   0.030  0.00  0.00    -0.016 A 
ATOM      8  C8  IND d   1       0.846  -2.546   0.373  0.00  0.00    -0.047 A 
ATOM      9  C9  IND d   1       1.140  -1.183   0.507  0.00  0.00    -0.096 A 
ATOM     10  HN1 IND d   1      -0.914  -3.456   0.680  0.00  0.00     0.298 HD
ENDROOT
TORSDOF 0
ENDMDL
