MODEL 1
REMARK minimizedAffinity 1.11290801
REMARK minimizedRMSD -1
REMARK  0 active torsions:
REMARK  status: ('A' for Active; 'I' for Inactive)
ROOT
ATOM      1  N1  IND d   1       2.715  -3.387   0.507  0.00  0.00    -0.196 N 
ATOM      2  C2  IND d   1       1.710  -4.288   0.291  0.00  0.00     0.054 A 
ATOM      3  C3  IND d   1       0.506  -3.706   0.487  0.00  0.00    -0.031 A 
ATOM      4  C4  IND d   1      -0.054  -1.261   1.064  0.00  0.00     0.051 A 
ATOM      5  C5  IND d   1       0.532  -0.070   1.394  0.00  0.00    -0.031 A 
ATOM      6  C6  IND d   1       1.903   0.079   1.444  0.00  0.00     0.015 A 
ATOM      7  C7  IND d   1       2.743  -0.959   1.152  0.00  0.00    -0.016 A 
ATOM      8  C8  IND d   1       2.152  -2.170   0.824  0.00  0.00    -0.047 A 
ATOM      9  C9  IND d   1       0.761  -2.339   0.814  0.00  0.00    -0.096 A 
ATOM     10  HN1 IND d   1       3.557  -3.552   0.454  0.00  0.00     0.298 HD
ENDROOT
TORSDOF 0
ENDMDL
