MODEL 1
REMARK minimizedAffinity 2.79634643
REMARK minimizedRMSD -1
REMARK  0 active torsions:
REMARK  status: ('A' for Active; 'I' for Inactive)
ROOT
ATOM      1  N1  IND d   1       3.513  -5.970   0.360  0.00  0.00    -0.196 N 
ATOM      2  C2  IND d   1       4.824  -6.000  -0.025  0.00  0.00     0.054 A 
ATOM      3  C3  IND d   1       5.234  -4.766  -0.396  0.00  0.00    -0.031 A 
ATOM      4  C4  IND d   1       3.949  -2.535  -0.354  0.00  0.00     0.051 A 
ATOM      5  C5  IND d   1       2.710  -2.010  -0.115  0.00  0.00    -0.031 A 
ATOM      6  C6  IND d   1       1.655  -2.793   0.306  0.00  0.00     0.015 A 
ATOM      7  C7  IND d   1       1.803  -4.135   0.515  0.00  0.00    -0.016 A 
ATOM      8  C8  IND d   1       3.058  -4.673   0.266  0.00  0.00    -0.047 A 
ATOM      9  C9  IND d   1       4.121  -3.891  -0.202  0.00  0.00    -0.096 A 
ATOM     10  HN1 IND d   1       3.050  -6.648   0.617  0.00  0.00     0.298 HD
ENDROOT
TORSDOF 0
ENDMDL
