MODEL 1
REMARK minimizedAffinity -1.36268032
REMARK minimizedRMSD -1
REMARK  0 active torsions:
REMARK  status: ('A' for Active; 'I' for Inactive)
ROOT
ATOM      1  N1  IND d   1       3.918  -2.149   0.252  0.00  0.00    -0.196 N 
ATOM      2  C2  IND d   1       4.103  -3.480   0.005  0.00  0.00     0.054 A 
ATOM      3  C3  IND d   1       2.914  -4.123  -0.019  0.00  0.00    -0.031 A 
ATOM      4  C4  IND d   1       0.534  -3.171   0.220  0.00  0.00     0.051 A 
ATOM      5  C5  IND d   1      -0.141  -2.015   0.494  0.00  0.00    -0.031 A 
ATOM      6  C6  IND d   1       0.516  -0.819   0.704  0.00  0.00     0.015 A 
ATOM      7  C7  IND d   1       1.878  -0.733   0.635  0.00  0.00    -0.016 A 
ATOM      8  C8  IND d   1       2.567  -1.906   0.363  0.00  0.00    -0.047 A 
ATOM      9  C9  IND d   1       1.908  -3.131   0.192  0.00  0.00    -0.096 A 
ATOM     10  HN1 IND d   1       4.542  -1.561   0.326  0.00  0.00     0.298 HD
ENDROOT
TORSDOF 0
ENDMDL
