MODEL 1
REMARK minimizedAffinity -3.0246613
REMARK minimizedRMSD -1
REMARK  0 active torsions:
REMARK  status: ('A' for Active; 'I' for Inactive)
ROOT
ATOM      1  N1  IND d   1       1.229  -3.973   0.244  0.00  0.00    -0.196 N 
ATOM      2  C2  IND d   1       2.541  -3.976  -0.141  0.00  0.00     0.054 A 
ATOM      3  C3  IND d   1       3.036  -2.718  -0.131  0.00  0.00    -0.031 A 
ATOM      4  C4  IND d   1       1.902  -0.519   0.579  0.00  0.00     0.051 A 
ATOM      5  C5  IND d   1       0.698  -0.006   0.972  0.00  0.00    -0.031 A 
ATOM      6  C6  IND d   1      -0.413  -0.806   1.149  0.00  0.00     0.015 A 
ATOM      7  C7  IND d   1      -0.357  -2.156   0.949  0.00  0.00    -0.016 A 
ATOM      8  C8  IND d   1       0.862  -2.679   0.543  0.00  0.00    -0.047 A 
ATOM      9  C9  IND d   1       1.982  -1.867   0.321  0.00  0.00    -0.096 A 
ATOM     10  HN1 IND d   1       0.719  -4.664   0.291  0.00  0.00     0.298 HD
ENDROOT
TORSDOF 0
ENDMDL
