MODEL 1
REMARK minimizedAffinity -1.4222486
REMARK minimizedRMSD -1
REMARK  0 active torsions:
REMARK  status: ('A' for Active; 'I' for Inactive)
ROOT
ATOM      1  N1  IND d   1       0.998  -0.332   1.411  0.00  0.00    -0.196 N 
ATOM      2  C2  IND d   1      -0.365  -0.380   1.319  0.00  0.00     0.054 A 
ATOM      3  C3  IND d   1      -0.755  -1.518   0.702  0.00  0.00    -0.031 A 
ATOM      4  C4  IND d   1       0.668  -3.487  -0.149  0.00  0.00     0.051 A 
ATOM      5  C5  IND d   1       1.965  -3.884  -0.320  0.00  0.00    -0.031 A 
ATOM      6  C6  IND d   1       3.027  -3.103   0.087  0.00  0.00     0.015 A 
ATOM      7  C7  IND d   1       2.830  -1.895   0.695  0.00  0.00    -0.016 A 
ATOM      8  C8  IND d   1       1.515  -1.485   0.864  0.00  0.00    -0.047 A 
ATOM      9  C9  IND d   1       0.435  -2.255   0.414  0.00  0.00    -0.096 A 
ATOM     10  HN1 IND d   1       1.455   0.311   1.752  0.00  0.00     0.298 HD
ENDROOT
TORSDOF 0
ENDMDL
