MODEL 1
REMARK minimizedAffinity 1.5101409
REMARK minimizedRMSD -1
REMARK  0 active torsions:
REMARK  status: ('A' for Active; 'I' for Inactive)
ROOT
ATOM      1  N1  IND d   1       3.274  -5.309  -0.248  0.00  0.00    -0.196 N 
ATOM      2  C2  IND d   1       4.594  -4.952  -0.253  0.00  0.00     0.054 A 
ATOM      3  C3  IND d   1       4.718  -3.611  -0.131  0.00  0.00    -0.031 A 
ATOM      4  C4  IND d   1       2.895  -1.822   0.192  0.00  0.00     0.051 A 
ATOM      5  C5  IND d   1       1.538  -1.660   0.225  0.00  0.00    -0.031 A 
ATOM      6  C6  IND d   1       0.673  -2.729   0.102  0.00  0.00     0.015 A 
ATOM      7  C7  IND d   1       1.135  -4.006  -0.048  0.00  0.00    -0.016 A 
ATOM      8  C8  IND d   1       2.512  -4.173  -0.088  0.00  0.00    -0.047 A 
ATOM      9  C9  IND d   1       3.394  -3.087  -0.006  0.00  0.00    -0.096 A 
ATOM     10  HN1 IND d   1       2.971  -6.110  -0.330  0.00  0.00     0.298 HD
ENDROOT
TORSDOF 0
ENDMDL
