MODEL 1
REMARK minimizedAffinity -0.702141523
REMARK minimizedRMSD -1
REMARK  0 active torsions:
REMARK  status: ('A' for Active; 'I' for Inactive)
ROOT
ATOM      1  N1  IND d   1       2.483  -4.757   0.223  0.00  0.00    -0.196 N 
ATOM      2  C2  IND d   1       3.792  -4.476  -0.053  0.00  0.00     0.054 A 
ATOM      3  C3  IND d   1       3.969  -3.143  -0.189  0.00  0.00    -0.031 A 
ATOM      4  C4  IND d   1       2.270  -1.230   0.098  0.00  0.00     0.051 A 
ATOM      5  C5  IND d   1       0.942  -0.993   0.315  0.00  0.00    -0.031 A 
ATOM      6  C6  IND d   1       0.042  -2.019   0.519  0.00  0.00     0.015 A 
ATOM      7  C7  IND d   1       0.440  -3.325   0.525  0.00  0.00    -0.016 A 
ATOM      8  C8  IND d   1       1.787  -3.571   0.298  0.00  0.00    -0.047 A 
ATOM      9  C9  IND d   1       2.698  -2.536   0.048  0.00  0.00    -0.096 A 
ATOM     10  HN1 IND d   1       2.150  -5.542   0.331  0.00  0.00     0.298 HD
ENDROOT
TORSDOF 0
ENDMDL
