MODEL 1
REMARK minimizedAffinity 9.15636826
REMARK minimizedRMSD -1
REMARK  0 active torsions:
REMARK  status: ('A' for Active; 'I' for Inactive)
ROOT
ATOM      1  N1  IND d   1      -1.199   3.477   1.838  0.00  0.00    -0.196 N 
ATOM      2  C2  IND d   1      -1.570   4.525   1.041  0.00  0.00     0.054 A 
ATOM      3  C3  IND d   1      -2.473   4.118   0.121  0.00  0.00    -0.031 A 
ATOM      4  C4  IND d   1      -3.558   1.805  -0.196  0.00  0.00     0.051 A 
ATOM      5  C5  IND d   1      -3.510   0.520   0.267  0.00  0.00    -0.031 A 
ATOM      6  C6  IND d   1      -2.674   0.148   1.300  0.00  0.00     0.015 A 
ATOM      7  C7  IND d   1      -1.860   1.054   1.919  0.00  0.00    -0.016 A 
ATOM      8  C8  IND d   1      -1.901   2.359   1.447  0.00  0.00    -0.047 A 
ATOM      9  C9  IND d   1      -2.716   2.733   0.370  0.00  0.00    -0.096 A 
ATOM     10  HN1 IND d   1      -0.623   3.512   2.476  0.00  0.00     0.298 HD
ENDROOT
TORSDOF 0
ENDMDL
