MODEL 1
REMARK minimizedAffinity -3.54862642
REMARK minimizedRMSD -1
REMARK  0 active torsions:
REMARK  status: ('A' for Active; 'I' for Inactive)
ROOT
ATOM      1  N1  IND d   1       1.487  -4.157  -0.152  0.00  0.00    -0.196 N 
ATOM      2  C2  IND d   1       2.805  -3.810  -0.054  0.00  0.00     0.054 A 
ATOM      3  C3  IND d   1       2.924  -2.521   0.335  0.00  0.00    -0.031 A 
ATOM      4  C4  IND d   1       1.092  -0.826   0.965  0.00  0.00     0.051 A 
ATOM      5  C5  IND d   1      -0.266  -0.670   0.997  0.00  0.00    -0.031 A 
ATOM      6  C6  IND d   1      -1.126  -1.690   0.643  0.00  0.00     0.015 A 
ATOM      7  C7  IND d   1      -0.658  -2.913   0.254  0.00  0.00    -0.016 A 
ATOM      8  C8  IND d   1       0.719  -3.073   0.213  0.00  0.00    -0.047 A 
ATOM      9  C9  IND d   1       1.598  -2.028   0.530  0.00  0.00    -0.096 A 
ATOM     10  HN1 IND d   1       1.187  -4.924  -0.399  0.00  0.00     0.298 HD
ENDROOT
TORSDOF 0
ENDMDL
