MODEL 1
REMARK minimizedAffinity -0.0753296763
REMARK minimizedRMSD -1
REMARK  0 active torsions:
REMARK  status: ('A' for Active; 'I' for Inactive)
ROOT
ATOM      1  N1  IND d   1      -1.035  -2.061   0.755  0.00  0.00    -0.196 N 
ATOM      2  C2  IND d   1      -1.305  -0.739   0.973  0.00  0.00     0.054 A 
ATOM      3  C3  IND d   1      -0.196   0.008   0.773  0.00  0.00    -0.031 A 
ATOM      4  C4  IND d   1       2.145  -0.720  -0.014  0.00  0.00     0.051 A 
ATOM      5  C5  IND d   1       2.886  -1.830  -0.306  0.00  0.00    -0.031 A 
ATOM      6  C6  IND d   1       2.347  -3.099  -0.261  0.00  0.00     0.015 A 
ATOM      7  C7  IND d   1       1.037  -3.306   0.068  0.00  0.00    -0.016 A 
ATOM      8  C8  IND d   1       0.283  -2.181   0.372  0.00  0.00    -0.047 A 
ATOM      9  C9  IND d   1       0.836  -0.894   0.370  0.00  0.00    -0.096 A 
ATOM     10  HN1 IND d   1      -1.594  -2.708   0.842  0.00  0.00     0.298 HD
ENDROOT
TORSDOF 0
ENDMDL
