MODEL 1
REMARK minimizedAffinity -2.41152048
REMARK minimizedRMSD -1
REMARK  0 active torsions:
REMARK  status: ('A' for Active; 'I' for Inactive)
ROOT
ATOM      1  N1  IND d   1       2.342  -2.893  -0.072  0.00  0.00    -0.196 N 
ATOM      2  C2  IND d   1       1.684  -4.055  -0.365  0.00  0.00     0.054 A 
ATOM      3  C3  IND d   1       0.373  -3.944  -0.055  0.00  0.00    -0.031 A 
ATOM      4  C4  IND d   1      -0.928  -1.915   0.850  0.00  0.00     0.051 A 
ATOM      5  C5  IND d   1      -0.752  -0.640   1.309  0.00  0.00    -0.031 A 
ATOM      6  C6  IND d   1       0.489  -0.037   1.329  0.00  0.00     0.015 A 
ATOM      7  C7  IND d   1       1.604  -0.687   0.878  0.00  0.00    -0.016 A 
ATOM      8  C8  IND d   1       1.429  -1.984   0.418  0.00  0.00    -0.047 A 
ATOM      9  C9  IND d   1       0.179  -2.616   0.435  0.00  0.00    -0.096 A 
ATOM     10  HN1 IND d   1       3.184  -2.754  -0.175  0.00  0.00     0.298 HD
ENDROOT
TORSDOF 0
ENDMDL
