MODEL 1
REMARK minimizedAffinity 5.42132807
REMARK minimizedRMSD -1
REMARK  0 active torsions:
REMARK  status: ('A' for Active; 'I' for Inactive)
ROOT
ATOM      1  N1  IND d   1       2.929  -1.352   0.734  0.00  0.00    -0.196 N 
ATOM      2  C2  IND d   1       3.103  -0.071   1.177  0.00  0.00     0.054 A 
ATOM      3  C3  IND d   1       1.907   0.538   1.337  0.00  0.00    -0.031 A 
ATOM      4  C4  IND d   1      -0.466  -0.412   1.029  0.00  0.00     0.051 A 
ATOM      5  C5  IND d   1      -1.134  -1.525   0.602  0.00  0.00    -0.031 A 
ATOM      6  C6  IND d   1      -0.468  -2.662   0.191  0.00  0.00     0.015 A 
ATOM      7  C7  IND d   1       0.897  -2.732   0.203  0.00  0.00    -0.016 A 
ATOM      8  C8  IND d   1       1.578  -1.600   0.630  0.00  0.00    -0.047 A 
ATOM      9  C9  IND d   1       0.908  -0.429   1.008  0.00  0.00    -0.096 A 
ATOM     10  HN1 IND d   1       3.558  -1.910   0.552  0.00  0.00     0.298 HD
ENDROOT
TORSDOF 0
ENDMDL
