MODEL 1
REMARK minimizedAffinity -0.658212543
REMARK minimizedRMSD -1
REMARK  2 active torsions:
REMARK  status: ('A' for Active; 'I' for Inactive)
REMARK    1  A    between atoms: C2'_3  and  C1'_4 
REMARK    2  A    between atoms: C1'_4  and  C1_5 
ROOT
ATOM      1  C1  I4B d   1       1.433   0.115  -1.204  0.00  0.00    -0.075 A 
ATOM      2  C2  I4B d   1       0.961   1.052  -2.090  0.00  0.00     0.003 A 
ATOM      3  C3  I4B d   1       0.812   2.401  -1.688  0.00  0.00     0.002 A 
ATOM      4  C4  I4B d   1       1.098   2.758  -0.386  0.00  0.00    -0.004 A 
ATOM      5  C5  I4B d   1       1.597   1.812   0.504  0.00  0.00     0.002 A 
ATOM      6  C6  I4B d   1       1.778   0.485   0.089  0.00  0.00     0.003 A 
ENDROOT
BRANCH   1   7
ATOM      7  C1' I4B d   1       1.546  -1.307  -1.652  0.00  0.00     0.060 C 
BRANCH   7   8
ATOM      8  C2' I4B d   1       0.742  -2.164  -0.695  0.00  0.00    -0.013 C 
ATOM      9  C4' I4B d   1      -0.137  -3.135  -1.438  0.00  0.00     0.013 C 
ATOM     10  C3' I4B d   1       1.704  -2.882   0.203  0.00  0.00     0.013 C 
ENDBRANCH   7   8
ENDBRANCH   1   7
TORSDOF 2
ENDMDL
