MODEL 1
REMARK minimizedAffinity 0.0575592667
REMARK minimizedRMSD -1
REMARK  2 active torsions:
REMARK  status: ('A' for Active; 'I' for Inactive)
REMARK    1  A    between atoms: C2'_3  and  C1'_4 
REMARK    2  A    between atoms: C1'_4  and  C1_5 
ROOT
ATOM      1  C1  I4B d   1       1.492  -0.451  -1.261  0.00  0.00    -0.075 A 
ATOM      2  C2  I4B d   1       1.563   0.317  -2.397  0.00  0.00     0.003 A 
ATOM      3  C3  I4B d   1       1.480   1.728  -2.310  0.00  0.00     0.002 A 
ATOM      4  C4  I4B d   1       1.277   2.322  -1.081  0.00  0.00    -0.004 A 
ATOM      5  C5  I4B d   1       1.228   1.544   0.072  0.00  0.00     0.002 A 
ATOM      6  C6  I4B d   1       1.348   0.149  -0.017  0.00  0.00     0.003 A 
ENDROOT
BRANCH   1   7
ATOM      7  C1' I4B d   1       1.550  -1.940  -1.393  0.00  0.00     0.060 C 
BRANCH   7   8
ATOM      8  C2' I4B d   1       0.233  -2.504  -0.900  0.00  0.00    -0.013 C 
ATOM      9  C4' I4B d   1      -0.481  -3.255  -1.992  0.00  0.00     0.013 C 
ATOM     10  C3' I4B d   1       0.520  -3.394   0.272  0.00  0.00     0.013 C 
ENDBRANCH   7   8
ENDBRANCH   1   7
TORSDOF 2
ENDMDL
