MODEL 1
REMARK minimizedAffinity 3.34933496
REMARK minimizedRMSD -1
REMARK  2 active torsions:
REMARK  status: ('A' for Active; 'I' for Inactive)
REMARK    1  A    between atoms: C2'_3  and  C1'_4 
REMARK    2  A    between atoms: C1'_4  and  C1_5 
ROOT
ATOM      1  C1  I4B d   1      -2.317   2.701   3.496  0.00  0.00    -0.075 A 
ATOM      2  C2  I4B d   1      -2.642   3.416   4.622  0.00  0.00     0.003 A 
ATOM      3  C3  I4B d   1      -2.197   2.982   5.894  0.00  0.00     0.002 A 
ATOM      4  C4  I4B d   1      -1.478   1.809   5.999  0.00  0.00    -0.004 A 
ATOM      5  C5  I4B d   1      -1.129   1.098   4.854  0.00  0.00     0.002 A 
ATOM      6  C6  I4B d   1      -1.541   1.554   3.593  0.00  0.00     0.003 A 
ENDROOT
BRANCH   1   7
ATOM      7  C1' I4B d   1      -2.831   3.170   2.172  0.00  0.00     0.060 C 
BRANCH   7   8
ATOM      8  C2' I4B d   1      -3.153   1.947   1.337  0.00  0.00    -0.013 C 
ATOM      9  C4' I4B d   1      -4.354   1.218   1.879  0.00  0.00     0.013 C 
ATOM     10  C3' I4B d   1      -3.385   2.399  -0.075  0.00  0.00     0.013 C 
ENDBRANCH   7   8
ENDBRANCH   1   7
TORSDOF 2
ENDMDL
