MODEL 1
REMARK minimizedAffinity 6.9076333
REMARK minimizedRMSD -1
REMARK  2 active torsions:
REMARK  status: ('A' for Active; 'I' for Inactive)
REMARK    1  A    between atoms: C2'_3  and  C1'_4 
REMARK    2  A    between atoms: C1'_4  and  C1_5 
ROOT
ATOM      1  C1  I4B d   1       1.169   1.920  -1.244  0.00  0.00    -0.075 A 
ATOM      2  C2  I4B d   1       0.827   1.043  -2.243  0.00  0.00     0.003 A 
ATOM      3  C3  I4B d   1       1.215  -0.317  -2.161  0.00  0.00     0.002 A 
ATOM      4  C4  I4B d   1       1.983  -0.741  -1.096  0.00  0.00    -0.004 A 
ATOM      5  C5  I4B d   1       2.309   0.145  -0.073  0.00  0.00     0.002 A 
ATOM      6  C6  I4B d   1       1.889   1.481  -0.141  0.00  0.00     0.003 A 
ENDROOT
BRANCH   1   7
ATOM      7  C1' I4B d   1       0.770   3.356  -1.378  0.00  0.00     0.060 C 
BRANCH   7   8
ATOM      8  C2' I4B d   1       1.575   4.159  -0.377  0.00  0.00    -0.013 C 
ATOM      9  C4' I4B d   1       1.524   5.631  -0.693  0.00  0.00     0.013 C 
ATOM     10  C3' I4B d   1       1.025   3.880   0.990  0.00  0.00     0.013 C 
ENDBRANCH   7   8
ENDBRANCH   1   7
TORSDOF 2
ENDMDL
