MODEL 1
REMARK minimizedAffinity 8.07116127
REMARK minimizedRMSD -1
REMARK  2 active torsions:
REMARK  status: ('A' for Active; 'I' for Inactive)
REMARK    1  A    between atoms: C2'_3  and  C1'_4 
REMARK    2  A    between atoms: C1'_4  and  C1_5 
ROOT
ATOM      1  C1  I4B d   1       1.129   2.725  -0.933  0.00  0.00    -0.075 A 
ATOM      2  C2  I4B d   1       1.027   2.711   0.436  0.00  0.00     0.003 A 
ATOM      3  C3  I4B d   1       1.100   3.920   1.168  0.00  0.00     0.002 A 
ATOM      4  C4  I4B d   1       1.324   5.107   0.501  0.00  0.00    -0.004 A 
ATOM      5  C5  I4B d   1       1.404   5.122  -0.889  0.00  0.00     0.002 A 
ATOM      6  C6  I4B d   1       1.293   3.925  -1.612  0.00  0.00     0.003 A 
ENDROOT
BRANCH   1   7
ATOM      7  C1' I4B d   1       1.081   1.426  -1.672  0.00  0.00     0.060 C 
BRANCH   7   8
ATOM      8  C2' I4B d   1       1.175   0.306  -0.656  0.00  0.00    -0.013 C 
ATOM      9  C4' I4B d   1       0.858  -1.027  -1.281  0.00  0.00     0.013 C 
ATOM     10  C3' I4B d   1       2.560   0.318  -0.081  0.00  0.00     0.013 C 
ENDBRANCH   7   8
ENDBRANCH   1   7
TORSDOF 2
ENDMDL
