MODEL 1
REMARK minimizedAffinity 5.59276628
REMARK minimizedRMSD -1
REMARK  2 active torsions:
REMARK  status: ('A' for Active; 'I' for Inactive)
REMARK    1  A    between atoms: C2'_3  and  C1'_4 
REMARK    2  A    between atoms: C1'_4  and  C1_5 
ROOT
ATOM      1  C1  I4B d   1       1.801   0.660  -0.726  0.00  0.00    -0.075 A 
ATOM      2  C2  I4B d   1       1.805   1.443  -1.853  0.00  0.00     0.003 A 
ATOM      3  C3  I4B d   1       1.439   2.809  -1.773  0.00  0.00     0.002 A 
ATOM      4  C4  I4B d   1       1.030   3.334  -0.564  0.00  0.00    -0.004 A 
ATOM      5  C5  I4B d   1       1.049   2.544   0.582  0.00  0.00     0.002 A 
ATOM      6  C6  I4B d   1       1.448   1.202   0.503  0.00  0.00     0.003 A 
ENDROOT
BRANCH   1   7
ATOM      7  C1' I4B d   1       2.161  -0.786  -0.852  0.00  0.00     0.060 C 
BRANCH   7   8
ATOM      8  C2' I4B d   1       3.246  -1.087   0.162  0.00  0.00    -0.013 C 
ATOM      9  C4' I4B d   1       3.637  -2.541   0.126  0.00  0.00     0.013 C 
ATOM     10  C3' I4B d   1       4.419  -0.203  -0.139  0.00  0.00     0.013 C 
ENDBRANCH   7   8
ENDBRANCH   1   7
TORSDOF 2
ENDMDL
