MODEL 1
REMARK minimizedAffinity 2.6923461
REMARK minimizedRMSD -1
REMARK  2 active torsions:
REMARK  status: ('A' for Active; 'I' for Inactive)
REMARK    1  A    between atoms: C2'_3  and  C1'_4 
REMARK    2  A    between atoms: C1'_4  and  C1_5 
ROOT
ATOM      1  C1  I4B d   1       0.868   1.544  -1.049  0.00  0.00    -0.075 A 
ATOM      2  C2  I4B d   1       1.195   2.172  -2.225  0.00  0.00     0.003 A 
ATOM      3  C3  I4B d   1       1.435   3.567  -2.245  0.00  0.00     0.002 A 
ATOM      4  C4  I4B d   1       1.288   4.299  -1.085  0.00  0.00    -0.004 A 
ATOM      5  C5  I4B d   1       0.979   3.657   0.111  0.00  0.00     0.002 A 
ATOM      6  C6  I4B d   1       0.779   2.269   0.132  0.00  0.00     0.003 A 
ENDROOT
BRANCH   1   7
ATOM      7  C1' I4B d   1       0.589   0.074  -1.070  0.00  0.00     0.060 C 
BRANCH   7   8
ATOM      8  C2' I4B d   1       0.971  -0.493   0.282  0.00  0.00    -0.013 C 
ATOM      9  C4' I4B d   1       0.764  -1.984   0.326  0.00  0.00     0.013 C 
ATOM     10  C3' I4B d   1       2.403  -0.137   0.546  0.00  0.00     0.013 C 
ENDBRANCH   7   8
ENDBRANCH   1   7
TORSDOF 2
ENDMDL
