MODEL 1
REMARK minimizedAffinity 2.50422812
REMARK minimizedRMSD -1
REMARK  2 active torsions:
REMARK  status: ('A' for Active; 'I' for Inactive)
REMARK    1  A    between atoms: C2'_3  and  C1'_4 
REMARK    2  A    between atoms: C1'_4  and  C1_5 
ROOT
ATOM      1  C1  I4B d   1       0.821   1.859  -0.449  0.00  0.00    -0.075 A 
ATOM      2  C2  I4B d   1       0.761   0.844  -1.370  0.00  0.00     0.003 A 
ATOM      3  C3  I4B d   1       0.922  -0.502  -0.960  0.00  0.00     0.002 A 
ATOM      4  C4  I4B d   1       1.189  -0.781   0.365  0.00  0.00    -0.004 A 
ATOM      5  C5  I4B d   1       1.228   0.248   1.302  0.00  0.00     0.002 A 
ATOM      6  C6  I4B d   1       1.030   1.576   0.895  0.00  0.00     0.003 A 
ENDROOT
BRANCH   1   7
ATOM      7  C1' I4B d   1       0.680   3.271  -0.922  0.00  0.00     0.060 C 
BRANCH   7   8
ATOM      8  C2' I4B d   1       1.611   4.136  -0.097  0.00  0.00    -0.013 C 
ATOM      9  C4' I4B d   1       1.727   5.520  -0.677  0.00  0.00     0.013 C 
ATOM     10  C3' I4B d   1       1.081   4.179   1.305  0.00  0.00     0.013 C 
ENDBRANCH   7   8
ENDBRANCH   1   7
TORSDOF 2
ENDMDL
