MODEL 1
REMARK minimizedAffinity 0.963937342
REMARK minimizedRMSD -1
REMARK  2 active torsions:
REMARK  status: ('A' for Active; 'I' for Inactive)
REMARK    1  A    between atoms: C2'_3  and  C1'_4 
REMARK    2  A    between atoms: C1'_4  and  C1_5 
ROOT
ATOM      1  C1  I4B d   1       1.267   2.174   0.374  0.00  0.00    -0.075 A 
ATOM      2  C2  I4B d   1       1.252   3.312  -0.392  0.00  0.00     0.003 A 
ATOM      3  C3  I4B d   1       1.129   3.222  -1.800  0.00  0.00     0.002 A 
ATOM      4  C4  I4B d   1       1.077   1.981  -2.400  0.00  0.00    -0.004 A 
ATOM      5  C5  I4B d   1       1.071   0.828  -1.619  0.00  0.00     0.002 A 
ATOM      6  C6  I4B d   1       1.154   0.925  -0.223  0.00  0.00     0.003 A 
ENDROOT
BRANCH   1   7
ATOM      7  C1' I4B d   1       1.431   2.304   1.855  0.00  0.00     0.060 C 
BRANCH   7   8
ATOM      8  C2' I4B d   1       0.580   1.238   2.514  0.00  0.00    -0.013 C 
ATOM      9  C4' I4B d   1       1.314   0.582   3.654  0.00  0.00     0.013 C 
ATOM     10  C3' I4B d   1      -0.688   1.885   2.988  0.00  0.00     0.013 C 
ENDBRANCH   7   8
ENDBRANCH   1   7
TORSDOF 2
ENDMDL
