MODEL 1
REMARK minimizedAffinity -1.71072841
REMARK minimizedRMSD -1
REMARK  2 active torsions:
REMARK  status: ('A' for Active; 'I' for Inactive)
REMARK    1  A    between atoms: C2'_3  and  C1'_4 
REMARK    2  A    between atoms: C1'_4  and  C1_5 
ROOT
ATOM      1  C1  I4B d   1       0.968   1.469  -0.883  0.00  0.00    -0.075 A 
ATOM      2  C2  I4B d   1       0.821   1.974   0.385  0.00  0.00     0.003 A 
ATOM      3  C3  I4B d   1       0.684   3.369   0.584  0.00  0.00     0.002 A 
ATOM      4  C4  I4B d   1       0.751   4.221  -0.500  0.00  0.00    -0.004 A 
ATOM      5  C5  I4B d   1       0.878   3.705  -1.786  0.00  0.00     0.002 A 
ATOM      6  C6  I4B d   1       0.975   2.319  -1.981  0.00  0.00     0.003 A 
ENDROOT
BRANCH   1   7
ATOM      7  C1' I4B d   1       1.142  -0.007  -1.055  0.00  0.00     0.060 C 
BRANCH   7   8
ATOM      8  C2' I4B d   1       1.824  -0.544   0.187  0.00  0.00    -0.013 C 
ATOM      9  C4' I4B d   1       1.431  -1.974   0.450  0.00  0.00     0.013 C 
ATOM     10  C3' I4B d   1       3.306  -0.417  -0.006  0.00  0.00     0.013 C 
ENDBRANCH   7   8
ENDBRANCH   1   7
TORSDOF 2
ENDMDL
