MODEL 1
REMARK minimizedAffinity 5.22331619
REMARK minimizedRMSD -1
REMARK  2 active torsions:
REMARK  status: ('A' for Active; 'I' for Inactive)
REMARK    1  A    between atoms: C2'_3  and  C1'_4 
REMARK    2  A    between atoms: C1'_4  and  C1_5 
ROOT
ATOM      1  C1  I4B d   1       0.304   1.345  -0.784  0.00  0.00    -0.075 A 
ATOM      2  C2  I4B d   1       0.844   0.196  -1.304  0.00  0.00     0.003 A 
ATOM      3  C3  I4B d   1       1.771  -0.562  -0.547  0.00  0.00     0.002 A 
ATOM      4  C4  I4B d   1       2.164  -0.109   0.696  0.00  0.00    -0.004 A 
ATOM      5  C5  I4B d   1       1.598   1.045   1.231  0.00  0.00     0.002 A 
ATOM      6  C6  I4B d   1       0.652   1.770   0.491  0.00  0.00     0.003 A 
ENDROOT
BRANCH   1   7
ATOM      7  C1' I4B d   1      -0.647   2.138  -1.624  0.00  0.00     0.060 C 
BRANCH   7   8
ATOM      8  C2' I4B d   1       0.169   2.976  -2.588  0.00  0.00    -0.013 C 
ATOM      9  C4' I4B d   1      -0.721   3.777  -3.501  0.00  0.00     0.013 C 
ATOM     10  C3' I4B d   1       1.064   3.869  -1.782  0.00  0.00     0.013 C 
ENDBRANCH   7   8
ENDBRANCH   1   7
TORSDOF 2
ENDMDL
