MODEL 1
REMARK minimizedAffinity 3.17073655
REMARK minimizedRMSD -1
REMARK  2 active torsions:
REMARK  status: ('A' for Active; 'I' for Inactive)
REMARK    1  A    between atoms: C2'_3  and  C1'_4 
REMARK    2  A    between atoms: C1'_4  and  C1_5 
ROOT
ATOM      1  C1  I4B d   1       0.473   1.459  -0.762  0.00  0.00    -0.075 A 
ATOM      2  C2  I4B d   1       0.691   0.214  -1.298  0.00  0.00     0.003 A 
ATOM      3  C3  I4B d   1       1.506  -0.723  -0.617  0.00  0.00     0.002 A 
ATOM      4  C4  I4B d   1       2.119  -0.358   0.564  0.00  0.00    -0.004 A 
ATOM      5  C5  I4B d   1       1.879   0.896   1.117  0.00  0.00     0.002 A 
ATOM      6  C6  I4B d   1       1.041   1.806   0.457  0.00  0.00     0.003 A 
ENDROOT
BRANCH   1   7
ATOM      7  C1' I4B d   1      -0.366   2.435  -1.524  0.00  0.00     0.060 C 
BRANCH   7   8
ATOM      8  C2' I4B d   1       0.564   3.337  -2.310  0.00  0.00    -0.013 C 
ATOM      9  C4' I4B d   1       1.149   4.413  -1.433  0.00  0.00     0.013 C 
ATOM     10  C3' I4B d   1       1.641   2.482  -2.909  0.00  0.00     0.013 C 
ENDBRANCH   7   8
ENDBRANCH   1   7
TORSDOF 2
ENDMDL
