MODEL 1
REMARK minimizedAffinity -2.53666139
REMARK minimizedRMSD -1
REMARK  1 active torsions:
REMARK  status: ('A' for Active; 'I' for Inactive)
REMARK    1  A    between atoms: C1_2  and  C2_3 
ROOT
ATOM      1  C2  UNL d   1       1.370  -0.386  -1.248  0.00  0.00    -0.076 A 
ATOM      2  C3  UNL d   1       0.868   0.826  -0.743  0.00  0.00     0.004 A 
ATOM      3  C4  UNL d   1      -0.030   0.841   0.323  0.00  0.00    -0.003 A 
ATOM      4  C5  UNL d   1      -0.441  -0.355   0.901  0.00  0.00     0.000 A 
ATOM      5  C6  UNL d   1       0.060  -1.566   0.423  0.00  0.00     0.000 A 
ATOM      6  C7  UNL d   1       0.979  -1.598  -0.640  0.00  0.00    -0.073 A 
ATOM      7  C8  UNL d   1       1.483  -2.932  -1.118  0.00  0.00     0.078 C 
ENDROOT
BRANCH   1   8
ATOM      8  C1  UNL d   1       2.321  -0.342  -2.423  0.00  0.00     0.053 C 
ATOM      9  C   UNL d   1       3.766  -0.582  -2.013  0.00  0.00     0.018 C 
ENDBRANCH   1   8
TORSDOF 1
ENDMDL
