MODEL 1
REMARK minimizedAffinity -1.54951024
REMARK minimizedRMSD -1
REMARK  1 active torsions:
REMARK  status: ('A' for Active; 'I' for Inactive)
REMARK    1  A    between atoms: C1_2  and  C2_3 
ROOT
ATOM      1  C2  UNL d   1      -1.250   0.072   0.228  0.00  0.00    -0.076 A 
ATOM      2  C3  UNL d   1      -1.181   1.210  -0.593  0.00  0.00     0.004 A 
ATOM      3  C4  UNL d   1       0.030   1.623  -1.147  0.00  0.00    -0.003 A 
ATOM      4  C5  UNL d   1       1.191   0.903  -0.890  0.00  0.00     0.000 A 
ATOM      5  C6  UNL d   1       1.138  -0.239  -0.091  0.00  0.00     0.000 A 
ATOM      6  C7  UNL d   1      -0.077  -0.678   0.462  0.00  0.00    -0.073 A 
ATOM      7  C8  UNL d   1      -0.075  -1.913   1.320  0.00  0.00     0.078 C 
ENDROOT
BRANCH   1   8
ATOM      8  C1  UNL d   1      -2.586  -0.312   0.823  0.00  0.00     0.053 C 
ATOM      9  C   UNL d   1      -3.075   0.694   1.853  0.00  0.00     0.018 C 
ENDBRANCH   1   8
TORSDOF 1
ENDMDL
