MODEL 1
REMARK minimizedAffinity -0.0450264737
REMARK minimizedRMSD -1
REMARK  1 active torsions:
REMARK  status: ('A' for Active; 'I' for Inactive)
REMARK    1  A    between atoms: C1_2  and  C2_3 
ROOT
ATOM      1  C2  UNL d   1       1.100  -1.016  -0.467  0.00  0.00    -0.076 A 
ATOM      2  C3  UNL d   1       0.046  -1.275   0.426  0.00  0.00     0.004 A 
ATOM      3  C4  UNL d   1      -0.768  -0.245   0.894  0.00  0.00    -0.003 A 
ATOM      4  C5  UNL d   1      -0.542   1.062   0.475  0.00  0.00     0.000 A 
ATOM      5  C6  UNL d   1       0.487   1.335  -0.425  0.00  0.00     0.000 A 
ATOM      6  C7  UNL d   1       1.307   0.305  -0.919  0.00  0.00    -0.073 A 
ATOM      7  C8  UNL d   1       2.407   0.658  -1.883  0.00  0.00     0.078 C 
ENDROOT
BRANCH   1   8
ATOM      8  C1  UNL d   1       1.967  -2.169  -0.919  0.00  0.00     0.053 C 
ATOM      9  C   UNL d   1       1.336  -3.522  -0.626  0.00  0.00     0.018 C 
ENDBRANCH   1   8
TORSDOF 1
ENDMDL
