MODEL 1
REMARK minimizedAffinity -4.73514843
REMARK minimizedRMSD -1
REMARK  1 active torsions:
REMARK  status: ('A' for Active; 'I' for Inactive)
REMARK    1  A    between atoms: C1_2  and  C2_3 
ROOT
ATOM      1  C2  UNL d   1      -1.751   0.498   0.888  0.00  0.00    -0.076 A 
ATOM      2  C3  UNL d   1      -1.332   0.804  -0.419  0.00  0.00     0.004 A 
ATOM      3  C4  UNL d   1      -0.045   1.276  -0.667  0.00  0.00    -0.003 A 
ATOM      4  C5  UNL d   1       0.846   1.449   0.387  0.00  0.00     0.000 A 
ATOM      5  C6  UNL d   1       0.453   1.134   1.687  0.00  0.00     0.000 A 
ATOM      6  C7  UNL d   1      -0.836   0.642   1.953  0.00  0.00    -0.073 A 
ATOM      7  C8  UNL d   1      -1.209   0.324   3.375  0.00  0.00     0.078 C 
ENDROOT
BRANCH   1   8
ATOM      8  C1  UNL d   1      -3.168   0.016   1.100  0.00  0.00     0.053 C 
ATOM      9  C   UNL d   1      -4.140   1.157   1.355  0.00  0.00     0.018 C 
ENDBRANCH   1   8
TORSDOF 1
ENDMDL
