MODEL 1
REMARK minimizedAffinity -2.43802547
REMARK minimizedRMSD -1
REMARK  1 active torsions:
REMARK  status: ('A' for Active; 'I' for Inactive)
REMARK    1  A    between atoms: C1_2  and  C2_3 
ROOT
ATOM      1  C2  UNL d   1      -1.244   0.446   0.371  0.00  0.00    -0.076 A 
ATOM      2  C3  UNL d   1      -1.065   1.280  -0.747  0.00  0.00     0.004 A 
ATOM      3  C4  UNL d   1       0.211   1.590  -1.213  0.00  0.00    -0.003 A 
ATOM      4  C5  UNL d   1       1.329   1.070  -0.570  0.00  0.00     0.000 A 
ATOM      5  C6  UNL d   1       1.170   0.227   0.529  0.00  0.00     0.000 A 
ATOM      6  C7  UNL d   1      -0.110  -0.108   1.002  0.00  0.00    -0.073 A 
ATOM      7  C8  UNL d   1      -0.224  -1.017   2.196  0.00  0.00     0.078 C 
ENDROOT
BRANCH   1   8
ATOM      8  C1  UNL d   1      -2.652   0.167   0.848  0.00  0.00     0.053 C 
ATOM      9  C   UNL d   1      -3.193   1.271   1.744  0.00  0.00     0.018 C 
ENDBRANCH   1   8
TORSDOF 1
ENDMDL
