MODEL 1
REMARK minimizedAffinity -3.88572741
REMARK minimizedRMSD -1
REMARK  1 active torsions:
REMARK  status: ('A' for Active; 'I' for Inactive)
REMARK    1  A    between atoms: C1_2  and  C2_3 
ROOT
ATOM      1  C2  UNL d   1       0.570   0.009  -1.260  0.00  0.00    -0.076 A 
ATOM      2  C3  UNL d   1       0.087   1.254  -0.821  0.00  0.00     0.004 A 
ATOM      3  C4  UNL d   1      -0.781   1.344   0.265  0.00  0.00    -0.003 A 
ATOM      4  C5  UNL d   1      -1.181   0.191   0.931  0.00  0.00     0.000 A 
ATOM      5  C6  UNL d   1      -0.698  -1.051   0.520  0.00  0.00     0.000 A 
ATOM      6  C7  UNL d   1       0.191  -1.158  -0.563  0.00  0.00    -0.073 A 
ATOM      7  C8  UNL d   1       0.676  -2.524  -0.967  0.00  0.00     0.078 C 
ENDROOT
BRANCH   1   8
ATOM      8  C1  UNL d   1       1.488  -0.030  -2.461  0.00  0.00     0.053 C 
ATOM      9  C   UNL d   1       2.922   0.339  -2.110  0.00  0.00     0.018 C 
ENDBRANCH   1   8
TORSDOF 1
ENDMDL
