MODEL 1
REMARK minimizedAffinity -4.8185091
REMARK minimizedRMSD -1
REMARK  1 active torsions:
REMARK  status: ('A' for Active; 'I' for Inactive)
REMARK    1  A    between atoms: C1_2  and  C2_3 
ROOT
ATOM      1  C2  UNL d   1      -0.088  -0.167  -0.166  0.00  0.00    -0.076 A 
ATOM      2  C3  UNL d   1      -0.059   1.129  -0.711  0.00  0.00     0.004 A 
ATOM      3  C4  UNL d   1       0.486   1.365  -1.972  0.00  0.00    -0.003 A 
ATOM      4  C5  UNL d   1       1.010   0.309  -2.709  0.00  0.00     0.000 A 
ATOM      5  C6  UNL d   1       0.974  -0.986  -2.192  0.00  0.00     0.000 A 
ATOM      6  C7  UNL d   1       0.413  -1.243  -0.929  0.00  0.00    -0.073 A 
ATOM      7  C8  UNL d   1       0.405  -2.658  -0.418  0.00  0.00     0.078 C 
ENDROOT
BRANCH   1   8
ATOM      8  C1  UNL d   1      -0.668  -0.358   1.217  0.00  0.00     0.053 C 
ATOM      9  C   UNL d   1      -2.128   0.057   1.300  0.00  0.00     0.018 C 
ENDBRANCH   1   8
TORSDOF 1
ENDMDL
