MODEL 1
REMARK minimizedAffinity -0.794312298
REMARK minimizedRMSD -1
REMARK  1 active torsions:
REMARK  status: ('A' for Active; 'I' for Inactive)
REMARK    1  A    between atoms: C1_2  and  C2_3 
ROOT
ATOM      1  C2  UNL d   1      -0.995   0.022   1.046  0.00  0.00    -0.076 A 
ATOM      2  C3  UNL d   1      -0.579  -1.309   1.221  0.00  0.00     0.004 A 
ATOM      3  C4  UNL d   1      -0.033  -2.036   0.164  0.00  0.00    -0.003 A 
ATOM      4  C5  UNL d   1       0.108  -1.442  -1.085  0.00  0.00     0.000 A 
ATOM      5  C6  UNL d   1      -0.283  -0.116  -1.272  0.00  0.00     0.000 A 
ATOM      6  C7  UNL d   1      -0.820   0.635  -0.213  0.00  0.00    -0.073 A 
ATOM      7  C8  UNL d   1      -1.230   2.059  -0.473  0.00  0.00     0.078 C 
ENDROOT
BRANCH   1   8
ATOM      8  C1  UNL d   1      -1.605   0.751   2.222  0.00  0.00     0.053 C 
ATOM      9  C   UNL d   1      -3.125   0.767   2.172  0.00  0.00     0.018 C 
ENDBRANCH   1   8
TORSDOF 1
ENDMDL
