MODEL 1
REMARK minimizedAffinity -1.01944411
REMARK minimizedRMSD -1
REMARK  1 active torsions:
REMARK  status: ('A' for Active; 'I' for Inactive)
REMARK    1  A    between atoms: C1_2  and  C2_3 
ROOT
ATOM      1  C2  UNL d   1      -1.134   0.183   0.832  0.00  0.00    -0.076 A 
ATOM      2  C3  UNL d   1      -1.040   1.495   0.338  0.00  0.00     0.004 A 
ATOM      3  C4  UNL d   1       0.070   1.908  -0.397  0.00  0.00    -0.003 A 
ATOM      4  C5  UNL d   1       1.104   1.014  -0.651  0.00  0.00     0.000 A 
ATOM      5  C6  UNL d   1       1.020  -0.297  -0.184  0.00  0.00     0.000 A 
ATOM      6  C7  UNL d   1      -0.099  -0.734   0.545  0.00  0.00    -0.073 A 
ATOM      7  C8  UNL d   1      -0.135  -2.157   1.030  0.00  0.00     0.078 C 
ENDROOT
BRANCH   1   8
ATOM      8  C1  UNL d   1      -2.349  -0.200   1.647  0.00  0.00     0.053 C 
ATOM      9  C   UNL d   1      -3.370   0.923   1.732  0.00  0.00     0.018 C 
ENDBRANCH   1   8
TORSDOF 1
ENDMDL
