MODEL 1
REMARK minimizedAffinity -1.13938642
REMARK minimizedRMSD -1
REMARK  1 active torsions:
REMARK  status: ('A' for Active; 'I' for Inactive)
REMARK    1  A    between atoms: C1_2  and  C2_3 
ROOT
ATOM      1  C2  UNL d   1       0.685  -0.471  -0.233  0.00  0.00    -0.076 A 
ATOM      2  C3  UNL d   1       1.067   0.858  -0.485  0.00  0.00     0.004 A 
ATOM      3  C4  UNL d   1       2.042   1.155  -1.436  0.00  0.00    -0.003 A 
ATOM      4  C5  UNL d   1       2.649   0.129  -2.151  0.00  0.00     0.000 A 
ATOM      5  C6  UNL d   1       2.270  -1.194  -1.926  0.00  0.00     0.000 A 
ATOM      6  C7  UNL d   1       1.277  -1.510  -0.982  0.00  0.00    -0.073 A 
ATOM      7  C8  UNL d   1       0.912  -2.954  -0.776  0.00  0.00     0.078 C 
ENDROOT
BRANCH   1   8
ATOM      8  C1  UNL d   1      -0.358  -0.736   0.830  0.00  0.00     0.053 C 
ATOM      9  C   UNL d   1      -1.633   0.062   0.606  0.00  0.00     0.018 C 
ENDBRANCH   1   8
TORSDOF 1
ENDMDL
