MODEL 1
REMARK minimizedAffinity -1.72414851
REMARK minimizedRMSD -1
REMARK  1 active torsions:
REMARK  status: ('A' for Active; 'I' for Inactive)
REMARK    1  A    between atoms: C1_2  and  C2_3 
ROOT
ATOM      1  C2  UNL d   1      -0.718  -0.220   0.651  0.00  0.00    -0.076 A 
ATOM      2  C3  UNL d   1      -0.115  -1.489   0.711  0.00  0.00     0.004 A 
ATOM      3  C4  UNL d   1       0.512  -2.039  -0.406  0.00  0.00    -0.003 A 
ATOM      4  C5  UNL d   1       0.546  -1.329  -1.601  0.00  0.00     0.000 A 
ATOM      5  C6  UNL d   1      -0.032  -0.062  -1.674  0.00  0.00     0.000 A 
ATOM      6  C7  UNL d   1      -0.654   0.514  -0.553  0.00  0.00    -0.073 A 
ATOM      7  C8  UNL d   1      -1.266   1.881  -0.689  0.00  0.00     0.078 C 
ENDROOT
BRANCH   1   8
ATOM      8  C1  UNL d   1      -1.407   0.313   1.887  0.00  0.00     0.053 C 
ATOM      9  C   UNL d   1      -2.919   0.162   1.822  0.00  0.00     0.018 C 
ENDBRANCH   1   8
TORSDOF 1
ENDMDL
