MODEL 1
REMARK minimizedAffinity -2.61269689
REMARK minimizedRMSD -1
REMARK  1 active torsions:
REMARK  status: ('A' for Active; 'I' for Inactive)
REMARK    1  A    between atoms: C1_2  and  C2_3 
ROOT
ATOM      1  C2  UNL d   1      -0.224   0.341   0.079  0.00  0.00    -0.076 A 
ATOM      2  C3  UNL d   1      -0.135   1.743   0.083  0.00  0.00     0.004 A 
ATOM      3  C4  UNL d   1       0.889   2.399  -0.598  0.00  0.00    -0.003 A 
ATOM      4  C5  UNL d   1       1.841   1.663  -1.294  0.00  0.00     0.000 A 
ATOM      5  C6  UNL d   1       1.758   0.271  -1.323  0.00  0.00     0.000 A 
ATOM      6  C7  UNL d   1       0.723  -0.405  -0.655  0.00  0.00    -0.073 A 
ATOM      7  C8  UNL d   1       0.686  -1.908  -0.715  0.00  0.00     0.078 C 
ENDROOT
BRANCH   1   8
ATOM      8  C1  UNL d   1      -1.341  -0.316   0.858  0.00  0.00     0.053 C 
ATOM      9  C   UNL d   1      -2.347   0.690   1.396  0.00  0.00     0.018 C 
ENDBRANCH   1   8
TORSDOF 1
ENDMDL
