MODEL 1
REMARK minimizedAffinity 6.76468086
REMARK minimizedRMSD -1
REMARK  1 active torsions:
REMARK  status: ('A' for Active; 'I' for Inactive)
REMARK    1  A    between atoms: C1_2  and  C2_3 
ROOT
ATOM      1  C2  UNL d   1      -0.136  -5.477  -3.225  0.00  0.00    -0.076 A 
ATOM      2  C3  UNL d   1       1.008  -5.401  -4.038  0.00  0.00     0.004 A 
ATOM      3  C4  UNL d   1       0.929  -5.629  -5.411  0.00  0.00    -0.003 A 
ATOM      4  C5  UNL d   1      -0.296  -5.935  -5.993  0.00  0.00     0.000 A 
ATOM      5  C6  UNL d   1      -1.444  -5.998  -5.204  0.00  0.00     0.000 A 
ATOM      6  C7  UNL d   1      -1.384  -5.755  -3.821  0.00  0.00    -0.073 A 
ATOM      7  C8  UNL d   1      -2.653  -5.841  -3.018  0.00  0.00     0.078 C 
ENDROOT
BRANCH   1   8
ATOM      8  C1  UNL d   1       0.016  -5.247  -1.738  0.00  0.00     0.053 C 
ATOM      9  C   UNL d   1       0.045  -3.770  -1.377  0.00  0.00     0.018 C 
ENDBRANCH   1   8
TORSDOF 1
ENDMDL
