MODEL 1
REMARK minimizedAffinity 5.09414911
REMARK minimizedRMSD -1
REMARK  1 active torsions:
REMARK  status: ('A' for Active; 'I' for Inactive)
REMARK    1  A    between atoms: C1_2  and  C2_3 
ROOT
ATOM      1  C2  UNL d   1       0.235  -5.935  -4.263  0.00  0.00    -0.076 A 
ATOM      2  C3  UNL d   1      -0.522  -5.900  -5.447  0.00  0.00     0.004 A 
ATOM      3  C4  UNL d   1      -1.915  -5.922  -5.409  0.00  0.00    -0.003 A 
ATOM      4  C5  UNL d   1      -2.574  -5.980  -4.186  0.00  0.00     0.000 A 
ATOM      5  C6  UNL d   1      -1.840  -5.998  -3.001  0.00  0.00     0.000 A 
ATOM      6  C7  UNL d   1      -0.435  -5.959  -3.021  0.00  0.00    -0.073 A 
ATOM      7  C8  UNL d   1       0.307  -5.987  -1.713  0.00  0.00     0.078 C 
ENDROOT
BRANCH   1   8
ATOM      8  C1  UNL d   1       1.743  -5.936  -4.367  0.00  0.00     0.053 C 
ATOM      9  C   UNL d   1       2.228  -5.773  -5.799  0.00  0.00     0.018 C 
ENDBRANCH   1   8
TORSDOF 1
ENDMDL
