MODEL 1
REMARK minimizedAffinity 4.09579802
REMARK minimizedRMSD -1
REMARK  1 active torsions:
REMARK  status: ('A' for Active; 'I' for Inactive)
REMARK    1  A    between atoms: C1_2  and  C2_3 
ROOT
ATOM      1  C2  UNL d   1       3.509   4.079   0.174  0.00  0.00    -0.076 A 
ATOM      2  C3  UNL d   1       2.808   5.134   0.784  0.00  0.00     0.004 A 
ATOM      3  C4  UNL d   1       1.423   5.085   0.928  0.00  0.00    -0.003 A 
ATOM      4  C5  UNL d   1       0.716   3.981   0.466  0.00  0.00     0.000 A 
ATOM      5  C6  UNL d   1       1.397   2.917  -0.126  0.00  0.00     0.000 A 
ATOM      6  C7  UNL d   1       2.795   2.943  -0.265  0.00  0.00    -0.073 A 
ATOM      7  C8  UNL d   1       3.478   1.771  -0.916  0.00  0.00     0.078 C 
ENDROOT
BRANCH   1   8
ATOM      8  C1  UNL d   1       5.009   4.199   0.020  0.00  0.00     0.053 C 
ATOM      9  C   UNL d   1       5.414   4.716  -1.351  0.00  0.00     0.018 C 
ENDBRANCH   1   8
TORSDOF 1
ENDMDL
