MODEL 1
REMARK minimizedAffinity 7.33765841
REMARK minimizedRMSD -1
REMARK  1 active torsions:
REMARK  status: ('A' for Active; 'I' for Inactive)
REMARK    1  A    between atoms: C1_2  and  C2_3 
ROOT
ATOM      1  C2  UNL d   1      -4.313  -5.047   0.315  0.00  0.00    -0.076 A 
ATOM      2  C3  UNL d   1      -5.181  -6.000   0.877  0.00  0.00     0.004 A 
ATOM      3  C4  UNL d   1      -5.464  -5.995   2.242  0.00  0.00    -0.003 A 
ATOM      4  C5  UNL d   1      -4.885  -5.038   3.067  0.00  0.00     0.000 A 
ATOM      5  C6  UNL d   1      -4.036  -4.074   2.524  0.00  0.00     0.000 A 
ATOM      6  C7  UNL d   1      -3.753  -4.054   1.147  0.00  0.00    -0.073 A 
ATOM      7  C8  UNL d   1      -2.826  -2.995   0.616  0.00  0.00     0.078 C 
ENDROOT
BRANCH   1   8
ATOM      8  C1  UNL d   1      -4.022  -5.117  -1.167  0.00  0.00     0.053 C 
ATOM      9  C   UNL d   1      -5.013  -5.996  -1.914  0.00  0.00     0.018 C 
ENDBRANCH   1   8
TORSDOF 1
ENDMDL
