MODEL 1
REMARK minimizedAffinity -0.409674376
REMARK minimizedRMSD -1
REMARK  1 active torsions:
REMARK  status: ('A' for Active; 'I' for Inactive)
REMARK    1  A    between atoms: C1_2  and  C2_3 
ROOT
ATOM      1  C2  UNL d   1       1.431  -1.142   0.764  0.00  0.00    -0.076 A 
ATOM      2  C3  UNL d   1       0.775   0.083   0.976  0.00  0.00     0.004 A 
ATOM      3  C4  UNL d   1      -0.608   0.138   1.136  0.00  0.00    -0.003 A 
ATOM      4  C5  UNL d   1      -1.359  -1.032   1.088  0.00  0.00     0.000 A 
ATOM      5  C6  UNL d   1      -0.723  -2.258   0.896  0.00  0.00     0.000 A 
ATOM      6  C7  UNL d   1       0.673  -2.332   0.749  0.00  0.00    -0.073 A 
ATOM      7  C8  UNL d   1       1.306  -3.681   0.538  0.00  0.00     0.078 C 
ENDROOT
BRANCH   1   8
ATOM      8  C1  UNL d   1       2.930  -1.137   0.569  0.00  0.00     0.053 C 
ATOM      9  C   UNL d   1       3.384  -0.090  -0.437  0.00  0.00     0.018 C 
ENDBRANCH   1   8
TORSDOF 1
ENDMDL
