MODEL 1
REMARK minimizedAffinity 6.08025837
REMARK minimizedRMSD -1
REMARK  1 active torsions:
REMARK  status: ('A' for Active; 'I' for Inactive)
REMARK    1  A    between atoms: C1_2  and  C2_3 
ROOT
ATOM      1  C2  UNL d   1      -1.798  -5.908  -3.392  0.00  0.00    -0.076 A 
ATOM      2  C3  UNL d   1      -2.341  -5.932  -4.689  0.00  0.00     0.004 A 
ATOM      3  C4  UNL d   1      -1.516  -5.977  -5.811  0.00  0.00    -0.003 A 
ATOM      4  C5  UNL d   1      -0.134  -5.998  -5.656  0.00  0.00     0.000 A 
ATOM      5  C6  UNL d   1       0.421  -5.992  -4.377  0.00  0.00     0.000 A 
ATOM      6  C7  UNL d   1      -0.396  -5.964  -3.234  0.00  0.00    -0.073 A 
ATOM      7  C8  UNL d   1       0.257  -5.953  -1.879  0.00  0.00     0.078 C 
ENDROOT
BRANCH   1   8
ATOM      8  C1  UNL d   1      -2.741  -5.832  -2.213  0.00  0.00     0.053 C 
ATOM      9  C   UNL d   1      -4.196  -5.709  -2.638  0.00  0.00     0.018 C 
ENDBRANCH   1   8
TORSDOF 1
ENDMDL
