MODEL 1
REMARK minimizedAffinity 0.7249825
REMARK minimizedRMSD -1
REMARK  1 active torsions:
REMARK  status: ('A' for Active; 'I' for Inactive)
REMARK    1  A    between atoms: C1_2  and  C2_3 
ROOT
ATOM      1  C2  UNL d   1      -1.265   1.181  -2.996  0.00  0.00    -0.076 A 
ATOM      2  C3  UNL d   1      -2.274   0.218  -2.821  0.00  0.00     0.004 A 
ATOM      3  C4  UNL d   1      -3.618   0.550  -2.978  0.00  0.00    -0.003 A 
ATOM      4  C5  UNL d   1      -3.976   1.851  -3.314  0.00  0.00     0.000 A 
ATOM      5  C6  UNL d   1      -2.988   2.815  -3.509  0.00  0.00     0.000 A 
ATOM      6  C7  UNL d   1      -1.627   2.493  -3.370  0.00  0.00    -0.073 A 
ATOM      7  C8  UNL d   1      -0.604   3.574  -3.586  0.00  0.00     0.078 C 
ENDROOT
BRANCH   1   8
ATOM      8  C1  UNL d   1       0.174   0.770  -2.786  0.00  0.00     0.053 C 
ATOM      9  C   UNL d   1       0.429   0.235  -1.385  0.00  0.00     0.018 C 
ENDBRANCH   1   8
TORSDOF 1
ENDMDL
