MODEL 1
REMARK minimizedAffinity -3.71413589
REMARK minimizedRMSD -1
REMARK  1 active torsions:
REMARK  status: ('A' for Active; 'I' for Inactive)
REMARK    1  A    between atoms: C1_2  and  C2_3 
ROOT
ATOM      1  C2  UNL d   1      -1.792  -5.861  -3.398  0.00  0.00    -0.076 A 
ATOM      2  C3  UNL d   1      -1.014  -5.718  -2.237  0.00  0.00     0.004 A 
ATOM      3  C4  UNL d   1       0.374  -5.612  -2.312  0.00  0.00    -0.003 A 
ATOM      4  C5  UNL d   1       1.006  -5.647  -3.550  0.00  0.00     0.000 A 
ATOM      5  C6  UNL d   1       0.248  -5.770  -4.714  0.00  0.00     0.000 A 
ATOM      6  C7  UNL d   1      -1.153  -5.862  -4.657  0.00  0.00    -0.073 A 
ATOM      7  C8  UNL d   1      -1.921  -6.000  -5.943  0.00  0.00     0.078 C 
ENDROOT
BRANCH   1   8
ATOM      8  C1  UNL d   1      -3.291  -5.999  -3.253  0.00  0.00     0.053 C 
ATOM      9  C   UNL d   1      -3.744  -5.941  -1.802  0.00  0.00     0.018 C 
ENDBRANCH   1   8
TORSDOF 1
ENDMDL
