MODEL 1
REMARK minimizedAffinity 3.97546577
REMARK minimizedRMSD -1
REMARK  1 active torsions:
REMARK  status: ('A' for Active; 'I' for Inactive)
REMARK    1  A    between atoms: C1_2  and  C2_3 
ROOT
ATOM      1  C2  UNL d   1      -0.494  -5.968  -2.928  0.00  0.00    -0.076 A 
ATOM      2  C3  UNL d   1       0.655  -5.951  -3.738  0.00  0.00     0.004 A 
ATOM      3  C4  UNL d   1       0.553  -5.965  -5.128  0.00  0.00    -0.003 A 
ATOM      4  C5  UNL d   1      -0.699  -5.997  -5.731  0.00  0.00     0.000 A 
ATOM      5  C6  UNL d   1      -1.850  -5.997  -4.943  0.00  0.00     0.000 A 
ATOM      6  C7  UNL d   1      -1.765  -5.966  -3.541  0.00  0.00    -0.073 A 
ATOM      7  C8  UNL d   1      -3.039  -5.974  -2.740  0.00  0.00     0.078 C 
ENDROOT
BRANCH   1   8
ATOM      8  C1  UNL d   1      -0.321  -5.979  -1.426  0.00  0.00     0.053 C 
ATOM      9  C   UNL d   1      -0.331  -4.580  -0.829  0.00  0.00     0.018 C 
ENDBRANCH   1   8
TORSDOF 1
ENDMDL
