MODEL 1
REMARK minimizedAffinity 7.21684361
REMARK minimizedRMSD -1
REMARK  1 active torsions:
REMARK  status: ('A' for Active; 'I' for Inactive)
REMARK    1  A    between atoms: C1_2  and  C2_3 
ROOT
ATOM      1  C2  UNL d   1       2.111  -1.348   0.777  0.00  0.00    -0.076 A 
ATOM      2  C3  UNL d   1       2.167  -2.751   0.852  0.00  0.00     0.004 A 
ATOM      3  C4  UNL d   1       1.011  -3.522   0.742  0.00  0.00    -0.003 A 
ATOM      4  C5  UNL d   1      -0.220  -2.902   0.556  0.00  0.00     0.000 A 
ATOM      5  C6  UNL d   1      -0.292  -1.513   0.462  0.00  0.00     0.000 A 
ATOM      6  C7  UNL d   1       0.866  -0.722   0.554  0.00  0.00    -0.073 A 
ATOM      7  C8  UNL d   1       0.730   0.773   0.452  0.00  0.00     0.078 C 
ENDROOT
BRANCH   1   8
ATOM      8  C1  UNL d   1       3.394  -0.563   0.930  0.00  0.00     0.053 C 
ATOM      9  C   UNL d   1       4.074  -0.292  -0.403  0.00  0.00     0.018 C 
ENDBRANCH   1   8
TORSDOF 1
ENDMDL
