MODEL 1
REMARK minimizedAffinity 4.71338892
REMARK minimizedRMSD -1
REMARK  1 active torsions:
REMARK  status: ('A' for Active; 'I' for Inactive)
REMARK    1  A    between atoms: C1_2  and  C2_3 
ROOT
ATOM      1  C2  UNL d   1      -3.414  -5.985  -2.304  0.00  0.00    -0.076 A 
ATOM      2  C3  UNL d   1      -3.226  -5.998  -0.911  0.00  0.00     0.004 A 
ATOM      3  C4  UNL d   1      -4.314  -5.978  -0.040  0.00  0.00    -0.003 A 
ATOM      4  C5  UNL d   1      -5.608  -5.944  -0.548  0.00  0.00     0.000 A 
ATOM      5  C6  UNL d   1      -5.814  -5.949  -1.927  0.00  0.00     0.000 A 
ATOM      6  C7  UNL d   1      -4.728  -5.985  -2.819  0.00  0.00    -0.073 A 
ATOM      7  C8  UNL d   1      -5.008  -5.982  -4.297  0.00  0.00     0.078 C 
ENDROOT
BRANCH   1   8
ATOM      8  C1  UNL d   1      -2.196  -5.980  -3.200  0.00  0.00     0.053 C 
ATOM      9  C   UNL d   1      -0.896  -5.895  -2.415  0.00  0.00     0.018 C 
ENDBRANCH   1   8
TORSDOF 1
ENDMDL
