MODEL 1
REMARK minimizedAffinity -5.08359051
REMARK minimizedRMSD -1
REMARK  0 active torsions:
REMARK  status: ('A' for Active; 'I' for Inactive)
ROOT
ATOM      1  N1  IND d   1      -0.572  -0.540  -0.718  0.00  0.00    -0.196 N 
ATOM      2  C2  IND d   1       0.698  -0.949  -1.015  0.00  0.00     0.054 A 
ATOM      3  C3  IND d   1       1.569  -0.488  -0.089  0.00  0.00    -0.031 A 
ATOM      4  C4  IND d   1       1.115   0.870   2.051  0.00  0.00     0.051 A 
ATOM      5  C5  IND d   1       0.116   1.510   2.728  0.00  0.00    -0.031 A 
ATOM      6  C6  IND d   1      -1.191   1.497   2.285  0.00  0.00     0.015 A 
ATOM      7  C7  IND d   1      -1.550   0.830   1.148  0.00  0.00    -0.016 A 
ATOM      8  C8  IND d   1      -0.537   0.185   0.453  0.00  0.00    -0.047 A 
ATOM      9  C9  IND d   1       0.798   0.231   0.875  0.00  0.00    -0.096 A 
ATOM     10  HN1 IND d   1      -1.275  -0.708  -1.184  0.00  0.00     0.298 HD
ENDROOT
TORSDOF 0
ENDMDL
