MODEL 1
REMARK minimizedAffinity -1.12036943
REMARK minimizedRMSD -1
REMARK  0 active torsions:
REMARK  status: ('A' for Active; 'I' for Inactive)
ROOT
ATOM      1  N1  IND d   1       1.444   0.047   1.922  0.00  0.00    -0.196 N 
ATOM      2  C2  IND d   1       2.109  -0.471   0.846  0.00  0.00     0.054 A 
ATOM      3  C3  IND d   1       1.235  -0.820  -0.124  0.00  0.00    -0.031 A 
ATOM      4  C4  IND d   1      -1.322  -0.534  -0.201  0.00  0.00     0.051 A 
ATOM      5  C5  IND d   1      -2.386  -0.143   0.563  0.00  0.00    -0.031 A 
ATOM      6  C6  IND d   1      -2.224   0.344   1.844  0.00  0.00     0.015 A 
ATOM      7  C7  IND d   1      -0.985   0.469   2.407  0.00  0.00    -0.016 A 
ATOM      8  C8  IND d   1       0.096   0.066   1.637  0.00  0.00    -0.047 A 
ATOM      9  C9  IND d   1      -0.065  -0.469   0.352  0.00  0.00    -0.096 A 
ATOM     10  HN1 IND d   1       1.806   0.316   2.654  0.00  0.00     0.298 HD
ENDROOT
TORSDOF 0
ENDMDL
