MODEL 1
REMARK minimizedAffinity -4.81773853
REMARK minimizedRMSD -1
REMARK  0 active torsions:
REMARK  status: ('A' for Active; 'I' for Inactive)
ROOT
ATOM      1  N1  IND d   1      -2.184   0.150   0.639  0.00  0.00    -0.196 N 
ATOM      2  C2  IND d   1      -1.875  -0.580  -0.475  0.00  0.00     0.054 A 
ATOM      3  C3  IND d   1      -0.534  -0.692  -0.606  0.00  0.00    -0.031 A 
ATOM      4  C4  IND d   1       1.338   0.157   0.943  0.00  0.00     0.051 A 
ATOM      5  C5  IND d   1       1.551   0.909   2.064  0.00  0.00    -0.031 A 
ATOM      6  C6  IND d   1       0.508   1.455   2.784  0.00  0.00     0.015 A 
ATOM      7  C7  IND d   1      -0.793   1.259   2.414  0.00  0.00    -0.016 A 
ATOM      8  C8  IND d   1      -1.012   0.502   1.271  0.00  0.00    -0.047 A 
ATOM      9  C9  IND d   1       0.044  -0.019   0.513  0.00  0.00    -0.096 A 
ATOM     10  HN1 IND d   1      -2.977   0.355   0.900  0.00  0.00     0.298 HD
ENDROOT
TORSDOF 0
ENDMDL
