MODEL 1
REMARK minimizedAffinity -3.52897739
REMARK minimizedRMSD -1
REMARK  0 active torsions:
REMARK  status: ('A' for Active; 'I' for Inactive)
ROOT
ATOM      1  N1  IND d   1       0.139  -1.156  -0.575  0.00  0.00    -0.196 N 
ATOM      2  C2  IND d   1       1.463  -1.171  -0.238  0.00  0.00     0.054 A 
ATOM      3  C3  IND d   1       1.695  -0.329   0.795  0.00  0.00    -0.031 A 
ATOM      4  C4  IND d   1       0.032   1.095   2.149  0.00  0.00     0.051 A 
ATOM      5  C5  IND d   1      -1.283   1.466   2.192  0.00  0.00    -0.031 A 
ATOM      6  C6  IND d   1      -2.210   0.970   1.298  0.00  0.00     0.015 A 
ATOM      7  C7  IND d   1      -1.858   0.072   0.331  0.00  0.00    -0.016 A 
ATOM      8  C8  IND d   1      -0.522  -0.302   0.281  0.00  0.00    -0.047 A 
ATOM      9  C9  IND d   1       0.431   0.230   1.158  0.00  0.00    -0.096 A 
ATOM     10  HN1 IND d   1      -0.221  -1.605  -1.214  0.00  0.00     0.298 HD
ENDROOT
TORSDOF 0
ENDMDL
