MODEL 1
REMARK minimizedAffinity -4.22865534
REMARK minimizedRMSD -1
REMARK  0 active torsions:
REMARK  status: ('A' for Active; 'I' for Inactive)
ROOT
ATOM      1  N1  IND d   1      -0.352   0.401  -1.867  0.00  0.00    -0.196 N 
ATOM      2  C2  IND d   1       0.785  -0.343  -2.018  0.00  0.00     0.054 A 
ATOM      3  C3  IND d   1       1.409  -0.495  -0.828  0.00  0.00    -0.031 A 
ATOM      4  C4  IND d   1       0.690   0.307   1.510  0.00  0.00     0.051 A 
ATOM      5  C5  IND d   1      -0.257   1.058   2.147  0.00  0.00    -0.031 A 
ATOM      6  C6  IND d   1      -1.308   1.638   1.466  0.00  0.00     0.015 A 
ATOM      7  C7  IND d   1      -1.456   1.478   0.117  0.00  0.00    -0.016 A 
ATOM      8  C8  IND d   1      -0.492   0.722  -0.534  0.00  0.00    -0.047 A 
ATOM      9  C9  IND d   1       0.599   0.167   0.146  0.00  0.00    -0.096 A 
ATOM     10  HN1 IND d   1      -0.889   0.631  -2.498  0.00  0.00     0.298 HD
ENDROOT
TORSDOF 0
ENDMDL
