MODEL 1
REMARK minimizedAffinity -1.82268691
REMARK minimizedRMSD -1
REMARK  0 active torsions:
REMARK  status: ('A' for Active; 'I' for Inactive)
ROOT
ATOM      1  N1  IND d   1       1.199   0.517  -0.211  0.00  0.00    -0.196 N 
ATOM      2  C2  IND d   1       0.086  -0.102   0.287  0.00  0.00     0.054 A 
ATOM      3  C3  IND d   1      -0.673  -0.586  -0.721  0.00  0.00    -0.031 A 
ATOM      4  C4  IND d   1      -0.232  -0.568  -3.257  0.00  0.00     0.051 A 
ATOM      5  C5  IND d   1       0.637  -0.085  -4.195  0.00  0.00    -0.031 A 
ATOM      6  C6  IND d   1       1.761   0.636  -3.847  0.00  0.00     0.015 A 
ATOM      7  C7  IND d   1       2.066   0.891  -2.540  0.00  0.00    -0.016 A 
ATOM      8  C8  IND d   1       1.183   0.409  -1.584  0.00  0.00    -0.047 A 
ATOM      9  C9  IND d   1       0.018  -0.286  -1.934  0.00  0.00    -0.096 A 
ATOM     10  HN1 IND d   1       1.807   0.908   0.255  0.00  0.00     0.298 HD
ENDROOT
TORSDOF 0
ENDMDL
