MODEL 1
REMARK minimizedAffinity -3.01650453
REMARK minimizedRMSD -1
REMARK  0 active torsions:
REMARK  status: ('A' for Active; 'I' for Inactive)
ROOT
ATOM      1  N1  IND d   1       0.261   1.189   2.507  0.00  0.00    -0.196 N 
ATOM      2  C2  IND d   1      -0.972   1.586   2.943  0.00  0.00     0.054 A 
ATOM      3  C3  IND d   1      -1.920   1.259   2.037  0.00  0.00    -0.031 A 
ATOM      4  C4  IND d   1      -1.686  -0.020  -0.185  0.00  0.00     0.051 A 
ATOM      5  C5  IND d   1      -0.751  -0.555  -1.027  0.00  0.00    -0.031 A 
ATOM      6  C6  IND d   1       0.595  -0.539  -0.726  0.00  0.00     0.015 A 
ATOM      7  C7  IND d   1       1.059   0.006   0.438  0.00  0.00    -0.016 A 
ATOM      8  C8  IND d   1       0.113   0.557   1.291  0.00  0.00    -0.047 A 
ATOM      9  C9  IND d   1      -1.250   0.581   0.972  0.00  0.00    -0.096 A 
ATOM     10  HN1 IND d   1       1.004   1.313   2.921  0.00  0.00     0.298 HD
ENDROOT
TORSDOF 0
ENDMDL
