MODEL 1
REMARK minimizedAffinity -3.57461286
REMARK minimizedRMSD -1
REMARK  0 active torsions:
REMARK  status: ('A' for Active; 'I' for Inactive)
ROOT
ATOM      1  N1  IND d   1      -1.044  -0.703  -0.315  0.00  0.00    -0.196 N 
ATOM      2  C2  IND d   1       0.206  -0.820  -0.858  0.00  0.00     0.054 A 
ATOM      3  C3  IND d   1       1.118  -0.199  -0.077  0.00  0.00    -0.031 A 
ATOM      4  C4  IND d   1       0.797   0.984   2.187  0.00  0.00     0.051 A 
ATOM      5  C5  IND d   1      -0.169   1.378   3.069  0.00  0.00    -0.031 A 
ATOM      6  C6  IND d   1      -1.504   1.090   2.866  0.00  0.00     0.015 A 
ATOM      7  C7  IND d   1      -1.921   0.384   1.773  0.00  0.00    -0.016 A 
ATOM      8  C8  IND d   1      -0.943  -0.011   0.871  0.00  0.00    -0.047 A 
ATOM      9  C9  IND d   1       0.407   0.315   1.051  0.00  0.00    -0.096 A 
ATOM     10  HN1 IND d   1      -1.770  -1.010  -0.658  0.00  0.00     0.298 HD
ENDROOT
TORSDOF 0
ENDMDL
