MODEL 1
REMARK minimizedAffinity -3.45460486
REMARK minimizedRMSD -1
REMARK  0 active torsions:
REMARK  status: ('A' for Active; 'I' for Inactive)
ROOT
ATOM      1  N1  IND d   1      -1.860   0.941   1.785  0.00  0.00    -0.196 N 
ATOM      2  C2  IND d   1      -1.050   1.427   2.772  0.00  0.00     0.054 A 
ATOM      3  C3  IND d   1       0.248   1.188   2.477  0.00  0.00    -0.031 A 
ATOM      4  C4  IND d   1       1.274   0.107   0.378  0.00  0.00     0.051 A 
ATOM      5  C5  IND d   1       0.933  -0.527  -0.783  0.00  0.00    -0.031 A 
ATOM      6  C6  IND d   1      -0.383  -0.705  -1.158  0.00  0.00     0.015 A 
ATOM      7  C7  IND d   1      -1.412  -0.243  -0.386  0.00  0.00    -0.016 A 
ATOM      8  C8  IND d   1      -1.069   0.394   0.798  0.00  0.00    -0.047 A 
ATOM      9  C9  IND d   1       0.264   0.540   1.204  0.00  0.00    -0.096 A 
ATOM     10  HN1 IND d   1      -2.719   0.972   1.780  0.00  0.00     0.298 HD
ENDROOT
TORSDOF 0
ENDMDL
