MODEL 1
REMARK minimizedAffinity 22.5723934
REMARK minimizedRMSD -1
REMARK  0 active torsions:
REMARK  status: ('A' for Active; 'I' for Inactive)
ROOT
ATOM      1  C   UNL d   1      -0.049  -0.857   3.998  0.00  0.00     0.124 A 
ATOM      2  C1  UNL d   1       0.058  -0.979   2.620  0.00  0.00     0.062 A 
ATOM      3  C2  UNL d   1      -0.875  -1.728   1.909  0.00  0.00     0.162 A 
ATOM      4  C3  UNL d   1      -1.925  -2.361   2.575  0.00  0.00    -0.034 A 
ATOM      5  C4  UNL d   1      -2.025  -2.234   3.961  0.00  0.00     0.162 A 
ATOM      6  C5  UNL d   1      -1.090  -1.485   4.668  0.00  0.00     0.062 A 
ATOM      7  F   UNL d   1      -1.195  -1.368   5.999  0.00  0.00    -0.097 F 
ATOM      8  F1  UNL d   1      -3.022  -2.829   4.634  0.00  0.00    -0.096 F 
ATOM      9  I   UNL d   1      -3.322  -3.481   1.515  0.00  0.00    -0.060 I 
ATOM     10  F2  UNL d   1      -0.747  -1.828   0.577  0.00  0.00    -0.096 F 
ATOM     11  F3  UNL d   1       1.064  -0.374   1.971  0.00  0.00    -0.097 F 
ATOM     12  F4  UNL d   1       0.851  -0.137   4.680  0.00  0.00    -0.092 F 
ENDROOT
TORSDOF 0
ENDMDL
