MODEL 1
REMARK minimizedAffinity 14.9993715
REMARK minimizedRMSD -1
REMARK  0 active torsions:
REMARK  status: ('A' for Active; 'I' for Inactive)
ROOT
ATOM      1  C   UNL d   1      -0.068  -0.375   4.280  0.00  0.00     0.124 A 
ATOM      2  C1  UNL d   1      -1.259  -0.798   4.852  0.00  0.00     0.062 A 
ATOM      3  C2  UNL d   1      -2.017  -1.791   4.238  0.00  0.00     0.162 A 
ATOM      4  C3  UNL d   1      -1.584  -2.369   3.045  0.00  0.00    -0.034 A 
ATOM      5  C4  UNL d   1      -0.385  -1.938   2.475  0.00  0.00     0.162 A 
ATOM      6  C5  UNL d   1       0.368  -0.945   3.092  0.00  0.00     0.062 A 
ATOM      7  F   UNL d   1       1.519  -0.537   2.538  0.00  0.00    -0.097 F 
ATOM      8  F1  UNL d   1       0.060  -2.472   1.328  0.00  0.00    -0.096 F 
ATOM      9  I   UNL d   1      -2.714  -3.855   2.124  0.00  0.00    -0.060 I 
ATOM     10  F2  UNL d   1      -3.164  -2.181   4.814  0.00  0.00    -0.096 F 
ATOM     11  F3  UNL d   1      -1.683  -0.248   6.000  0.00  0.00    -0.097 F 
ATOM     12  F4  UNL d   1       0.659   0.582   4.873  0.00  0.00    -0.092 F 
ENDROOT
TORSDOF 0
ENDMDL
