MODEL 1
REMARK minimizedAffinity 24.6994801
REMARK minimizedRMSD -1
REMARK  0 active torsions:
REMARK  status: ('A' for Active; 'I' for Inactive)
ROOT
ATOM      1  C   UNL d   1       2.822  -0.394   2.825  0.00  0.00     0.124 A 
ATOM      2  C1  UNL d   1       1.890  -0.102   3.812  0.00  0.00     0.062 A 
ATOM      3  C2  UNL d   1       0.655  -0.744   3.821  0.00  0.00     0.162 A 
ATOM      4  C3  UNL d   1       0.345  -1.686   2.840  0.00  0.00    -0.034 A 
ATOM      5  C4  UNL d   1       1.286  -1.974   1.851  0.00  0.00     0.162 A 
ATOM      6  C5  UNL d   1       2.519  -1.329   1.846  0.00  0.00     0.062 A 
ATOM      7  F   UNL d   1       3.418  -1.613   0.892  0.00  0.00    -0.097 F 
ATOM      8  F1  UNL d   1       1.021  -2.874   0.893  0.00  0.00    -0.096 F 
ATOM      9  I   UNL d   1      -1.501  -2.648   2.850  0.00  0.00    -0.060 I 
ATOM     10  F2  UNL d   1      -0.226  -0.441   4.786  0.00  0.00    -0.096 F 
ATOM     11  F3  UNL d   1       2.180   0.803   4.759  0.00  0.00    -0.097 F 
ATOM     12  F4  UNL d   1       4.009   0.226   2.819  0.00  0.00    -0.092 F 
ENDROOT
TORSDOF 0
ENDMDL
