MODEL 1
REMARK minimizedAffinity 16.2759933
REMARK minimizedRMSD -1
REMARK  0 active torsions:
REMARK  status: ('A' for Active; 'I' for Inactive)
ROOT
ATOM      1  C   UNL d   1      -2.583  -2.968   1.246  0.00  0.00     0.124 A 
ATOM      2  C1  UNL d   1      -2.309  -3.771   0.147  0.00  0.00     0.062 A 
ATOM      3  C2  UNL d   1      -3.280  -4.637  -0.346  0.00  0.00     0.162 A 
ATOM      4  C3  UNL d   1      -4.536  -4.705   0.259  0.00  0.00    -0.034 A 
ATOM      5  C4  UNL d   1      -4.803  -3.896   1.364  0.00  0.00     0.162 A 
ATOM      6  C5  UNL d   1      -3.829  -3.031   1.853  0.00  0.00     0.062 A 
ATOM      7  F   UNL d   1      -4.095  -2.257   2.915  0.00  0.00    -0.097 F 
ATOM      8  F1  UNL d   1      -5.999  -3.936   1.970  0.00  0.00    -0.096 F 
ATOM      9  I   UNL d   1      -5.991  -6.000  -0.475  0.00  0.00    -0.060 I 
ATOM     10  F2  UNL d   1      -2.988  -5.401  -1.409  0.00  0.00    -0.096 F 
ATOM     11  F3  UNL d   1      -1.106  -3.713  -0.441  0.00  0.00    -0.097 F 
ATOM     12  F4  UNL d   1      -1.646  -2.136   1.719  0.00  0.00    -0.092 F 
ENDROOT
TORSDOF 0
ENDMDL
