MODEL 1
REMARK minimizedAffinity 16.5755024
REMARK minimizedRMSD -1
REMARK  0 active torsions:
REMARK  status: ('A' for Active; 'I' for Inactive)
ROOT
ATOM      1  C   UNL d   1       2.789  -3.152  -2.405  0.00  0.00     0.124 A 
ATOM      2  C1  UNL d   1       2.005  -4.261  -2.118  0.00  0.00     0.062 A 
ATOM      3  C2  UNL d   1       1.340  -4.932  -3.141  0.00  0.00     0.162 A 
ATOM      4  C3  UNL d   1       1.458  -4.497  -4.461  0.00  0.00    -0.034 A 
ATOM      5  C4  UNL d   1       2.249  -3.381  -4.742  0.00  0.00     0.162 A 
ATOM      6  C5  UNL d   1       2.911  -2.713  -3.716  0.00  0.00     0.062 A 
ATOM      7  F   UNL d   1       3.668  -1.643  -3.995  0.00  0.00    -0.097 F 
ATOM      8  F1  UNL d   1       2.384  -2.936  -6.000  0.00  0.00    -0.096 F 
ATOM      9  I   UNL d   1       0.467  -5.497  -5.993  0.00  0.00    -0.060 I 
ATOM     10  F2  UNL d   1       0.589  -6.000  -2.835  0.00  0.00    -0.096 F 
ATOM     11  F3  UNL d   1       1.885  -4.686  -0.853  0.00  0.00    -0.097 F 
ATOM     12  F4  UNL d   1       3.427  -2.508  -1.419  0.00  0.00    -0.092 F 
ENDROOT
TORSDOF 0
ENDMDL
