MODEL 1
REMARK minimizedAffinity 30.1591682
REMARK minimizedRMSD -1
REMARK  0 active torsions:
REMARK  status: ('A' for Active; 'I' for Inactive)
ROOT
ATOM      1  C   UNL d   1      -1.864   4.076  -3.636  0.00  0.00     0.124 A 
ATOM      2  C1  UNL d   1      -2.452   3.682  -4.830  0.00  0.00     0.062 A 
ATOM      3  C2  UNL d   1      -3.632   2.943  -4.820  0.00  0.00     0.162 A 
ATOM      4  C3  UNL d   1      -4.232   2.593  -3.610  0.00  0.00    -0.034 A 
ATOM      5  C4  UNL d   1      -3.634   2.991  -2.413  0.00  0.00     0.162 A 
ATOM      6  C5  UNL d   1      -2.455   3.730  -2.429  0.00  0.00     0.062 A 
ATOM      7  F   UNL d   1      -1.889   4.108  -1.274  0.00  0.00    -0.097 F 
ATOM      8  F1  UNL d   1      -4.184   2.671  -1.233  0.00  0.00    -0.096 F 
ATOM      9  I   UNL d   1      -5.995   1.487  -3.590  0.00  0.00    -0.060 I 
ATOM     10  F2  UNL d   1      -4.178   2.577  -5.989  0.00  0.00    -0.096 F 
ATOM     11  F3  UNL d   1      -1.883   4.015  -5.998  0.00  0.00    -0.097 F 
ATOM     12  F4  UNL d   1      -0.729   4.786  -3.649  0.00  0.00    -0.092 F 
ENDROOT
TORSDOF 0
ENDMDL
