MODEL 1
REMARK minimizedAffinity 12.6937151
REMARK minimizedRMSD -1
REMARK  0 active torsions:
REMARK  status: ('A' for Active; 'I' for Inactive)
ROOT
ATOM      1  C   UNL d   1       1.783  -0.479   2.976  0.00  0.00     0.124 A 
ATOM      2  C1  UNL d   1       0.880  -0.451   4.030  0.00  0.00     0.062 A 
ATOM      3  C2  UNL d   1      -0.383  -1.017   3.884  0.00  0.00     0.162 A 
ATOM      4  C3  UNL d   1      -0.750  -1.619   2.680  0.00  0.00    -0.034 A 
ATOM      5  C4  UNL d   1       0.163  -1.642   1.625  0.00  0.00     0.162 A 
ATOM      6  C5  UNL d   1       1.424  -1.074   1.775  0.00  0.00     0.062 A 
ATOM      7  F   UNL d   1       2.295  -1.102   0.756  0.00  0.00    -0.097 F 
ATOM      8  F1  UNL d   1      -0.157  -2.212   0.454  0.00  0.00    -0.096 F 
ATOM      9  I   UNL d   1      -2.638  -2.468   2.459  0.00  0.00    -0.060 I 
ATOM     10  F2  UNL d   1      -1.236  -0.976   4.919  0.00  0.00    -0.096 F 
ATOM     11  F3  UNL d   1       1.224   0.125   5.191  0.00  0.00    -0.097 F 
ATOM     12  F4  UNL d   1       2.997   0.069   3.118  0.00  0.00    -0.092 F 
ENDROOT
TORSDOF 0
ENDMDL
