MODEL 1
REMARK minimizedAffinity 23.805645
REMARK minimizedRMSD -1
REMARK  0 active torsions:
REMARK  status: ('A' for Active; 'I' for Inactive)
ROOT
ATOM      1  C   UNL d   1      -4.386  -3.674   3.430  0.00  0.00     0.124 A 
ATOM      2  C1  UNL d   1      -5.145  -3.018   2.471  0.00  0.00     0.062 A 
ATOM      3  C2  UNL d   1      -5.026  -3.361   1.128  0.00  0.00     0.162 A 
ATOM      4  C3  UNL d   1      -4.143  -4.368   0.734  0.00  0.00    -0.034 A 
ATOM      5  C4  UNL d   1      -3.382  -5.023   1.704  0.00  0.00     0.162 A 
ATOM      6  C5  UNL d   1      -3.505  -4.676   3.046  0.00  0.00     0.062 A 
ATOM      7  F   UNL d   1      -2.771  -5.311   3.970  0.00  0.00    -0.097 F 
ATOM      8  F1  UNL d   1      -2.525  -5.995   1.361  0.00  0.00    -0.096 F 
ATOM      9  I   UNL d   1      -3.962  -4.885  -1.274  0.00  0.00    -0.060 I 
ATOM     10  F2  UNL d   1      -5.772  -2.710   0.223  0.00  0.00    -0.096 F 
ATOM     11  F3  UNL d   1      -5.996  -2.049   2.840  0.00  0.00    -0.097 F 
ATOM     12  F4  UNL d   1      -4.502  -3.341   4.722  0.00  0.00    -0.092 F 
ENDROOT
TORSDOF 0
ENDMDL
