MODEL 1
REMARK minimizedAffinity 32.3440285
REMARK minimizedRMSD -1
REMARK  0 active torsions:
REMARK  status: ('A' for Active; 'I' for Inactive)
ROOT
ATOM      1  C   UNL d   1      -1.978  -2.431   1.935  0.00  0.00     0.124 A 
ATOM      2  C1  UNL d   1      -2.744  -2.856   0.858  0.00  0.00     0.062 A 
ATOM      3  C2  UNL d   1      -2.148  -3.074  -0.381  0.00  0.00     0.162 A 
ATOM      4  C3  UNL d   1      -0.779  -2.869  -0.550  0.00  0.00    -0.034 A 
ATOM      5  C4  UNL d   1      -0.016  -2.441   0.538  0.00  0.00     0.162 A 
ATOM      6  C5  UNL d   1      -0.616  -2.224   1.774  0.00  0.00     0.062 A 
ATOM      7  F   UNL d   1       0.125  -1.814   2.814  0.00  0.00    -0.097 F 
ATOM      8  F1  UNL d   1       1.303  -2.233   0.411  0.00  0.00    -0.096 F 
ATOM      9  I   UNL d   1       0.116  -3.194  -2.401  0.00  0.00    -0.060 I 
ATOM     10  F2  UNL d   1      -2.912  -3.484  -1.405  0.00  0.00    -0.096 F 
ATOM     11  F3  UNL d   1      -4.061  -3.056   1.010  0.00  0.00    -0.097 F 
ATOM     12  F4  UNL d   1      -2.554  -2.221   3.126  0.00  0.00    -0.092 F 
ENDROOT
TORSDOF 0
ENDMDL
