MODEL 1
REMARK minimizedAffinity 27.5957184
REMARK minimizedRMSD -1
REMARK  0 active torsions:
REMARK  status: ('A' for Active; 'I' for Inactive)
ROOT
ATOM      1  C   UNL d   1       0.985  -0.570   2.363  0.00  0.00     0.124 A 
ATOM      2  C1  UNL d   1      -0.276  -1.105   2.142  0.00  0.00     0.062 A 
ATOM      3  C2  UNL d   1      -1.203  -1.164   3.179  0.00  0.00     0.162 A 
ATOM      4  C3  UNL d   1      -0.872  -0.686   4.447  0.00  0.00    -0.034 A 
ATOM      5  C4  UNL d   1       0.399  -0.150   4.662  0.00  0.00     0.162 A 
ATOM      6  C5  UNL d   1       1.321  -0.093   3.622  0.00  0.00     0.062 A 
ATOM      7  F   UNL d   1       2.539   0.425   3.838  0.00  0.00    -0.097 F 
ATOM      8  F1  UNL d   1       0.750   0.319   5.869  0.00  0.00    -0.096 F 
ATOM      9  I   UNL d   1      -2.255  -0.774   6.000  0.00  0.00    -0.060 I 
ATOM     10  F2  UNL d   1      -2.415  -1.687   2.936  0.00  0.00    -0.096 F 
ATOM     11  F3  UNL d   1      -0.603  -1.567   0.927  0.00  0.00    -0.097 F 
ATOM     12  F4  UNL d   1       1.875  -0.514   1.364  0.00  0.00    -0.092 F 
ENDROOT
TORSDOF 0
ENDMDL
