MODEL 1
REMARK minimizedAffinity 23.4849167
REMARK minimizedRMSD -1
REMARK  0 active torsions:
REMARK  status: ('A' for Active; 'I' for Inactive)
ROOT
ATOM      1  C   UNL d   1       1.512  -0.335   2.571  0.00  0.00     0.124 A 
ATOM      2  C1  UNL d   1       0.523  -0.169   3.531  0.00  0.00     0.062 A 
ATOM      3  C2  UNL d   1      -0.675  -0.871   3.430  0.00  0.00     0.162 A 
ATOM      4  C3  UNL d   1      -0.890  -1.747   2.366  0.00  0.00    -0.034 A 
ATOM      5  C4  UNL d   1       0.109  -1.908   1.404  0.00  0.00     0.162 A 
ATOM      6  C5  UNL d   1       1.304  -1.204   1.509  0.00  0.00     0.062 A 
ATOM      7  F   UNL d   1       2.259  -1.365   0.582  0.00  0.00    -0.097 F 
ATOM      8  F1  UNL d   1      -0.065  -2.742   0.368  0.00  0.00    -0.096 F 
ATOM      9  I   UNL d   1      -2.679  -2.798   2.211  0.00  0.00    -0.060 I 
ATOM     10  F2  UNL d   1      -1.613  -0.691   4.372  0.00  0.00    -0.096 F 
ATOM     11  F3  UNL d   1       0.720   0.670   4.557  0.00  0.00    -0.097 F 
ATOM     12  F4  UNL d   1       2.663   0.342   2.670  0.00  0.00    -0.092 F 
ENDROOT
TORSDOF 0
ENDMDL
