MODEL 1
REMARK minimizedAffinity 14.6242895
REMARK minimizedRMSD -1
REMARK  0 active torsions:
REMARK  status: ('A' for Active; 'I' for Inactive)
ROOT
ATOM      1  C   UNL d   1       1.984  -0.491   3.785  0.00  0.00     0.124 A 
ATOM      2  C1  UNL d   1       0.740  -1.076   3.591  0.00  0.00     0.062 A 
ATOM      3  C2  UNL d   1       0.490  -1.824   2.444  0.00  0.00     0.162 A 
ATOM      4  C3  UNL d   1       1.486  -1.991   1.482  0.00  0.00    -0.034 A 
ATOM      5  C4  UNL d   1       2.734  -1.399   1.683  0.00  0.00     0.162 A 
ATOM      6  C5  UNL d   1       2.979  -0.652   2.831  0.00  0.00     0.062 A 
ATOM      7  F   UNL d   1       4.181  -0.088   3.017  0.00  0.00    -0.097 F 
ATOM      8  F1  UNL d   1       3.714  -1.539   0.778  0.00  0.00    -0.096 F 
ATOM      9  I   UNL d   1       1.116  -3.108  -0.235  0.00  0.00    -0.060 I 
ATOM     10  F2  UNL d   1      -0.721  -2.378   2.282  0.00  0.00    -0.096 F 
ATOM     11  F3  UNL d   1      -0.223  -0.921   4.510  0.00  0.00    -0.097 F 
ATOM     12  F4  UNL d   1       2.222   0.229   4.889  0.00  0.00    -0.092 F 
ENDROOT
TORSDOF 0
ENDMDL
