MODEL 1
REMARK minimizedAffinity 15.97544
REMARK minimizedRMSD -1
REMARK  0 active torsions:
REMARK  status: ('A' for Active; 'I' for Inactive)
ROOT
ATOM      1  C   UNL d   1      -3.197  -3.732   0.494  0.00  0.00     0.124 A 
ATOM      2  C1  UNL d   1      -4.219  -4.620   0.188  0.00  0.00     0.062 A 
ATOM      3  C2  UNL d   1      -5.019  -5.143   1.200  0.00  0.00     0.162 A 
ATOM      4  C3  UNL d   1      -4.801  -4.778   2.528  0.00  0.00    -0.034 A 
ATOM      5  C4  UNL d   1      -3.771  -3.886   2.829  0.00  0.00     0.162 A 
ATOM      6  C5  UNL d   1      -2.974  -3.366   1.814  0.00  0.00     0.062 A 
ATOM      7  F   UNL d   1      -1.987  -2.508   2.112  0.00  0.00    -0.097 F 
ATOM      8  F1  UNL d   1      -3.534  -3.514   4.095  0.00  0.00    -0.096 F 
ATOM      9  I   UNL d   1      -5.995  -5.558   4.044  0.00  0.00    -0.060 I 
ATOM     10  F2  UNL d   1      -5.999  -5.999   0.875  0.00  0.00    -0.096 F 
ATOM     11  F3  UNL d   1      -4.436  -4.976  -1.087  0.00  0.00    -0.097 F 
ATOM     12  F4  UNL d   1      -2.428  -3.232  -0.482  0.00  0.00    -0.092 F 
ENDROOT
TORSDOF 0
ENDMDL
