MODEL 1
REMARK minimizedAffinity 15.5511932
REMARK minimizedRMSD -1
REMARK  0 active torsions:
REMARK  status: ('A' for Active; 'I' for Inactive)
ROOT
ATOM      1  C   UNL d   1      -3.135  -3.347   0.751  0.00  0.00     0.124 A 
ATOM      2  C1  UNL d   1      -3.071  -3.060   2.107  0.00  0.00     0.062 A 
ATOM      3  C2  UNL d   1      -3.863  -3.763   3.010  0.00  0.00     0.162 A 
ATOM      4  C3  UNL d   1      -4.726  -4.762   2.560  0.00  0.00    -0.034 A 
ATOM      5  C4  UNL d   1      -4.786  -5.045   1.194  0.00  0.00     0.162 A 
ATOM      6  C5  UNL d   1      -3.992  -4.339   0.296  0.00  0.00     0.062 A 
ATOM      7  F   UNL d   1      -4.056  -4.619  -1.014  0.00  0.00    -0.097 F 
ATOM      8  F1  UNL d   1      -5.605  -5.999   0.727  0.00  0.00    -0.096 F 
ATOM      9  I   UNL d   1      -5.912  -5.816   3.907  0.00  0.00    -0.060 I 
ATOM     10  F2  UNL d   1      -3.780  -3.464   4.315  0.00  0.00    -0.096 F 
ATOM     11  F3  UNL d   1      -2.244  -2.101   2.549  0.00  0.00    -0.097 F 
ATOM     12  F4  UNL d   1      -2.373  -2.669  -0.116  0.00  0.00    -0.092 F 
ENDROOT
TORSDOF 0
ENDMDL
