MODEL 1
REMARK minimizedAffinity 3.49056482
REMARK minimizedRMSD -1
REMARK  0 active torsions:
REMARK  status: ('A' for Active; 'I' for Inactive)
ROOT
ATOM      1  C   UNL d   1      -3.472  -3.080   2.398  0.00  0.00     0.124 A 
ATOM      2  C1  UNL d   1      -3.272  -3.016   3.770  0.00  0.00     0.062 A 
ATOM      3  C2  UNL d   1      -3.993  -3.848   4.622  0.00  0.00     0.162 A 
ATOM      4  C3  UNL d   1      -4.920  -4.752   4.104  0.00  0.00    -0.034 A 
ATOM      5  C4  UNL d   1      -5.116  -4.810   2.723  0.00  0.00     0.162 A 
ATOM      6  C5  UNL d   1      -4.394  -3.976   1.876  0.00  0.00     0.062 A 
ATOM      7  F   UNL d   1      -4.588  -4.040   0.551  0.00  0.00    -0.097 F 
ATOM      8  F1  UNL d   1      -6.000  -5.668   2.192  0.00  0.00    -0.096 F 
ATOM      9  I   UNL d   1      -5.999  -5.998   5.375  0.00  0.00    -0.060 I 
ATOM     10  F2  UNL d   1      -3.779  -3.764   5.944  0.00  0.00    -0.096 F 
ATOM     11  F3  UNL d   1      -2.383  -2.150   4.277  0.00  0.00    -0.097 F 
ATOM     12  F4  UNL d   1      -2.778  -2.277   1.581  0.00  0.00    -0.092 F 
ENDROOT
TORSDOF 0
ENDMDL
