MODEL 1
REMARK minimizedAffinity 25.076086
REMARK minimizedRMSD -1
REMARK  0 active torsions:
REMARK  status: ('A' for Active; 'I' for Inactive)
ROOT
ATOM      1  C   UNL d   1      -0.095   2.593  -1.317  0.00  0.00     0.124 A 
ATOM      2  C1  UNL d   1       0.561   3.816  -1.348  0.00  0.00     0.062 A 
ATOM      3  C2  UNL d   1       0.183   4.790  -2.268  0.00  0.00     0.162 A 
ATOM      4  C3  UNL d   1      -0.856   4.545  -3.165  0.00  0.00    -0.034 A 
ATOM      5  C4  UNL d   1      -1.510   3.312  -3.129  0.00  0.00     0.162 A 
ATOM      6  C5  UNL d   1      -1.130   2.342  -2.207  0.00  0.00     0.062 A 
ATOM      7  F   UNL d   1      -1.764   1.161  -2.179  0.00  0.00    -0.097 F 
ATOM      8  F1  UNL d   1      -2.514   3.043  -3.977  0.00  0.00    -0.096 F 
ATOM      9  I   UNL d   1      -1.424   5.998  -4.543  0.00  0.00    -0.060 I 
ATOM     10  F2  UNL d   1       0.834   5.962  -2.275  0.00  0.00    -0.096 F 
ATOM     11  F3  UNL d   1       1.561   4.061  -0.489  0.00  0.00    -0.097 F 
ATOM     12  F4  UNL d   1       0.271   1.658  -0.431  0.00  0.00    -0.092 F 
ENDROOT
TORSDOF 0
ENDMDL
