MODEL 1
REMARK minimizedAffinity 31.9729214
REMARK minimizedRMSD -1
REMARK  0 active torsions:
REMARK  status: ('A' for Active; 'I' for Inactive)
ROOT
ATOM      1  C   UNL d   1       2.150  -0.897   1.787  0.00  0.00     0.124 A 
ATOM      2  C1  UNL d   1       2.833   0.304   1.921  0.00  0.00     0.062 A 
ATOM      3  C2  UNL d   1       2.527   1.380   1.093  0.00  0.00     0.162 A 
ATOM      4  C3  UNL d   1       1.532   1.261   0.123  0.00  0.00    -0.034 A 
ATOM      5  C4  UNL d   1       0.850   0.050  -0.007  0.00  0.00     0.162 A 
ATOM      6  C5  UNL d   1       1.159  -1.023   0.823  0.00  0.00     0.062 A 
ATOM      7  F   UNL d   1       0.498  -2.182   0.691  0.00  0.00    -0.097 F 
ATOM      8  F1  UNL d   1      -0.113  -0.099  -0.929  0.00  0.00    -0.096 F 
ATOM      9  I   UNL d   1       1.072   2.868  -1.117  0.00  0.00    -0.060 I 
ATOM     10  F2  UNL d   1       3.204   2.528   1.246  0.00  0.00    -0.096 F 
ATOM     11  F3  UNL d   1       3.791   0.428   2.851  0.00  0.00    -0.097 F 
ATOM     12  F4  UNL d   1       2.447  -1.931   2.584  0.00  0.00    -0.092 F 
ENDROOT
TORSDOF 0
ENDMDL
