MODEL 1
REMARK minimizedAffinity 31.110796
REMARK minimizedRMSD -1
REMARK  0 active torsions:
REMARK  status: ('A' for Active; 'I' for Inactive)
ROOT
ATOM      1  C   UNL d   1      -1.815   2.715  -2.623  0.00  0.00     0.124 A 
ATOM      2  C1  UNL d   1      -2.961   1.946  -2.476  0.00  0.00     0.062 A 
ATOM      3  C2  UNL d   1      -4.157   2.540  -2.082  0.00  0.00     0.162 A 
ATOM      4  C3  UNL d   1      -4.213   3.911  -1.833  0.00  0.00    -0.034 A 
ATOM      5  C4  UNL d   1      -3.056   4.678  -1.982  0.00  0.00     0.162 A 
ATOM      6  C5  UNL d   1      -1.864   4.080  -2.376  0.00  0.00     0.062 A 
ATOM      7  F   UNL d   1      -0.757   4.825  -2.518  0.00  0.00    -0.097 F 
ATOM      8  F1  UNL d   1      -3.075   5.999  -1.751  0.00  0.00    -0.096 F 
ATOM      9  I   UNL d   1      -5.999   4.803  -1.244  0.00  0.00    -0.060 I 
ATOM     10  F2  UNL d   1      -5.249   1.772  -1.948  0.00  0.00    -0.096 F 
ATOM     11  F3  UNL d   1      -2.917   0.627  -2.713  0.00  0.00    -0.097 F 
ATOM     12  F4  UNL d   1      -0.666   2.141  -3.001  0.00  0.00    -0.092 F 
ENDROOT
TORSDOF 0
ENDMDL
