MODEL 1
REMARK minimizedAffinity -1.99583447
REMARK minimizedRMSD -1
REMARK  0 active torsions:
REMARK  status: ('A' for Active; 'I' for Inactive)
ROOT
ATOM      1  C   UNL d   1       1.791   0.314   1.999  0.00  0.00     0.020 A 
ATOM      2  C1  UNL d   1       1.077   1.053   1.057  0.00  0.00     0.020 A 
ATOM      3  C2  UNL d   1      -0.220   0.671   0.708  0.00  0.00     0.034 A 
ATOM      4  C3  UNL d   1      -0.807  -0.453   1.300  0.00  0.00     0.017 A 
ATOM      5  C4  UNL d   1      -0.089  -1.194   2.246  0.00  0.00     0.017 A 
ATOM      6  C5  UNL d   1       1.210  -0.807   2.592  0.00  0.00     0.034 A 
ATOM      7 Cl   UNL d   1      -0.745  -2.593   3.020  0.00  0.00    -0.070 Cl
ATOM      8 Cl1  UNL d   1      -2.414  -0.868   0.821  0.00  0.00    -0.070 Cl
ENDROOT
TORSDOF 0
ENDMDL
