MODEL 1
REMARK minimizedAffinity -3.07697678
REMARK minimizedRMSD -1
REMARK  0 active torsions:
REMARK  status: ('A' for Active; 'I' for Inactive)
ROOT
ATOM      1  C   UNL d   1      -0.697   0.457  -0.601  0.00  0.00     0.020 A 
ATOM      2  C1  UNL d   1      -1.236   0.638   0.673  0.00  0.00     0.020 A 
ATOM      3  C2  UNL d   1      -0.511   0.244   1.800  0.00  0.00     0.034 A 
ATOM      4  C3  UNL d   1       0.756  -0.332   1.656  0.00  0.00     0.017 A 
ATOM      5  C4  UNL d   1       1.297  -0.512   0.378  0.00  0.00     0.017 A 
ATOM      6  C5  UNL d   1       0.567  -0.116  -0.748  0.00  0.00     0.034 A 
ATOM      7 Cl   UNL d   1       2.855  -1.215   0.120  0.00  0.00    -0.070 Cl
ATOM      8 Cl1  UNL d   1       1.596  -0.794   3.093  0.00  0.00    -0.070 Cl
ENDROOT
TORSDOF 0
ENDMDL
