MODEL 1
REMARK minimizedAffinity -0.884524763
REMARK minimizedRMSD -1
REMARK  0 active torsions:
REMARK  status: ('A' for Active; 'I' for Inactive)
ROOT
ATOM      1  C   UNL d   1      -1.668   0.403  -0.031  0.00  0.00     0.020 A 
ATOM      2  C1  UNL d   1      -0.986   0.283  -1.241  0.00  0.00     0.020 A 
ATOM      3  C2  UNL d   1       0.268  -0.330  -1.278  0.00  0.00     0.034 A 
ATOM      4  C3  UNL d   1       0.844  -0.826  -0.103  0.00  0.00     0.017 A 
ATOM      5  C4  UNL d   1       0.159  -0.705   1.112  0.00  0.00     0.017 A 
ATOM      6  C5  UNL d   1      -1.096  -0.090   1.143  0.00  0.00     0.034 A 
ATOM      7 Cl   UNL d   1       0.806  -1.292   2.603  0.00  0.00    -0.070 Cl
ATOM      8 Cl1  UNL d   1       2.398  -1.573  -0.222  0.00  0.00    -0.070 Cl
ENDROOT
TORSDOF 0
ENDMDL
