MODEL 1
REMARK minimizedAffinity -2.51039505
REMARK minimizedRMSD -1
REMARK  0 active torsions:
REMARK  status: ('A' for Active; 'I' for Inactive)
ROOT
ATOM      1  C   UNL d   1      -1.039   0.041  -0.677  0.00  0.00     0.020 A 
ATOM      2  C1  UNL d   1      -1.523  -0.034   0.629  0.00  0.00     0.020 A 
ATOM      3  C2  UNL d   1      -0.674  -0.425   1.666  0.00  0.00     0.034 A 
ATOM      4  C3  UNL d   1       0.663  -0.742   1.400  0.00  0.00     0.017 A 
ATOM      5  C4  UNL d   1       1.148  -0.666   0.089  0.00  0.00     0.017 A 
ATOM      6  C5  UNL d   1       0.293  -0.275  -0.946  0.00  0.00     0.034 A 
ATOM      7 Cl   UNL d   1       2.785  -1.042  -0.317  0.00  0.00    -0.070 Cl
ATOM      8 Cl1  UNL d   1       1.657  -1.216   2.732  0.00  0.00    -0.070 Cl
ENDROOT
TORSDOF 0
ENDMDL
