MODEL 1
REMARK minimizedAffinity -2.94288731
REMARK minimizedRMSD -1
REMARK  0 active torsions:
REMARK  status: ('A' for Active; 'I' for Inactive)
ROOT
ATOM      1  C   UNL d   1      -1.311   1.419   0.627  0.00  0.00     0.020 A 
ATOM      2  C1  UNL d   1      -0.714   1.399  -0.633  0.00  0.00     0.020 A 
ATOM      3  C2  UNL d   1       0.276   0.458  -0.922  0.00  0.00     0.034 A 
ATOM      4  C3  UNL d   1       0.674  -0.466   0.051  0.00  0.00     0.017 A 
ATOM      5  C4  UNL d   1       0.075  -0.445   1.316  0.00  0.00     0.017 A 
ATOM      6  C5  UNL d   1      -0.917   0.499   1.599  0.00  0.00     0.034 A 
ATOM      7 Cl   UNL d   1       0.513  -1.554   2.567  0.00  0.00    -0.070 Cl
ATOM      8 Cl1  UNL d   1       1.905  -1.602  -0.375  0.00  0.00    -0.070 Cl
ENDROOT
TORSDOF 0
ENDMDL
