MODEL 1
REMARK minimizedAffinity -2.65668464
REMARK minimizedRMSD -1
REMARK  0 active torsions:
REMARK  status: ('A' for Active; 'I' for Inactive)
ROOT
ATOM      1  C   UNL d   1      -0.698   2.898  -0.021  0.00  0.00     0.020 A 
ATOM      2  C1  UNL d   1      -0.631   2.723  -1.402  0.00  0.00     0.020 A 
ATOM      3  C2  UNL d   1      -0.385   1.455  -1.934  0.00  0.00     0.034 A 
ATOM      4  C3  UNL d   1      -0.205   0.358  -1.084  0.00  0.00     0.017 A 
ATOM      5  C4  UNL d   1      -0.273   0.535   0.303  0.00  0.00     0.017 A 
ATOM      6  C5  UNL d   1      -0.519   1.806   0.830  0.00  0.00     0.034 A 
ATOM      7 Cl   UNL d   1      -0.061  -0.771   1.415  0.00  0.00    -0.070 Cl
ATOM      8 Cl1  UNL d   1       0.095  -1.181  -1.811  0.00  0.00    -0.070 Cl
ENDROOT
TORSDOF 0
ENDMDL
