MODEL 1
REMARK minimizedAffinity -4.51888609
REMARK minimizedRMSD -1
REMARK  0 active torsions:
REMARK  status: ('A' for Active; 'I' for Inactive)
ROOT
ATOM      1  C   UNL d   1       1.838  -0.316   1.777  0.00  0.00     0.020 A 
ATOM      2  C1  UNL d   1       0.533  -0.088   2.212  0.00  0.00     0.020 A 
ATOM      3  C2  UNL d   1      -0.522  -0.116   1.298  0.00  0.00     0.034 A 
ATOM      4  C3  UNL d   1      -0.274  -0.371  -0.056  0.00  0.00     0.017 A 
ATOM      5  C4  UNL d   1       1.036  -0.599  -0.492  0.00  0.00     0.017 A 
ATOM      6  C5  UNL d   1       2.089  -0.571   0.428  0.00  0.00     0.034 A 
ATOM      7 Cl   UNL d   1       1.420  -0.921  -2.146  0.00  0.00    -0.070 Cl
ATOM      8 Cl1  UNL d   1      -1.627  -0.391  -1.131  0.00  0.00    -0.070 Cl
ENDROOT
TORSDOF 0
ENDMDL
