MODEL 1
REMARK minimizedAffinity -0.366865754
REMARK minimizedRMSD -1
REMARK  0 active torsions:
REMARK  status: ('A' for Active; 'I' for Inactive)
ROOT
ATOM      1  C   UNL d   1      -0.434   1.434  -1.542  0.00  0.00     0.020 A 
ATOM      2  C1  UNL d   1       0.902   1.285  -1.172  0.00  0.00     0.020 A 
ATOM      3  C2  UNL d   1       1.247   0.407  -0.142  0.00  0.00     0.034 A 
ATOM      4  C3  UNL d   1       0.255  -0.325   0.521  0.00  0.00     0.017 A 
ATOM      5  C4  UNL d   1      -1.086  -0.175   0.148  0.00  0.00     0.017 A 
ATOM      6  C5  UNL d   1      -1.426   0.706  -0.884  0.00  0.00     0.034 A 
ATOM      7 Cl   UNL d   1      -2.365  -1.044   0.920  0.00  0.00    -0.070 Cl
ATOM      8 Cl1  UNL d   1       0.754  -1.392   1.785  0.00  0.00    -0.070 Cl
ENDROOT
TORSDOF 0
ENDMDL
