MODEL 1
REMARK minimizedAffinity 6.1157341
REMARK minimizedRMSD -1
REMARK  0 active torsions:
REMARK  status: ('A' for Active; 'I' for Inactive)
ROOT
ATOM      1  C   UNL d   1       3.011  -1.307   1.400  0.00  0.00     0.020 A 
ATOM      2  C1  UNL d   1       1.861  -1.627   2.120  0.00  0.00     0.020 A 
ATOM      3  C2  UNL d   1       0.601  -1.374   1.573  0.00  0.00     0.034 A 
ATOM      4  C3  UNL d   1       0.489  -0.799   0.302  0.00  0.00     0.017 A 
ATOM      5  C4  UNL d   1       1.644  -0.478  -0.420  0.00  0.00     0.017 A 
ATOM      6  C5  UNL d   1       2.903  -0.733   0.133  0.00  0.00     0.034 A 
ATOM      7 Cl   UNL d   1       1.586   0.234  -1.994  0.00  0.00    -0.070 Cl
ATOM      8 Cl1  UNL d   1      -1.100  -0.514  -0.314  0.00  0.00    -0.070 Cl
ENDROOT
TORSDOF 0
ENDMDL
