MODEL 1
REMARK minimizedAffinity -1.95992064
REMARK minimizedRMSD -1
REMARK  0 active torsions:
REMARK  status: ('A' for Active; 'I' for Inactive)
ROOT
ATOM      1  C   UNL d   1      -5.998   0.824   4.888  0.00  0.00     0.020 A 
ATOM      2  C1  UNL d   1      -5.455   1.467   6.000  0.00  0.00     0.020 A 
ATOM      3  C2  UNL d   1      -4.305   2.247   5.864  0.00  0.00     0.034 A 
ATOM      4  C3  UNL d   1      -3.693   2.386   4.613  0.00  0.00     0.017 A 
ATOM      5  C4  UNL d   1      -4.238   1.740   3.497  0.00  0.00     0.017 A 
ATOM      6  C5  UNL d   1      -5.390   0.961   3.639  0.00  0.00     0.034 A 
ATOM      7 Cl   UNL d   1      -3.539   1.865   1.921  0.00  0.00    -0.070 Cl
ATOM      8 Cl1  UNL d   1      -2.273   3.366   4.517  0.00  0.00    -0.070 Cl
ENDROOT
TORSDOF 0
ENDMDL
