MODEL 1
REMARK minimizedAffinity 2.64760041
REMARK minimizedRMSD -1
REMARK  0 active torsions:
REMARK  status: ('A' for Active; 'I' for Inactive)
ROOT
ATOM      1  C   UNL d   1       0.661  -4.910   5.615  0.00  0.00     0.077 C 
ATOM      2  C1  UNL d   1       1.394  -4.031   4.645  0.00  0.00    -0.074 A 
ATOM      3  C2  UNL d   1       2.474  -4.522   3.905  0.00  0.00    -0.005 A 
ATOM      4  C3  UNL d   1       3.140  -3.696   3.000  0.00  0.00     0.006 A 
ATOM      5  C4  UNL d   1       2.734  -2.373   2.826  0.00  0.00    -0.005 A 
ATOM      6  C5  UNL d   1       1.655  -1.864   3.556  0.00  0.00    -0.074 A 
ATOM      7  C6  UNL d   1       1.199  -0.447   3.374  0.00  0.00     0.077 C 
ATOM      8  C7  UNL d   1       0.986  -2.703   4.459  0.00  0.00    -0.001 A 
ENDROOT
TORSDOF 0
ENDMDL
