MODEL 1
REMARK minimizedAffinity 7.07376671
REMARK minimizedRMSD -1
REMARK  0 active torsions:
REMARK  status: ('A' for Active; 'I' for Inactive)
ROOT
ATOM      1  C   UNL d   1       5.999  -5.767  -2.960  0.00  0.00     0.077 C 
ATOM      2  C1  UNL d   1       4.556  -5.760  -2.551  0.00  0.00    -0.074 A 
ATOM      3  C2  UNL d   1       3.543  -6.000  -3.485  0.00  0.00    -0.005 A 
ATOM      4  C3  UNL d   1       2.206  -6.000  -3.087  0.00  0.00     0.006 A 
ATOM      5  C4  UNL d   1       1.869  -5.761  -1.754  0.00  0.00    -0.005 A 
ATOM      6  C5  UNL d   1       2.868  -5.521  -0.806  0.00  0.00    -0.074 A 
ATOM      7  C6  UNL d   1       2.524  -5.272   0.632  0.00  0.00     0.077 C 
ATOM      8  C7  UNL d   1       4.210  -5.529  -1.212  0.00  0.00    -0.001 A 
ENDROOT
TORSDOF 0
ENDMDL
