MODEL 1
REMARK minimizedAffinity 4.78162432
REMARK minimizedRMSD -1
REMARK  0 active torsions:
REMARK  status: ('A' for Active; 'I' for Inactive)
ROOT
ATOM      1  C   UNL d   1      -5.673   3.438   0.102  0.00  0.00     0.077 C 
ATOM      2  C1  UNL d   1      -4.543   3.635   1.068  0.00  0.00    -0.074 A 
ATOM      3  C2  UNL d   1      -3.311   3.002   0.874  0.00  0.00    -0.005 A 
ATOM      4  C3  UNL d   1      -2.267   3.203   1.776  0.00  0.00     0.006 A 
ATOM      5  C4  UNL d   1      -2.443   4.037   2.881  0.00  0.00    -0.005 A 
ATOM      6  C5  UNL d   1      -3.668   4.679   3.091  0.00  0.00    -0.074 A 
ATOM      7  C6  UNL d   1      -3.871   5.587   4.268  0.00  0.00     0.077 C 
ATOM      8  C7  UNL d   1      -4.710   4.478   2.176  0.00  0.00    -0.001 A 
ENDROOT
TORSDOF 0
ENDMDL
