MODEL 1
REMARK minimizedAffinity 6.45166683
REMARK minimizedRMSD -1
REMARK  0 active torsions:
REMARK  status: ('A' for Active; 'I' for Inactive)
ROOT
ATOM      1  C   UNL d   1       1.881  -0.420   1.977  0.00  0.00     0.077 C 
ATOM      2  C1  UNL d   1       1.865  -1.883   2.308  0.00  0.00    -0.074 A 
ATOM      3  C2  UNL d   1       2.611  -2.798   1.557  0.00  0.00    -0.005 A 
ATOM      4  C3  UNL d   1       2.593  -4.154   1.883  0.00  0.00     0.006 A 
ATOM      5  C4  UNL d   1       1.832  -4.608   2.961  0.00  0.00    -0.005 A 
ATOM      6  C5  UNL d   1       1.081  -3.708   3.723  0.00  0.00    -0.074 A 
ATOM      7  C6  UNL d   1       0.264  -4.178   4.890  0.00  0.00     0.077 C 
ATOM      8  C7  UNL d   1       1.109  -2.346   3.394  0.00  0.00    -0.001 A 
ENDROOT
TORSDOF 0
ENDMDL
