MODEL 1
REMARK minimizedAffinity 12.5661373
REMARK minimizedRMSD -1
REMARK  0 active torsions:
REMARK  status: ('A' for Active; 'I' for Inactive)
ROOT
ATOM      1  C   UNL d   1       2.046  -0.670   2.225  0.00  0.00     0.077 C 
ATOM      2  C1  UNL d   1       2.640  -1.857   2.922  0.00  0.00    -0.074 A 
ATOM      3  C2  UNL d   1       1.885  -3.013   3.143  0.00  0.00    -0.005 A 
ATOM      4  C3  UNL d   1       2.455  -4.114   3.784  0.00  0.00     0.006 A 
ATOM      5  C4  UNL d   1       3.783  -4.069   4.209  0.00  0.00    -0.005 A 
ATOM      6  C5  UNL d   1       4.554  -2.922   3.995  0.00  0.00    -0.074 A 
ATOM      7  C6  UNL d   1       5.986  -2.861   4.437  0.00  0.00     0.077 C 
ATOM      8  C7  UNL d   1       3.977  -1.823   3.345  0.00  0.00    -0.001 A 
ENDROOT
TORSDOF 0
ENDMDL
