MODEL 1
REMARK minimizedAffinity 9.96293068
REMARK minimizedRMSD -1
REMARK  0 active torsions:
REMARK  status: ('A' for Active; 'I' for Inactive)
ROOT
ATOM      1  C   UNL d   1      -4.554   1.615  -5.397  0.00  0.00     0.077 C 
ATOM      2  C1  UNL d   1      -4.075   0.842  -4.204  0.00  0.00    -0.074 A 
ATOM      3  C2  UNL d   1      -4.028  -0.556  -4.225  0.00  0.00    -0.005 A 
ATOM      4  C3  UNL d   1      -3.571  -1.260  -3.111  0.00  0.00     0.006 A 
ATOM      5  C4  UNL d   1      -3.158  -0.576  -1.967  0.00  0.00    -0.005 A 
ATOM      6  C5  UNL d   1      -3.197   0.822  -1.929  0.00  0.00    -0.074 A 
ATOM      7  C6  UNL d   1      -2.746   1.573  -0.712  0.00  0.00     0.077 C 
ATOM      8  C7  UNL d   1      -3.650   1.523  -3.055  0.00  0.00    -0.001 A 
ENDROOT
TORSDOF 0
ENDMDL
