MODEL 1
REMARK minimizedAffinity 5.93049002
REMARK minimizedRMSD -1
REMARK  0 active torsions:
REMARK  status: ('A' for Active; 'I' for Inactive)
ROOT
ATOM      1  C   UNL d   1       1.630  -2.405   2.494  0.00  0.00     0.077 C 
ATOM      2  C1  UNL d   1       1.974  -3.212   3.711  0.00  0.00    -0.074 A 
ATOM      3  C2  UNL d   1       3.213  -3.068   4.343  0.00  0.00    -0.005 A 
ATOM      4  C3  UNL d   1       3.514  -3.818   5.480  0.00  0.00     0.006 A 
ATOM      5  C4  UNL d   1       2.581  -4.719   5.995  0.00  0.00    -0.005 A 
ATOM      6  C5  UNL d   1       1.336  -4.876   5.377  0.00  0.00    -0.074 A 
ATOM      7  C6  UNL d   1       0.318  -5.832   5.923  0.00  0.00     0.077 C 
ATOM      8  C7  UNL d   1       1.038  -4.113   4.239  0.00  0.00    -0.001 A 
ENDROOT
TORSDOF 0
ENDMDL
