MODEL 1
REMARK minimizedAffinity 12.1487598
REMARK minimizedRMSD -1
REMARK  0 active torsions:
REMARK  status: ('A' for Active; 'I' for Inactive)
ROOT
ATOM      1  C   UNL d   1       1.944   1.034   2.052  0.00  0.00     0.077 C 
ATOM      2  C1  UNL d   1       2.031  -0.434   2.344  0.00  0.00    -0.074 A 
ATOM      3  C2  UNL d   1       3.186  -1.161   2.036  0.00  0.00    -0.005 A 
ATOM      4  C3  UNL d   1       3.256  -2.524   2.322  0.00  0.00     0.006 A 
ATOM      5  C4  UNL d   1       2.174  -3.174   2.918  0.00  0.00    -0.005 A 
ATOM      6  C5  UNL d   1       1.012  -2.463   3.234  0.00  0.00    -0.074 A 
ATOM      7  C6  UNL d   1      -0.156  -3.144   3.884  0.00  0.00     0.077 C 
ATOM      8  C7  UNL d   1       0.951  -1.092   2.950  0.00  0.00    -0.001 A 
ENDROOT
TORSDOF 0
ENDMDL
