MODEL 1
REMARK minimizedAffinity 5.6993804
REMARK minimizedRMSD -1
REMARK  0 active torsions:
REMARK  status: ('A' for Active; 'I' for Inactive)
ROOT
ATOM      1  C   UNL d   1      -6.000   4.649  -4.710  0.00  0.00     0.077 C 
ATOM      2  C1  UNL d   1      -5.499   3.952  -3.480  0.00  0.00    -0.074 A 
ATOM      3  C2  UNL d   1      -6.000   4.278  -2.215  0.00  0.00    -0.005 A 
ATOM      4  C3  UNL d   1      -5.532   3.614  -1.081  0.00  0.00     0.006 A 
ATOM      5  C4  UNL d   1      -4.559   2.621  -1.200  0.00  0.00    -0.005 A 
ATOM      6  C5  UNL d   1      -4.047   2.281  -2.456  0.00  0.00    -0.074 A 
ATOM      7  C6  UNL d   1      -3.008   1.209  -2.602  0.00  0.00     0.077 C 
ATOM      8  C7  UNL d   1      -4.528   2.948  -3.592  0.00  0.00    -0.001 A 
ENDROOT
TORSDOF 0
ENDMDL
