MODEL 1
REMARK minimizedAffinity 6.01921654
REMARK minimizedRMSD -1
REMARK  0 active torsions:
REMARK  status: ('A' for Active; 'I' for Inactive)
ROOT
ATOM      1  C   UNL d   1       2.476   0.624   1.398  0.00  0.00     0.077 C 
ATOM      2  C1  UNL d   1       2.086  -0.545   2.252  0.00  0.00    -0.074 A 
ATOM      3  C2  UNL d   1       1.136  -0.407   3.269  0.00  0.00    -0.005 A 
ATOM      4  C3  UNL d   1       0.776  -1.505   4.050  0.00  0.00     0.006 A 
ATOM      5  C4  UNL d   1       1.362  -2.751   3.822  0.00  0.00    -0.005 A 
ATOM      6  C5  UNL d   1       2.313  -2.909   2.810  0.00  0.00    -0.074 A 
ATOM      7  C6  UNL d   1       2.945  -4.243   2.546  0.00  0.00     0.077 C 
ATOM      8  C7  UNL d   1       2.664  -1.802   2.025  0.00  0.00    -0.001 A 
ENDROOT
TORSDOF 0
ENDMDL
