MODEL 1
REMARK minimizedAffinity 0.106417887
REMARK minimizedRMSD -1
REMARK  0 active torsions:
REMARK  status: ('A' for Active; 'I' for Inactive)
ROOT
ATOM      1  C1  BNZ d   1       0.456   0.692   0.061  0.00  0.00     0.000 A 
ATOM      2  C2  BNZ d   1       1.074   1.783  -0.490  0.00  0.00     0.000 A 
ATOM      3  C3  BNZ d   1       2.093   1.631  -1.387  0.00  0.00     0.000 A 
ATOM      4  C4  BNZ d   1       2.521   0.391  -1.702  0.00  0.00     0.000 A 
ATOM      5  C5  BNZ d   1       1.915  -0.719  -1.147  0.00  0.00     0.000 A 
ATOM      6  C6  BNZ d   1       0.863  -0.563  -0.274  0.00  0.00     0.000 A 
ENDROOT
TORSDOF 0
ENDMDL
