MODEL 1
REMARK minimizedAffinity -4.18398094
REMARK minimizedRMSD -1
REMARK  0 active torsions:
REMARK  status: ('A' for Active; 'I' for Inactive)
ROOT
ATOM      1  C1  BNZ d   1      -1.761  -4.947  -5.046  0.00  0.00     0.000 A 
ATOM      2  C2  BNZ d   1      -2.994  -4.924  -5.641  0.00  0.00     0.000 A 
ATOM      3  C3  BNZ d   1      -3.793  -3.819  -5.554  0.00  0.00     0.000 A 
ATOM      4  C4  BNZ d   1      -3.376  -2.753  -4.840  0.00  0.00     0.000 A 
ATOM      5  C5  BNZ d   1      -2.139  -2.764  -4.226  0.00  0.00     0.000 A 
ATOM      6  C6  BNZ d   1      -1.321  -3.864  -4.348  0.00  0.00     0.000 A 
ENDROOT
TORSDOF 0
ENDMDL
