MODEL 1
REMARK minimizedAffinity -0.622667551
REMARK minimizedRMSD -1
REMARK  0 active torsions:
REMARK  status: ('A' for Active; 'I' for Inactive)
ROOT
ATOM      1  C1  BNZ d   1      -2.963   4.477  -5.990  0.00  0.00     0.000 A 
ATOM      2  C2  BNZ d   1      -3.823   5.542  -5.999  0.00  0.00     0.000 A 
ATOM      3  C3  BNZ d   1      -5.176   5.350  -5.983  0.00  0.00     0.000 A 
ATOM      4  C4  BNZ d   1      -5.667   4.094  -5.999  0.00  0.00     0.000 A 
ATOM      5  C5  BNZ d   1      -4.813   3.009  -6.000  0.00  0.00     0.000 A 
ATOM      6  C6  BNZ d   1      -3.451   3.207  -5.976  0.00  0.00     0.000 A 
ENDROOT
TORSDOF 0
ENDMDL
