MODEL 1
REMARK minimizedAffinity -1.77959669
REMARK minimizedRMSD -1
REMARK  0 active torsions:
REMARK  status: ('A' for Active; 'I' for Inactive)
ROOT
ATOM      1  C1  BNZ d   1      -4.045   2.909  -5.988  0.00  0.00     0.000 A 
ATOM      2  C2  BNZ d   1      -2.804   3.488  -5.997  0.00  0.00     0.000 A 
ATOM      3  C3  BNZ d   1      -2.667   4.848  -5.983  0.00  0.00     0.000 A 
ATOM      4  C4  BNZ d   1      -3.768   5.626  -6.000  0.00  0.00     0.000 A 
ATOM      5  C5  BNZ d   1      -5.026   5.057  -6.000  0.00  0.00     0.000 A 
ATOM      6  C6  BNZ d   1      -5.161   3.688  -5.975  0.00  0.00     0.000 A 
ENDROOT
TORSDOF 0
ENDMDL
