MODEL 1
REMARK minimizedAffinity -3.27463007
REMARK minimizedRMSD -1
REMARK  0 active torsions:
REMARK  status: ('A' for Active; 'I' for Inactive)
ROOT
ATOM      1  C1  BNZ d   1      -5.144  -4.093  -5.937  0.00  0.00     0.000 A 
ATOM      2  C2  BNZ d   1      -3.901  -4.594  -5.655  0.00  0.00     0.000 A 
ATOM      3  C3  BNZ d   1      -2.850  -3.757  -5.406  0.00  0.00     0.000 A 
ATOM      4  C4  BNZ d   1      -3.033  -2.423  -5.479  0.00  0.00     0.000 A 
ATOM      5  C5  BNZ d   1      -4.278  -1.903  -5.772  0.00  0.00     0.000 A 
ATOM      6  C6  BNZ d   1      -5.343  -2.748  -5.984  0.00  0.00     0.000 A 
ENDROOT
TORSDOF 0
ENDMDL
