MODEL 1
REMARK minimizedAffinity -1.98230362
REMARK minimizedRMSD -1
REMARK  0 active torsions:
REMARK  status: ('A' for Active; 'I' for Inactive)
ROOT
ATOM      1  C1  BNZ d   1      -4.384   4.802  -5.995  0.00  0.00     0.000 A 
ATOM      2  C2  BNZ d   1      -5.679   4.356  -5.996  0.00  0.00     0.000 A 
ATOM      3  C3  BNZ d   1      -5.958   3.019  -5.974  0.00  0.00     0.000 A 
ATOM      4  C4  BNZ d   1      -4.945   2.129  -5.990  0.00  0.00     0.000 A 
ATOM      5  C5  BNZ d   1      -3.634   2.563  -5.998  0.00  0.00     0.000 A 
ATOM      6  C6  BNZ d   1      -3.356   3.910  -5.982  0.00  0.00     0.000 A 
ENDROOT
TORSDOF 0
ENDMDL
