MODEL 1
REMARK minimizedAffinity -2.40965605
REMARK minimizedRMSD -1
REMARK  0 active torsions:
REMARK  status: ('A' for Active; 'I' for Inactive)
ROOT
ATOM      1  C1  BNZ d   1      -5.847   3.307  -5.858  0.00  0.00     0.000 A 
ATOM      2  C2  BNZ d   1      -5.997   4.664  -5.747  0.00  0.00     0.000 A 
ATOM      3  C3  BNZ d   1      -4.912   5.494  -5.786  0.00  0.00     0.000 A 
ATOM      4  C4  BNZ d   1      -3.676   4.965  -5.896  0.00  0.00     0.000 A 
ATOM      5  C5  BNZ d   1      -3.507   3.598  -6.000  0.00  0.00     0.000 A 
ATOM      6  C6  BNZ d   1      -4.605   2.769  -5.999  0.00  0.00     0.000 A 
ENDROOT
TORSDOF 0
ENDMDL
