MODEL 1
REMARK minimizedAffinity -1.41186619
REMARK minimizedRMSD -1
REMARK  0 active torsions:
REMARK  status: ('A' for Active; 'I' for Inactive)
ROOT
ATOM      1  C1  BNZ d   1      -3.247   3.856  -5.952  0.00  0.00     0.000 A 
ATOM      2  C2  BNZ d   1      -3.833   2.619  -5.967  0.00  0.00     0.000 A 
ATOM      3  C3  BNZ d   1      -5.194   2.489  -5.990  0.00  0.00     0.000 A 
ATOM      4  C4  BNZ d   1      -5.965   3.595  -5.956  0.00  0.00     0.000 A 
ATOM      5  C5  BNZ d   1      -5.389   4.849  -5.930  0.00  0.00     0.000 A 
ATOM      6  C6  BNZ d   1      -4.019   4.976  -5.948  0.00  0.00     0.000 A 
ENDROOT
TORSDOF 0
ENDMDL
