MODEL 1
REMARK minimizedAffinity 1.27227974
REMARK minimizedRMSD -1
REMARK  0 active torsions:
REMARK  status: ('A' for Active; 'I' for Inactive)
ROOT
ATOM      1  C1  BNZ d   1       0.431   0.875   0.576  0.00  0.00     0.000 A 
ATOM      2  C2  BNZ d   1       0.149  -0.423   0.907  0.00  0.00     0.000 A 
ATOM      3  C3  BNZ d   1      -0.105  -1.353  -0.062  0.00  0.00     0.000 A 
ATOM      4  C4  BNZ d   1      -0.117  -0.976  -1.356  0.00  0.00     0.000 A 
ATOM      5  C5  BNZ d   1       0.155   0.332  -1.706  0.00  0.00     0.000 A 
ATOM      6  C6  BNZ d   1       0.449   1.257  -0.730  0.00  0.00     0.000 A 
ENDROOT
TORSDOF 0
ENDMDL
