MODEL 1
REMARK minimizedAffinity 2.06889248
REMARK minimizedRMSD -1
REMARK  0 active torsions:
REMARK  status: ('A' for Active; 'I' for Inactive)
ROOT
ATOM      1  C1  BNZ d   1      -2.637  -2.132  -4.640  0.00  0.00     0.000 A 
ATOM      2  C2  BNZ d   1      -1.409  -2.451  -4.123  0.00  0.00     0.000 A 
ATOM      3  C3  BNZ d   1      -1.063  -3.754  -3.895  0.00  0.00     0.000 A 
ATOM      4  C4  BNZ d   1      -1.958  -4.731  -4.146  0.00  0.00     0.000 A 
ATOM      5  C5  BNZ d   1      -3.203  -4.424  -4.658  0.00  0.00     0.000 A 
ATOM      6  C6  BNZ d   1      -3.534  -3.115  -4.923  0.00  0.00     0.000 A 
ENDROOT
TORSDOF 0
ENDMDL
