MODEL 1
REMARK minimizedAffinity -2.34445977
REMARK minimizedRMSD -1
REMARK  0 active torsions:
REMARK  status: ('A' for Active; 'I' for Inactive)
ROOT
ATOM      1  C1  BNZ d   1      -4.733  -2.648  -4.871  0.00  0.00     0.000 A 
ATOM      2  C2  BNZ d   1      -4.014  -2.973  -3.752  0.00  0.00     0.000 A 
ATOM      3  C3  BNZ d   1      -2.651  -2.870  -3.741  0.00  0.00     0.000 A 
ATOM      4  C4  BNZ d   1      -2.007  -2.480  -4.859  0.00  0.00     0.000 A 
ATOM      5  C5  BNZ d   1      -2.716  -2.158  -5.999  0.00  0.00     0.000 A 
ATOM      6  C6  BNZ d   1      -4.091  -2.226  -5.994  0.00  0.00     0.000 A 
ENDROOT
TORSDOF 0
ENDMDL
