MODEL 1
REMARK minimizedAffinity -1.95746505
REMARK minimizedRMSD -1
REMARK  0 active torsions:
REMARK  status: ('A' for Active; 'I' for Inactive)
ROOT
ATOM      1  C1  BNZ d   1      -3.537   2.994  -5.810  0.00  0.00     0.000 A 
ATOM      2  C2  BNZ d   1      -4.878   2.718  -5.802  0.00  0.00     0.000 A 
ATOM      3  C3  BNZ d   1      -5.801   3.720  -5.917  0.00  0.00     0.000 A 
ATOM      4  C4  BNZ d   1      -5.382   5.000  -6.000  0.00  0.00     0.000 A 
ATOM      5  C5  BNZ d   1      -4.034   5.295  -6.000  0.00  0.00     0.000 A 
ATOM      6  C6  BNZ d   1      -3.108   4.281  -5.923  0.00  0.00     0.000 A 
ENDROOT
TORSDOF 0
ENDMDL
