MODEL 1
REMARK minimizedAffinity -2.94233584
REMARK minimizedRMSD -1
REMARK  0 active torsions:
REMARK  status: ('A' for Active; 'I' for Inactive)
ROOT
ATOM      1  C1  BNZ d   1      -4.001  -2.405  -4.864  0.00  0.00     0.000 A 
ATOM      2  C2  BNZ d   1      -2.859  -2.667  -4.155  0.00  0.00     0.000 A 
ATOM      3  C3  BNZ d   1      -2.295  -3.912  -4.171  0.00  0.00     0.000 A 
ATOM      4  C4  BNZ d   1      -2.895  -4.903  -4.862  0.00  0.00     0.000 A 
ATOM      5  C5  BNZ d   1      -4.052  -4.657  -5.574  0.00  0.00     0.000 A 
ATOM      6  C6  BNZ d   1      -4.595  -3.393  -5.588  0.00  0.00     0.000 A 
ENDROOT
TORSDOF 0
ENDMDL
