MODEL 1
REMARK minimizedAffinity -3.16055512
REMARK minimizedRMSD -1
REMARK  0 active torsions:
REMARK  status: ('A' for Active; 'I' for Inactive)
ROOT
ATOM      1  C1  BNZ d   1      -4.702   3.310  -6.000  0.00  0.00     0.000 A 
ATOM      2  C2  BNZ d   1      -3.446   3.850  -5.923  0.00  0.00     0.000 A 
ATOM      3  C3  BNZ d   1      -3.272   5.184  -5.681  0.00  0.00     0.000 A 
ATOM      4  C4  BNZ d   1      -4.351   5.982  -5.556  0.00  0.00     0.000 A 
ATOM      5  C5  BNZ d   1      -5.624   5.455  -5.640  0.00  0.00     0.000 A 
ATOM      6  C6  BNZ d   1      -5.796   4.105  -5.845  0.00  0.00     0.000 A 
ENDROOT
TORSDOF 0
ENDMDL
