MODEL 1
REMARK minimizedAffinity -2.61912298
REMARK minimizedRMSD -1
REMARK  0 active torsions:
REMARK  status: ('A' for Active; 'I' for Inactive)
ROOT
ATOM      1  C1  BNZ d   1      -1.734   4.818  -5.641  0.00  0.00     0.000 A 
ATOM      2  C2  BNZ d   1      -2.419   5.994  -5.791  0.00  0.00     0.000 A 
ATOM      3  C3  BNZ d   1      -3.777   5.999  -5.949  0.00  0.00     0.000 A 
ATOM      4  C4  BNZ d   1      -4.443   4.827  -5.997  0.00  0.00     0.000 A 
ATOM      5  C5  BNZ d   1      -3.765   3.632  -5.857  0.00  0.00     0.000 A 
ATOM      6  C6  BNZ d   1      -2.403   3.633  -5.659  0.00  0.00     0.000 A 
ENDROOT
TORSDOF 0
ENDMDL
