MODEL 1
REMARK minimizedAffinity -3.16985393
REMARK minimizedRMSD -1
REMARK  0 active torsions:
REMARK  status: ('A' for Active; 'I' for Inactive)
ROOT
ATOM      1  C1  BNZ d   1      -3.819   3.635  -5.722  0.00  0.00     0.000 A 
ATOM      2  C2  BNZ d   1      -5.179   3.650  -5.881  0.00  0.00     0.000 A 
ATOM      3  C3  BNZ d   1      -5.858   4.831  -5.990  0.00  0.00     0.000 A 
ATOM      4  C4  BNZ d   1      -5.183   5.995  -5.900  0.00  0.00     0.000 A 
ATOM      5  C5  BNZ d   1      -3.813   5.997  -5.731  0.00  0.00     0.000 A 
ATOM      6  C6  BNZ d   1      -3.127   4.806  -5.661  0.00  0.00     0.000 A 
ENDROOT
TORSDOF 0
ENDMDL
