MODEL 1
REMARK minimizedAffinity -1.13499618
REMARK minimizedRMSD -1
REMARK  0 active torsions:
REMARK  status: ('A' for Active; 'I' for Inactive)
ROOT
ATOM      1  C   UNL d   1       3.492  -5.985  -2.313  0.00  0.00     0.172 C 
ATOM      2  N   UNL d   1       3.397  -5.972  -3.754  0.00  0.00    -0.070 N 
ATOM      3  C1  UNL d   1       2.235  -5.980  -4.477  0.00  0.00    -0.004 A 
ATOM      4  C2  UNL d   1       2.570  -5.962  -5.814  0.00  0.00    -0.047 A 
ATOM      5  C3  UNL d   1       3.982  -5.943  -5.896  0.00  0.00    -0.047 A 
ATOM      6  C4  UNL d   1       4.469  -5.950  -4.606  0.00  0.00    -0.004 A 
ENDROOT
TORSDOF 0
ENDMDL
