MODEL 1
REMARK minimizedAffinity 4.60615396
REMARK minimizedRMSD -1
REMARK  0 active torsions:
REMARK  status: ('A' for Active; 'I' for Inactive)
ROOT
ATOM      1  C   UNL d   1      -2.502   2.609   0.435  0.00  0.00     0.172 C 
ATOM      2  N   UNL d   1      -3.871   3.040   0.598  0.00  0.00    -0.070 N 
ATOM      3  C1  UNL d   1      -4.783   3.198  -0.410  0.00  0.00    -0.004 A 
ATOM      4  C2  UNL d   1      -5.968   3.619   0.155  0.00  0.00    -0.047 A 
ATOM      5  C3  UNL d   1      -5.760   3.718   1.551  0.00  0.00    -0.047 A 
ATOM      6  C4  UNL d   1      -4.453   3.353   1.798  0.00  0.00    -0.004 A 
ENDROOT
TORSDOF 0
ENDMDL
