MODEL 1
REMARK minimizedAffinity -1.14510429
REMARK minimizedRMSD -1
REMARK  0 active torsions:
REMARK  status: ('A' for Active; 'I' for Inactive)
ROOT
ATOM      1  C   UNL d   1       3.156  -5.988  -2.314  0.00  0.00     0.172 C 
ATOM      2  N   UNL d   1       3.296  -5.991  -3.751  0.00  0.00    -0.070 N 
ATOM      3  C1  UNL d   1       4.480  -5.994  -4.438  0.00  0.00    -0.004 A 
ATOM      4  C2  UNL d   1       4.187  -5.997  -5.785  0.00  0.00    -0.047 A 
ATOM      5  C3  UNL d   1       2.778  -5.994  -5.911  0.00  0.00    -0.047 A 
ATOM      6  C4  UNL d   1       2.251  -5.990  -4.637  0.00  0.00    -0.004 A 
ENDROOT
TORSDOF 0
ENDMDL
