MODEL 1
REMARK minimizedAffinity -2.06768847
REMARK minimizedRMSD -1
REMARK  0 active torsions:
REMARK  status: ('A' for Active; 'I' for Inactive)
ROOT
ATOM      1  C   UNL d   1       5.709  -5.517  -5.780  0.00  0.00     0.172 C 
ATOM      2  N   UNL d   1       4.360  -5.635  -5.279  0.00  0.00    -0.070 N 
ATOM      3  C1  UNL d   1       3.218  -5.408  -5.999  0.00  0.00    -0.004 A 
ATOM      4  C2  UNL d   1       2.143  -5.627  -5.166  0.00  0.00    -0.047 A 
ATOM      5  C3  UNL d   1       2.656  -5.999  -3.901  0.00  0.00    -0.047 A 
ATOM      6  C4  UNL d   1       4.031  -5.996  -3.999  0.00  0.00    -0.004 A 
ENDROOT
TORSDOF 0
ENDMDL
