MODEL 1
REMARK minimizedAffinity 2.61516476
REMARK minimizedRMSD -1
REMARK  0 active torsions:
REMARK  status: ('A' for Active; 'I' for Inactive)
ROOT
ATOM      1  C   UNL d   1       5.209  -4.764  -5.108  0.00  0.00     0.172 C 
ATOM      2  N   UNL d   1       3.856  -5.243  -4.949  0.00  0.00    -0.070 N 
ATOM      3  C1  UNL d   1       3.225  -5.470  -3.755  0.00  0.00    -0.004 A 
ATOM      4  C2  UNL d   1       1.951  -5.920  -4.030  0.00  0.00    -0.047 A 
ATOM      5  C3  UNL d   1       1.813  -5.966  -5.437  0.00  0.00    -0.047 A 
ATOM      6  C4  UNL d   1       3.007  -5.542  -5.982  0.00  0.00    -0.004 A 
ENDROOT
TORSDOF 0
ENDMDL
