MODEL 1
REMARK minimizedAffinity -1.8769598
REMARK minimizedRMSD -1
REMARK  0 active torsions:
REMARK  status: ('A' for Active; 'I' for Inactive)
ROOT
ATOM      1  C   UNL d   1       4.653   1.545  -5.929  0.00  0.00     0.172 C 
ATOM      2  N   UNL d   1       4.105   0.480  -5.122  0.00  0.00    -0.070 N 
ATOM      3  C1  UNL d   1       2.818   0.409  -4.662  0.00  0.00    -0.004 A 
ATOM      4  C2  UNL d   1       2.693  -0.755  -3.934  0.00  0.00    -0.047 A 
ATOM      5  C3  UNL d   1       3.950  -1.405  -3.957  0.00  0.00    -0.047 A 
ATOM      6  C4  UNL d   1       4.806  -0.619  -4.699  0.00  0.00    -0.004 A 
ENDROOT
TORSDOF 0
ENDMDL
