MODEL 1
REMARK minimizedAffinity 5.91300344
REMARK minimizedRMSD -1
REMARK  0 active torsions:
REMARK  status: ('A' for Active; 'I' for Inactive)
ROOT
ATOM      1  C   UNL d   1      -5.973   3.990   2.489  0.00  0.00     0.172 C 
ATOM      2  N   UNL d   1      -5.981   3.358   1.191  0.00  0.00    -0.070 N 
ATOM      3  C1  UNL d   1      -5.972   2.009   0.960  0.00  0.00    -0.004 A 
ATOM      4  C2  UNL d   1      -5.985   1.814  -0.404  0.00  0.00    -0.047 A 
ATOM      5  C3  UNL d   1      -6.000   3.091  -1.014  0.00  0.00    -0.047 A 
ATOM      6  C4  UNL d   1      -5.997   4.029  -0.003  0.00  0.00    -0.004 A 
ENDROOT
TORSDOF 0
ENDMDL
