MODEL 1
REMARK minimizedAffinity -0.54784584
REMARK minimizedRMSD -1
REMARK  0 active torsions:
REMARK  status: ('A' for Active; 'I' for Inactive)
ROOT
ATOM      1  C   UNL d   1       0.910  -4.450   5.436  0.00  0.00     0.172 C 
ATOM      2  N   UNL d   1       1.496  -3.595   4.431  0.00  0.00    -0.070 N 
ATOM      3  C1  UNL d   1       1.328  -2.239   4.340  0.00  0.00    -0.004 A 
ATOM      4  C2  UNL d   1       2.048  -1.796   3.252  0.00  0.00    -0.047 A 
ATOM      5  C3  UNL d   1       2.668  -2.926   2.667  0.00  0.00    -0.047 A 
ATOM      6  C4  UNL d   1       2.310  -4.026   3.417  0.00  0.00    -0.004 A 
ENDROOT
TORSDOF 0
ENDMDL
