MODEL 1
REMARK minimizedAffinity -4.45627689
REMARK minimizedRMSD -1
REMARK  1 active torsions:
REMARK  status: ('A' for Active; 'I' for Inactive)
REMARK    1  A    between atoms: C1_2  and  C2_3 
ROOT
ATOM      1  C2  UNL d   1      -0.116  -0.100   0.299  0.00  0.00    -0.076 A 
ATOM      2  C3  UNL d   1       0.372  -0.492   1.558  0.00  0.00     0.004 A 
ATOM      3  C4  UNL d   1       0.397   0.401   2.628  0.00  0.00    -0.003 A 
ATOM      4  C5  UNL d   1      -0.067   1.701   2.456  0.00  0.00     0.000 A 
ATOM      5  C6  UNL d   1      -0.571   2.101   1.219  0.00  0.00     0.000 A 
ATOM      6  C7  UNL d   1      -0.618   1.208   0.135  0.00  0.00    -0.073 A 
ATOM      7  C8  UNL d   1      -1.167   1.696  -1.178  0.00  0.00     0.078 C 
ENDROOT
BRANCH   1   8
ATOM      8  C1  UNL d   1      -0.093  -1.104  -0.831  0.00  0.00     0.053 C 
ATOM      9  C   UNL d   1      -1.324  -1.998  -0.842  0.00  0.00     0.018 C 
ENDBRANCH   1   8
TORSDOF 1
ENDMDL
