MODEL 1
REMARK minimizedAffinity -5.97490263
REMARK minimizedRMSD -1
REMARK  1 active torsions:
REMARK  status: ('A' for Active; 'I' for Inactive)
REMARK    1  A    between atoms: C1_2  and  C2_3 
ROOT
ATOM      1  C2  UNL d   1      -0.040   1.010   0.445  0.00  0.00    -0.076 A 
ATOM      2  C3  UNL d   1       0.041   0.659   1.804  0.00  0.00     0.004 A 
ATOM      3  C4  UNL d   1      -0.493   1.486   2.791  0.00  0.00    -0.003 A 
ATOM      4  C5  UNL d   1      -1.116   2.676   2.436  0.00  0.00     0.000 A 
ATOM      5  C6  UNL d   1      -1.221   3.032   1.092  0.00  0.00     0.000 A 
ATOM      6  C7  UNL d   1      -0.703   2.202   0.082  0.00  0.00    -0.073 A 
ATOM      7  C8  UNL d   1      -0.838   2.638  -1.351  0.00  0.00     0.078 C 
ENDROOT
BRANCH   1   8
ATOM      8  C1  UNL d   1       0.581   0.088  -0.580  0.00  0.00     0.053 C 
ATOM      9  C   UNL d   1      -0.087  -1.278  -0.615  0.00  0.00     0.018 C 
ENDBRANCH   1   8
TORSDOF 1
ENDMDL
