MODEL 1
REMARK minimizedAffinity -5.63268232
REMARK minimizedRMSD -1
REMARK  1 active torsions:
REMARK  status: ('A' for Active; 'I' for Inactive)
REMARK    1  A    between atoms: C1_2  and  C2_3 
ROOT
ATOM      1  C2  UNL d   1       0.262   0.098   0.325  0.00  0.00    -0.076 A 
ATOM      2  C3  UNL d   1       0.775  -0.163   1.607  0.00  0.00     0.004 A 
ATOM      3  C4  UNL d   1       0.439   0.644   2.692  0.00  0.00    -0.003 A 
ATOM      4  C5  UNL d   1      -0.416   1.725   2.513  0.00  0.00     0.000 A 
ATOM      5  C6  UNL d   1      -0.949   1.989   1.252  0.00  0.00     0.000 A 
ATOM      6  C7  UNL d   1      -0.633   1.175   0.150  0.00  0.00    -0.073 A 
ATOM      7  C8  UNL d   1      -1.231   1.509  -1.189  0.00  0.00     0.078 C 
ENDROOT
BRANCH   1   8
ATOM      8  C1  UNL d   1       0.684  -0.796  -0.820  0.00  0.00     0.053 C 
ATOM      9  C   UNL d   1       0.008  -2.157  -0.776  0.00  0.00     0.018 C 
ENDBRANCH   1   8
TORSDOF 1
ENDMDL
