MODEL 1
REMARK minimizedAffinity -3.83767271
REMARK minimizedRMSD -1
REMARK  1 active torsions:
REMARK  status: ('A' for Active; 'I' for Inactive)
REMARK    1  A    between atoms: C1_2  and  C2_3 
ROOT
ATOM      1  C2  UNL d   1       0.153  -0.188   0.271  0.00  0.00    -0.076 A 
ATOM      2  C3  UNL d   1      -0.888   0.590  -0.265  0.00  0.00     0.004 A 
ATOM      3  C4  UNL d   1      -1.352   1.724   0.400  0.00  0.00    -0.003 A 
ATOM      4  C5  UNL d   1      -0.782   2.100   1.611  0.00  0.00     0.000 A 
ATOM      5  C6  UNL d   1       0.264   1.350   2.149  0.00  0.00     0.000 A 
ATOM      6  C7  UNL d   1       0.754   0.213   1.484  0.00  0.00    -0.073 A 
ATOM      7  C8  UNL d   1       1.880  -0.562   2.112  0.00  0.00     0.078 C 
ENDROOT
BRANCH   1   8
ATOM      8  C1  UNL d   1       0.596  -1.422  -0.480  0.00  0.00     0.053 C 
ATOM      9  C   UNL d   1      -0.572  -2.307  -0.887  0.00  0.00     0.018 C 
ENDBRANCH   1   8
TORSDOF 1
ENDMDL
