MODEL 1
REMARK minimizedAffinity -5.35545111
REMARK minimizedRMSD -1
REMARK  1 active torsions:
REMARK  status: ('A' for Active; 'I' for Inactive)
REMARK    1  A    between atoms: C1_2  and  C2_3 
ROOT
ATOM      1  C2  UNL d   1       0.199   0.094   0.126  0.00  0.00    -0.076 A 
ATOM      2  C3  UNL d   1      -0.993   0.771  -0.182  0.00  0.00     0.004 A 
ATOM      3  C4  UNL d   1      -1.577   1.647   0.731  0.00  0.00    -0.003 A 
ATOM      4  C5  UNL d   1      -0.978   1.861   1.967  0.00  0.00     0.000 A 
ATOM      5  C6  UNL d   1       0.214   1.210   2.283  0.00  0.00     0.000 A 
ATOM      6  C7  UNL d   1       0.825   0.336   1.367  0.00  0.00    -0.073 A 
ATOM      7  C8  UNL d   1       2.107  -0.343   1.763  0.00  0.00     0.078 C 
ENDROOT
BRANCH   1   8
ATOM      8  C1  UNL d   1       0.772  -0.865  -0.893  0.00  0.00     0.053 C 
ATOM      9  C   UNL d   1      -0.186  -1.997  -1.231  0.00  0.00     0.018 C 
ENDBRANCH   1   8
TORSDOF 1
ENDMDL
