MODEL 1
REMARK minimizedAffinity -5.43470478
REMARK minimizedRMSD -1
REMARK  1 active torsions:
REMARK  status: ('A' for Active; 'I' for Inactive)
REMARK    1  A    between atoms: C1_2  and  C2_3 
ROOT
ATOM      1  C2  UNL d   1       0.033   0.086   0.715  0.00  0.00    -0.076 A 
ATOM      2  C3  UNL d   1       0.714  -0.500  -0.366  0.00  0.00     0.004 A 
ATOM      3  C4  UNL d   1       0.530  -0.035  -1.667  0.00  0.00    -0.003 A 
ATOM      4  C5  UNL d   1      -0.337   1.025  -1.908  0.00  0.00     0.000 A 
ATOM      5  C6  UNL d   1      -1.008   1.630  -0.845  0.00  0.00     0.000 A 
ATOM      6  C7  UNL d   1      -0.821   1.183   0.475  0.00  0.00    -0.073 A 
ATOM      7  C8  UNL d   1      -1.574   1.868   1.582  0.00  0.00     0.078 C 
ENDROOT
BRANCH   1   8
ATOM      8  C1  UNL d   1       0.252  -0.479   2.101  0.00  0.00     0.053 C 
ATOM      9  C   UNL d   1       1.688  -0.318   2.576  0.00  0.00     0.018 C 
ENDBRANCH   1   8
TORSDOF 1
ENDMDL
