MODEL 1
REMARK minimizedAffinity 6.05897141
REMARK minimizedRMSD -1
REMARK  1 active torsions:
REMARK  status: ('A' for Active; 'I' for Inactive)
REMARK    1  A    between atoms: C1_2  and  C2_3 
ROOT
ATOM      1  C2  UNL d   1       1.112  -0.162   1.868  0.00  0.00    -0.076 A 
ATOM      2  C3  UNL d   1       1.146  -1.302   2.689  0.00  0.00     0.004 A 
ATOM      3  C4  UNL d   1       1.060  -1.191   4.076  0.00  0.00    -0.003 A 
ATOM      4  C5  UNL d   1       0.939   0.063   4.664  0.00  0.00     0.000 A 
ATOM      5  C6  UNL d   1       0.885   1.204   3.864  0.00  0.00     0.000 A 
ATOM      6  C7  UNL d   1       0.954   1.108   2.463  0.00  0.00    -0.073 A 
ATOM      7  C8  UNL d   1       0.898   2.372   1.650  0.00  0.00     0.078 C 
ENDROOT
BRANCH   1   8
ATOM      8  C1  UNL d   1       1.236  -0.342   0.372  0.00  0.00     0.053 C 
ATOM      9  C   UNL d   1       1.014  -1.783  -0.062  0.00  0.00     0.018 C 
ENDBRANCH   1   8
TORSDOF 1
ENDMDL
