MODEL 1
REMARK minimizedAffinity -3.62697816
REMARK minimizedRMSD -1
REMARK  1 active torsions:
REMARK  status: ('A' for Active; 'I' for Inactive)
REMARK    1  A    between atoms: C1_2  and  C2_3 
ROOT
ATOM      1  C2  UNL d   1       0.717   1.037   1.084  0.00  0.00    -0.076 A 
ATOM      2  C3  UNL d   1       1.329  -0.147   0.637  0.00  0.00     0.004 A 
ATOM      3  C4  UNL d   1       1.939  -1.023   1.534  0.00  0.00    -0.003 A 
ATOM      4  C5  UNL d   1       1.945  -0.729   2.894  0.00  0.00     0.000 A 
ATOM      5  C6  UNL d   1       1.326   0.433   3.356  0.00  0.00     0.000 A 
ATOM      6  C7  UNL d   1       0.693   1.318   2.466  0.00  0.00    -0.073 A 
ATOM      7  C8  UNL d   1       0.047   2.558   3.020  0.00  0.00     0.078 C 
ENDROOT
BRANCH   1   8
ATOM      8  C1  UNL d   1       0.096   1.961   0.061  0.00  0.00     0.053 C 
ATOM      9  C   UNL d   1      -1.049   1.307  -0.697  0.00  0.00     0.018 C 
ENDBRANCH   1   8
TORSDOF 1
ENDMDL
