MODEL 1
REMARK minimizedAffinity -5.15974951
REMARK minimizedRMSD -1
REMARK  1 active torsions:
REMARK  status: ('A' for Active; 'I' for Inactive)
REMARK    1  A    between atoms: C1_2  and  C2_3 
ROOT
ATOM      1  C2  UNL d   1       0.124   0.638   0.140  0.00  0.00    -0.076 A 
ATOM      2  C3  UNL d   1       0.283   0.358   1.508  0.00  0.00     0.004 A 
ATOM      3  C4  UNL d   1      -0.284   1.182   2.480  0.00  0.00    -0.003 A 
ATOM      4  C5  UNL d   1      -1.020   2.298   2.098  0.00  0.00     0.000 A 
ATOM      5  C6  UNL d   1      -1.203   2.581   0.745  0.00  0.00     0.000 A 
ATOM      6  C7  UNL d   1      -0.652   1.752  -0.247  0.00  0.00    -0.073 A 
ATOM      7  C8  UNL d   1      -0.875   2.107  -1.691  0.00  0.00     0.078 C 
ENDROOT
BRANCH   1   8
ATOM      8  C1  UNL d   1       0.784  -0.276  -0.868  0.00  0.00     0.053 C 
ATOM      9  C   UNL d   1       0.327  -1.720  -0.732  0.00  0.00     0.018 C 
ENDBRANCH   1   8
TORSDOF 1
ENDMDL
