MODEL 1
REMARK minimizedAffinity -5.09995556
REMARK minimizedRMSD -1
REMARK  0 active torsions:
REMARK  status: ('A' for Active; 'I' for Inactive)
ROOT
ATOM      1  C2' OXE d   1       0.322  -0.446  -1.209  0.00  0.00     0.078 C 
ATOM      2  C1' OXE d   1       0.470  -0.277   1.589  0.00  0.00     0.078 C 
ATOM      3  C1  OXE d   1      -0.150   0.880   0.846  0.00  0.00    -0.078 A 
ATOM      4  C2  OXE d   1      -0.176   0.809  -0.526  0.00  0.00    -0.078 A 
ATOM      5  C3  OXE d   1      -0.786   1.824  -1.257  0.00  0.00     0.003 A 
ATOM      6  C4  OXE d   1      -1.235   2.987  -0.618  0.00  0.00    -0.002 A 
ATOM      7  C5  OXE d   1      -1.181   3.097   0.775  0.00  0.00    -0.002 A 
ATOM      8  C6  OXE d   1      -0.682   2.037   1.524  0.00  0.00     0.003 A 
ENDROOT
TORSDOF 0
ENDMDL
