MODEL 1
REMARK minimizedAffinity -4.71579933
REMARK minimizedRMSD -1
REMARK  0 active torsions:
REMARK  status: ('A' for Active; 'I' for Inactive)
ROOT
ATOM      1  C2' OXE d   1       1.318  -0.413   1.996  0.00  0.00     0.078 C 
ATOM      2  C1' OXE d   1       0.667  -0.417  -0.734  0.00  0.00     0.078 C 
ATOM      3  C1  OXE d   1       0.135   0.711   0.114  0.00  0.00    -0.078 A 
ATOM      4  C2  OXE d   1       0.420   0.680   1.458  0.00  0.00    -0.078 A 
ATOM      5  C3  OXE d   1      -0.000   1.725   2.276  0.00  0.00     0.003 A 
ATOM      6  C4  OXE d   1      -0.839   2.726   1.772  0.00  0.00    -0.002 A 
ATOM      7  C5  OXE d   1      -1.174   2.755   0.414  0.00  0.00    -0.002 A 
ATOM      8  C6  OXE d   1      -0.661   1.780  -0.435  0.00  0.00     0.003 A 
ENDROOT
TORSDOF 0
ENDMDL
