MODEL 1
REMARK minimizedAffinity -1.53903162
REMARK minimizedRMSD -1
REMARK  0 active torsions:
REMARK  status: ('A' for Active; 'I' for Inactive)
ROOT
ATOM      1  C2' OXE d   1       0.570  -0.900  -0.381  0.00  0.00     0.078 C 
ATOM      2  C1' OXE d   1      -0.055   1.808  -0.775  0.00  0.00     0.078 C 
ATOM      3  C1  OXE d   1       0.127   1.327   0.643  0.00  0.00    -0.078 A 
ATOM      4  C2  OXE d   1       0.387  -0.010   0.829  0.00  0.00    -0.078 A 
ATOM      5  C3  OXE d   1       0.617  -0.495   2.113  0.00  0.00     0.003 A 
ATOM      6  C4  OXE d   1       0.435   0.333   3.227  0.00  0.00    -0.002 A 
ATOM      7  C5  OXE d   1       0.132   1.689   3.062  0.00  0.00    -0.002 A 
ATOM      8  C6  OXE d   1       0.016   2.210   1.778  0.00  0.00     0.003 A 
ENDROOT
TORSDOF 0
ENDMDL
