MODEL 1
REMARK minimizedAffinity 5.22903347
REMARK minimizedRMSD -1
REMARK  0 active torsions:
REMARK  status: ('A' for Active; 'I' for Inactive)
ROOT
ATOM      1  C2' OXE d   1       0.800   0.913  -0.765  0.00  0.00     0.078 C 
ATOM      2  C1' OXE d   1       0.447   3.581   0.033  0.00  0.00     0.078 C 
ATOM      3  C1  OXE d   1      -0.756   2.840  -0.496  0.00  0.00    -0.078 A 
ATOM      4  C2  OXE d   1      -0.563   1.550  -0.928  0.00  0.00    -0.078 A 
ATOM      5  C3  OXE d   1      -1.650   0.803  -1.374  0.00  0.00     0.003 A 
ATOM      6  C4  OXE d   1      -2.906   1.403  -1.530  0.00  0.00    -0.002 A 
ATOM      7  C5  OXE d   1      -3.114   2.728  -1.134  0.00  0.00    -0.002 A 
ATOM      8  C6  OXE d   1      -2.062   3.446  -0.576  0.00  0.00     0.003 A 
ENDROOT
TORSDOF 0
ENDMDL
