MODEL 1
REMARK minimizedAffinity 6.2618885
REMARK minimizedRMSD -1
REMARK  0 active torsions:
REMARK  status: ('A' for Active; 'I' for Inactive)
ROOT
ATOM      1  C2' OXE d   1       1.966  -3.635  -1.148  0.00  0.00     0.078 C 
ATOM      2  C1' OXE d   1       2.258  -0.944  -0.405  0.00  0.00     0.078 C 
ATOM      3  C1  OXE d   1       3.439  -1.629  -1.045  0.00  0.00    -0.078 A 
ATOM      4  C2  OXE d   1       3.303  -2.959  -1.363  0.00  0.00    -0.078 A 
ATOM      5  C3  OXE d   1       4.344  -3.625  -2.004  0.00  0.00     0.003 A 
ATOM      6  C4  OXE d   1       5.580  -2.995  -2.190  0.00  0.00    -0.002 A 
ATOM      7  C5  OXE d   1       5.753  -1.652  -1.837  0.00  0.00    -0.002 A 
ATOM      8  C6  OXE d   1       4.682  -0.944  -1.304  0.00  0.00     0.003 A 
ENDROOT
TORSDOF 0
ENDMDL
