MODEL 1
REMARK minimizedAffinity -2.42513776
REMARK minimizedRMSD -1
REMARK  2 active torsions:
REMARK  status: ('A' for Active; 'I' for Inactive)
REMARK    1  A    between atoms: C2'_3  and  C1'_4 
REMARK    2  A    between atoms: C1'_4  and  C1_5 
ROOT
ATOM      1  C1  I4B d   1       0.991   0.572   0.581  0.00  0.00    -0.075 A 
ATOM      2  C2  I4B d   1       1.901   1.122  -0.288  0.00  0.00     0.003 A 
ATOM      3  C3  I4B d   1       1.685   1.050  -1.685  0.00  0.00     0.002 A 
ATOM      4  C4  I4B d   1       0.579   0.381  -2.169  0.00  0.00    -0.004 A 
ATOM      5  C5  I4B d   1      -0.354  -0.155  -1.286  0.00  0.00     0.002 A 
ATOM      6  C6  I4B d   1      -0.153  -0.049   0.098  0.00  0.00     0.003 A 
ENDROOT
BRANCH   1   7
ATOM      7  C1' I4B d   1       1.267   0.637   2.050  0.00  0.00     0.060 C 
BRANCH   7   8
ATOM      8  C2' I4B d   1      -0.058   0.789   2.768  0.00  0.00    -0.013 C 
ATOM      9  C4' I4B d   1      -0.439  -0.479   3.485  0.00  0.00     0.013 C 
ATOM     10  C3' I4B d   1       0.063   1.937   3.725  0.00  0.00     0.013 C 
ENDBRANCH   7   8
ENDBRANCH   1   7
TORSDOF 2
ENDMDL
