MODEL 1
REMARK minimizedAffinity -4.51188803
REMARK minimizedRMSD -1
REMARK  2 active torsions:
REMARK  status: ('A' for Active; 'I' for Inactive)
REMARK    1  A    between atoms: C2'_3  and  C1'_4 
REMARK    2  A    between atoms: C1'_4  and  C1_5 
ROOT
ATOM      1  C1  I4B d   1      -0.344   0.224   0.130  0.00  0.00    -0.075 A 
ATOM      2  C2  I4B d   1       0.644   0.469   1.051  0.00  0.00     0.003 A 
ATOM      3  C3  I4B d   1       0.551  -0.068   2.357  0.00  0.00     0.002 A 
ATOM      4  C4  I4B d   1      -0.565  -0.798   2.713  0.00  0.00    -0.004 A 
ATOM      5  C5  I4B d   1      -1.555  -1.064   1.772  0.00  0.00     0.002 A 
ATOM      6  C6  I4B d   1      -1.438  -0.560   0.468  0.00  0.00     0.003 A 
ENDROOT
BRANCH   1   7
ATOM      7  C1' I4B d   1      -0.229   0.835  -1.231  0.00  0.00     0.060 C 
BRANCH   7   8
ATOM      8  C2' I4B d   1       0.709  -0.027  -2.051  0.00  0.00    -0.013 C 
ATOM      9  C4' I4B d   1      -0.012  -0.668  -3.208  0.00  0.00     0.013 C 
ATOM     10  C3' I4B d   1       1.836   0.840  -2.529  0.00  0.00     0.013 C 
ENDBRANCH   7   8
ENDBRANCH   1   7
TORSDOF 2
ENDMDL
