MODEL 1
REMARK minimizedAffinity -3.68749571
REMARK minimizedRMSD -1
REMARK  2 active torsions:
REMARK  status: ('A' for Active; 'I' for Inactive)
REMARK    1  A    between atoms: C2'_3  and  C1'_4 
REMARK    2  A    between atoms: C1'_4  and  C1_5 
ROOT
ATOM      1  C1  I4B d   1       0.017   0.599  -0.955  0.00  0.00    -0.075 A 
ATOM      2  C2  I4B d   1      -1.303   0.337  -0.682  0.00  0.00     0.003 A 
ATOM      3  C3  I4B d   1      -1.723   0.113   0.652  0.00  0.00     0.002 A 
ATOM      4  C4  I4B d   1      -0.789   0.110   1.668  0.00  0.00    -0.004 A 
ATOM      5  C5  I4B d   1       0.544   0.399   1.391  0.00  0.00     0.002 A 
ATOM      6  C6  I4B d   1       0.948   0.657   0.073  0.00  0.00     0.003 A 
ENDROOT
BRANCH   1   7
ATOM      7  C1' I4B d   1       0.431   0.798  -2.378  0.00  0.00     0.060 C 
BRANCH   7   8
ATOM      8  C2' I4B d   1      -0.170  -0.323  -3.201  0.00  0.00    -0.013 C 
ATOM      9  C4' I4B d   1      -0.771   0.200  -4.479  0.00  0.00     0.013 C 
ATOM     10  C3' I4B d   1       0.913  -1.323  -3.482  0.00  0.00     0.013 C 
ENDBRANCH   7   8
ENDBRANCH   1   7
TORSDOF 2
ENDMDL
