MODEL 1
REMARK minimizedAffinity -5.76443815
REMARK minimizedRMSD -1
REMARK  2 active torsions:
REMARK  status: ('A' for Active; 'I' for Inactive)
REMARK    1  A    between atoms: C2'_3  and  C1'_4 
REMARK    2  A    between atoms: C1'_4  and  C1_5 
ROOT
ATOM      1  C1  I4B d   1       0.611   0.629  -1.744  0.00  0.00    -0.075 A 
ATOM      2  C2  I4B d   1      -0.426  -0.144  -1.283  0.00  0.00     0.003 A 
ATOM      3  C3  I4B d   1      -0.748  -0.157   0.096  0.00  0.00     0.002 A 
ATOM      4  C4  I4B d   1       0.020   0.574   0.979  0.00  0.00    -0.004 A 
ATOM      5  C5  I4B d   1       1.056   1.375   0.508  0.00  0.00     0.002 A 
ATOM      6  C6  I4B d   1       1.346   1.412  -0.864  0.00  0.00     0.003 A 
ENDROOT
BRANCH   1   7
ATOM      7  C1' I4B d   1       0.945   0.593  -3.201  0.00  0.00     0.060 C 
BRANCH   7   8
ATOM      8  C2' I4B d   1       2.440   0.390  -3.333  0.00  0.00    -0.013 C 
ATOM      9  C4' I4B d   1       2.756  -0.925  -3.996  0.00  0.00     0.013 C 
ATOM     10  C3' I4B d   1       2.996   1.540  -4.119  0.00  0.00     0.013 C 
ENDBRANCH   7   8
ENDBRANCH   1   7
TORSDOF 2
ENDMDL
