MODEL 1
REMARK minimizedAffinity -1.67117834
REMARK minimizedRMSD -1
REMARK  2 active torsions:
REMARK  status: ('A' for Active; 'I' for Inactive)
REMARK    1  A    between atoms: C2'_3  and  C1'_4 
REMARK    2  A    between atoms: C1'_4  and  C1_5 
ROOT
ATOM      1  C1  I4B d   1       2.381   0.169  -3.531  0.00  0.00    -0.075 A 
ATOM      2  C2  I4B d   1       1.072  -0.036  -3.170  0.00  0.00     0.003 A 
ATOM      3  C3  I4B d   1       0.412  -1.234  -3.534  0.00  0.00     0.002 A 
ATOM      4  C4  I4B d   1       1.077  -2.172  -4.297  0.00  0.00    -0.004 A 
ATOM      5  C5  I4B d   1       2.410  -1.973  -4.642  0.00  0.00     0.002 A 
ATOM      6  C6  I4B d   1       3.071  -0.801  -4.246  0.00  0.00     0.003 A 
ENDROOT
BRANCH   1   7
ATOM      7  C1' I4B d   1       3.038   1.460  -3.158  0.00  0.00     0.060 C 
BRANCH   7   8
ATOM      8  C2' I4B d   1       3.871   1.918  -4.337  0.00  0.00    -0.013 C 
ATOM      9  C4' I4B d   1       3.329   3.194  -4.926  0.00  0.00     0.013 C 
ATOM     10  C3' I4B d   1       5.283   2.097  -3.865  0.00  0.00     0.013 C 
ENDBRANCH   7   8
ENDBRANCH   1   7
TORSDOF 2
ENDMDL
