MODEL 1
REMARK minimizedAffinity -3.49749851
REMARK minimizedRMSD -1
REMARK  2 active torsions:
REMARK  status: ('A' for Active; 'I' for Inactive)
REMARK    1  A    between atoms: C2'_3  and  C1'_4 
REMARK    2  A    between atoms: C1'_4  and  C1_5 
ROOT
ATOM      1  C1  I4B d   1       2.094  -0.441  -3.468  0.00  0.00    -0.075 A 
ATOM      2  C2  I4B d   1       3.204  -1.029  -4.021  0.00  0.00     0.003 A 
ATOM      3  C3  I4B d   1       4.297  -0.233  -4.441  0.00  0.00     0.002 A 
ATOM      4  C4  I4B d   1       4.217   1.141  -4.338  0.00  0.00    -0.004 A 
ATOM      5  C5  I4B d   1       3.099   1.733  -3.756  0.00  0.00     0.002 A 
ATOM      6  C6  I4B d   1       2.036   0.937  -3.307  0.00  0.00     0.003 A 
ENDROOT
BRANCH   1   7
ATOM      7  C1' I4B d   1       0.944  -1.309  -3.065  0.00  0.00     0.060 C 
BRANCH   7   8
ATOM      8  C2' I4B d   1       0.897  -2.491  -4.012  0.00  0.00    -0.013 C 
ATOM      9  C4' I4B d   1       0.934  -3.795  -3.259  0.00  0.00     0.013 C 
ATOM     10  C3' I4B d   1      -0.352  -2.375  -4.834  0.00  0.00     0.013 C 
ENDBRANCH   7   8
ENDBRANCH   1   7
TORSDOF 2
ENDMDL
