MODEL 1
REMARK minimizedAffinity 4.85196972
REMARK minimizedRMSD -1
REMARK  2 active torsions:
REMARK  status: ('A' for Active; 'I' for Inactive)
REMARK    1  A    between atoms: C2'_3  and  C1'_4 
REMARK    2  A    between atoms: C1'_4  and  C1_5 
ROOT
ATOM      1  C1  I4B d   1       1.174   0.585   2.760  0.00  0.00    -0.075 A 
ATOM      2  C2  I4B d   1       1.490   1.051   1.509  0.00  0.00     0.003 A 
ATOM      3  C3  I4B d   1       2.733   0.718   0.917  0.00  0.00     0.002 A 
ATOM      4  C4  I4B d   1       3.643  -0.037   1.628  0.00  0.00    -0.004 A 
ATOM      5  C5  I4B d   1       3.312  -0.528   2.887  0.00  0.00     0.002 A 
ATOM      6  C6  I4B d   1       2.064  -0.226   3.452  0.00  0.00     0.003 A 
ENDROOT
BRANCH   1   7
ATOM      7  C1' I4B d   1      -0.133   0.983   3.369  0.00  0.00     0.060 C 
BRANCH   7   8
ATOM      8  C2' I4B d   1      -1.149  -0.091   3.037  0.00  0.00    -0.013 C 
ATOM      9  C4' I4B d   1      -1.473  -0.099   1.567  0.00  0.00     0.013 C 
ATOM     10  C3' I4B d   1      -0.587  -1.410   3.475  0.00  0.00     0.013 C 
ENDBRANCH   7   8
ENDBRANCH   1   7
TORSDOF 2
ENDMDL
