MODEL 1
REMARK minimizedAffinity 5.93285608
REMARK minimizedRMSD -1
REMARK  2 active torsions:
REMARK  status: ('A' for Active; 'I' for Inactive)
REMARK    1  A    between atoms: C2'_3  and  C1'_4 
REMARK    2  A    between atoms: C1'_4  and  C1_5 
ROOT
ATOM      1  C1  I4B d   1      -3.486   0.787   2.241  0.00  0.00    -0.075 A 
ATOM      2  C2  I4B d   1      -2.928   1.563   1.256  0.00  0.00     0.003 A 
ATOM      3  C3  I4B d   1      -3.003   1.158  -0.099  0.00  0.00     0.002 A 
ATOM      4  C4  I4B d   1      -3.596  -0.047  -0.416  0.00  0.00    -0.004 A 
ATOM      5  C5  I4B d   1      -4.181  -0.822   0.582  0.00  0.00     0.002 A 
ATOM      6  C6  I4B d   1      -4.136  -0.397   1.918  0.00  0.00     0.003 A 
ENDROOT
BRANCH   1   7
ATOM      7  C1' I4B d   1      -3.359   1.228   3.665  0.00  0.00     0.060 C 
BRANCH   7   8
ATOM      8  C2' I4B d   1      -3.978   2.606   3.783  0.00  0.00    -0.013 C 
ATOM      9  C4' I4B d   1      -4.546   2.833   5.159  0.00  0.00     0.013 C 
ATOM     10  C3' I4B d   1      -2.920   3.618   3.460  0.00  0.00     0.013 C 
ENDBRANCH   7   8
ENDBRANCH   1   7
TORSDOF 2
ENDMDL
