MODEL 1
REMARK minimizedAffinity -3.55742335
REMARK minimizedRMSD -1
REMARK  2 active torsions:
REMARK  status: ('A' for Active; 'I' for Inactive)
REMARK    1  A    between atoms: C2'_3  and  C1'_4 
REMARK    2  A    between atoms: C1'_4  and  C1_5 
ROOT
ATOM      1  C1  I4B d   1      -0.067   0.040  -0.085  0.00  0.00    -0.075 A 
ATOM      2  C2  I4B d   1       1.036   0.503   0.587  0.00  0.00     0.003 A 
ATOM      3  C3  I4B d   1       1.098   0.417   1.999  0.00  0.00     0.002 A 
ATOM      4  C4  I4B d   1       0.021  -0.090   2.697  0.00  0.00    -0.004 A 
ATOM      5  C5  I4B d   1      -1.087  -0.581   2.012  0.00  0.00     0.002 A 
ATOM      6  C6  I4B d   1      -1.126  -0.527   0.611  0.00  0.00     0.003 A 
ENDROOT
BRANCH   1   7
ATOM      7  C1' I4B d   1      -0.113   0.177  -1.574  0.00  0.00     0.060 C 
BRANCH   7   8
ATOM      8  C2' I4B d   1       0.745  -0.921  -2.171  0.00  0.00    -0.013 C 
ATOM      9  C4' I4B d   1      -0.101  -2.057  -2.682  0.00  0.00     0.013 C 
ATOM     10  C3' I4B d   1       1.567  -0.319  -3.272  0.00  0.00     0.013 C 
ENDBRANCH   7   8
ENDBRANCH   1   7
TORSDOF 2
ENDMDL
