MODEL 1
REMARK minimizedAffinity -3.72047997
REMARK minimizedRMSD -1
REMARK  2 active torsions:
REMARK  status: ('A' for Active; 'I' for Inactive)
REMARK    1  A    between atoms: C2'_3  and  C1'_4 
REMARK    2  A    between atoms: C1'_4  and  C1_5 
ROOT
ATOM      1  C1  I4B d   1       0.707  -0.154  -0.339  0.00  0.00    -0.075 A 
ATOM      2  C2  I4B d   1      -0.601  -0.192   0.077  0.00  0.00     0.003 A 
ATOM      3  C3  I4B d   1      -0.912  -0.124   1.457  0.00  0.00     0.002 A 
ATOM      4  C4  I4B d   1       0.110  -0.070   2.382  0.00  0.00    -0.004 A 
ATOM      5  C5  I4B d   1       1.434  -0.009   1.958  0.00  0.00     0.002 A 
ATOM      6  C6  I4B d   1       1.735  -0.039   0.588  0.00  0.00     0.003 A 
ENDROOT
BRANCH   1   7
ATOM      7  C1' I4B d   1       1.001  -0.262  -1.801  0.00  0.00     0.060 C 
BRANCH   7   8
ATOM      8  C2' I4B d   1       0.413  -1.565  -2.301  0.00  0.00    -0.013 C 
ATOM      9  C4' I4B d   1      -0.172  -1.406  -3.680  0.00  0.00     0.013 C 
ATOM     10  C3' I4B d   1       1.500  -2.598  -2.290  0.00  0.00     0.013 C 
ENDBRANCH   7   8
ENDBRANCH   1   7
TORSDOF 2
ENDMDL
