MODEL 1
REMARK minimizedAffinity -2.49773431
REMARK minimizedRMSD -1
REMARK  2 active torsions:
REMARK  status: ('A' for Active; 'I' for Inactive)
REMARK    1  A    between atoms: C2'_3  and  C1'_4 
REMARK    2  A    between atoms: C1'_4  and  C1_5 
ROOT
ATOM      1  C1  I4B d   1       0.572  -0.786  -0.907  0.00  0.00    -0.075 A 
ATOM      2  C2  I4B d   1       0.763  -0.054  -2.052  0.00  0.00     0.003 A 
ATOM      3  C3  I4B d   1       0.967  -0.709  -3.291  0.00  0.00     0.002 A 
ATOM      4  C4  I4B d   1       1.024  -2.088  -3.329  0.00  0.00    -0.004 A 
ATOM      5  C5  I4B d   1       0.808  -2.828  -2.171  0.00  0.00     0.002 A 
ATOM      6  C6  I4B d   1       0.569  -2.174  -0.954  0.00  0.00     0.003 A 
ENDROOT
BRANCH   1   7
ATOM      7  C1' I4B d   1       0.392  -0.062   0.390  0.00  0.00     0.060 C 
BRANCH   7   8
ATOM      8  C2' I4B d   1      -0.845  -0.617   1.066  0.00  0.00    -0.013 C 
ATOM      9  C4' I4B d   1      -0.745  -0.502   2.564  0.00  0.00     0.013 C 
ATOM     10  C3' I4B d   1      -2.034   0.133   0.544  0.00  0.00     0.013 C 
ENDBRANCH   7   8
ENDBRANCH   1   7
TORSDOF 2
ENDMDL
