MODEL 1
REMARK minimizedAffinity 3.35653186
REMARK minimizedRMSD -1
REMARK  2 active torsions:
REMARK  status: ('A' for Active; 'I' for Inactive)
REMARK    1  A    between atoms: C1_2  and  C2_3 
REMARK    2  A    between atoms: C2_3  and  C3_4 
ROOT
ATOM      1  C3  UNL d   1       0.232  -0.089   0.137  0.00  0.00    -0.075 A 
ATOM      2  C4  UNL d   1       0.652   0.682   1.230  0.00  0.00     0.002 A 
ATOM      3  C5  UNL d   1      -0.277   1.380   2.004  0.00  0.00     0.002 A 
ATOM      4  C6  UNL d   1      -1.633   1.323   1.689  0.00  0.00    -0.004 A 
ATOM      5  C7  UNL d   1      -2.059   0.573   0.595  0.00  0.00     0.002 A 
ATOM      6  C8  UNL d   1      -1.133  -0.129  -0.178  0.00  0.00     0.002 A 
ENDROOT
BRANCH   1   7
ATOM      7  C2  UNL d   1       1.229  -0.870  -0.686  0.00  0.00     0.056 C 
BRANCH   7   8
ATOM      8  C1  UNL d   1       0.755  -1.180  -2.110  0.00  0.00     0.007 C 
ATOM      9  C   UNL d   1       1.900  -1.385  -3.092  0.00  0.00     0.009 C 
ENDBRANCH   7   8
ENDBRANCH   1   7
TORSDOF 2
ENDMDL
