MODEL 1
REMARK minimizedAffinity 7.44466305
REMARK minimizedRMSD -1
REMARK  2 active torsions:
REMARK  status: ('A' for Active; 'I' for Inactive)
REMARK    1  A    between atoms: C1_2  and  C2_3 
REMARK    2  A    between atoms: C2_3  and  C3_4 
ROOT
ATOM      1  C3  UNL d   1      -1.246  -0.370  -0.073  0.00  0.00    -0.075 A 
ATOM      2  C4  UNL d   1      -1.864  -1.181   0.890  0.00  0.00     0.002 A 
ATOM      3  C5  UNL d   1      -1.427  -1.164   2.215  0.00  0.00     0.002 A 
ATOM      4  C6  UNL d   1      -0.363  -0.347   2.591  0.00  0.00    -0.004 A 
ATOM      5  C7  UNL d   1       0.268   0.450   1.639  0.00  0.00     0.002 A 
ATOM      6  C8  UNL d   1      -0.169   0.439   0.313  0.00  0.00     0.002 A 
ENDROOT
BRANCH   1   7
ATOM      7  C2  UNL d   1      -1.733  -0.361  -1.503  0.00  0.00     0.056 C 
BRANCH   7   8
ATOM      8  C1  UNL d   1      -3.006  -1.182  -1.733  0.00  0.00     0.007 C 
ATOM      9  C   UNL d   1      -2.899  -2.137  -2.915  0.00  0.00     0.009 C 
ENDBRANCH   7   8
ENDBRANCH   1   7
TORSDOF 2
ENDMDL
