MODEL 1
REMARK minimizedAffinity 4.34525585
REMARK minimizedRMSD -1
REMARK  2 active torsions:
REMARK  status: ('A' for Active; 'I' for Inactive)
REMARK    1  A    between atoms: C1_2  and  C2_3 
REMARK    2  A    between atoms: C2_3  and  C3_4 
ROOT
ATOM      1  C3  UNL d   1      -0.518  -2.297  -3.524  0.00  0.00    -0.075 A 
ATOM      2  C4  UNL d   1      -1.116  -3.542  -3.765  0.00  0.00     0.002 A 
ATOM      3  C5  UNL d   1      -2.411  -3.804  -3.317  0.00  0.00     0.002 A 
ATOM      4  C6  UNL d   1      -3.119  -2.832  -2.614  0.00  0.00    -0.004 A 
ATOM      5  C7  UNL d   1      -2.528  -1.597  -2.354  0.00  0.00     0.002 A 
ATOM      6  C8  UNL d   1      -1.234  -1.330  -2.806  0.00  0.00     0.002 A 
ENDROOT
BRANCH   1   7
ATOM      7  C2  UNL d   1       0.872  -1.996  -4.032  0.00  0.00     0.056 C 
BRANCH   7   8
ATOM      8  C1  UNL d   1       1.821  -1.444  -2.963  0.00  0.00     0.007 C 
ATOM      9  C   UNL d   1       3.049  -0.759  -3.547  0.00  0.00     0.009 C 
ENDBRANCH   7   8
ENDBRANCH   1   7
TORSDOF 2
ENDMDL
