MODEL 1
REMARK minimizedAffinity 7.55330658
REMARK minimizedRMSD -1
REMARK  2 active torsions:
REMARK  status: ('A' for Active; 'I' for Inactive)
REMARK    1  A    between atoms: C1_2  and  C2_3 
REMARK    2  A    between atoms: C2_3  and  C3_4 
ROOT
ATOM      1  C3  UNL d   1      -0.280   0.616   1.777  0.00  0.00    -0.075 A 
ATOM      2  C4  UNL d   1      -0.309   0.374   0.396  0.00  0.00     0.002 A 
ATOM      3  C5  UNL d   1       0.855   0.481  -0.366  0.00  0.00     0.002 A 
ATOM      4  C6  UNL d   1       2.057   0.840   0.240  0.00  0.00    -0.004 A 
ATOM      5  C7  UNL d   1       2.094   1.098   1.608  0.00  0.00     0.002 A 
ATOM      6  C8  UNL d   1       0.932   0.988   2.374  0.00  0.00     0.002 A 
ENDROOT
BRANCH   1   7
ATOM      7  C2  UNL d   1      -1.530   0.473   2.612  0.00  0.00     0.056 C 
BRANCH   7   8
ATOM      8  C1  UNL d   1      -1.743  -0.934   3.181  0.00  0.00     0.007 C 
ATOM      9  C   UNL d   1      -1.925  -1.995   2.104  0.00  0.00     0.009 C 
ENDBRANCH   7   8
ENDBRANCH   1   7
TORSDOF 2
ENDMDL
