MODEL 1
REMARK minimizedAffinity 9.5174675
REMARK minimizedRMSD -1
REMARK  2 active torsions:
REMARK  status: ('A' for Active; 'I' for Inactive)
REMARK    1  A    between atoms: C1_2  and  C2_3 
REMARK    2  A    between atoms: C2_3  and  C3_4 
ROOT
ATOM      1  C3  UNL d   1      -2.319  -3.073  -3.305  0.00  0.00    -0.075 A 
ATOM      2  C4  UNL d   1      -1.102  -2.569  -3.786  0.00  0.00     0.002 A 
ATOM      3  C5  UNL d   1      -0.747  -2.733  -5.125  0.00  0.00     0.002 A 
ATOM      4  C6  UNL d   1      -1.597  -3.411  -5.996  0.00  0.00    -0.004 A 
ATOM      5  C7  UNL d   1      -2.800  -3.931  -5.525  0.00  0.00     0.002 A 
ATOM      6  C8  UNL d   1      -3.160  -3.764  -4.187  0.00  0.00     0.002 A 
ENDROOT
BRANCH   1   7
ATOM      7  C2  UNL d   1      -2.723  -2.873  -1.863  0.00  0.00     0.056 C 
BRANCH   7   8
ATOM      8  C1  UNL d   1      -2.719  -1.409  -1.412  0.00  0.00     0.007 C 
ATOM      9  C   UNL d   1      -1.577  -1.077  -0.461  0.00  0.00     0.009 C 
ENDBRANCH   7   8
ENDBRANCH   1   7
TORSDOF 2
ENDMDL
