MODEL 1
REMARK minimizedAffinity 7.47708654
REMARK minimizedRMSD -1
REMARK  2 active torsions:
REMARK  status: ('A' for Active; 'I' for Inactive)
REMARK    1  A    between atoms: C1_2  and  C2_3 
REMARK    2  A    between atoms: C2_3  and  C3_4 
ROOT
ATOM      1  C3  UNL d   1      -2.363  -1.603  -0.762  0.00  0.00    -0.075 A 
ATOM      2  C4  UNL d   1      -1.138  -1.351  -0.126  0.00  0.00     0.002 A 
ATOM      3  C5  UNL d   1      -0.905  -1.813   1.170  0.00  0.00     0.002 A 
ATOM      4  C6  UNL d   1      -1.894  -2.521   1.849  0.00  0.00    -0.004 A 
ATOM      5  C7  UNL d   1      -3.120  -2.762   1.233  0.00  0.00     0.002 A 
ATOM      6  C8  UNL d   1      -3.355  -2.305  -0.065  0.00  0.00     0.002 A 
ENDROOT
BRANCH   1   7
ATOM      7  C2  UNL d   1      -2.611  -1.131  -2.175  0.00  0.00     0.056 C 
BRANCH   7   8
ATOM      8  C1  UNL d   1      -3.061  -2.239  -3.132  0.00  0.00     0.007 C 
ATOM      9  C   UNL d   1      -2.267  -2.269  -4.431  0.00  0.00     0.009 C 
ENDBRANCH   7   8
ENDBRANCH   1   7
TORSDOF 2
ENDMDL
