MODEL 1
REMARK minimizedAffinity 12.4465237
REMARK minimizedRMSD -1
REMARK  2 active torsions:
REMARK  status: ('A' for Active; 'I' for Inactive)
REMARK    1  A    between atoms: C1_2  and  C2_3 
REMARK    2  A    between atoms: C2_3  and  C3_4 
ROOT
ATOM      1  C3  UNL d   1      -0.733   0.076   0.290  0.00  0.00    -0.075 A 
ATOM      2  C4  UNL d   1      -1.365  -0.808   1.177  0.00  0.00     0.002 A 
ATOM      3  C5  UNL d   1      -1.238  -0.639   2.556  0.00  0.00     0.002 A 
ATOM      4  C6  UNL d   1      -0.471   0.407   3.065  0.00  0.00    -0.004 A 
ATOM      5  C7  UNL d   1       0.174   1.281   2.193  0.00  0.00     0.002 A 
ATOM      6  C8  UNL d   1       0.045   1.117   0.813  0.00  0.00     0.002 A 
ENDROOT
BRANCH   1   7
ATOM      7  C2  UNL d   1      -0.891  -0.084  -1.204  0.00  0.00     0.056 C 
BRANCH   7   8
ATOM      8  C1  UNL d   1      -2.185  -0.789  -1.622  0.00  0.00     0.007 C 
ATOM      9  C   UNL d   1      -2.375  -0.849  -3.132  0.00  0.00     0.009 C 
ENDBRANCH   7   8
ENDBRANCH   1   7
TORSDOF 2
ENDMDL
