MODEL 1
REMARK minimizedAffinity -3.17463756
REMARK minimizedRMSD -1
REMARK  1 active torsions:
REMARK  status: ('A' for Active; 'I' for Inactive)
REMARK    1  A    between atoms: C3_4  and  O_7 
ROOT
ATOM      1  C   UNL d   1      -1.302   2.568  -6.000  0.00  0.00    -0.033 A 
ATOM      2  C1  UNL d   1      -2.636   2.979  -5.999  0.00  0.00     0.039 A 
ATOM      3  C2  UNL d   1      -3.018   4.115  -5.283  0.00  0.00    -0.080 A 
ATOM      4  C3  UNL d   1      -2.058   4.830  -4.574  0.00  0.00     0.150 A 
ATOM      5  C4  UNL d   1      -0.726   4.429  -4.573  0.00  0.00    -0.007 A 
ATOM      6  C5  UNL d   1      -0.346   3.294  -5.288  0.00  0.00     0.039 A 
ENDROOT
BRANCH   4   7
ATOM      7  O   UNL d   1      -2.384   5.943  -3.856  0.00  0.00    -0.526 OA
ATOM      8  H5  UNL d   1      -3.343   6.083  -3.925  0.00  0.00     0.418 HD
ENDBRANCH   4   7
TORSDOF 1
ENDMDL
