MODEL 1
REMARK minimizedAffinity -1.39135695
REMARK minimizedRMSD -1
REMARK  1 active torsions:
REMARK  status: ('A' for Active; 'I' for Inactive)
REMARK    1  A    between atoms: C3_4  and  O_7 
ROOT
ATOM      1  C   UNL d   1       5.584   4.418  -5.994  0.00  0.00    -0.033 A 
ATOM      2  C1  UNL d   1       4.846   5.603  -5.998  0.00  0.00     0.039 A 
ATOM      3  C2  UNL d   1       3.450   5.559  -5.999  0.00  0.00    -0.080 A 
ATOM      4  C3  UNL d   1       2.806   4.325  -5.994  0.00  0.00     0.150 A 
ATOM      5  C4  UNL d   1       3.534   3.140  -5.985  0.00  0.00    -0.007 A 
ATOM      6  C5  UNL d   1       4.928   3.186  -5.986  0.00  0.00     0.039 A 
ENDROOT
BRANCH   4   7
ATOM      7  O   UNL d   1       1.446   4.232  -6.000  0.00  0.00    -0.526 OA
ATOM      8  H5  UNL d   1       1.076   5.130  -6.035  0.00  0.00     0.418 HD
ENDBRANCH   4   7
TORSDOF 1
ENDMDL
