MODEL 1
REMARK minimizedAffinity -0.955366135
REMARK minimizedRMSD -1
REMARK  1 active torsions:
REMARK  status: ('A' for Active; 'I' for Inactive)
REMARK    1  A    between atoms: C3_4  and  O_7 
ROOT
ATOM      1  C   UNL d   1      -0.897   3.060  -5.972  0.00  0.00    -0.033 A 
ATOM      2  C1  UNL d   1      -2.240   2.682  -5.952  0.00  0.00     0.039 A 
ATOM      3  C2  UNL d   1      -3.242   3.655  -5.954  0.00  0.00    -0.080 A 
ATOM      4  C3  UNL d   1      -2.886   5.001  -5.976  0.00  0.00     0.150 A 
ATOM      5  C4  UNL d   1      -1.550   5.385  -6.000  0.00  0.00    -0.007 A 
ATOM      6  C5  UNL d   1      -0.551   4.412  -5.997  0.00  0.00     0.039 A 
ENDROOT
BRANCH   4   7
ATOM      7  O   UNL d   1      -3.828   5.987  -5.974  0.00  0.00    -0.526 OA
ATOM      8  H5  UNL d   1      -4.706   5.573  -5.927  0.00  0.00     0.418 HD
ENDBRANCH   4   7
TORSDOF 1
ENDMDL
