MODEL 1
REMARK minimizedAffinity -2.69004536
REMARK minimizedRMSD -1
REMARK  1 active torsions:
REMARK  status: ('A' for Active; 'I' for Inactive)
REMARK    1  A    between atoms: C3_4  and  O_7 
ROOT
ATOM      1  C   UNL d   1      -0.018   4.763  -5.996  0.00  0.00    -0.033 A 
ATOM      2  C1  UNL d   1      -0.121   3.370  -5.999  0.00  0.00     0.039 A 
ATOM      3  C2  UNL d   1      -1.377   2.761  -6.000  0.00  0.00    -0.080 A 
ATOM      4  C3  UNL d   1      -2.521   3.554  -5.998  0.00  0.00     0.150 A 
ATOM      5  C4  UNL d   1      -2.426   4.942  -5.999  0.00  0.00    -0.007 A 
ATOM      6  C5  UNL d   1      -1.171   5.548  -5.997  0.00  0.00     0.039 A 
ENDROOT
BRANCH   4   7
ATOM      7  O   UNL d   1      -3.769   3.005  -5.994  0.00  0.00    -0.526 OA
ATOM      8  H5  UNL d   1      -3.679   2.037  -5.965  0.00  0.00     0.418 HD
ENDBRANCH   4   7
TORSDOF 1
ENDMDL
