MODEL 1
REMARK minimizedAffinity 1.08106768
REMARK minimizedRMSD -1
REMARK  1 active torsions:
REMARK  status: ('A' for Active; 'I' for Inactive)
REMARK    1  A    between atoms: C3_4  and  O_7 
ROOT
ATOM      1  C   UNL d   1       0.876   4.724  -5.997  0.00  0.00    -0.033 A 
ATOM      2  C1  UNL d   1      -0.278   5.510  -5.990  0.00  0.00     0.039 A 
ATOM      3  C2  UNL d   1      -1.537   4.905  -5.990  0.00  0.00    -0.080 A 
ATOM      4  C3  UNL d   1      -1.628   3.516  -5.995  0.00  0.00     0.150 A 
ATOM      5  C4  UNL d   1      -0.482   2.727  -5.998  0.00  0.00    -0.007 A 
ATOM      6  C5  UNL d   1       0.774   3.333  -6.000  0.00  0.00     0.039 A 
ENDROOT
BRANCH   4   7
ATOM      7  O   UNL d   1      -2.834   2.881  -6.000  0.00  0.00    -0.526 OA
ATOM      8  H5  UNL d   1      -3.535   3.553  -6.026  0.00  0.00     0.418 HD
ENDBRANCH   4   7
TORSDOF 1
ENDMDL
