MODEL 1
REMARK minimizedAffinity -3.01351595
REMARK minimizedRMSD -1
REMARK  1 active torsions:
REMARK  status: ('A' for Active; 'I' for Inactive)
REMARK    1  A    between atoms: C3_4  and  O_7 
ROOT
ATOM      1  C   UNL d   1       0.251   5.211  -5.993  0.00  0.00    -0.033 A 
ATOM      2  C1  UNL d   1       0.370   3.819  -5.997  0.00  0.00     0.039 A 
ATOM      3  C2  UNL d   1      -0.775   3.019  -6.000  0.00  0.00    -0.080 A 
ATOM      4  C3  UNL d   1      -2.030   3.622  -5.999  0.00  0.00     0.150 A 
ATOM      5  C4  UNL d   1      -2.155   5.007  -5.998  0.00  0.00    -0.007 A 
ATOM      6  C5  UNL d   1      -1.011   5.805  -5.995  0.00  0.00     0.039 A 
ENDROOT
BRANCH   4   7
ATOM      7  O   UNL d   1      -3.175   2.883  -5.996  0.00  0.00    -0.526 OA
ATOM      8  H5  UNL d   1      -2.934   1.942  -5.968  0.00  0.00     0.418 HD
ENDBRANCH   4   7
TORSDOF 1
ENDMDL
