MODEL 1
REMARK minimizedAffinity -3.20986962
REMARK minimizedRMSD -1
REMARK  1 active torsions:
REMARK  status: ('A' for Active; 'I' for Inactive)
REMARK    1  A    between atoms: C3_4  and  O_7 
ROOT
ATOM      1  C   UNL d   1      -3.285   3.632  -5.993  0.00  0.00    -0.033 A 
ATOM      2  C1  UNL d   1      -3.002   4.999  -5.993  0.00  0.00     0.039 A 
ATOM      3  C2  UNL d   1      -1.677   5.440  -5.994  0.00  0.00    -0.080 A 
ATOM      4  C3  UNL d   1      -0.646   4.504  -5.996  0.00  0.00     0.150 A 
ATOM      5  C4  UNL d   1      -0.921   3.141  -6.000  0.00  0.00    -0.007 A 
ATOM      6  C5  UNL d   1      -2.244   2.703  -5.998  0.00  0.00     0.039 A 
ENDROOT
BRANCH   4   7
ATOM      7  O   UNL d   1       0.663   4.886  -5.992  0.00  0.00    -0.526 OA
ATOM      8  H5  UNL d   1       0.700   5.857  -5.960  0.00  0.00     0.418 HD
ENDBRANCH   4   7
TORSDOF 1
ENDMDL
