MODEL 1
REMARK minimizedAffinity -2.71684289
REMARK minimizedRMSD -1
REMARK  1 active torsions:
REMARK  status: ('A' for Active; 'I' for Inactive)
REMARK    1  A    between atoms: C3_4  and  O_7 
ROOT
ATOM      1  C   UNL d   1      -0.050   4.542  -5.998  0.00  0.00    -0.033 A 
ATOM      2  C1  UNL d   1      -0.617   5.818  -5.997  0.00  0.00     0.039 A 
ATOM      3  C2  UNL d   1      -2.005   5.968  -5.996  0.00  0.00    -0.080 A 
ATOM      4  C3  UNL d   1      -2.814   4.835  -5.996  0.00  0.00     0.150 A 
ATOM      5  C4  UNL d   1      -2.257   3.560  -5.993  0.00  0.00    -0.007 A 
ATOM      6  C5  UNL d   1      -0.870   3.413  -5.994  0.00  0.00     0.039 A 
ENDROOT
BRANCH   4   7
ATOM      7  O   UNL d   1      -4.174   4.930  -6.000  0.00  0.00    -0.526 OA
ATOM      8  H5  UNL d   1      -4.417   5.871  -6.030  0.00  0.00     0.418 HD
ENDBRANCH   4   7
TORSDOF 1
ENDMDL
