MODEL 1
REMARK minimizedAffinity -2.31618166
REMARK minimizedRMSD -1
REMARK  1 active torsions:
REMARK  status: ('A' for Active; 'I' for Inactive)
REMARK    1  A    between atoms: C3_4  and  O_7 
ROOT
ATOM      1  C   UNL d   1      -3.016   3.062  -5.993  0.00  0.00    -0.033 A 
ATOM      2  C1  UNL d   1      -1.833   2.320  -5.982  0.00  0.00     0.039 A 
ATOM      3  C2  UNL d   1      -0.598   2.971  -5.983  0.00  0.00    -0.080 A 
ATOM      4  C3  UNL d   1      -0.560   4.363  -5.993  0.00  0.00     0.150 A 
ATOM      5  C4  UNL d   1      -1.734   5.108  -6.000  0.00  0.00    -0.007 A 
ATOM      6  C5  UNL d   1      -2.966   4.456  -6.000  0.00  0.00     0.039 A 
ENDROOT
BRANCH   4   7
ATOM      7  O   UNL d   1       0.622   5.043  -5.999  0.00  0.00    -0.526 OA
ATOM      8  H5  UNL d   1       1.348   4.398  -6.023  0.00  0.00     0.418 HD
ENDBRANCH   4   7
TORSDOF 1
ENDMDL
