MODEL 1
REMARK minimizedAffinity -3.95055628
REMARK minimizedRMSD -1
REMARK  1 active torsions:
REMARK  status: ('A' for Active; 'I' for Inactive)
REMARK    1  A    between atoms: C3_4  and  O_7 
ROOT
ATOM      1  C   UNL d   1      -1.641   3.234  -5.862  0.00  0.00    -0.033 A 
ATOM      2  C1  UNL d   1      -3.022   3.388  -5.997  0.00  0.00     0.039 A 
ATOM      3  C2  UNL d   1      -3.740   4.121  -5.051  0.00  0.00    -0.080 A 
ATOM      4  C3  UNL d   1      -3.067   4.696  -3.977  0.00  0.00     0.150 A 
ATOM      5  C4  UNL d   1      -1.691   4.551  -3.838  0.00  0.00    -0.007 A 
ATOM      6  C5  UNL d   1      -0.975   3.817  -4.783  0.00  0.00     0.039 A 
ENDROOT
BRANCH   4   7
ATOM      7  O   UNL d   1      -3.727   5.417  -3.026  0.00  0.00    -0.526 OA
ATOM      8  H5  UNL d   1      -4.675   5.409  -3.236  0.00  0.00     0.418 HD
ENDBRANCH   4   7
TORSDOF 1
ENDMDL
