MODEL 1
REMARK minimizedAffinity -3.27170396
REMARK minimizedRMSD -1
REMARK  1 active torsions:
REMARK  status: ('A' for Active; 'I' for Inactive)
REMARK    1  A    between atoms: C3_4  and  O_7 
ROOT
ATOM      1  C   UNL d   1      -0.658   3.271  -5.956  0.00  0.00    -0.033 A 
ATOM      2  C1  UNL d   1      -0.483   4.655  -5.987  0.00  0.00     0.039 A 
ATOM      3  C2  UNL d   1      -1.594   5.501  -5.999  0.00  0.00    -0.080 A 
ATOM      4  C3  UNL d   1      -2.872   4.951  -5.978  0.00  0.00     0.150 A 
ATOM      5  C4  UNL d   1      -3.054   3.572  -5.943  0.00  0.00    -0.007 A 
ATOM      6  C5  UNL d   1      -1.944   2.729  -5.932  0.00  0.00     0.039 A 
ENDROOT
BRANCH   4   7
ATOM      7  O   UNL d   1      -3.986   5.736  -5.993  0.00  0.00    -0.526 OA
ATOM      8  H5  UNL d   1      -3.707   6.665  -6.047  0.00  0.00     0.418 HD
ENDBRANCH   4   7
TORSDOF 1
ENDMDL
