MODEL 1
REMARK minimizedAffinity -2.50264382
REMARK minimizedRMSD -1
REMARK  1 active torsions:
REMARK  status: ('A' for Active; 'I' for Inactive)
REMARK    1  A    between atoms: C3_4  and  O_7 
ROOT
ATOM      1  C   UNL d   1      -2.616   3.864  -6.000  0.00  0.00    -0.033 A 
ATOM      2  C1  UNL d   1      -1.403   3.174  -5.996  0.00  0.00     0.039 A 
ATOM      3  C2  UNL d   1      -0.197   3.878  -5.993  0.00  0.00    -0.080 A 
ATOM      4  C3  UNL d   1      -0.218   5.270  -5.992  0.00  0.00     0.150 A 
ATOM      5  C4  UNL d   1      -1.423   5.964  -5.992  0.00  0.00    -0.007 A 
ATOM      6  C5  UNL d   1      -2.626   5.259  -5.996  0.00  0.00     0.039 A 
ENDROOT
BRANCH   4   7
ATOM      7  O   UNL d   1       0.933   6.000  -5.994  0.00  0.00    -0.526 OA
ATOM      8  H5  UNL d   1       1.686   5.387  -6.023  0.00  0.00     0.418 HD
ENDBRANCH   4   7
TORSDOF 1
ENDMDL
