MODEL 1
REMARK minimizedAffinity 4.09239101
REMARK minimizedRMSD -1
REMARK  1 active torsions:
REMARK  status: ('A' for Active; 'I' for Inactive)
REMARK    1  A    between atoms: C3_4  and  O_7 
ROOT
ATOM      1  C   UNL d   1       2.230  -0.542  -3.909  0.00  0.00    -0.033 A 
ATOM      2  C1  UNL d   1       2.062  -0.657  -2.528  0.00  0.00     0.039 A 
ATOM      3  C2  UNL d   1       2.043   0.487  -1.727  0.00  0.00    -0.080 A 
ATOM      4  C3  UNL d   1       2.192   1.738  -2.320  0.00  0.00     0.150 A 
ATOM      5  C4  UNL d   1       2.356   1.860  -3.696  0.00  0.00    -0.007 A 
ATOM      6  C5  UNL d   1       2.376   0.716  -4.493  0.00  0.00     0.039 A 
ENDROOT
BRANCH   4   7
ATOM      7  O   UNL d   1       2.185   2.883  -1.580  0.00  0.00    -0.526 OA
ATOM      8  H5  UNL d   1       2.092   2.643  -0.643  0.00  0.00     0.418 HD
ENDBRANCH   4   7
TORSDOF 1
ENDMDL
