MODEL 1
REMARK minimizedAffinity 4.00399303
REMARK minimizedRMSD -1
REMARK  1 active torsions:
REMARK  status: ('A' for Active; 'I' for Inactive)
REMARK    1  A    between atoms: C3_4  and  O_7 
ROOT
ATOM      1  C   UNL d   1      -1.359   1.854   1.488  0.00  0.00    -0.033 A 
ATOM      2  C1  UNL d   1      -1.041   2.345   2.756  0.00  0.00     0.039 A 
ATOM      3  C2  UNL d   1       0.278   2.681   3.066  0.00  0.00    -0.080 A 
ATOM      4  C3  UNL d   1       1.269   2.524   2.100  0.00  0.00     0.150 A 
ATOM      5  C4  UNL d   1       0.958   2.040   0.833  0.00  0.00    -0.007 A 
ATOM      6  C5  UNL d   1      -0.359   1.703   0.526  0.00  0.00     0.039 A 
ENDROOT
BRANCH   4   7
ATOM      7  O   UNL d   1       2.571   2.835   2.357  0.00  0.00    -0.526 OA
ATOM      8  H5  UNL d   1       2.640   3.130   3.280  0.00  0.00     0.418 HD
ENDBRANCH   4   7
TORSDOF 1
ENDMDL
