MODEL 1
REMARK minimizedAffinity 13.441514
REMARK minimizedRMSD -1
REMARK  1 active torsions:
REMARK  status: ('A' for Active; 'I' for Inactive)
REMARK    1  A    between atoms: C3_4  and  O_7 
ROOT
ATOM      1  C   UNL d   1      -1.874   6.000  -4.361  0.00  0.00    -0.033 A 
ATOM      2  C1  UNL d   1      -1.927   5.730  -2.992  0.00  0.00     0.039 A 
ATOM      3  C2  UNL d   1      -2.042   4.413  -2.542  0.00  0.00    -0.080 A 
ATOM      4  C3  UNL d   1      -2.100   3.377  -3.470  0.00  0.00     0.150 A 
ATOM      5  C4  UNL d   1      -2.043   3.638  -4.835  0.00  0.00    -0.007 A 
ATOM      6  C5  UNL d   1      -1.930   4.954  -5.282  0.00  0.00     0.039 A 
ENDROOT
BRANCH   4   7
ATOM      7  O   UNL d   1      -2.217   2.076  -3.079  0.00  0.00    -0.526 OA
ATOM      8  H5  UNL d   1      -2.273   2.050  -2.109  0.00  0.00     0.418 HD
ENDBRANCH   4   7
TORSDOF 1
ENDMDL
