MODEL 1
REMARK minimizedAffinity 10.0383816
REMARK minimizedRMSD -1
REMARK  1 active torsions:
REMARK  status: ('A' for Active; 'I' for Inactive)
REMARK    1  A    between atoms: C3_4  and  O_7 
ROOT
ATOM      1  C   UNL d   1      -5.921  -5.442  -1.148  0.00  0.00    -0.033 A 
ATOM      2  C1  UNL d   1      -4.722  -5.999  -1.597  0.00  0.00     0.039 A 
ATOM      3  C2  UNL d   1      -3.597  -5.999  -0.770  0.00  0.00    -0.080 A 
ATOM      4  C3  UNL d   1      -3.684  -5.441   0.503  0.00  0.00     0.150 A 
ATOM      5  C4  UNL d   1      -4.877  -4.888   0.958  0.00  0.00    -0.007 A 
ATOM      6  C5  UNL d   1      -5.999  -4.888   0.130  0.00  0.00     0.039 A 
ENDROOT
BRANCH   4   7
ATOM      7  O   UNL d   1      -2.612  -5.414   1.344  0.00  0.00    -0.526 OA
ATOM      8  H5  UNL d   1      -1.851  -5.806   0.885  0.00  0.00     0.418 HD
ENDBRANCH   4   7
TORSDOF 1
ENDMDL
