MODEL 1
REMARK minimizedAffinity 5.53244352
REMARK minimizedRMSD -1
REMARK  1 active torsions:
REMARK  status: ('A' for Active; 'I' for Inactive)
REMARK    1  A    between atoms: C3_4  and  O_7 
ROOT
ATOM      1  C   UNL d   1      -2.120   4.066  -3.531  0.00  0.00    -0.033 A 
ATOM      2  C1  UNL d   1      -2.442   5.339  -3.058  0.00  0.00     0.039 A 
ATOM      3  C2  UNL d   1      -3.407   5.493  -2.061  0.00  0.00    -0.080 A 
ATOM      4  C3  UNL d   1      -4.042   4.366  -1.546  0.00  0.00     0.150 A 
ATOM      5  C4  UNL d   1      -3.724   3.094  -2.010  0.00  0.00    -0.007 A 
ATOM      6  C5  UNL d   1      -2.761   2.943  -3.006  0.00  0.00     0.039 A 
ENDROOT
BRANCH   4   7
ATOM      7  O   UNL d   1      -4.994   4.466  -0.576  0.00  0.00    -0.526 OA
ATOM      8  H5  UNL d   1      -5.131   5.407  -0.374  0.00  0.00     0.418 HD
ENDBRANCH   4   7
TORSDOF 1
ENDMDL
