MODEL 1
REMARK minimizedAffinity 8.11725712
REMARK minimizedRMSD -1
REMARK  1 active torsions:
REMARK  status: ('A' for Active; 'I' for Inactive)
REMARK    1  A    between atoms: C3_4  and  O_7 
ROOT
ATOM      1  C   UNL d   1      -2.179   3.155  -1.159  0.00  0.00    -0.033 A 
ATOM      2  C1  UNL d   1      -3.312   3.741  -1.727  0.00  0.00     0.039 A 
ATOM      3  C2  UNL d   1      -3.349   4.009  -3.097  0.00  0.00    -0.080 A 
ATOM      4  C3  UNL d   1      -2.249   3.684  -3.887  0.00  0.00     0.150 A 
ATOM      5  C4  UNL d   1      -1.119   3.097  -3.328  0.00  0.00    -0.007 A 
ATOM      6  C5  UNL d   1      -1.083   2.831  -1.959  0.00  0.00     0.039 A 
ENDROOT
BRANCH   4   7
ATOM      7  O   UNL d   1      -2.237   3.930  -5.227  0.00  0.00    -0.526 OA
ATOM      8  H5  UNL d   1      -3.072   4.365  -5.468  0.00  0.00     0.418 HD
ENDBRANCH   4   7
TORSDOF 1
ENDMDL
