MODEL 1
REMARK minimizedAffinity 10.7778254
REMARK minimizedRMSD -1
REMARK  1 active torsions:
REMARK  status: ('A' for Active; 'I' for Inactive)
REMARK    1  A    between atoms: C3_4  and  O_7 
ROOT
ATOM      1  C   UNL d   1      -1.942   3.193  -3.088  0.00  0.00    -0.033 A 
ATOM      2  C1  UNL d   1      -2.048   4.576  -2.922  0.00  0.00     0.039 A 
ATOM      3  C2  UNL d   1      -3.095   5.112  -2.169  0.00  0.00    -0.080 A 
ATOM      4  C3  UNL d   1      -4.027   4.257  -1.588  0.00  0.00     0.150 A 
ATOM      5  C4  UNL d   1      -3.925   2.878  -1.746  0.00  0.00    -0.007 A 
ATOM      6  C5  UNL d   1      -2.880   2.345  -2.499  0.00  0.00     0.039 A 
ENDROOT
BRANCH   4   7
ATOM      7  O   UNL d   1      -5.068   4.734  -0.849  0.00  0.00    -0.526 OA
ATOM      8  H5  UNL d   1      -5.027   5.705  -0.850  0.00  0.00     0.418 HD
ENDBRANCH   4   7
TORSDOF 1
ENDMDL
