MODEL 1
REMARK minimizedAffinity 10.3862362
REMARK minimizedRMSD -1
REMARK  1 active torsions:
REMARK  status: ('A' for Active; 'I' for Inactive)
REMARK    1  A    between atoms: C3_4  and  O_7 
ROOT
ATOM      1  C   UNL d   1       0.487   1.510  -1.615  0.00  0.00    -0.033 A 
ATOM      2  C1  UNL d   1       1.535   1.709  -0.713  0.00  0.00     0.039 A 
ATOM      3  C2  UNL d   1       1.678   2.938  -0.067  0.00  0.00    -0.080 A 
ATOM      4  C3  UNL d   1       0.768   3.958  -0.329  0.00  0.00     0.150 A 
ATOM      5  C4  UNL d   1      -0.280   3.766  -1.223  0.00  0.00    -0.007 A 
ATOM      6  C5  UNL d   1      -0.421   2.539  -1.869  0.00  0.00     0.039 A 
ENDROOT
BRANCH   4   7
ATOM      7  O   UNL d   1       0.870   5.176   0.274  0.00  0.00    -0.526 OA
ATOM      8  H5  UNL d   1       1.658   5.173   0.844  0.00  0.00     0.418 HD
ENDBRANCH   4   7
TORSDOF 1
ENDMDL
