MODEL 1
REMARK minimizedAffinity 10.2415457
REMARK minimizedRMSD -1
REMARK  1 active torsions:
REMARK  status: ('A' for Active; 'I' for Inactive)
REMARK    1  A    between atoms: C3_4  and  O_7 
ROOT
ATOM      1  C   UNL d   1      -4.382   4.840  -1.073  0.00  0.00    -0.033 A 
ATOM      2  C1  UNL d   1      -3.432   5.529  -1.831  0.00  0.00     0.039 A 
ATOM      3  C2  UNL d   1      -2.607   4.834  -2.717  0.00  0.00    -0.080 A 
ATOM      4  C3  UNL d   1      -2.741   3.454  -2.838  0.00  0.00     0.150 A 
ATOM      5  C4  UNL d   1      -3.688   2.762  -2.089  0.00  0.00    -0.007 A 
ATOM      6  C5  UNL d   1      -4.510   3.457  -1.203  0.00  0.00     0.039 A 
ENDROOT
BRANCH   4   7
ATOM      7  O   UNL d   1      -1.955   2.733  -3.686  0.00  0.00    -0.526 OA
ATOM      8  H5  UNL d   1      -1.329   3.339  -4.116  0.00  0.00     0.418 HD
ENDBRANCH   4   7
TORSDOF 1
ENDMDL
