MODEL 1
REMARK minimizedAffinity 5.92016983
REMARK minimizedRMSD -1
REMARK  1 active torsions:
REMARK  status: ('A' for Active; 'I' for Inactive)
REMARK    1  A    between atoms: C3_4  and  O_7 
ROOT
ATOM      1  C   UNL d   1      -1.507  -1.921   3.725  0.00  0.00    -0.033 A 
ATOM      2  C1  UNL d   1      -0.647  -0.869   4.046  0.00  0.00     0.039 A 
ATOM      3  C2  UNL d   1       0.545  -0.699   3.339  0.00  0.00    -0.080 A 
ATOM      4  C3  UNL d   1       0.865  -1.585   2.314  0.00  0.00     0.150 A 
ATOM      5  C4  UNL d   1       0.011  -2.633   1.987  0.00  0.00    -0.007 A 
ATOM      6  C5  UNL d   1      -1.178  -2.803   2.694  0.00  0.00     0.039 A 
ENDROOT
BRANCH   4   7
ATOM      7  O   UNL d   1       2.019  -1.462   1.600  0.00  0.00    -0.526 OA
ATOM      8  H5  UNL d   1       2.523  -0.711   1.956  0.00  0.00     0.418 HD
ENDBRANCH   4   7
TORSDOF 1
ENDMDL
