MODEL 1
REMARK minimizedAffinity 8.6871891
REMARK minimizedRMSD -1
REMARK  1 active torsions:
REMARK  status: ('A' for Active; 'I' for Inactive)
REMARK    1  A    between atoms: C3_4  and  O_7 
ROOT
ATOM      1  C   UNL d   1      -1.714  -1.860   4.016  0.00  0.00    -0.033 A 
ATOM      2  C1  UNL d   1      -0.865  -0.752   3.983  0.00  0.00     0.039 A 
ATOM      3  C2  UNL d   1       0.251  -0.750   3.144  0.00  0.00    -0.080 A 
ATOM      4  C3  UNL d   1       0.506  -1.860   2.344  0.00  0.00     0.150 A 
ATOM      5  C4  UNL d   1      -0.337  -2.965   2.369  0.00  0.00    -0.007 A 
ATOM      6  C5  UNL d   1      -1.451  -2.966   3.208  0.00  0.00     0.039 A 
ENDROOT
BRANCH   4   7
ATOM      7  O   UNL d   1       1.586  -1.906   1.513  0.00  0.00    -0.526 OA
ATOM      8  H5  UNL d   1       2.094  -1.085   1.623  0.00  0.00     0.418 HD
ENDBRANCH   4   7
TORSDOF 1
ENDMDL
