MODEL 1
REMARK minimizedAffinity 12.9982567
REMARK minimizedRMSD -1
REMARK  1 active torsions:
REMARK  status: ('A' for Active; 'I' for Inactive)
REMARK    1  A    between atoms: C3_4  and  O_7 
ROOT
ATOM      1  C   UNL d   1       2.710  -0.488   1.342  0.00  0.00    -0.033 A 
ATOM      2  C1  UNL d   1       3.589   0.230   2.155  0.00  0.00     0.039 A 
ATOM      3  C2  UNL d   1       3.251   0.500   3.483  0.00  0.00    -0.080 A 
ATOM      4  C3  UNL d   1       2.034   0.048   3.984  0.00  0.00     0.150 A 
ATOM      5  C4  UNL d   1       1.155  -0.672   3.180  0.00  0.00    -0.007 A 
ATOM      6  C5  UNL d   1       1.494  -0.940   1.855  0.00  0.00     0.039 A 
ENDROOT
BRANCH   4   7
ATOM      7  O   UNL d   1       1.659   0.291   5.272  0.00  0.00    -0.526 OA
ATOM      8  H5  UNL d   1       2.351   0.823   5.699  0.00  0.00     0.418 HD
ENDBRANCH   4   7
TORSDOF 1
ENDMDL
