MODEL 1
REMARK minimizedAffinity 3.76212382
REMARK minimizedRMSD -1
REMARK  1 active torsions:
REMARK  status: ('A' for Active; 'I' for Inactive)
REMARK    1  A    between atoms: C3_4  and  O_7 
ROOT
ATOM      1  C   UNL d   1       1.614  -1.923   1.341  0.00  0.00    -0.033 A 
ATOM      2  C1  UNL d   1       0.540  -2.631   1.883  0.00  0.00     0.039 A 
ATOM      3  C2  UNL d   1      -0.177  -2.101   2.957  0.00  0.00    -0.080 A 
ATOM      4  C3  UNL d   1       0.188  -0.863   3.478  0.00  0.00     0.150 A 
ATOM      5  C4  UNL d   1       1.254  -0.150   2.940  0.00  0.00    -0.007 A 
ATOM      6  C5  UNL d   1       1.970  -0.681   1.868  0.00  0.00     0.039 A 
ENDROOT
BRANCH   4   7
ATOM      7  O   UNL d   1      -0.479  -0.307   4.529  0.00  0.00    -0.526 OA
ATOM      8  H5  UNL d   1      -1.173  -0.925   4.814  0.00  0.00     0.418 HD
ENDBRANCH   4   7
TORSDOF 1
ENDMDL
