MODEL 1
REMARK minimizedAffinity 3.26908422
REMARK minimizedRMSD -1
REMARK  1 active torsions:
REMARK  status: ('A' for Active; 'I' for Inactive)
REMARK    1  A    between atoms: C3_4  and  O_7 
ROOT
ATOM      1  C   UNL d   1      -0.091  -0.701   4.311  0.00  0.00    -0.033 A 
ATOM      2  C1  UNL d   1      -1.266  -1.197   4.880  0.00  0.00     0.039 A 
ATOM      3  C2  UNL d   1      -1.806  -2.403   4.430  0.00  0.00    -0.080 A 
ATOM      4  C3  UNL d   1      -1.163  -3.103   3.413  0.00  0.00     0.150 A 
ATOM      5  C4  UNL d   1       0.010  -2.617   2.844  0.00  0.00    -0.007 A 
ATOM      6  C5  UNL d   1       0.548  -1.412   3.294  0.00  0.00     0.039 A 
ENDROOT
BRANCH   4   7
ATOM      7  O   UNL d   1      -1.656  -4.282   2.937  0.00  0.00    -0.526 OA
ATOM      8  H5  UNL d   1      -2.485  -4.479   3.404  0.00  0.00     0.418 HD
ENDBRANCH   4   7
TORSDOF 1
ENDMDL
