MODEL 1
REMARK minimizedAffinity 5.36925697
REMARK minimizedRMSD -1
REMARK  1 active torsions:
REMARK  status: ('A' for Active; 'I' for Inactive)
REMARK    1  A    between atoms: C3_4  and  O_7 
ROOT
ATOM      1  C   UNL d   1      -3.825   5.391  -1.598  0.00  0.00    -0.033 A 
ATOM      2  C1  UNL d   1      -4.177   4.070  -1.314  0.00  0.00     0.039 A 
ATOM      3  C2  UNL d   1      -3.414   3.017  -1.822  0.00  0.00    -0.080 A 
ATOM      4  C3  UNL d   1      -2.302   3.298  -2.612  0.00  0.00     0.150 A 
ATOM      5  C4  UNL d   1      -1.943   4.611  -2.896  0.00  0.00    -0.007 A 
ATOM      6  C5  UNL d   1      -2.707   5.662  -2.388  0.00  0.00     0.039 A 
ENDROOT
BRANCH   4   7
ATOM      7  O   UNL d   1      -1.530   2.304  -3.135  0.00  0.00    -0.526 OA
ATOM      8  H5  UNL d   1      -1.915   1.449  -2.879  0.00  0.00     0.418 HD
ENDBRANCH   4   7
TORSDOF 1
ENDMDL
