MODEL 1
REMARK minimizedAffinity 5.64991999
REMARK minimizedRMSD -1
REMARK  1 active torsions:
REMARK  status: ('A' for Active; 'I' for Inactive)
REMARK    1  A    between atoms: C3_4  and  O_7 
ROOT
ATOM      1  C   UNL d   1      -2.090  -1.953   3.962  0.00  0.00    -0.033 A 
ATOM      2  C1  UNL d   1      -1.242  -0.846   4.039  0.00  0.00     0.039 A 
ATOM      3  C2  UNL d   1      -0.031  -0.842   3.345  0.00  0.00    -0.080 A 
ATOM      4  C3  UNL d   1       0.321  -1.949   2.578  0.00  0.00     0.150 A 
ATOM      5  C4  UNL d   1      -0.521  -3.054   2.493  0.00  0.00    -0.007 A 
ATOM      6  C5  UNL d   1      -1.730  -3.056   3.188  0.00  0.00     0.039 A 
ENDROOT
BRANCH   4   7
ATOM      7  O   UNL d   1       1.495  -1.994   1.887  0.00  0.00    -0.526 OA
ATOM      8  H5  UNL d   1       1.986  -1.174   2.062  0.00  0.00     0.418 HD
ENDBRANCH   4   7
TORSDOF 1
ENDMDL
