MODEL 1
REMARK minimizedAffinity 8.33957577
REMARK minimizedRMSD -1
REMARK  1 active torsions:
REMARK  status: ('A' for Active; 'I' for Inactive)
REMARK    1  A    between atoms: C3_4  and  O_7 
ROOT
ATOM      1  C   UNL d   1      -3.154   5.522  -2.259  0.00  0.00    -0.033 A 
ATOM      2  C1  UNL d   1      -2.204   5.295  -3.256  0.00  0.00     0.039 A 
ATOM      3  C2  UNL d   1      -1.823   3.990  -3.576  0.00  0.00    -0.080 A 
ATOM      4  C3  UNL d   1      -2.400   2.923  -2.894  0.00  0.00     0.150 A 
ATOM      5  C4  UNL d   1      -3.351   3.142  -1.902  0.00  0.00    -0.007 A 
ATOM      6  C5  UNL d   1      -3.729   4.445  -1.583  0.00  0.00     0.039 A 
ENDROOT
BRANCH   4   7
ATOM      7  O   UNL d   1      -2.057   1.633  -3.168  0.00  0.00    -0.526 OA
ATOM      8  H5  UNL d   1      -1.369   1.636  -3.854  0.00  0.00     0.418 HD
ENDBRANCH   4   7
TORSDOF 1
ENDMDL
