MODEL 1
REMARK minimizedAffinity 9.36463642
REMARK minimizedRMSD -1
REMARK  1 active torsions:
REMARK  status: ('A' for Active; 'I' for Inactive)
REMARK    1  A    between atoms: C3_4  and  O_7 
ROOT
ATOM      1  C   UNL d   1      -2.547   4.947  -1.990  0.00  0.00    -0.033 A 
ATOM      2  C1  UNL d   1      -2.247   6.000  -2.856  0.00  0.00     0.039 A 
ATOM      3  C2  UNL d   1      -2.022   5.749  -4.211  0.00  0.00    -0.080 A 
ATOM      4  C3  UNL d   1      -2.101   4.443  -4.686  0.00  0.00     0.150 A 
ATOM      5  C4  UNL d   1      -2.403   3.390  -3.830  0.00  0.00    -0.007 A 
ATOM      6  C5  UNL d   1      -2.627   3.642  -2.477  0.00  0.00     0.039 A 
ENDROOT
BRANCH   4   7
ATOM      7  O   UNL d   1      -1.885   4.149  -6.000  0.00  0.00    -0.526 OA
ATOM      8  H5  UNL d   1      -1.658   4.971  -6.466  0.00  0.00     0.418 HD
ENDBRANCH   4   7
TORSDOF 1
ENDMDL
