MODEL 1
REMARK minimizedAffinity -3.13078904
REMARK minimizedRMSD -1
REMARK  0 active torsions:
REMARK  status: ('A' for Active; 'I' for Inactive)
ROOT
ATOM      1  C1  DEN d   1       5.971  -2.603   2.199  0.00  0.00     0.130 A 
ATOM      2  C2  DEN d   1       5.998  -3.810   1.378  0.00  0.00    -0.031 A 
ATOM      3  C3  DEN d   1       5.996  -4.978   2.282  0.00  0.00     0.027 A 
ATOM      4  C4  DEN d   1       5.949  -5.032   4.860  0.00  0.00     0.027 A 
ATOM      5  C5  DEN d   1       5.932  -4.258   6.000  0.00  0.00    -0.003 A 
ATOM      6  C6  DEN d   1       5.961  -2.890   5.953  0.00  0.00     0.001 A 
ATOM      7  C7  DEN d   1       5.963  -2.252   4.740  0.00  0.00     0.017 A 
ATOM      8  C8  DEN d   1       5.987  -3.026   3.588  0.00  0.00    -0.094 A 
ATOM      9  C9  DEN d   1       5.945  -4.408   3.656  0.00  0.00    -0.072 A 
ENDROOT
TORSDOF 0
ENDMDL
