MODEL 1
REMARK minimizedAffinity -0.610228956
REMARK minimizedRMSD -1
REMARK  0 active torsions:
REMARK  status: ('A' for Active; 'I' for Inactive)
ROOT
ATOM      1  C1  DEN d   1       6.000  -5.568   2.747  0.00  0.00     0.130 A 
ATOM      2  C2  DEN d   1       5.686  -5.987   4.110  0.00  0.00    -0.031 A 
ATOM      3  C3  DEN d   1       5.289  -4.789   4.876  0.00  0.00     0.027 A 
ATOM      4  C4  DEN d   1       5.124  -2.339   4.087  0.00  0.00     0.027 A 
ATOM      5  C5  DEN d   1       5.302  -1.490   3.017  0.00  0.00    -0.003 A 
ATOM      6  C6  DEN d   1       5.753  -1.931   1.802  0.00  0.00     0.001 A 
ATOM      7  C7  DEN d   1       6.000  -3.266   1.613  0.00  0.00     0.017 A 
ATOM      8  C8  DEN d   1       5.830  -4.127   2.689  0.00  0.00    -0.094 A 
ATOM      9  C9  DEN d   1       5.361  -3.663   3.907  0.00  0.00    -0.072 A 
ENDROOT
TORSDOF 0
ENDMDL
