MODEL 1
REMARK minimizedAffinity -1.25338662
REMARK minimizedRMSD -1
REMARK  0 active torsions:
REMARK  status: ('A' for Active; 'I' for Inactive)
ROOT
ATOM      1  C1  DEN d   1       6.000  -3.949   2.065  0.00  0.00     0.130 A 
ATOM      2  C2  DEN d   1       5.986  -2.681   1.341  0.00  0.00    -0.031 A 
ATOM      3  C3  DEN d   1       5.969  -1.588   2.334  0.00  0.00     0.027 A 
ATOM      4  C4  DEN d   1       5.966  -1.735   4.909  0.00  0.00     0.027 A 
ATOM      5  C5  DEN d   1       5.963  -2.596   5.984  0.00  0.00    -0.003 A 
ATOM      6  C6  DEN d   1       5.937  -3.957   5.830  0.00  0.00     0.001 A 
ATOM      7  C7  DEN d   1       5.959  -4.498   4.571  0.00  0.00     0.017 A 
ATOM      8  C8  DEN d   1       5.956  -3.636   3.482  0.00  0.00    -0.094 A 
ATOM      9  C9  DEN d   1       5.994  -2.263   3.659  0.00  0.00    -0.072 A 
ENDROOT
TORSDOF 0
ENDMDL
