MODEL 1
REMARK minimizedAffinity -3.12481642
REMARK minimizedRMSD -1
REMARK  0 active torsions:
REMARK  status: ('A' for Active; 'I' for Inactive)
ROOT
ATOM      1  C1  DEN d   1       5.963  -3.058   2.103  0.00  0.00     0.130 A 
ATOM      2  C2  DEN d   1       5.996  -4.313   1.358  0.00  0.00    -0.031 A 
ATOM      3  C3  DEN d   1       6.000  -5.423   2.332  0.00  0.00     0.027 A 
ATOM      4  C4  DEN d   1       5.952  -5.320   4.909  0.00  0.00     0.027 A 
ATOM      5  C5  DEN d   1       5.931  -4.478   5.998  0.00  0.00    -0.003 A 
ATOM      6  C6  DEN d   1       5.953  -3.114   5.868  0.00  0.00     0.001 A 
ATOM      7  C7  DEN d   1       5.952  -2.552   4.618  0.00  0.00     0.017 A 
ATOM      8  C8  DEN d   1       5.981  -3.395   3.515  0.00  0.00    -0.094 A 
ATOM      9  C9  DEN d   1       5.946  -4.771   3.668  0.00  0.00    -0.072 A 
ENDROOT
TORSDOF 0
ENDMDL
