MODEL 1
REMARK minimizedAffinity -3.95179033
REMARK minimizedRMSD -1
REMARK  0 active torsions:
REMARK  status: ('A' for Active; 'I' for Inactive)
ROOT
ATOM      1  C1  DEN d   1       5.433  -4.538   5.094  0.00  0.00     0.130 A 
ATOM      2  C2  DEN d   1       5.260  -3.405   5.999  0.00  0.00    -0.031 A 
ATOM      3  C3  DEN d   1       5.334  -2.166   5.198  0.00  0.00     0.027 A 
ATOM      4  C4  DEN d   1       5.692  -1.895   2.658  0.00  0.00     0.027 A 
ATOM      5  C5  DEN d   1       5.900  -2.570   1.476  0.00  0.00    -0.003 A 
ATOM      6  C6  DEN d   1       6.000  -3.935   1.422  0.00  0.00     0.001 A 
ATOM      7  C7  DEN d   1       5.847  -4.673   2.566  0.00  0.00     0.017 A 
ATOM      8  C8  DEN d   1       5.644  -3.999   3.763  0.00  0.00    -0.094 A 
ATOM      9  C9  DEN d   1       5.534  -2.619   3.795  0.00  0.00    -0.072 A 
ENDROOT
TORSDOF 0
ENDMDL
