MODEL 1
REMARK minimizedAffinity -2.37571359
REMARK minimizedRMSD -1
REMARK  0 active torsions:
REMARK  status: ('A' for Active; 'I' for Inactive)
ROOT
ATOM      1  C1  DEN d   1       6.000  -2.555   4.784  0.00  0.00     0.130 A 
ATOM      2  C2  DEN d   1       6.000  -3.364   6.000  0.00  0.00    -0.031 A 
ATOM      3  C3  DEN d   1       4.798  -4.221   5.978  0.00  0.00     0.027 A 
ATOM      4  C4  DEN d   1       2.949  -4.378   4.187  0.00  0.00     0.027 A 
ATOM      5  C5  DEN d   1       2.509  -3.879   2.981  0.00  0.00    -0.003 A 
ATOM      6  C6  DEN d   1       3.179  -2.888   2.313  0.00  0.00     0.001 A 
ATOM      7  C7  DEN d   1       4.350  -2.396   2.825  0.00  0.00     0.017 A 
ATOM      8  C8  DEN d   1       4.795  -2.888   4.045  0.00  0.00    -0.094 A 
ATOM      9  C9  DEN d   1       4.111  -3.899   4.699  0.00  0.00    -0.072 A 
ENDROOT
TORSDOF 0
ENDMDL
