MODEL 1
REMARK minimizedAffinity -3.93441868
REMARK minimizedRMSD -1
REMARK  0 active torsions:
REMARK  status: ('A' for Active; 'I' for Inactive)
ROOT
ATOM      1  C1  DEN d   1       5.667  -2.607   2.347  0.00  0.00     0.130 A 
ATOM      2  C2  DEN d   1       5.999  -3.712   1.452  0.00  0.00    -0.031 A 
ATOM      3  C3  DEN d   1       6.000  -4.958   2.245  0.00  0.00     0.027 A 
ATOM      4  C4  DEN d   1       5.515  -5.282   4.757  0.00  0.00     0.027 A 
ATOM      5  C5  DEN d   1       5.196  -4.637   5.931  0.00  0.00    -0.003 A 
ATOM      6  C6  DEN d   1       5.047  -3.277   6.000  0.00  0.00     0.001 A 
ATOM      7  C7  DEN d   1       5.171  -2.522   4.863  0.00  0.00     0.017 A 
ATOM      8  C8  DEN d   1       5.500  -3.165   3.677  0.00  0.00    -0.094 A 
ATOM      9  C9  DEN d   1       5.635  -4.542   3.626  0.00  0.00    -0.072 A 
ENDROOT
TORSDOF 0
ENDMDL
