MODEL 1
REMARK minimizedAffinity 3.91338658
REMARK minimizedRMSD -1
REMARK  0 active torsions:
REMARK  status: ('A' for Active; 'I' for Inactive)
ROOT
ATOM      1  C1  DEN d   1       5.991  -5.889   2.639  0.00  0.00     0.130 A 
ATOM      2  C2  DEN d   1       5.851  -5.998   4.089  0.00  0.00    -0.031 A 
ATOM      3  C3  DEN d   1       5.663  -4.637   4.632  0.00  0.00     0.027 A 
ATOM      4  C4  DEN d   1       5.572  -2.387   3.375  0.00  0.00     0.027 A 
ATOM      5  C5  DEN d   1       5.654  -1.788   2.138  0.00  0.00    -0.003 A 
ATOM      6  C6  DEN d   1       5.887  -2.505   0.994  0.00  0.00     0.001 A 
ATOM      7  C7  DEN d   1       6.000  -3.868   1.058  0.00  0.00     0.017 A 
ATOM      8  C8  DEN d   1       5.926  -4.478   2.304  0.00  0.00    -0.094 A 
ATOM      9  C9  DEN d   1       5.678  -3.738   3.447  0.00  0.00    -0.072 A 
ENDROOT
TORSDOF 0
ENDMDL
