MODEL 1
REMARK minimizedAffinity -1.75255048
REMARK minimizedRMSD -1
REMARK  0 active torsions:
REMARK  status: ('A' for Active; 'I' for Inactive)
ROOT
ATOM      1  C1  DEN d   1       5.986  -4.944   1.298  0.00  0.00     0.130 A 
ATOM      2  C2  DEN d   1       5.999  -4.007   0.178  0.00  0.00    -0.031 A 
ATOM      3  C3  DEN d   1       5.991  -2.637   0.729  0.00  0.00     0.027 A 
ATOM      4  C4  DEN d   1       5.966  -1.880   3.194  0.00  0.00     0.027 A 
ATOM      5  C5  DEN d   1       5.940  -2.313   4.501  0.00  0.00    -0.003 A 
ATOM      6  C6  DEN d   1       5.893  -3.642   4.829  0.00  0.00     0.001 A 
ATOM      7  C7  DEN d   1       5.917  -4.587   3.837  0.00  0.00     0.017 A 
ATOM      8  C8  DEN d   1       5.936  -4.157   2.517  0.00  0.00    -0.094 A 
ATOM      9  C9  DEN d   1       5.995  -2.810   2.206  0.00  0.00    -0.072 A 
ENDROOT
TORSDOF 0
ENDMDL
