MODEL 1
REMARK minimizedAffinity -1.30547822
REMARK minimizedRMSD -1
REMARK  0 active torsions:
REMARK  status: ('A' for Active; 'I' for Inactive)
ROOT
ATOM      1  C1  DEN d   1       5.999  -2.155   1.934  0.00  0.00     0.130 A 
ATOM      2  C2  DEN d   1       5.983  -3.462   1.283  0.00  0.00    -0.031 A 
ATOM      3  C3  DEN d   1       5.935  -4.496   2.337  0.00  0.00     0.027 A 
ATOM      4  C4  DEN d   1       5.880  -4.200   4.898  0.00  0.00     0.027 A 
ATOM      5  C5  DEN d   1       5.890  -3.279   5.923  0.00  0.00    -0.003 A 
ATOM      6  C6  DEN d   1       5.970  -1.931   5.692  0.00  0.00     0.001 A 
ATOM      7  C7  DEN d   1       5.999  -1.464   4.405  0.00  0.00     0.017 A 
ATOM      8  C8  DEN d   1       5.997  -2.386   3.367  0.00  0.00    -0.094 A 
ATOM      9  C9  DEN d   1       5.903  -3.744   3.620  0.00  0.00    -0.072 A 
ENDROOT
TORSDOF 0
ENDMDL
