MODEL 1
REMARK minimizedAffinity -4.17049217
REMARK minimizedRMSD -1
REMARK  0 active torsions:
REMARK  status: ('A' for Active; 'I' for Inactive)
ROOT
ATOM      1  C1  DEN d   1       5.507  -2.137   4.663  0.00  0.00     0.130 A 
ATOM      2  C2  DEN d   1       5.275  -2.689   5.995  0.00  0.00    -0.031 A 
ATOM      3  C3  DEN d   1       5.307  -4.161   5.892  0.00  0.00     0.027 A 
ATOM      4  C4  DEN d   1       5.696  -5.634   3.810  0.00  0.00     0.027 A 
ATOM      5  C5  DEN d   1       5.927  -5.619   2.452  0.00  0.00    -0.003 A 
ATOM      6  C6  DEN d   1       5.999  -4.454   1.736  0.00  0.00     0.001 A 
ATOM      7  C7  DEN d   1       5.884  -3.252   2.383  0.00  0.00     0.017 A 
ATOM      8  C8  DEN d   1       5.644  -3.258   3.751  0.00  0.00    -0.094 A 
ATOM      9  C9  DEN d   1       5.586  -4.447   4.459  0.00  0.00    -0.072 A 
ENDROOT
TORSDOF 0
ENDMDL
