MODEL 1
REMARK minimizedAffinity -3.67192698
REMARK minimizedRMSD -1
REMARK  0 active torsions:
REMARK  status: ('A' for Active; 'I' for Inactive)
ROOT
ATOM      1  C1  DEN d   1       5.998  -3.058   4.130  0.00  0.00     0.130 A 
ATOM      2  C2  DEN d   1       5.995  -3.036   2.670  0.00  0.00    -0.031 A 
ATOM      3  C3  DEN d   1       4.644  -3.415   2.210  0.00  0.00     0.027 A 
ATOM      4  C4  DEN d   1       2.567  -4.028   3.611  0.00  0.00     0.027 A 
ATOM      5  C5  DEN d   1       2.086  -4.197   4.891  0.00  0.00    -0.003 A 
ATOM      6  C6  DEN d   1       2.878  -4.034   5.996  0.00  0.00     0.001 A 
ATOM      7  C7  DEN d   1       4.183  -3.645   5.845  0.00  0.00     0.017 A 
ATOM      8  C8  DEN d   1       4.677  -3.480   4.558  0.00  0.00    -0.094 A 
ATOM      9  C9  DEN d   1       3.857  -3.638   3.453  0.00  0.00    -0.072 A 
ENDROOT
TORSDOF 0
ENDMDL
