MODEL 1
REMARK minimizedAffinity -3.30679536
REMARK minimizedRMSD -1
REMARK  0 active torsions:
REMARK  status: ('A' for Active; 'I' for Inactive)
ROOT
ATOM      1  C1  DEN d   1       6.000  -3.951   5.991  0.00  0.00     0.130 A 
ATOM      2  C2  DEN d   1       5.970  -5.404   5.849  0.00  0.00    -0.031 A 
ATOM      3  C3  DEN d   1       5.956  -5.721   4.407  0.00  0.00     0.027 A 
ATOM      4  C4  DEN d   1       5.981  -4.112   2.391  0.00  0.00     0.027 A 
ATOM      5  C5  DEN d   1       5.994  -2.788   2.012  0.00  0.00    -0.003 A 
ATOM      6  C6  DEN d   1       5.975  -1.767   2.924  0.00  0.00     0.001 A 
ATOM      7  C7  DEN d   1       5.989  -2.053   4.264  0.00  0.00     0.017 A 
ATOM      8  C8  DEN d   1       5.968  -3.386   4.654  0.00  0.00    -0.094 A 
ATOM      9  C9  DEN d   1       5.999  -4.404   3.716  0.00  0.00    -0.072 A 
ENDROOT
TORSDOF 0
ENDMDL
