MODEL 1
REMARK minimizedAffinity -4.29442644
REMARK minimizedRMSD -1
REMARK  0 active torsions:
REMARK  status: ('A' for Active; 'I' for Inactive)
ROOT
ATOM      1  C1  DEN d   1       5.977  -3.979   1.809  0.00  0.00     0.130 A 
ATOM      2  C2  DEN d   1       5.999  -2.528   1.645  0.00  0.00    -0.031 A 
ATOM      3  C3  DEN d   1       5.950  -1.916   2.988  0.00  0.00     0.027 A 
ATOM      4  C4  DEN d   1       5.845  -3.068   5.293  0.00  0.00     0.027 A 
ATOM      5  C5  DEN d   1       5.794  -4.283   5.940  0.00  0.00    -0.003 A 
ATOM      6  C6  DEN d   1       5.766  -5.472   5.259  0.00  0.00     0.001 A 
ATOM      7  C7  DEN d   1       5.835  -5.472   3.891  0.00  0.00     0.017 A 
ATOM      8  C8  DEN d   1       5.879  -4.250   3.232  0.00  0.00    -0.094 A 
ATOM      9  C9  DEN d   1       5.919  -3.060   3.938  0.00  0.00    -0.072 A 
ENDROOT
TORSDOF 0
ENDMDL
