MODEL 1
REMARK minimizedAffinity -1.98042834
REMARK minimizedRMSD -1
REMARK  0 active torsions:
REMARK  status: ('A' for Active; 'I' for Inactive)
ROOT
ATOM      1  C1  DEN d   1       5.953  -3.187   2.274  0.00  0.00     0.130 A 
ATOM      2  C2  DEN d   1       5.984  -4.335   1.372  0.00  0.00    -0.031 A 
ATOM      3  C3  DEN d   1       5.995  -5.561   2.194  0.00  0.00     0.027 A 
ATOM      4  C4  DEN d   1       5.962  -5.794   4.762  0.00  0.00     0.027 A 
ATOM      5  C5  DEN d   1       5.947  -5.101   5.952  0.00  0.00    -0.003 A 
ATOM      6  C6  DEN d   1       5.967  -3.732   6.000  0.00  0.00     0.001 A 
ATOM      7  C7  DEN d   1       5.957  -3.012   4.834  0.00  0.00     0.017 A 
ATOM      8  C8  DEN d   1       5.980  -3.704   3.631  0.00  0.00    -0.094 A 
ATOM      9  C9  DEN d   1       5.948  -5.088   3.603  0.00  0.00    -0.072 A 
ENDROOT
TORSDOF 0
ENDMDL
