MODEL 1
REMARK minimizedAffinity -4.16571283
REMARK minimizedRMSD -1
REMARK  0 active torsions:
REMARK  status: ('A' for Active; 'I' for Inactive)
ROOT
ATOM      1  C1  DEN d   1       5.998  -5.252   2.691  0.00  0.00     0.130 A 
ATOM      2  C2  DEN d   1       5.871  -4.494   1.449  0.00  0.00    -0.031 A 
ATOM      3  C3  DEN d   1       5.746  -3.064   1.798  0.00  0.00     0.027 A 
ATOM      4  C4  DEN d   1       5.742  -1.957   4.128  0.00  0.00     0.027 A 
ATOM      5  C5  DEN d   1       5.812  -2.193   5.483  0.00  0.00    -0.003 A 
ATOM      6  C6  DEN d   1       5.913  -3.458   6.000  0.00  0.00     0.001 A 
ATOM      7  C7  DEN d   1       5.994  -4.532   5.153  0.00  0.00     0.017 A 
ATOM      8  C8  DEN d   1       5.917  -4.303   3.786  0.00  0.00    -0.094 A 
ATOM      9  C9  DEN d   1       5.826  -3.016   3.283  0.00  0.00    -0.072 A 
ENDROOT
TORSDOF 0
ENDMDL
