MODEL 1
REMARK minimizedAffinity -3.864573
REMARK minimizedRMSD -1
REMARK  0 active torsions:
REMARK  status: ('A' for Active; 'I' for Inactive)
ROOT
ATOM      1  C1  DEN d   1       3.672  -5.231   4.818  0.00  0.00     0.130 A 
ATOM      2  C2  DEN d   1       3.175  -4.531   6.000  0.00  0.00    -0.031 A 
ATOM      3  C3  DEN d   1       3.731  -3.163   5.986  0.00  0.00     0.027 A 
ATOM      4  C4  DEN d   1       5.298  -2.065   4.257  0.00  0.00     0.027 A 
ATOM      5  C5  DEN d   1       5.999  -2.269   3.088  0.00  0.00    -0.003 A 
ATOM      6  C6  DEN d   1       6.000  -3.474   2.438  0.00  0.00     0.001 A 
ATOM      7  C7  DEN d   1       5.250  -4.510   2.928  0.00  0.00     0.017 A 
ATOM      8  C8  DEN d   1       4.547  -4.315   4.110  0.00  0.00    -0.094 A 
ATOM      9  C9  DEN d   1       4.549  -3.085   4.746  0.00  0.00    -0.072 A 
ENDROOT
TORSDOF 0
ENDMDL
