MODEL 1
REMARK minimizedAffinity 13.5745554
REMARK minimizedRMSD -1
REMARK  0 active torsions:
REMARK  status: ('A' for Active; 'I' for Inactive)
ROOT
ATOM      1  C2' OXE d   1       2.664  -4.661  -2.233  0.00  0.00     0.078 C 
ATOM      2  C1' OXE d   1       2.522  -3.485   0.312  0.00  0.00     0.078 C 
ATOM      3  C1  OXE d   1       1.300  -4.206  -0.199  0.00  0.00    -0.078 A 
ATOM      4  C2  OXE d   1       1.362  -4.738  -1.464  0.00  0.00    -0.078 A 
ATOM      5  C3  OXE d   1       0.282  -5.461  -1.963  0.00  0.00     0.003 A 
ATOM      6  C4  OXE d   1      -0.921  -5.519  -1.249  0.00  0.00    -0.002 A 
ATOM      7  C5  OXE d   1      -1.020  -4.950   0.025  0.00  0.00    -0.002 A 
ATOM      8  C6  OXE d   1       0.093  -4.328   0.581  0.00  0.00     0.003 A 
ENDROOT
TORSDOF 0
ENDMDL
