MODEL 1
REMARK minimizedAffinity 11.531003
REMARK minimizedRMSD -1
REMARK  0 active torsions:
REMARK  status: ('A' for Active; 'I' for Inactive)
ROOT
ATOM      1  C2' OXE d   1       0.847  -0.284   1.610  0.00  0.00     0.078 C 
ATOM      2  C1' OXE d   1       2.519  -2.320   0.641  0.00  0.00     0.078 C 
ATOM      3  C1  OXE d   1       2.147  -2.351   2.103  0.00  0.00    -0.078 A 
ATOM      4  C2  OXE d   1       1.367  -1.325   2.578  0.00  0.00    -0.078 A 
ATOM      5  C3  OXE d   1       0.950  -1.334   3.906  0.00  0.00     0.003 A 
ATOM      6  C4  OXE d   1       1.443  -2.295   4.797  0.00  0.00    -0.002 A 
ATOM      7  C5  OXE d   1       2.272  -3.326   4.342  0.00  0.00    -0.002 A 
ATOM      8  C6  OXE d   1       2.598  -3.393   2.992  0.00  0.00     0.003 A 
ENDROOT
TORSDOF 0
ENDMDL
