MODEL 1
REMARK minimizedAffinity 15.2685099
REMARK minimizedRMSD -1
REMARK  0 active torsions:
REMARK  status: ('A' for Active; 'I' for Inactive)
ROOT
ATOM      1  C2' OXE d   1      -3.415   1.148  -2.320  0.00  0.00     0.078 C 
ATOM      2  C1' OXE d   1      -4.602   3.396  -1.129  0.00  0.00     0.078 C 
ATOM      3  C1  OXE d   1      -4.150   3.516  -2.563  0.00  0.00    -0.078 A 
ATOM      4  C2  OXE d   1      -3.528   2.426  -3.123  0.00  0.00    -0.078 A 
ATOM      5  C3  OXE d   1      -3.140   2.465  -4.459  0.00  0.00     0.003 A 
ATOM      6  C4  OXE d   1      -3.239   3.654  -5.192  0.00  0.00    -0.002 A 
ATOM      7  C5  OXE d   1      -3.834   4.788  -4.628  0.00  0.00    -0.002 A 
ATOM      8  C6  OXE d   1      -4.332   4.723  -3.331  0.00  0.00     0.003 A 
ENDROOT
TORSDOF 0
ENDMDL
