MODEL 1
REMARK minimizedAffinity 6.76395893
REMARK minimizedRMSD -1
REMARK  0 active torsions:
REMARK  status: ('A' for Active; 'I' for Inactive)
ROOT
ATOM      1  C2' OXE d   1       1.845  -2.553   5.785  0.00  0.00     0.078 C 
ATOM      2  C1' OXE d   1       2.859  -4.214   3.761  0.00  0.00     0.078 C 
ATOM      3  C1  OXE d   1       2.359  -2.848   3.365  0.00  0.00    -0.078 A 
ATOM      4  C2  OXE d   1       1.822  -2.059   4.354  0.00  0.00    -0.078 A 
ATOM      5  C3  OXE d   1       1.396  -0.769   4.052  0.00  0.00     0.003 A 
ATOM      6  C4  OXE d   1       1.368  -0.324   2.725  0.00  0.00    -0.002 A 
ATOM      7  C5  OXE d   1       1.874  -1.126   1.697  0.00  0.00    -0.002 A 
ATOM      8  C6  OXE d   1       2.411  -2.371   2.005  0.00  0.00     0.003 A 
ENDROOT
TORSDOF 0
ENDMDL
