MODEL 1
REMARK minimizedAffinity 11.8447666
REMARK minimizedRMSD -1
REMARK  0 active torsions:
REMARK  status: ('A' for Active; 'I' for Inactive)
ROOT
ATOM      1  C2' OXE d   1      -3.048   0.939  -3.024  0.00  0.00     0.078 C 
ATOM      2  C1' OXE d   1      -3.293   2.379  -5.422  0.00  0.00     0.078 C 
ATOM      3  C1  OXE d   1      -3.687   3.072  -4.141  0.00  0.00    -0.078 A 
ATOM      4  C2  OXE d   1      -3.608   2.345  -2.978  0.00  0.00    -0.078 A 
ATOM      5  C3  OXE d   1      -3.907   2.953  -1.763  0.00  0.00     0.003 A 
ATOM      6  C4  OXE d   1      -4.434   4.250  -1.730  0.00  0.00    -0.002 A 
ATOM      7  C5  OXE d   1      -4.560   4.995  -2.907  0.00  0.00    -0.002 A 
ATOM      8  C6  OXE d   1      -4.152   4.437  -4.114  0.00  0.00     0.003 A 
ENDROOT
TORSDOF 0
ENDMDL
