MODEL 1
REMARK minimizedAffinity 13.6414871
REMARK minimizedRMSD -1
REMARK  0 active torsions:
REMARK  status: ('A' for Active; 'I' for Inactive)
ROOT
ATOM      1  C2' OXE d   1       1.169  -2.615   5.305  0.00  0.00     0.078 C 
ATOM      2  C1' OXE d   1       2.702  -4.284   3.649  0.00  0.00     0.078 C 
ATOM      3  C1  OXE d   1       2.182  -2.996   3.062  0.00  0.00    -0.078 A 
ATOM      4  C2  OXE d   1       1.394  -2.208   3.865  0.00  0.00    -0.078 A 
ATOM      5  C3  OXE d   1       0.934  -0.983   3.390  0.00  0.00     0.003 A 
ATOM      6  C4  OXE d   1       1.138  -0.618   2.054  0.00  0.00    -0.002 A 
ATOM      7  C5  OXE d   1       1.905  -1.426   1.207  0.00  0.00    -0.002 A 
ATOM      8  C6  OXE d   1       2.469  -2.595   1.707  0.00  0.00     0.003 A 
ENDROOT
TORSDOF 0
ENDMDL
