MODEL 1
REMARK minimizedAffinity 4.82712841
REMARK minimizedRMSD -1
REMARK  0 active torsions:
REMARK  status: ('A' for Active; 'I' for Inactive)
ROOT
ATOM      1  C2' OXE d   1       2.659  -2.621   1.819  0.00  0.00     0.078 C 
ATOM      2  C1' OXE d   1       1.333  -0.258   2.551  0.00  0.00     0.078 C 
ATOM      3  C1  OXE d   1       1.624  -1.266   3.635  0.00  0.00    -0.078 A 
ATOM      4  C2  OXE d   1       2.231  -2.440   3.260  0.00  0.00    -0.078 A 
ATOM      5  C3  OXE d   1       2.571  -3.380   4.228  0.00  0.00     0.003 A 
ATOM      6  C4  OXE d   1       2.162  -3.209   5.556  0.00  0.00    -0.002 A 
ATOM      7  C5  OXE d   1       1.507  -2.038   5.952  0.00  0.00    -0.002 A 
ATOM      8  C6  OXE d   1       1.269  -1.040   5.014  0.00  0.00     0.003 A 
ENDROOT
TORSDOF 0
ENDMDL
