MODEL 1
REMARK minimizedAffinity 3.52276444
REMARK minimizedRMSD -1
REMARK  0 active torsions:
REMARK  status: ('A' for Active; 'I' for Inactive)
ROOT
ATOM      1  C2' OXE d   1       2.435  -3.171   1.879  0.00  0.00     0.078 C 
ATOM      2  C1' OXE d   1       1.147  -0.728   2.385  0.00  0.00     0.078 C 
ATOM      3  C1  OXE d   1       1.553  -1.568   3.570  0.00  0.00    -0.078 A 
ATOM      4  C2  OXE d   1       2.140  -2.783   3.312  0.00  0.00    -0.078 A 
ATOM      5  C3  OXE d   1       2.583  -3.573   4.370  0.00  0.00     0.003 A 
ATOM      6  C4  OXE d   1       2.298  -3.212   5.692  0.00  0.00    -0.002 A 
ATOM      7  C5  OXE d   1       1.665  -1.997   5.976  0.00  0.00    -0.002 A 
ATOM      8  C6  OXE d   1       1.325  -1.146   4.930  0.00  0.00     0.003 A 
ENDROOT
TORSDOF 0
ENDMDL
