MODEL 1
REMARK minimizedAffinity 7.327281
REMARK minimizedRMSD -1
REMARK  0 active torsions:
REMARK  status: ('A' for Active; 'I' for Inactive)
ROOT
ATOM      1  C2' OXE d   1       1.279  -4.754   1.025  0.00  0.00     0.078 C 
ATOM      2  C1' OXE d   1       1.379  -4.682  -1.780  0.00  0.00     0.078 C 
ATOM      3  C1  OXE d   1       0.063  -4.367  -1.114  0.00  0.00    -0.078 A 
ATOM      4  C2  OXE d   1       0.011  -4.450   0.256  0.00  0.00    -0.078 A 
ATOM      5  C3  OXE d   1      -1.164  -4.116   0.924  0.00  0.00     0.003 A 
ATOM      6  C4  OXE d   1      -2.334  -3.845   0.205  0.00  0.00    -0.002 A 
ATOM      7  C5  OXE d   1      -2.314  -3.794  -1.192  0.00  0.00    -0.002 A 
ATOM      8  C6  OXE d   1      -1.116  -4.010  -1.865  0.00  0.00     0.003 A 
ENDROOT
TORSDOF 0
ENDMDL
