MODEL 1
REMARK minimizedAffinity 11.2930412
REMARK minimizedRMSD -1
REMARK  0 active torsions:
REMARK  status: ('A' for Active; 'I' for Inactive)
ROOT
ATOM      1  C2' OXE d   1      -5.494   5.012  -3.312  0.00  0.00     0.078 C 
ATOM      2  C1' OXE d   1      -5.496   4.319  -0.591  0.00  0.00     0.078 C 
ATOM      3  C1  OXE d   1      -4.503   3.628  -1.493  0.00  0.00    -0.078 A 
ATOM      4  C2  OXE d   1      -4.541   3.939  -2.831  0.00  0.00    -0.078 A 
ATOM      5  C3  OXE d   1      -3.611   3.371  -3.697  0.00  0.00     0.003 A 
ATOM      6  C4  OXE d   1      -2.740   2.373  -3.245  0.00  0.00    -0.002 A 
ATOM      7  C5  OXE d   1      -2.712   2.012  -1.894  0.00  0.00    -0.002 A 
ATOM      8  C6  OXE d   1      -3.556   2.660  -0.998  0.00  0.00     0.003 A 
ENDROOT
TORSDOF 0
ENDMDL
