MODEL 1
REMARK minimizedAffinity 14.4427862
REMARK minimizedRMSD -1
REMARK  0 active torsions:
REMARK  status: ('A' for Active; 'I' for Inactive)
ROOT
ATOM      1  C2' OXE d   1       1.309  -4.068   0.825  0.00  0.00     0.078 C 
ATOM      2  C1' OXE d   1       1.576  -5.302  -1.682  0.00  0.00     0.078 C 
ATOM      3  C1  OXE d   1       0.205  -5.275  -1.054  0.00  0.00    -0.078 A 
ATOM      4  C2  OXE d   1       0.093  -4.710   0.194  0.00  0.00    -0.078 A 
ATOM      5  C3  OXE d   1      -1.159  -4.610   0.796  0.00  0.00     0.003 A 
ATOM      6  C4  OXE d   1      -2.277  -5.216   0.210  0.00  0.00    -0.002 A 
ATOM      7  C5  OXE d   1      -2.177  -5.831  -1.043  0.00  0.00    -0.002 A 
ATOM      8  C6  OXE d   1      -0.954  -5.831  -1.706  0.00  0.00     0.003 A 
ENDROOT
TORSDOF 0
ENDMDL
