MODEL 1
REMARK minimizedAffinity 10.912406
REMARK minimizedRMSD -1
REMARK  0 active torsions:
REMARK  status: ('A' for Active; 'I' for Inactive)
ROOT
ATOM      1  C2' OXE d   1       0.895  -0.780   2.333  0.00  0.00     0.078 C 
ATOM      2  C1' OXE d   1       2.343  -3.174   2.099  0.00  0.00     0.078 C 
ATOM      3  C1  OXE d   1       1.944  -2.725   3.483  0.00  0.00    -0.078 A 
ATOM      4  C2  OXE d   1       1.277  -1.529   3.592  0.00  0.00    -0.078 A 
ATOM      5  C3  OXE d   1       0.838  -1.095   4.839  0.00  0.00     0.003 A 
ATOM      6  C4  OXE d   1       1.204  -1.788   6.000  0.00  0.00    -0.002 A 
ATOM      7  C5  OXE d   1       1.918  -2.988   5.915  0.00  0.00    -0.002 A 
ATOM      8  C6  OXE d   1       2.258  -3.491   4.664  0.00  0.00     0.003 A 
ENDROOT
TORSDOF 0
ENDMDL
