MODEL 1
REMARK minimizedAffinity 11.30089
REMARK minimizedRMSD -1
REMARK  0 active torsions:
REMARK  status: ('A' for Active; 'I' for Inactive)
ROOT
ATOM      1  N1  IND d   1       2.685  -3.747  -0.192  0.00  0.00    -0.196 N 
ATOM      2  C2  IND d   1       2.225  -2.755   0.628  0.00  0.00     0.054 A 
ATOM      3  C3  IND d   1       2.875  -2.786   1.814  0.00  0.00    -0.031 A 
ATOM      4  C4  IND d   1       4.799  -4.313   2.585  0.00  0.00     0.051 A 
ATOM      5  C5  IND d   1       5.536  -5.396   2.197  0.00  0.00    -0.031 A 
ATOM      6  C6  IND d   1       5.359  -5.996   0.966  0.00  0.00     0.015 A 
ATOM      7  C7  IND d   1       4.442  -5.525   0.070  0.00  0.00    -0.016 A 
ATOM      8  C8  IND d   1       3.686  -4.429   0.464  0.00  0.00    -0.047 A 
ATOM      9  C9  IND d   1       3.832  -3.843   1.727  0.00  0.00    -0.096 A 
ATOM     10  HN1 IND d   1       2.397  -3.917  -0.984  0.00  0.00     0.298 HD
ENDROOT
TORSDOF 0
ENDMDL
