MODEL 1
REMARK minimizedAffinity -0.387114674
REMARK minimizedRMSD -1
REMARK  0 active torsions:
REMARK  status: ('A' for Active; 'I' for Inactive)
ROOT
ATOM      1  N1  IND d   1       0.828  -0.957  -0.478  0.00  0.00    -0.196 N 
ATOM      2  C2  IND d   1       1.862  -1.438   0.276  0.00  0.00     0.054 A 
ATOM      3  C3  IND d   1       1.494  -1.533   1.573  0.00  0.00    -0.031 A 
ATOM      4  C4  IND d   1      -0.786  -1.051   2.666  0.00  0.00     0.051 A 
ATOM      5  C5  IND d   1      -2.030  -0.556   2.390  0.00  0.00    -0.031 A 
ATOM      6  C6  IND d   1      -2.393  -0.164   1.117  0.00  0.00     0.015 A 
ATOM      7  C7  IND d   1      -1.525  -0.263   0.067  0.00  0.00    -0.016 A 
ATOM      8  C8  IND d   1      -0.259  -0.759   0.345  0.00  0.00    -0.047 A 
ATOM      9  C9  IND d   1       0.129  -1.119   1.642  0.00  0.00    -0.096 A 
ATOM     10  HN1 IND d   1       0.853  -0.803  -1.324  0.00  0.00     0.298 HD
ENDROOT
TORSDOF 0
ENDMDL
