MODEL 1
REMARK minimizedAffinity 6.97002316
REMARK minimizedRMSD -1
REMARK  0 active torsions:
REMARK  status: ('A' for Active; 'I' for Inactive)
ROOT
ATOM      1  N1  IND d   1       0.220  -0.847  -1.167  0.00  0.00    -0.196 N 
ATOM      2  C2  IND d   1       1.418  -1.298  -0.688  0.00  0.00     0.054 A 
ATOM      3  C3  IND d   1       1.363  -1.442   0.656  0.00  0.00    -0.031 A 
ATOM      4  C4  IND d   1      -0.621  -1.092   2.258  0.00  0.00     0.051 A 
ATOM      5  C5  IND d   1      -1.913  -0.648   2.292  0.00  0.00    -0.031 A 
ATOM      6  C6  IND d   1      -2.575  -0.243   1.151  0.00  0.00     0.015 A 
ATOM      7  C7  IND d   1      -1.969  -0.276  -0.074  0.00  0.00    -0.016 A 
ATOM      8  C8  IND d   1      -0.655  -0.719  -0.111  0.00  0.00    -0.047 A 
ATOM      9  C9  IND d   1       0.035  -1.092   1.050  0.00  0.00    -0.096 A 
ATOM     10  HN1 IND d   1       0.043  -0.672  -1.990  0.00  0.00     0.298 HD
ENDROOT
TORSDOF 0
ENDMDL
