MODEL 1
REMARK minimizedAffinity 6.98342323
REMARK minimizedRMSD -1
REMARK  0 active torsions:
REMARK  status: ('A' for Active; 'I' for Inactive)
ROOT
ATOM      1  N1  IND d   1       1.107  -0.460   2.611  0.00  0.00    -0.196 N 
ATOM      2  C2  IND d   1       2.307  -0.962   2.189  0.00  0.00     0.054 A 
ATOM      3  C3  IND d   1       2.255  -1.256   0.870  0.00  0.00    -0.031 A 
ATOM      4  C4  IND d   1       0.339  -0.899  -0.812  0.00  0.00     0.051 A 
ATOM      5  C5  IND d   1      -0.967  -0.503  -0.889  0.00  0.00    -0.031 A 
ATOM      6  C6  IND d   1      -1.661  -0.060   0.219  0.00  0.00     0.015 A 
ATOM      7  C7  IND d   1      -1.069   0.013   1.448  0.00  0.00    -0.016 A 
ATOM      8  C8  IND d   1       0.254  -0.395   1.531  0.00  0.00    -0.047 A 
ATOM      9  C9  IND d   1       0.951  -0.885   0.419  0.00  0.00    -0.096 A 
ATOM     10  HN1 IND d   1       0.918  -0.225   3.416  0.00  0.00     0.298 HD
ENDROOT
TORSDOF 0
ENDMDL
