MODEL 1
REMARK minimizedAffinity 1.37540114
REMARK minimizedRMSD -1
REMARK  0 active torsions:
REMARK  status: ('A' for Active; 'I' for Inactive)
ROOT
ATOM      1  N1  IND d   1       0.954  -1.249  -0.486  0.00  0.00    -0.196 N 
ATOM      2  C2  IND d   1       2.006  -1.627   0.300  0.00  0.00     0.054 A 
ATOM      3  C3  IND d   1       1.674  -1.534   1.608  0.00  0.00    -0.031 A 
ATOM      4  C4  IND d   1      -0.573  -0.880   2.681  0.00  0.00     0.051 A 
ATOM      5  C5  IND d   1      -1.821  -0.418   2.371  0.00  0.00    -0.031 A 
ATOM      6  C6  IND d   1      -2.217  -0.207   1.066  0.00  0.00     0.015 A 
ATOM      7  C7  IND d   1      -1.379  -0.463   0.017  0.00  0.00    -0.016 A 
ATOM      8  C8  IND d   1      -0.108  -0.926   0.329  0.00  0.00    -0.047 A 
ATOM      9  C9  IND d   1       0.313  -1.101   1.653  0.00  0.00    -0.096 A 
ATOM     10  HN1 IND d   1       0.956  -1.217  -1.345  0.00  0.00     0.298 HD
ENDROOT
TORSDOF 0
ENDMDL
