MODEL 1
REMARK minimizedAffinity 12.5178394
REMARK minimizedRMSD -1
REMARK  0 active torsions:
REMARK  status: ('A' for Active; 'I' for Inactive)
ROOT
ATOM      1  N1  IND d   1      -1.702  -0.943   1.561  0.00  0.00    -0.196 N 
ATOM      2  C2  IND d   1      -1.326  -1.436   2.779  0.00  0.00     0.054 A 
ATOM      3  C3  IND d   1       0.003  -1.685   2.796  0.00  0.00    -0.031 A 
ATOM      4  C4  IND d   1       1.770  -1.263   0.972  0.00  0.00     0.051 A 
ATOM      5  C5  IND d   1       1.902  -0.858  -0.326  0.00  0.00    -0.031 A 
ATOM      6  C6  IND d   1       0.818  -0.451  -1.077  0.00  0.00     0.015 A 
ATOM      7  C7  IND d   1      -0.443  -0.421  -0.550  0.00  0.00    -0.016 A 
ATOM      8  C8  IND d   1      -0.581  -0.838   0.766  0.00  0.00    -0.047 A 
ATOM      9  C9  IND d   1       0.509  -1.293   1.519  0.00  0.00    -0.096 A 
ATOM     10  HN1 IND d   1      -2.503  -0.734   1.330  0.00  0.00     0.298 HD
ENDROOT
TORSDOF 0
ENDMDL
