MODEL 1
REMARK minimizedAffinity -4.04076481
REMARK minimizedRMSD -1
REMARK  2 active torsions:
REMARK  status: ('A' for Active; 'I' for Inactive)
REMARK    1  A    between atoms: C1_2  and  C2_3 
REMARK    2  A    between atoms: C2_3  and  C3_4 
ROOT
ATOM      1  C3  UNL d   1       1.899   3.105   1.826  0.00  0.00    -0.075 A 
ATOM      2  C4  UNL d   1       2.583   1.902   1.597  0.00  0.00     0.002 A 
ATOM      3  C5  UNL d   1       1.982   0.873   0.872  0.00  0.00     0.002 A 
ATOM      4  C6  UNL d   1       0.689   1.027   0.378  0.00  0.00    -0.004 A 
ATOM      5  C7  UNL d   1      -0.007   2.211   0.615  0.00  0.00     0.002 A 
ATOM      6  C8  UNL d   1       0.594   3.245   1.336  0.00  0.00     0.002 A 
ENDROOT
BRANCH   1   7
ATOM      7  C2  UNL d   1       2.555   4.234   2.584  0.00  0.00     0.056 C 
BRANCH   7   8
ATOM      8  C1  UNL d   1       3.655   4.956   1.799  0.00  0.00     0.007 C 
ATOM      9  C   UNL d   1       3.115   6.000   0.831  0.00  0.00     0.009 C 
ENDBRANCH   7   8
ENDBRANCH   1   7
TORSDOF 2
ENDMDL
