MODEL 1
REMARK minimizedAffinity 3.33109975
REMARK minimizedRMSD -1
REMARK  2 active torsions:
REMARK  status: ('A' for Active; 'I' for Inactive)
REMARK    1  A    between atoms: C1_2  and  C2_3 
REMARK    2  A    between atoms: C2_3  and  C3_4 
ROOT
ATOM      1  C3  UNL d   1      -2.308   1.447   0.178  0.00  0.00    -0.075 A 
ATOM      2  C4  UNL d   1      -1.077   2.057  -0.105  0.00  0.00     0.002 A 
ATOM      3  C5  UNL d   1       0.108   1.534   0.415  0.00  0.00     0.002 A 
ATOM      4  C6  UNL d   1       0.077   0.404   1.229  0.00  0.00    -0.004 A 
ATOM      5  C7  UNL d   1      -1.142  -0.200   1.529  0.00  0.00     0.002 A 
ATOM      6  C8  UNL d   1      -2.329   0.318   1.007  0.00  0.00     0.002 A 
ENDROOT
BRANCH   1   7
ATOM      7  C2  UNL d   1      -3.590   1.990  -0.405  0.00  0.00     0.056 C 
BRANCH   7   8
ATOM      8  C1  UNL d   1      -4.856   1.498   0.305  0.00  0.00     0.007 C 
ATOM      9  C   UNL d   1      -5.999   2.502   0.260  0.00  0.00     0.009 C 
ENDBRANCH   7   8
ENDBRANCH   1   7
TORSDOF 2
ENDMDL
