MODEL 1
REMARK minimizedAffinity 2.53878403
REMARK minimizedRMSD -1
REMARK  2 active torsions:
REMARK  status: ('A' for Active; 'I' for Inactive)
REMARK    1  A    between atoms: C1_2  and  C2_3 
REMARK    2  A    between atoms: C2_3  and  C3_4 
ROOT
ATOM      1  C3  UNL d   1       2.405   2.379   1.274  0.00  0.00    -0.075 A 
ATOM      2  C4  UNL d   1       1.275   3.131   0.922  0.00  0.00     0.002 A 
ATOM      3  C5  UNL d   1       0.144   2.506   0.394  0.00  0.00     0.002 A 
ATOM      4  C6  UNL d   1       0.133   1.127   0.202  0.00  0.00    -0.004 A 
ATOM      5  C7  UNL d   1       1.256   0.372   0.533  0.00  0.00     0.002 A 
ATOM      6  C8  UNL d   1       2.387   0.993   1.065  0.00  0.00     0.002 A 
ENDROOT
BRANCH   1   7
ATOM      7  C2  UNL d   1       3.620   3.045   1.873  0.00  0.00     0.056 C 
BRANCH   7   8
ATOM      8  C1  UNL d   1       3.738   4.537   1.546  0.00  0.00     0.007 C 
ATOM      9  C   UNL d   1       4.450   5.335   2.631  0.00  0.00     0.009 C 
ENDBRANCH   7   8
ENDBRANCH   1   7
TORSDOF 2
ENDMDL
