MODEL 1
REMARK minimizedAffinity 1.38248837
REMARK minimizedRMSD -1
REMARK  2 active torsions:
REMARK  status: ('A' for Active; 'I' for Inactive)
REMARK    1  A    between atoms: C1_2  and  C2_3 
REMARK    2  A    between atoms: C2_3  and  C3_4 
ROOT
ATOM      1  C3  UNL d   1       1.309   1.557   1.347  0.00  0.00    -0.075 A 
ATOM      2  C4  UNL d   1       2.137   2.233   2.255  0.00  0.00     0.002 A 
ATOM      3  C5  UNL d   1       3.510   1.988   2.280  0.00  0.00     0.002 A 
ATOM      4  C6  UNL d   1       4.070   1.058   1.406  0.00  0.00    -0.004 A 
ATOM      5  C7  UNL d   1       3.255   0.369   0.511  0.00  0.00     0.002 A 
ATOM      6  C8  UNL d   1       1.881   0.616   0.481  0.00  0.00     0.002 A 
ENDROOT
BRANCH   1   7
ATOM      7  C2  UNL d   1      -0.174   1.840   1.295  0.00  0.00     0.056 C 
BRANCH   7   8
ATOM      8  C1  UNL d   1      -0.650   2.432  -0.036  0.00  0.00     0.007 C 
ATOM      9  C   UNL d   1      -2.027   1.935  -0.456  0.00  0.00     0.009 C 
ENDBRANCH   7   8
ENDBRANCH   1   7
TORSDOF 2
ENDMDL
