MODEL 1
REMARK minimizedAffinity 5.09144831
REMARK minimizedRMSD -1
REMARK  2 active torsions:
REMARK  status: ('A' for Active; 'I' for Inactive)
REMARK    1  A    between atoms: C1_2  and  C2_3 
REMARK    2  A    between atoms: C2_3  and  C3_4 
ROOT
ATOM      1  C3  UNL d   1       3.561   3.469   1.941  0.00  0.00    -0.075 A 
ATOM      2  C4  UNL d   1       2.908   4.707   2.039  0.00  0.00     0.002 A 
ATOM      3  C5  UNL d   1       3.631   5.897   1.964  0.00  0.00     0.002 A 
ATOM      4  C6  UNL d   1       5.014   5.866   1.801  0.00  0.00    -0.004 A 
ATOM      5  C7  UNL d   1       5.675   4.642   1.719  0.00  0.00     0.002 A 
ATOM      6  C8  UNL d   1       4.953   3.450   1.790  0.00  0.00     0.002 A 
ENDROOT
BRANCH   1   7
ATOM      7  C2  UNL d   1       2.780   2.178   1.992  0.00  0.00     0.056 C 
BRANCH   7   8
ATOM      8  C1  UNL d   1       1.261   2.369   2.053  0.00  0.00     0.007 C 
ATOM      9  C   UNL d   1       0.510   1.539   1.020  0.00  0.00     0.009 C 
ENDBRANCH   7   8
ENDBRANCH   1   7
TORSDOF 2
ENDMDL
