MODEL 1
REMARK minimizedAffinity 5.83895588
REMARK minimizedRMSD -1
REMARK  2 active torsions:
REMARK  status: ('A' for Active; 'I' for Inactive)
REMARK    1  A    between atoms: C1_2  and  C2_3 
REMARK    2  A    between atoms: C2_3  and  C3_4 
ROOT
ATOM      1  C3  UNL d   1       0.806   1.553   1.115  0.00  0.00    -0.075 A 
ATOM      2  C4  UNL d   1      -0.567   1.685   1.373  0.00  0.00     0.002 A 
ATOM      3  C5  UNL d   1      -1.012   2.305   2.541  0.00  0.00     0.002 A 
ATOM      4  C6  UNL d   1      -0.094   2.790   3.469  0.00  0.00    -0.004 A 
ATOM      5  C7  UNL d   1       1.272   2.650   3.231  0.00  0.00     0.002 A 
ATOM      6  C8  UNL d   1       1.721   2.034   2.062  0.00  0.00     0.002 A 
ENDROOT
BRANCH   1   7
ATOM      7  C2  UNL d   1       1.294   0.910  -0.161  0.00  0.00     0.056 C 
BRANCH   7   8
ATOM      8  C1  UNL d   1       2.045   1.866  -1.094  0.00  0.00     0.007 C 
ATOM      9  C   UNL d   1       1.824   1.561  -2.569  0.00  0.00     0.009 C 
ENDBRANCH   7   8
ENDBRANCH   1   7
TORSDOF 2
ENDMDL
