MODEL 1
REMARK minimizedAffinity 2.68002319
REMARK minimizedRMSD -1
REMARK  2 active torsions:
REMARK  status: ('A' for Active; 'I' for Inactive)
REMARK    1  A    between atoms: C1_2  and  C2_3 
REMARK    2  A    between atoms: C2_3  and  C3_4 
ROOT
ATOM      1  C3  UNL d   1       1.062   1.278   0.992  0.00  0.00    -0.075 A 
ATOM      2  C4  UNL d   1       1.783   2.090   1.880  0.00  0.00     0.002 A 
ATOM      3  C5  UNL d   1       1.120   2.854   2.840  0.00  0.00     0.002 A 
ATOM      4  C6  UNL d   1      -0.271   2.824   2.919  0.00  0.00    -0.004 A 
ATOM      5  C7  UNL d   1      -0.999   2.034   2.032  0.00  0.00     0.002 A 
ATOM      6  C8  UNL d   1      -0.337   1.266   1.073  0.00  0.00     0.002 A 
ENDROOT
BRANCH   1   7
ATOM      7  C2  UNL d   1       1.775   0.427  -0.030  0.00  0.00     0.056 C 
BRANCH   7   8
ATOM      8  C1  UNL d   1       2.523   1.231  -1.099  0.00  0.00     0.007 C 
ATOM      9  C   UNL d   1       1.892   1.125  -2.481  0.00  0.00     0.009 C 
ENDBRANCH   7   8
ENDBRANCH   1   7
TORSDOF 2
ENDMDL
