MODEL 1
REMARK minimizedAffinity 5.13860559
REMARK minimizedRMSD -1
REMARK  2 active torsions:
REMARK  status: ('A' for Active; 'I' for Inactive)
REMARK    1  A    between atoms: C1_2  and  C2_3 
REMARK    2  A    between atoms: C2_3  and  C3_4 
ROOT
ATOM      1  C3  UNL d   1       1.054   1.564   0.924  0.00  0.00    -0.075 A 
ATOM      2  C4  UNL d   1       1.689   2.392   1.861  0.00  0.00     0.002 A 
ATOM      3  C5  UNL d   1       0.939   3.163   2.749  0.00  0.00     0.002 A 
ATOM      4  C6  UNL d   1      -0.453   3.125   2.705  0.00  0.00    -0.004 A 
ATOM      5  C7  UNL d   1      -1.095   2.319   1.767  0.00  0.00     0.002 A 
ATOM      6  C8  UNL d   1      -0.347   1.543   0.880  0.00  0.00     0.002 A 
ENDROOT
BRANCH   1   7
ATOM      7  C2  UNL d   1       1.860   0.705  -0.021  0.00  0.00     0.056 C 
BRANCH   7   8
ATOM      8  C1  UNL d   1       1.740   1.113  -1.493  0.00  0.00     0.007 C 
ATOM      9  C   UNL d   1       2.947   1.890  -2.001  0.00  0.00     0.009 C 
ENDBRANCH   7   8
ENDBRANCH   1   7
TORSDOF 2
ENDMDL
