MODEL 1
REMARK minimizedAffinity 3.85133862
REMARK minimizedRMSD -1
REMARK  2 active torsions:
REMARK  status: ('A' for Active; 'I' for Inactive)
REMARK    1  A    between atoms: C1_2  and  C2_3 
REMARK    2  A    between atoms: C2_3  and  C3_4 
ROOT
ATOM      1  C3  UNL d   1       0.708   1.806   1.284  0.00  0.00    -0.075 A 
ATOM      2  C4  UNL d   1       1.836   2.468   1.789  0.00  0.00     0.002 A 
ATOM      3  C5  UNL d   1       1.757   3.198   2.975  0.00  0.00     0.002 A 
ATOM      4  C6  UNL d   1       0.550   3.284   3.665  0.00  0.00    -0.004 A 
ATOM      5  C7  UNL d   1      -0.581   2.644   3.164  0.00  0.00     0.002 A 
ATOM      6  C8  UNL d   1      -0.504   1.909   1.979  0.00  0.00     0.002 A 
ENDROOT
BRANCH   1   7
ATOM      7  C2  UNL d   1       0.794   0.991   0.016  0.00  0.00     0.056 C 
BRANCH   7   8
ATOM      8  C1  UNL d   1       2.220   0.582  -0.367  0.00  0.00     0.007 C 
ATOM      9  C   UNL d   1       2.466   0.596  -1.870  0.00  0.00     0.009 C 
ENDBRANCH   7   8
ENDBRANCH   1   7
TORSDOF 2
ENDMDL
