MODEL 1
REMARK minimizedAffinity 0.152442873
REMARK minimizedRMSD -1
REMARK  2 active torsions:
REMARK  status: ('A' for Active; 'I' for Inactive)
REMARK    1  A    between atoms: C1_2  and  C2_3 
REMARK    2  A    between atoms: C2_3  and  C3_4 
ROOT
ATOM      1  C3  UNL d   1       1.488   3.338   2.646  0.00  0.00    -0.075 A 
ATOM      2  C4  UNL d   1       1.770   2.409   1.633  0.00  0.00     0.002 A 
ATOM      3  C5  UNL d   1       0.755   1.616   1.098  0.00  0.00     0.002 A 
ATOM      4  C6  UNL d   1      -0.549   1.733   1.573  0.00  0.00    -0.004 A 
ATOM      5  C7  UNL d   1      -0.837   2.640   2.591  0.00  0.00     0.002 A 
ATOM      6  C8  UNL d   1       0.175   3.438   3.126  0.00  0.00     0.002 A 
ENDROOT
BRANCH   1   7
ATOM      7  C2  UNL d   1       2.577   4.220   3.210  0.00  0.00     0.056 C 
BRANCH   7   8
ATOM      8  C1  UNL d   1       3.256   5.115   2.168  0.00  0.00     0.007 C 
ATOM      9  C   UNL d   1       4.355   5.991   2.754  0.00  0.00     0.009 C 
ENDBRANCH   7   8
ENDBRANCH   1   7
TORSDOF 2
ENDMDL
