MODEL 1
REMARK minimizedAffinity -2.50727868
REMARK minimizedRMSD -1
REMARK  1 active torsions:
REMARK  status: ('A' for Active; 'I' for Inactive)
REMARK    1  A    between atoms: C3_4  and  O_7 
ROOT
ATOM      1  C   UNL d   1       1.858  -0.605   0.281  0.00  0.00    -0.033 A 
ATOM      2  C1  UNL d   1       1.181  -1.449   1.164  0.00  0.00     0.039 A 
ATOM      3  C2  UNL d   1      -0.215  -1.464   1.186  0.00  0.00    -0.080 A 
ATOM      4  C3  UNL d   1      -0.921  -0.631   0.322  0.00  0.00     0.150 A 
ATOM      5  C4  UNL d   1      -0.253   0.209  -0.563  0.00  0.00    -0.007 A 
ATOM      6  C5  UNL d   1       1.141   0.223  -0.583  0.00  0.00     0.039 A 
ENDROOT
BRANCH   4   7
ATOM      7  O   UNL d   1      -2.284  -0.607   0.310  0.00  0.00    -0.526 OA
ATOM      8  H5  UNL d   1      -2.608  -1.218   0.993  0.00  0.00     0.418 HD
ENDBRANCH   4   7
TORSDOF 1
ENDMDL
