MODEL 1
REMARK minimizedAffinity -1.36053848
REMARK minimizedRMSD -1
REMARK  1 active torsions:
REMARK  status: ('A' for Active; 'I' for Inactive)
REMARK    1  A    between atoms: C3_4  and  O_7 
ROOT
ATOM      1  C   UNL d   1       2.561   2.076   2.494  0.00  0.00    -0.033 A 
ATOM      2  C1  UNL d   1       2.688   3.447   2.728  0.00  0.00     0.039 A 
ATOM      3  C2  UNL d   1       3.173   4.286   1.723  0.00  0.00    -0.080 A 
ATOM      4  C3  UNL d   1       3.525   3.744   0.490  0.00  0.00     0.150 A 
ATOM      5  C4  UNL d   1       3.397   2.380   0.249  0.00  0.00    -0.007 A 
ATOM      6  C5  UNL d   1       2.914   1.543   1.254  0.00  0.00     0.039 A 
ENDROOT
BRANCH   4   7
ATOM      7  O   UNL d   1       4.007   4.523  -0.519  0.00  0.00    -0.526 OA
ATOM      8  H5  UNL d   1       4.068   5.438  -0.199  0.00  0.00     0.418 HD
ENDBRANCH   4   7
TORSDOF 1
ENDMDL
