MODEL 1
REMARK minimizedAffinity -4.86234951
REMARK minimizedRMSD -1
REMARK  1 active torsions:
REMARK  status: ('A' for Active; 'I' for Inactive)
REMARK    1  A    between atoms: C3_4  and  O_7 
ROOT
ATOM      1  C   UNL d   1       1.074  -0.713   0.632  0.00  0.00    -0.033 A 
ATOM      2  C1  UNL d   1       0.465   0.098  -0.327  0.00  0.00     0.039 A 
ATOM      3  C2  UNL d   1      -0.927   0.192  -0.381  0.00  0.00    -0.080 A 
ATOM      4  C3  UNL d   1      -1.697  -0.528   0.528  0.00  0.00     0.150 A 
ATOM      5  C4  UNL d   1      -1.096  -1.335   1.489  0.00  0.00    -0.007 A 
ATOM      6  C5  UNL d   1       0.294  -1.428   1.541  0.00  0.00     0.039 A 
ENDROOT
BRANCH   4   7
ATOM      7  O   UNL d   1      -3.059  -0.472   0.511  0.00  0.00    -0.526 OA
ATOM      8  H5  UNL d   1      -3.334   0.101  -0.224  0.00  0.00     0.418 HD
ENDBRANCH   4   7
TORSDOF 1
ENDMDL
