MODEL 1
REMARK minimizedAffinity -2.70896578
REMARK minimizedRMSD -1
REMARK  1 active torsions:
REMARK  status: ('A' for Active; 'I' for Inactive)
REMARK    1  A    between atoms: C3_4  and  O_7 
ROOT
ATOM      1  C   UNL d   1       0.388  -0.321   0.565  0.00  0.00    -0.033 A 
ATOM      2  C1  UNL d   1      -0.182   0.194  -0.601  0.00  0.00     0.039 A 
ATOM      3  C2  UNL d   1      -1.548   0.036  -0.841  0.00  0.00    -0.080 A 
ATOM      4  C3  UNL d   1      -2.333  -0.637   0.092  0.00  0.00     0.150 A 
ATOM      5  C4  UNL d   1      -1.772  -1.149   1.257  0.00  0.00    -0.007 A 
ATOM      6  C5  UNL d   1      -0.408  -0.992   1.495  0.00  0.00     0.039 A 
ENDROOT
BRANCH   4   7
ATOM      7  O   UNL d   1      -3.670  -0.819  -0.101  0.00  0.00    -0.526 OA
ATOM      8  H5  UNL d   1      -3.912  -0.438  -0.961  0.00  0.00     0.418 HD
ENDBRANCH   4   7
TORSDOF 1
ENDMDL
