MODEL 1
REMARK minimizedAffinity -3.8002677
REMARK minimizedRMSD -1
REMARK  1 active torsions:
REMARK  status: ('A' for Active; 'I' for Inactive)
REMARK    1  A    between atoms: C3_4  and  O_7 
ROOT
ATOM      1  C   UNL d   1       3.048   3.530   1.480  0.00  0.00    -0.033 A 
ATOM      2  C1  UNL d   1       2.284   2.477   1.986  0.00  0.00     0.039 A 
ATOM      3  C2  UNL d   1       2.117   1.310   1.237  0.00  0.00    -0.080 A 
ATOM      4  C3  UNL d   1       2.718   1.210  -0.014  0.00  0.00     0.150 A 
ATOM      5  C4  UNL d   1       3.484   2.254  -0.523  0.00  0.00    -0.007 A 
ATOM      6  C5  UNL d   1       3.649   3.418   0.225  0.00  0.00     0.039 A 
ENDROOT
BRANCH   4   7
ATOM      7  O   UNL d   1       2.580   0.093  -0.784  0.00  0.00    -0.526 OA
ATOM      8  H5  UNL d   1       2.001  -0.533  -0.317  0.00  0.00     0.418 HD
ENDBRANCH   4   7
TORSDOF 1
ENDMDL
