MODEL 1
REMARK minimizedAffinity -3.95861697
REMARK minimizedRMSD -1
REMARK  1 active torsions:
REMARK  status: ('A' for Active; 'I' for Inactive)
REMARK    1  A    between atoms: C3_4  and  O_7 
ROOT
ATOM      1  C   UNL d   1       0.090  -0.218   0.700  0.00  0.00    -0.033 A 
ATOM      2  C1  UNL d   1      -0.780  -0.862   1.582  0.00  0.00     0.039 A 
ATOM      3  C2  UNL d   1      -2.104  -1.101   1.209  0.00  0.00    -0.080 A 
ATOM      4  C3  UNL d   1      -2.545  -0.692  -0.046  0.00  0.00     0.150 A 
ATOM      5  C4  UNL d   1      -1.682  -0.053  -0.931  0.00  0.00    -0.007 A 
ATOM      6  C5  UNL d   1      -0.360   0.185  -0.557  0.00  0.00     0.039 A 
ENDROOT
BRANCH   4   7
ATOM      7  O   UNL d   1      -3.829  -0.898  -0.453  0.00  0.00    -0.526 OA
ATOM      8  H5  UNL d   1      -4.317  -1.323   0.272  0.00  0.00     0.418 HD
ENDBRANCH   4   7
TORSDOF 1
ENDMDL
