MODEL 1
REMARK minimizedAffinity -1.12378347
REMARK minimizedRMSD -1
REMARK  1 active torsions:
REMARK  status: ('A' for Active; 'I' for Inactive)
REMARK    1  A    between atoms: C3_4  and  O_7 
ROOT
ATOM      1  C   UNL d   1      -0.338   0.747  -0.011  0.00  0.00    -0.033 A 
ATOM      2  C1  UNL d   1       0.920   0.332   0.430  0.00  0.00     0.039 A 
ATOM      3  C2  UNL d   1       1.055  -0.863   1.139  0.00  0.00    -0.080 A 
ATOM      4  C3  UNL d   1      -0.075  -1.633   1.401  0.00  0.00     0.150 A 
ATOM      5  C4  UNL d   1      -1.331  -1.228   0.962  0.00  0.00    -0.007 A 
ATOM      6  C5  UNL d   1      -1.464  -0.034   0.254  0.00  0.00     0.039 A 
ENDROOT
BRANCH   4   7
ATOM      7  O   UNL d   1       0.005  -2.804   2.094  0.00  0.00    -0.526 OA
ATOM      8  H5  UNL d   1       0.930  -2.942   2.358  0.00  0.00     0.418 HD
ENDBRANCH   4   7
TORSDOF 1
ENDMDL
