MODEL 1
REMARK minimizedAffinity -0.944005966
REMARK minimizedRMSD -1
REMARK  1 active torsions:
REMARK  status: ('A' for Active; 'I' for Inactive)
REMARK    1  A    between atoms: C3_4  and  O_7 
ROOT
ATOM      1  C   UNL d   1      -1.151  -1.407   1.805  0.00  0.00    -0.033 A 
ATOM      2  C1  UNL d   1      -1.373  -0.291   0.996  0.00  0.00     0.039 A 
ATOM      3  C2  UNL d   1      -0.294   0.461   0.528  0.00  0.00    -0.080 A 
ATOM      4  C3  UNL d   1       1.001   0.086   0.875  0.00  0.00     0.150 A 
ATOM      5  C4  UNL d   1       1.230  -1.027   1.678  0.00  0.00    -0.007 A 
ATOM      6  C5  UNL d   1       0.151  -1.776   2.145  0.00  0.00     0.039 A 
ENDROOT
BRANCH   4   7
ATOM      7  O   UNL d   1       2.086   0.791   0.446  0.00  0.00    -0.526 OA
ATOM      8  H5  UNL d   1       1.774   1.549  -0.075  0.00  0.00     0.418 HD
ENDBRANCH   4   7
TORSDOF 1
ENDMDL
