MODEL 1
REMARK minimizedAffinity 1.65901291
REMARK minimizedRMSD -1
REMARK  1 active torsions:
REMARK  status: ('A' for Active; 'I' for Inactive)
REMARK    1  A    between atoms: C3_4  and  O_7 
ROOT
ATOM      1  C   UNL d   1      -1.339  -1.774   1.921  0.00  0.00    -0.033 A 
ATOM      2  C1  UNL d   1      -0.024  -2.184   1.692  0.00  0.00     0.039 A 
ATOM      3  C2  UNL d   1       0.873  -1.328   1.050  0.00  0.00    -0.080 A 
ATOM      4  C3  UNL d   1       0.444  -0.067   0.645  0.00  0.00     0.150 A 
ATOM      5  C4  UNL d   1      -0.863   0.349   0.874  0.00  0.00    -0.007 A 
ATOM      6  C5  UNL d   1      -1.758  -0.508   1.513  0.00  0.00     0.039 A 
ENDROOT
BRANCH   4   7
ATOM      7  O   UNL d   1       1.283   0.801   0.011  0.00  0.00    -0.526 OA
ATOM      8  H5  UNL d   1       2.145   0.368  -0.105  0.00  0.00     0.418 HD
ENDBRANCH   4   7
TORSDOF 1
ENDMDL
