MODEL 1
REMARK minimizedAffinity -2.65483737
REMARK minimizedRMSD -1
REMARK  1 active torsions:
REMARK  status: ('A' for Active; 'I' for Inactive)
REMARK    1  A    between atoms: C3_4  and  O_7 
ROOT
ATOM      1  C   UNL d   1      -2.043  -0.846  -1.458  0.00  0.00    -0.033 A 
ATOM      2  C1  UNL d   1      -1.785  -1.004  -0.094  0.00  0.00     0.039 A 
ATOM      3  C2  UNL d   1      -0.586  -0.540   0.450  0.00  0.00    -0.080 A 
ATOM      4  C3  UNL d   1       0.346   0.080  -0.379  0.00  0.00     0.150 A 
ATOM      5  C4  UNL d   1       0.094   0.243  -1.737  0.00  0.00    -0.007 A 
ATOM      6  C5  UNL d   1      -1.104  -0.221  -2.279  0.00  0.00     0.039 A 
ENDROOT
BRANCH   4   7
ATOM      7  O   UNL d   1       1.532   0.544   0.106  0.00  0.00    -0.526 OA
ATOM      8  H5  UNL d   1       1.580   0.336   1.054  0.00  0.00     0.418 HD
ENDBRANCH   4   7
TORSDOF 1
ENDMDL
