MODEL 1
REMARK minimizedAffinity -0.771386147
REMARK minimizedRMSD -1
REMARK  1 active torsions:
REMARK  status: ('A' for Active; 'I' for Inactive)
REMARK    1  A    between atoms: C3_4  and  O_7 
ROOT
ATOM      1  C   UNL d   1       1.926  -0.597  -3.624  0.00  0.00    -0.033 A 
ATOM      2  C1  UNL d   1       0.651  -0.258  -3.168  0.00  0.00     0.039 A 
ATOM      3  C2  UNL d   1       0.447   0.045  -1.820  0.00  0.00    -0.080 A 
ATOM      4  C3  UNL d   1       1.525   0.007  -0.940  0.00  0.00     0.150 A 
ATOM      5  C4  UNL d   1       2.799  -0.327  -1.388  0.00  0.00    -0.007 A 
ATOM      6  C5  UNL d   1       3.001  -0.630  -2.734  0.00  0.00     0.039 A 
ENDROOT
BRANCH   4   7
ATOM      7  O   UNL d   1       1.374   0.290   0.385  0.00  0.00    -0.526 OA
ATOM      8  H5  UNL d   1       0.435   0.474   0.555  0.00  0.00     0.418 HD
ENDBRANCH   4   7
TORSDOF 1
ENDMDL
