MODEL 1
REMARK minimizedAffinity -1.53459966
REMARK minimizedRMSD -1
REMARK  1 active torsions:
REMARK  status: ('A' for Active; 'I' for Inactive)
REMARK    1  A    between atoms: C3_4  and  O_7 
ROOT
ATOM      1  C   UNL d   1       4.524   3.775  -1.638  0.00  0.00    -0.033 A 
ATOM      2  C1  UNL d   1       4.084   4.758  -0.750  0.00  0.00     0.039 A 
ATOM      3  C2  UNL d   1       3.478   4.394   0.454  0.00  0.00    -0.080 A 
ATOM      4  C3  UNL d   1       3.319   3.045   0.757  0.00  0.00     0.150 A 
ATOM      5  C4  UNL d   1       3.758   2.060  -0.121  0.00  0.00    -0.007 A 
ATOM      6  C5  UNL d   1       4.362   2.426  -1.323  0.00  0.00     0.039 A 
ENDROOT
BRANCH   4   7
ATOM      7  O   UNL d   1       2.728   2.640   1.918  0.00  0.00    -0.526 OA
ATOM      8  H5  UNL d   1       2.450   3.429   2.412  0.00  0.00     0.418 HD
ENDBRANCH   4   7
TORSDOF 1
ENDMDL
