MODEL 1
REMARK minimizedAffinity -4.99904156
REMARK minimizedRMSD -1
REMARK  1 active torsions:
REMARK  status: ('A' for Active; 'I' for Inactive)
REMARK    1  A    between atoms: C3_4  and  O_7 
ROOT
ATOM      1  C   UNL d   1      -2.767  -1.534  -0.651  0.00  0.00    -0.033 A 
ATOM      2  C1  UNL d   1      -2.106  -0.936  -1.725  0.00  0.00     0.039 A 
ATOM      3  C2  UNL d   1      -0.965  -0.163  -1.501  0.00  0.00    -0.080 A 
ATOM      4  C3  UNL d   1      -0.495   0.002  -0.201  0.00  0.00     0.150 A 
ATOM      5  C4  UNL d   1      -1.147  -0.595   0.873  0.00  0.00    -0.007 A 
ATOM      6  C5  UNL d   1      -2.287  -1.365   0.648  0.00  0.00     0.039 A 
ENDROOT
BRANCH   4   7
ATOM      7  O   UNL d   1       0.612   0.752   0.067  0.00  0.00    -0.526 OA
ATOM      8  H5  UNL d   1       0.940   1.126  -0.767  0.00  0.00     0.418 HD
ENDBRANCH   4   7
TORSDOF 1
ENDMDL
