MODEL 1
REMARK minimizedAffinity -4.1128006
REMARK minimizedRMSD -1
REMARK  1 active torsions:
REMARK  status: ('A' for Active; 'I' for Inactive)
REMARK    1  A    between atoms: C3_4  and  O_7 
ROOT
ATOM      1  C   UNL d   1       0.851  -0.352   0.466  0.00  0.00    -0.033 A 
ATOM      2  C1  UNL d   1       0.930  -0.061  -0.898  0.00  0.00     0.039 A 
ATOM      3  C2  UNL d   1      -0.172  -0.280  -1.726  0.00  0.00    -0.080 A 
ATOM      4  C3  UNL d   1      -1.346  -0.790  -1.179  0.00  0.00     0.150 A 
ATOM      5  C4  UNL d   1      -1.434  -1.080   0.179  0.00  0.00    -0.007 A 
ATOM      6  C5  UNL d   1      -0.331  -0.860   1.004  0.00  0.00     0.039 A 
ENDROOT
BRANCH   4   7
ATOM      7  O   UNL d   1      -2.447  -1.026  -1.948  0.00  0.00    -0.526 OA
ATOM      8  H5  UNL d   1      -2.231  -0.807  -2.870  0.00  0.00     0.418 HD
ENDBRANCH   4   7
TORSDOF 1
ENDMDL
