MODEL 1
REMARK minimizedAffinity -3.85556388
REMARK minimizedRMSD -1
REMARK  1 active torsions:
REMARK  status: ('A' for Active; 'I' for Inactive)
REMARK    1  A    between atoms: C3_4  and  O_7 
ROOT
ATOM      1  C   UNL d   1      -2.954  -0.833  -0.597  0.00  0.00    -0.033 A 
ATOM      2  C1  UNL d   1      -2.354  -0.941   0.659  0.00  0.00     0.039 A 
ATOM      3  C2  UNL d   1      -0.996  -0.657   0.812  0.00  0.00    -0.080 A 
ATOM      4  C3  UNL d   1      -0.250  -0.265  -0.297  0.00  0.00     0.150 A 
ATOM      5  C4  UNL d   1      -0.843  -0.152  -1.550  0.00  0.00    -0.007 A 
ATOM      6  C5  UNL d   1      -2.199  -0.437  -1.701  0.00  0.00     0.039 A 
ENDROOT
BRANCH   4   7
ATOM      7  O   UNL d   1       1.080   0.018  -0.197  0.00  0.00    -0.526 OA
ATOM      8  H5  UNL d   1       1.358  -0.131   0.722  0.00  0.00     0.418 HD
ENDBRANCH   4   7
TORSDOF 1
ENDMDL
