MODEL 1
REMARK minimizedAffinity -4.45414543
REMARK minimizedRMSD -1
REMARK  2 active torsions:
REMARK  status: ('A' for Active; 'I' for Inactive)
REMARK    1  A    between atoms: C1_2  and  C2_3 
REMARK    2  A    between atoms: C2_3  and  C3_4 
ROOT
ATOM      1  C3  UNL d   1       2.351   0.302  -3.446  0.00  0.00    -0.075 A 
ATOM      2  C4  UNL d   1       2.602  -0.984  -3.947  0.00  0.00     0.002 A 
ATOM      3  C5  UNL d   1       1.686  -2.016  -3.739  0.00  0.00     0.002 A 
ATOM      4  C6  UNL d   1       0.516  -1.779  -3.022  0.00  0.00    -0.004 A 
ATOM      5  C7  UNL d   1       0.264  -0.510  -2.505  0.00  0.00     0.002 A 
ATOM      6  C8  UNL d   1       1.177   0.526  -2.715  0.00  0.00     0.002 A 
ENDROOT
BRANCH   1   7
ATOM      7  C2  UNL d   1       3.324   1.430  -3.692  0.00  0.00     0.056 C 
BRANCH   7   8
ATOM      8  C1  UNL d   1       4.498   1.054  -4.602  0.00  0.00     0.007 C 
ATOM      9  C   UNL d   1       5.146   2.258  -5.274  0.00  0.00     0.009 C 
ENDBRANCH   7   8
ENDBRANCH   1   7
TORSDOF 2
ENDMDL
