MODEL 1
REMARK minimizedAffinity -5.32403755
REMARK minimizedRMSD -1
REMARK  2 active torsions:
REMARK  status: ('A' for Active; 'I' for Inactive)
REMARK    1  A    between atoms: C1_2  and  C2_3 
REMARK    2  A    between atoms: C2_3  and  C3_4 
ROOT
ATOM      1  C3  UNL d   1      -0.504   0.031   1.222  0.00  0.00    -0.075 A 
ATOM      2  C4  UNL d   1      -1.861   0.034   0.870  0.00  0.00     0.002 A 
ATOM      3  C5  UNL d   1      -2.847  -0.119   1.846  0.00  0.00     0.002 A 
ATOM      4  C6  UNL d   1      -2.488  -0.286   3.182  0.00  0.00    -0.004 A 
ATOM      5  C7  UNL d   1      -1.142  -0.307   3.540  0.00  0.00     0.002 A 
ATOM      6  C8  UNL d   1      -0.154  -0.151   2.567  0.00  0.00     0.002 A 
ENDROOT
BRANCH   1   7
ATOM      7  C2  UNL d   1       0.566   0.225   0.174  0.00  0.00     0.056 C 
BRANCH   7   8
ATOM      8  C1  UNL d   1       0.021   0.518  -1.228  0.00  0.00     0.007 C 
ATOM      9  C   UNL d   1       0.513  -0.466  -2.281  0.00  0.00     0.009 C 
ENDBRANCH   7   8
ENDBRANCH   1   7
TORSDOF 2
ENDMDL
