MODEL 1
REMARK minimizedAffinity -5.3500514
REMARK minimizedRMSD -1
REMARK  2 active torsions:
REMARK  status: ('A' for Active; 'I' for Inactive)
REMARK    1  A    between atoms: C1_2  and  C2_3 
REMARK    2  A    between atoms: C2_3  and  C3_4 
ROOT
ATOM      1  C3  UNL d   1       3.726   2.080  -4.537  0.00  0.00    -0.075 A 
ATOM      2  C4  UNL d   1       5.125   2.164  -4.558  0.00  0.00     0.002 A 
ATOM      3  C5  UNL d   1       5.763   3.173  -5.280  0.00  0.00     0.002 A 
ATOM      4  C6  UNL d   1       5.013   4.101  -5.998  0.00  0.00    -0.004 A 
ATOM      5  C7  UNL d   1       3.622   4.017  -5.998  0.00  0.00     0.002 A 
ATOM      6  C8  UNL d   1       2.981   3.012  -5.273  0.00  0.00     0.002 A 
ENDROOT
BRANCH   1   7
ATOM      7  C2  UNL d   1       3.028   1.009  -3.733  0.00  0.00     0.056 C 
BRANCH   7   8
ATOM      8  C1  UNL d   1       3.340  -0.419  -4.193  0.00  0.00     0.007 C 
ATOM      9  C   UNL d   1       2.334  -1.446  -3.689  0.00  0.00     0.009 C 
ENDBRANCH   7   8
ENDBRANCH   1   7
TORSDOF 2
ENDMDL
