MODEL 1
REMARK minimizedAffinity -4.06296825
REMARK minimizedRMSD -1
REMARK  2 active torsions:
REMARK  status: ('A' for Active; 'I' for Inactive)
REMARK    1  A    between atoms: C1_2  and  C2_3 
REMARK    2  A    between atoms: C2_3  and  C3_4 
ROOT
ATOM      1  C3  UNL d   1       0.059   0.113  -0.501  0.00  0.00    -0.075 A 
ATOM      2  C4  UNL d   1       0.979   0.554   0.463  0.00  0.00     0.002 A 
ATOM      3  C5  UNL d   1       0.686   0.447   1.823  0.00  0.00     0.002 A 
ATOM      4  C6  UNL d   1      -0.531  -0.092   2.236  0.00  0.00    -0.004 A 
ATOM      5  C7  UNL d   1      -1.458  -0.518   1.288  0.00  0.00     0.002 A 
ATOM      6  C8  UNL d   1      -1.166  -0.416  -0.074  0.00  0.00     0.002 A 
ENDROOT
BRANCH   1   7
ATOM      7  C2  UNL d   1       0.382   0.199  -1.973  0.00  0.00     0.056 C 
BRANCH   7   8
ATOM      8  C1  UNL d   1       0.274  -1.137  -2.715  0.00  0.00     0.007 C 
ATOM      9  C   UNL d   1       1.621  -1.679  -3.175  0.00  0.00     0.009 C 
ENDBRANCH   7   8
ENDBRANCH   1   7
TORSDOF 2
ENDMDL
