MODEL 1
REMARK minimizedAffinity -1.14958727
REMARK minimizedRMSD -1
REMARK  2 active torsions:
REMARK  status: ('A' for Active; 'I' for Inactive)
REMARK    1  A    between atoms: C1_2  and  C2_3 
REMARK    2  A    between atoms: C2_3  and  C3_4 
ROOT
ATOM      1  C3  UNL d   1       0.404   0.039  -0.479  0.00  0.00    -0.075 A 
ATOM      2  C4  UNL d   1       1.151   0.257   0.688  0.00  0.00     0.002 A 
ATOM      3  C5  UNL d   1       0.547   0.167   1.942  0.00  0.00     0.002 A 
ATOM      4  C6  UNL d   1      -0.809  -0.131   2.046  0.00  0.00    -0.004 A 
ATOM      5  C7  UNL d   1      -1.565  -0.333   0.893  0.00  0.00     0.002 A 
ATOM      6  C8  UNL d   1      -0.963  -0.248  -0.363  0.00  0.00     0.002 A 
ENDROOT
BRANCH   1   7
ATOM      7  C2  UNL d   1       1.058   0.106  -1.838  0.00  0.00     0.056 C 
BRANCH   7   8
ATOM      8  C1  UNL d   1       0.768  -1.105  -2.731  0.00  0.00     0.007 C 
ATOM      9  C   UNL d   1       1.959  -1.522  -3.583  0.00  0.00     0.009 C 
ENDBRANCH   7   8
ENDBRANCH   1   7
TORSDOF 2
ENDMDL
