MODEL 1
REMARK minimizedAffinity -2.89737201
REMARK minimizedRMSD -1
REMARK  2 active torsions:
REMARK  status: ('A' for Active; 'I' for Inactive)
REMARK    1  A    between atoms: C1_2  and  C2_3 
REMARK    2  A    between atoms: C2_3  and  C3_4 
ROOT
ATOM      1  C3  UNL d   1       0.134   0.461  -0.680  0.00  0.00    -0.075 A 
ATOM      2  C4  UNL d   1      -0.905  -0.151   0.036  0.00  0.00     0.002 A 
ATOM      3  C5  UNL d   1      -0.777  -0.391   1.404  0.00  0.00     0.002 A 
ATOM      4  C6  UNL d   1       0.392  -0.031   2.071  0.00  0.00    -0.004 A 
ATOM      5  C7  UNL d   1       1.437   0.563   1.366  0.00  0.00     0.002 A 
ATOM      6  C8  UNL d   1       1.310   0.807  -0.002  0.00  0.00     0.002 A 
ENDROOT
BRANCH   1   7
ATOM      7  C2  UNL d   1      -0.011   0.750  -2.155  0.00  0.00     0.056 C 
BRANCH   7   8
ATOM      8  C1  UNL d   1       1.038   0.057  -3.032  0.00  0.00     0.007 C 
ATOM      9  C   UNL d   1       0.518  -1.207  -3.705  0.00  0.00     0.009 C 
ENDBRANCH   7   8
ENDBRANCH   1   7
TORSDOF 2
ENDMDL
