MODEL 1
REMARK minimizedAffinity -5.56010389
REMARK minimizedRMSD -1
REMARK  2 active torsions:
REMARK  status: ('A' for Active; 'I' for Inactive)
REMARK    1  A    between atoms: C1_2  and  C2_3 
REMARK    2  A    between atoms: C2_3  and  C3_4 
ROOT
ATOM      1  C3  UNL d   1       0.019   0.450  -0.356  0.00  0.00    -0.075 A 
ATOM      2  C4  UNL d   1       0.720   0.412   0.858  0.00  0.00     0.002 A 
ATOM      3  C5  UNL d   1       0.033   0.383   2.072  0.00  0.00     0.002 A 
ATOM      4  C6  UNL d   1      -1.359   0.402   2.088  0.00  0.00    -0.004 A 
ATOM      5  C7  UNL d   1      -2.066   0.456   0.889  0.00  0.00     0.002 A 
ATOM      6  C8  UNL d   1      -1.382   0.481  -0.327  0.00  0.00     0.002 A 
ENDROOT
BRANCH   1   7
ATOM      7  C2  UNL d   1       0.756   0.452  -1.674  0.00  0.00     0.056 C 
BRANCH   7   8
ATOM      8  C1  UNL d   1       0.349  -0.685  -2.617  0.00  0.00     0.007 C 
ATOM      9  C   UNL d   1       1.363  -0.937  -3.726  0.00  0.00     0.009 C 
ENDBRANCH   7   8
ENDBRANCH   1   7
TORSDOF 2
ENDMDL
