MODEL 1
REMARK minimizedAffinity -5.4452281
REMARK minimizedRMSD -1
REMARK  2 active torsions:
REMARK  status: ('A' for Active; 'I' for Inactive)
REMARK    1  A    between atoms: C1_2  and  C2_3 
REMARK    2  A    between atoms: C2_3  and  C3_4 
ROOT
ATOM      1  C3  UNL d   1       0.143   0.212   0.800  0.00  0.00    -0.075 A 
ATOM      2  C4  UNL d   1      -1.069   0.501   1.445  0.00  0.00     0.002 A 
ATOM      3  C5  UNL d   1      -1.300   0.061   2.748  0.00  0.00     0.002 A 
ATOM      4  C6  UNL d   1      -0.330  -0.681   3.419  0.00  0.00    -0.004 A 
ATOM      5  C7  UNL d   1       0.870  -0.989   2.782  0.00  0.00     0.002 A 
ATOM      6  C8  UNL d   1       1.106  -0.546   1.479  0.00  0.00     0.002 A 
ENDROOT
BRANCH   1   7
ATOM      7  C2  UNL d   1       0.411   0.710  -0.600  0.00  0.00     0.056 C 
BRANCH   7   8
ATOM      8  C1  UNL d   1       0.780  -0.395  -1.595  0.00  0.00     0.007 C 
ATOM      9  C   UNL d   1       0.559   0.007  -3.047  0.00  0.00     0.009 C 
ENDBRANCH   7   8
ENDBRANCH   1   7
TORSDOF 2
ENDMDL
