MODEL 1
REMARK minimizedAffinity -4.30222082
REMARK minimizedRMSD -1
REMARK  2 active torsions:
REMARK  status: ('A' for Active; 'I' for Inactive)
REMARK    1  A    between atoms: C1_2  and  C2_3 
REMARK    2  A    between atoms: C2_3  and  C3_4 
ROOT
ATOM      1  C3  UNL d   1       0.832   0.037  -1.377  0.00  0.00    -0.075 A 
ATOM      2  C4  UNL d   1       0.080   0.563  -2.438  0.00  0.00     0.002 A 
ATOM      3  C5  UNL d   1       0.084  -0.060  -3.686  0.00  0.00     0.002 A 
ATOM      4  C6  UNL d   1       0.846  -1.208  -3.893  0.00  0.00    -0.004 A 
ATOM      5  C7  UNL d   1       1.610  -1.729  -2.851  0.00  0.00     0.002 A 
ATOM      6  C8  UNL d   1       1.605  -1.110  -1.600  0.00  0.00     0.002 A 
ENDROOT
BRANCH   1   7
ATOM      7  C2  UNL d   1       0.809   0.690  -0.016  0.00  0.00     0.056 C 
BRANCH   7   8
ATOM      8  C1  UNL d   1       1.572  -0.088   1.062  0.00  0.00     0.007 C 
ATOM      9  C   UNL d   1       0.908  -0.024   2.431  0.00  0.00     0.009 C 
ENDBRANCH   7   8
ENDBRANCH   1   7
TORSDOF 2
ENDMDL
