MODEL 1
REMARK minimizedAffinity -5.59357262
REMARK minimizedRMSD -1
REMARK  2 active torsions:
REMARK  status: ('A' for Active; 'I' for Inactive)
REMARK    1  A    between atoms: C1_2  and  C2_3 
REMARK    2  A    between atoms: C2_3  and  C3_4 
ROOT
ATOM      1  C3  UNL d   1      -0.052  -0.061   0.114  0.00  0.00    -0.075 A 
ATOM      2  C4  UNL d   1       1.060   0.264   0.904  0.00  0.00     0.002 A 
ATOM      3  C5  UNL d   1       1.047   0.022   2.278  0.00  0.00     0.002 A 
ATOM      4  C6  UNL d   1      -0.079  -0.536   2.880  0.00  0.00    -0.004 A 
ATOM      5  C7  UNL d   1      -1.195  -0.847   2.107  0.00  0.00     0.002 A 
ATOM      6  C8  UNL d   1      -1.184  -0.611   0.731  0.00  0.00     0.002 A 
ENDROOT
BRANCH   1   7
ATOM      7  C2  UNL d   1      -0.034   0.170  -1.378  0.00  0.00     0.056 C 
BRANCH   7   8
ATOM      8  C1  UNL d   1       0.987  -0.691  -2.130  0.00  0.00     0.007 C 
ATOM      9  C   UNL d   1       0.342  -1.733  -3.034  0.00  0.00     0.009 C 
ENDBRANCH   7   8
ENDBRANCH   1   7
TORSDOF 2
ENDMDL
