MODEL 1
REMARK minimizedAffinity -3.59159064
REMARK minimizedRMSD -1
REMARK  2 active torsions:
REMARK  status: ('A' for Active; 'I' for Inactive)
REMARK    1  A    between atoms: C1_2  and  C2_3 
REMARK    2  A    between atoms: C2_3  and  C3_4 
ROOT
ATOM      1  C3  UNL d   1       0.227   0.223  -0.804  0.00  0.00    -0.075 A 
ATOM      2  C4  UNL d   1       1.095   0.145   0.295  0.00  0.00     0.002 A 
ATOM      3  C5  UNL d   1       0.593  -0.033   1.584  0.00  0.00     0.002 A 
ATOM      4  C6  UNL d   1      -0.781  -0.126   1.793  0.00  0.00    -0.004 A 
ATOM      5  C7  UNL d   1      -1.654  -0.033   0.711  0.00  0.00     0.002 A 
ATOM      6  C8  UNL d   1      -1.154   0.141  -0.581  0.00  0.00     0.002 A 
ENDROOT
BRANCH   1   7
ATOM      7  C2  UNL d   1       0.765   0.386  -2.205  0.00  0.00     0.056 C 
BRANCH   7   8
ATOM      8  C1  UNL d   1       0.620  -0.864  -3.079  0.00  0.00     0.007 C 
ATOM      9  C   UNL d   1       1.918  -1.274  -3.761  0.00  0.00     0.009 C 
ENDBRANCH   7   8
ENDBRANCH   1   7
TORSDOF 2
ENDMDL
