MODEL 1
REMARK minimizedAffinity -5.61064863
REMARK minimizedRMSD -1
REMARK  2 active torsions:
REMARK  status: ('A' for Active; 'I' for Inactive)
REMARK    1  A    between atoms: C1_2  and  C2_3 
REMARK    2  A    between atoms: C2_3  and  C3_4 
ROOT
ATOM      1  C3  UNL d   1      -0.686   0.021   0.152  0.00  0.00    -0.075 A 
ATOM      2  C4  UNL d   1      -0.468  -0.485   1.442  0.00  0.00     0.002 A 
ATOM      3  C5  UNL d   1      -1.526  -0.604   2.344  0.00  0.00     0.002 A 
ATOM      4  C6  UNL d   1      -2.809  -0.210   1.973  0.00  0.00    -0.004 A 
ATOM      5  C7  UNL d   1      -3.034   0.310   0.700  0.00  0.00     0.002 A 
ATOM      6  C8  UNL d   1      -1.978   0.426  -0.206  0.00  0.00     0.002 A 
ENDROOT
BRANCH   1   7
ATOM      7  C2  UNL d   1       0.449   0.124  -0.838  0.00  0.00     0.056 C 
BRANCH   7   8
ATOM      8  C1  UNL d   1       0.017  -0.032  -2.300  0.00  0.00     0.007 C 
ATOM      9  C   UNL d   1       1.112  -0.605  -3.192  0.00  0.00     0.009 C 
ENDBRANCH   7   8
ENDBRANCH   1   7
TORSDOF 2
ENDMDL
