MODEL 1
REMARK minimizedAffinity -5.81554604
REMARK minimizedRMSD -1
REMARK  2 active torsions:
REMARK  status: ('A' for Active; 'I' for Inactive)
REMARK    1  A    between atoms: C1_2  and  C2_3 
REMARK    2  A    between atoms: C2_3  and  C3_4 
ROOT
ATOM      1  C3  UNL d   1      -1.084   0.006   0.504  0.00  0.00    -0.075 A 
ATOM      2  C4  UNL d   1      -2.402   0.169   0.957  0.00  0.00     0.002 A 
ATOM      3  C5  UNL d   1      -2.702   0.060   2.315  0.00  0.00     0.002 A 
ATOM      4  C6  UNL d   1      -1.694  -0.222   3.234  0.00  0.00    -0.004 A 
ATOM      5  C7  UNL d   1      -0.385  -0.402   2.794  0.00  0.00     0.002 A 
ATOM      6  C8  UNL d   1      -0.081  -0.289   1.436  0.00  0.00     0.002 A 
ENDROOT
BRANCH   1   7
ATOM      7  C2  UNL d   1      -0.748   0.152  -0.961  0.00  0.00     0.056 C 
BRANCH   7   8
ATOM      8  C1  UNL d   1       0.756   0.177  -1.255  0.00  0.00     0.007 C 
ATOM      9  C   UNL d   1       1.134  -0.594  -2.513  0.00  0.00     0.009 C 
ENDBRANCH   7   8
ENDBRANCH   1   7
TORSDOF 2
ENDMDL
