MODEL 1
REMARK minimizedAffinity -0.672657311
REMARK minimizedRMSD -1
REMARK  0 active torsions:
REMARK  status: ('A' for Active; 'I' for Inactive)
ROOT
ATOM      1  O1  BZF d   1      -1.605  -0.755   2.304  0.00  0.00    -0.204 OA
ATOM      2  C2  BZF d   1      -0.954  -1.278   1.203  0.00  0.00     0.174 A 
ATOM      3  C3  BZF d   1      -1.594  -0.940   0.064  0.00  0.00    -0.012 A 
ATOM      4  C3A BZF d   1      -2.662  -0.080   0.474  0.00  0.00    -0.107 A 
ATOM      5  C4  BZF d   1      -3.640   0.591  -0.204  0.00  0.00     0.055 A 
ATOM      6  C5  BZF d   1      -4.573   1.285   0.499  0.00  0.00    -0.016 A 
ATOM      7  C6  BZF d   1      -4.562   1.326   1.878  0.00  0.00     0.022 A 
ATOM      8  C7  BZF d   1      -3.609   0.680   2.593  0.00  0.00     0.029 A 
ATOM      9  C7A BZF d   1      -2.645   0.005   1.885  0.00  0.00     0.058 A 
ENDROOT
TORSDOF 0
ENDMDL
