MODEL 1
REMARK minimizedAffinity -3.94248819
REMARK minimizedRMSD -1
REMARK  0 active torsions:
REMARK  status: ('A' for Active; 'I' for Inactive)
ROOT
ATOM      1  O1  BZF d   1      -1.329  -1.408   0.641  0.00  0.00    -0.204 OA
ATOM      2  C2  BZF d   1      -0.216  -1.122   1.409  0.00  0.00     0.174 A 
ATOM      3  C3  BZF d   1      -0.483  -0.135   2.288  0.00  0.00    -0.012 A 
ATOM      4  C3A BZF d   1      -1.874   0.155   2.118  0.00  0.00    -0.107 A 
ATOM      5  C4  BZF d   1      -2.731   1.032   2.719  0.00  0.00     0.055 A 
ATOM      6  C5  BZF d   1      -4.011   1.117   2.271  0.00  0.00    -0.016 A 
ATOM      7  C6  BZF d   1      -4.466   0.345   1.222  0.00  0.00     0.022 A 
ATOM      8  C7  BZF d   1      -3.655  -0.543   0.598  0.00  0.00     0.029 A 
ATOM      9  C7A BZF d   1      -2.370  -0.655   1.070  0.00  0.00     0.058 A 
ENDROOT
TORSDOF 0
ENDMDL
