MODEL 1
REMARK minimizedAffinity -5.2451911
REMARK minimizedRMSD -1
REMARK  0 active torsions:
REMARK  status: ('A' for Active; 'I' for Inactive)
ROOT
ATOM      1  O1  BZF d   1      -2.283  -0.392   0.079  0.00  0.00    -0.204 OA
ATOM      2  C2  BZF d   1      -2.833   0.156   1.221  0.00  0.00     0.174 A 
ATOM      3  C3  BZF d   1      -1.979   0.053   2.260  0.00  0.00    -0.012 A 
ATOM      4  C3A BZF d   1      -0.787  -0.518   1.712  0.00  0.00    -0.107 A 
ATOM      5  C4  BZF d   1       0.426  -0.850   2.245  0.00  0.00     0.055 A 
ATOM      6  C5  BZF d   1       1.350  -1.458   1.455  0.00  0.00    -0.016 A 
ATOM      7  C6  BZF d   1       1.094  -1.752   0.132  0.00  0.00     0.022 A 
ATOM      8  C7  BZF d   1      -0.093  -1.437  -0.442  0.00  0.00     0.029 A 
ATOM      9  C7A BZF d   1      -1.017  -0.794   0.344  0.00  0.00     0.058 A 
ENDROOT
TORSDOF 0
ENDMDL
