MODEL 1
REMARK minimizedAffinity -2.28725219
REMARK minimizedRMSD -1
REMARK  0 active torsions:
REMARK  status: ('A' for Active; 'I' for Inactive)
ROOT
ATOM      1  O1  BZF d   1      -1.537  -1.749   1.741  0.00  0.00    -0.204 OA
ATOM      2  C2  BZF d   1      -2.000  -0.463   1.945  0.00  0.00     0.174 A 
ATOM      3  C3  BZF d   1      -1.730   0.317   0.879  0.00  0.00    -0.012 A 
ATOM      4  C3A BZF d   1      -1.139  -0.557  -0.087  0.00  0.00    -0.107 A 
ATOM      5  C4  BZF d   1      -0.670  -0.374  -1.357  0.00  0.00     0.055 A 
ATOM      6  C5  BZF d   1      -0.086  -1.418  -2.002  0.00  0.00    -0.016 A 
ATOM      7  C6  BZF d   1       0.050  -2.655  -1.408  0.00  0.00     0.022 A 
ATOM      8  C7  BZF d   1      -0.404  -2.886  -0.152  0.00  0.00     0.029 A 
ATOM      9  C7A BZF d   1      -1.024  -1.843   0.491  0.00  0.00     0.058 A 
ENDROOT
TORSDOF 0
ENDMDL
