MODEL 1
REMARK minimizedAffinity -0.831470013
REMARK minimizedRMSD -1
REMARK  0 active torsions:
REMARK  status: ('A' for Active; 'I' for Inactive)
ROOT
ATOM      1  O1  BZF d   1      -0.002  -1.856   0.173  0.00  0.00    -0.204 OA
ATOM      2  C2  BZF d   1       0.728  -1.928   1.344  0.00  0.00     0.174 A 
ATOM      3  C3  BZF d   1       0.158  -1.178   2.310  0.00  0.00    -0.012 A 
ATOM      4  C3A BZF d   1      -1.051  -0.676   1.732  0.00  0.00    -0.107 A 
ATOM      5  C4  BZF d   1      -2.058   0.118   2.203  0.00  0.00     0.055 A 
ATOM      6  C5  BZF d   1      -3.060   0.483   1.360  0.00  0.00    -0.016 A 
ATOM      7  C6  BZF d   1      -3.084   0.077   0.042  0.00  0.00     0.022 A 
ATOM      8  C7  BZF d   1      -2.111  -0.715  -0.469  0.00  0.00     0.029 A 
ATOM      9  C7A BZF d   1      -1.114  -1.113   0.388  0.00  0.00     0.058 A 
ENDROOT
TORSDOF 0
ENDMDL
