MODEL 1
REMARK minimizedAffinity 5.50004911
REMARK minimizedRMSD -1
REMARK  1 active torsions:
REMARK  status: ('A' for Active; 'I' for Inactive)
REMARK    1  A    between atoms: C1_2  and  C2_3 
ROOT
ATOM      1  C2  UNL d   1       1.650  -5.208  -3.637  0.00  0.00    -0.076 A 
ATOM      2  C3  UNL d   1       0.246  -5.232  -3.716  0.00  0.00     0.004 A 
ATOM      3  C4  UNL d   1      -0.400  -5.623  -4.887  0.00  0.00    -0.003 A 
ATOM      4  C5  UNL d   1       0.347  -5.999  -5.998  0.00  0.00     0.000 A 
ATOM      5  C6  UNL d   1       1.740  -5.999  -5.932  0.00  0.00     0.000 A 
ATOM      6  C7  UNL d   1       2.407  -5.622  -4.754  0.00  0.00    -0.073 A 
ATOM      7  C8  UNL d   1       3.911  -5.635  -4.740  0.00  0.00     0.078 C 
ENDROOT
BRANCH   1   8
ATOM      8  C1  UNL d   1       2.295  -4.749  -2.349  0.00  0.00     0.053 C 
ATOM      9  C   UNL d   1       2.279  -3.236  -2.197  0.00  0.00     0.018 C 
ENDBRANCH   1   8
TORSDOF 1
ENDMDL
