MODEL 1
REMARK minimizedAffinity 12.5421219
REMARK minimizedRMSD -1
REMARK  1 active torsions:
REMARK  status: ('A' for Active; 'I' for Inactive)
REMARK    1  A    between atoms: C1_2  and  C2_3 
ROOT
ATOM      1  C2  UNL d   1       0.583  -0.925   3.942  0.00  0.00    -0.076 A 
ATOM      2  C3  UNL d   1       0.658  -0.499   5.279  0.00  0.00     0.004 A 
ATOM      3  C4  UNL d   1       1.878  -0.462   5.953  0.00  0.00    -0.003 A 
ATOM      4  C5  UNL d   1       3.043  -0.849   5.299  0.00  0.00     0.000 A 
ATOM      5  C6  UNL d   1       2.989  -1.258   3.967  0.00  0.00     0.000 A 
ATOM      6  C7  UNL d   1       1.769  -1.286   3.268  0.00  0.00    -0.073 A 
ATOM      7  C8  UNL d   1       1.769  -1.741   1.835  0.00  0.00     0.078 C 
ENDROOT
BRANCH   1   8
ATOM      8  C1  UNL d   1      -0.772  -0.971   3.272  0.00  0.00     0.053 C 
ATOM      9  C   UNL d   1      -1.311  -2.387   3.143  0.00  0.00     0.018 C 
ENDBRANCH   1   8
TORSDOF 1
ENDMDL
