MODEL 1
REMARK minimizedAffinity 6.36058569
REMARK minimizedRMSD -1
REMARK  1 active torsions:
REMARK  status: ('A' for Active; 'I' for Inactive)
REMARK    1  A    between atoms: C1_2  and  C2_3 
ROOT
ATOM      1  C2  UNL d   1       2.362  -0.953  -4.635  0.00  0.00    -0.076 A 
ATOM      2  C3  UNL d   1       1.704  -0.431  -5.763  0.00  0.00     0.004 A 
ATOM      3  C4  UNL d   1       0.325  -0.563  -5.914  0.00  0.00    -0.003 A 
ATOM      4  C5  UNL d   1      -0.420  -1.218  -4.940  0.00  0.00     0.000 A 
ATOM      5  C6  UNL d   1       0.214  -1.726  -3.806  0.00  0.00     0.000 A 
ATOM      6  C7  UNL d   1       1.601  -1.588  -3.630  0.00  0.00    -0.073 A 
ATOM      7  C8  UNL d   1       2.233  -2.160  -2.391  0.00  0.00     0.078 C 
ENDROOT
BRANCH   1   8
ATOM      8  C1  UNL d   1       3.863  -0.803  -4.539  0.00  0.00     0.053 C 
ATOM      9  C   UNL d   1       4.530  -0.721  -5.903  0.00  0.00     0.018 C 
ENDBRANCH   1   8
TORSDOF 1
ENDMDL
