MODEL 1
REMARK minimizedAffinity 7.15424633
REMARK minimizedRMSD -1
REMARK  1 active torsions:
REMARK  status: ('A' for Active; 'I' for Inactive)
REMARK    1  A    between atoms: C1_2  and  C2_3 
ROOT
ATOM      1  C2  UNL d   1       0.358  -1.832   3.526  0.00  0.00    -0.076 A 
ATOM      2  C3  UNL d   1       0.758  -1.739   2.181  0.00  0.00     0.004 A 
ATOM      3  C4  UNL d   1       2.090  -1.505   1.843  0.00  0.00    -0.003 A 
ATOM      4  C5  UNL d   1       3.044  -1.362   2.845  0.00  0.00     0.000 A 
ATOM      5  C6  UNL d   1       2.668  -1.469   4.183  0.00  0.00     0.000 A 
ATOM      6  C7  UNL d   1       1.332  -1.720   4.541  0.00  0.00    -0.073 A 
ATOM      7  C8  UNL d   1       0.981  -1.820   6.000  0.00  0.00     0.078 C 
ENDROOT
BRANCH   1   8
ATOM      8  C1  UNL d   1      -1.105  -2.058   3.832  0.00  0.00     0.053 C 
ATOM      9  C   UNL d   1      -2.020  -1.499   2.753  0.00  0.00     0.018 C 
ENDBRANCH   1   8
TORSDOF 1
ENDMDL
