MODEL 1
REMARK minimizedAffinity 7.54480124
REMARK minimizedRMSD -1
REMARK  1 active torsions:
REMARK  status: ('A' for Active; 'I' for Inactive)
REMARK    1  A    between atoms: C1_2  and  C2_3 
ROOT
ATOM      1  C2  UNL d   1       0.332  -1.121  -5.084  0.00  0.00    -0.076 A 
ATOM      2  C3  UNL d   1       1.137  -0.421  -5.999  0.00  0.00     0.004 A 
ATOM      3  C4  UNL d   1       2.524  -0.398  -5.863  0.00  0.00    -0.003 A 
ATOM      4  C5  UNL d   1       3.129  -1.076  -4.810  0.00  0.00     0.000 A 
ATOM      5  C6  UNL d   1       2.346  -1.790  -3.903  0.00  0.00     0.000 A 
ATOM      6  C7  UNL d   1       0.948  -1.837  -4.035  0.00  0.00    -0.073 A 
ATOM      7  C8  UNL d   1       0.153  -2.617  -3.025  0.00  0.00     0.078 C 
ENDROOT
BRANCH   1   8
ATOM      8  C1  UNL d   1      -1.169  -1.087  -5.266  0.00  0.00     0.053 C 
ATOM      9  C   UNL d   1      -1.817   0.087  -4.550  0.00  0.00     0.018 C 
ENDBRANCH   1   8
TORSDOF 1
ENDMDL
