MODEL 1
REMARK minimizedAffinity 2.33596516
REMARK minimizedRMSD -1
REMARK  1 active torsions:
REMARK  status: ('A' for Active; 'I' for Inactive)
REMARK    1  A    between atoms: C1_2  and  C2_3 
ROOT
ATOM      1  C2  UNL d   1      -0.019  -0.020   2.629  0.00  0.00    -0.076 A 
ATOM      2  C3  UNL d   1      -1.362  -0.038   2.213  0.00  0.00     0.004 A 
ATOM      3  C4  UNL d   1      -2.082  -1.230   2.165  0.00  0.00    -0.003 A 
ATOM      4  C5  UNL d   1      -1.472  -2.424   2.534  0.00  0.00     0.000 A 
ATOM      5  C6  UNL d   1      -0.146  -2.423   2.965  0.00  0.00     0.000 A 
ATOM      6  C7  UNL d   1       0.590  -1.227   3.035  0.00  0.00    -0.073 A 
ATOM      7  C8  UNL d   1       2.018  -1.285   3.502  0.00  0.00     0.078 C 
ENDROOT
BRANCH   1   8
ATOM      8  C1  UNL d   1       0.721   1.299   2.635  0.00  0.00     0.053 C 
ATOM      9  C   UNL d   1       1.946   1.283   1.734  0.00  0.00     0.018 C 
ENDBRANCH   1   8
TORSDOF 1
ENDMDL
