MODEL 1
REMARK minimizedAffinity 2.2713778
REMARK minimizedRMSD -1
REMARK  1 active torsions:
REMARK  status: ('A' for Active; 'I' for Inactive)
REMARK    1  A    between atoms: C1_2  and  C2_3 
ROOT
ATOM      1  C2  UNL d   1       0.640  -1.720  -4.762  0.00  0.00    -0.076 A 
ATOM      2  C3  UNL d   1       0.224  -2.590  -3.738  0.00  0.00     0.004 A 
ATOM      3  C4  UNL d   1       1.054  -2.868  -2.654  0.00  0.00    -0.003 A 
ATOM      4  C5  UNL d   1       2.312  -2.282  -2.574  0.00  0.00     0.000 A 
ATOM      5  C6  UNL d   1       2.733  -1.403  -3.572  0.00  0.00     0.000 A 
ATOM      6  C7  UNL d   1       1.903  -1.099  -4.664  0.00  0.00    -0.073 A 
ATOM      7  C8  UNL d   1       2.410  -0.149  -5.714  0.00  0.00     0.078 C 
ENDROOT
BRANCH   1   8
ATOM      8  C1  UNL d   1      -0.292  -1.477  -5.928  0.00  0.00     0.053 C 
ATOM      9  C   UNL d   1      -1.418  -0.514  -5.583  0.00  0.00     0.018 C 
ENDBRANCH   1   8
TORSDOF 1
ENDMDL
