MODEL 1
REMARK minimizedAffinity 7.96221828
REMARK minimizedRMSD -1
REMARK  1 active torsions:
REMARK  status: ('A' for Active; 'I' for Inactive)
REMARK    1  A    between atoms: C1_2  and  C2_3 
ROOT
ATOM      1  C2  UNL d   1       3.017  -0.550  -4.757  0.00  0.00    -0.076 A 
ATOM      2  C3  UNL d   1       2.326   0.029  -5.836  0.00  0.00     0.004 A 
ATOM      3  C4  UNL d   1       0.956  -0.169  -6.000  0.00  0.00    -0.003 A 
ATOM      4  C5  UNL d   1       0.255  -0.950  -5.087  0.00  0.00     0.000 A 
ATOM      5  C6  UNL d   1       0.921  -1.517  -4.001  0.00  0.00     0.000 A 
ATOM      6  C7  UNL d   1       2.299  -1.313  -3.812  0.00  0.00    -0.073 A 
ATOM      7  C8  UNL d   1       2.967  -1.954  -2.627  0.00  0.00     0.078 C 
ENDROOT
BRANCH   1   8
ATOM      8  C1  UNL d   1       4.508  -0.322  -4.646  0.00  0.00     0.053 C 
ATOM      9  C   UNL d   1       5.206  -0.364  -5.996  0.00  0.00     0.018 C 
ENDBRANCH   1   8
TORSDOF 1
ENDMDL
