MODEL 1
REMARK minimizedAffinity 0.437204331
REMARK minimizedRMSD -1
REMARK  1 active torsions:
REMARK  status: ('A' for Active; 'I' for Inactive)
REMARK    1  A    between atoms: C1_2  and  C2_3 
ROOT
ATOM      1  C2  UNL d   1       1.286  -0.886  -4.803  0.00  0.00    -0.076 A 
ATOM      2  C3  UNL d   1       2.016  -1.473  -3.755  0.00  0.00     0.004 A 
ATOM      3  C4  UNL d   1       1.380  -2.235  -2.777  0.00  0.00    -0.003 A 
ATOM      4  C5  UNL d   1       0.003  -2.424  -2.831  0.00  0.00     0.000 A 
ATOM      5  C6  UNL d   1      -0.735  -1.863  -3.874  0.00  0.00     0.000 A 
ATOM      6  C7  UNL d   1      -0.107  -1.105  -4.877  0.00  0.00    -0.073 A 
ATOM      7  C8  UNL d   1      -0.952  -0.519  -5.975  0.00  0.00     0.078 C 
ENDROOT
BRANCH   1   8
ATOM      8  C1  UNL d   1       2.026  -0.047  -5.820  0.00  0.00     0.053 C 
ATOM      9  C   UNL d   1       3.470  -0.488  -5.999  0.00  0.00     0.018 C 
ENDBRANCH   1   8
TORSDOF 1
ENDMDL
