MODEL 1
REMARK minimizedAffinity 5.12191963
REMARK minimizedRMSD -1
REMARK  0 active torsions:
REMARK  status: ('A' for Active; 'I' for Inactive)
ROOT
ATOM      1  C   UNL d   1      -2.235   3.536  -5.860  0.00  0.00     0.124 A 
ATOM      2  C1  UNL d   1      -1.577   4.758  -5.871  0.00  0.00     0.062 A 
ATOM      3  C2  UNL d   1      -0.186   4.804  -5.910  0.00  0.00     0.162 A 
ATOM      4  C3  UNL d   1       0.556   3.624  -5.940  0.00  0.00    -0.034 A 
ATOM      5  C4  UNL d   1      -0.113   2.398  -5.928  0.00  0.00     0.162 A 
ATOM      6  C5  UNL d   1      -1.502   2.357  -5.889  0.00  0.00     0.062 A 
ATOM      7  F   UNL d   1      -2.136   1.176  -5.878  0.00  0.00    -0.097 F 
ATOM      8  F1  UNL d   1       0.571   1.244  -5.956  0.00  0.00    -0.096 F 
ATOM      9  I   UNL d   1       2.636   3.688  -5.999  0.00  0.00    -0.060 I 
ATOM     10  F2  UNL d   1       0.423   5.999  -5.920  0.00  0.00    -0.096 F 
ATOM     11  F3  UNL d   1      -2.282   5.898  -5.843  0.00  0.00    -0.097 F 
ATOM     12  F4  UNL d   1      -3.573   3.494  -5.821  0.00  0.00    -0.092 F 
ENDROOT
TORSDOF 0
ENDMDL
