MODEL 1
REMARK minimizedAffinity 18.9852333
REMARK minimizedRMSD -1
REMARK  0 active torsions:
REMARK  status: ('A' for Active; 'I' for Inactive)
ROOT
ATOM      1  C   UNL d   1      -2.254  -3.559  -1.199  0.00  0.00     0.124 A 
ATOM      2  C1  UNL d   1      -1.476  -2.410  -1.213  0.00  0.00     0.062 A 
ATOM      3  C2  UNL d   1      -0.322  -2.356  -1.989  0.00  0.00     0.162 A 
ATOM      4  C3  UNL d   1       0.061  -3.454  -2.759  0.00  0.00    -0.034 A 
ATOM      5  C4  UNL d   1      -0.727  -4.606  -2.739  0.00  0.00     0.162 A 
ATOM      6  C5  UNL d   1      -1.879  -4.656  -1.962  0.00  0.00     0.062 A 
ATOM      7  F   UNL d   1      -2.630  -5.767  -1.950  0.00  0.00    -0.097 F 
ATOM      8  F1  UNL d   1      -0.388  -5.681  -3.468  0.00  0.00    -0.096 F 
ATOM      9  I   UNL d   1       1.785  -3.377  -3.921  0.00  0.00    -0.060 I 
ATOM     10  F2  UNL d   1       0.411  -1.232  -1.983  0.00  0.00    -0.096 F 
ATOM     11  F3  UNL d   1      -1.835  -1.349  -0.476  0.00  0.00    -0.097 F 
ATOM     12  F4  UNL d   1      -3.364  -3.609  -0.450  0.00  0.00    -0.092 F 
ENDROOT
TORSDOF 0
ENDMDL
