MODEL 1
REMARK minimizedAffinity 2.35487556
REMARK minimizedRMSD -1
REMARK  0 active torsions:
REMARK  status: ('A' for Active; 'I' for Inactive)
ROOT
ATOM      1  C   UNL d   1       1.423   3.439  -5.981  0.00  0.00     0.124 A 
ATOM      2  C1  UNL d   1       0.810   4.684  -5.980  0.00  0.00     0.062 A 
ATOM      3  C2  UNL d   1      -0.578   4.781  -5.986  0.00  0.00     0.162 A 
ATOM      4  C3  UNL d   1      -1.364   3.629  -5.991  0.00  0.00    -0.034 A 
ATOM      5  C4  UNL d   1      -0.740   2.380  -5.993  0.00  0.00     0.162 A 
ATOM      6  C5  UNL d   1       0.648   2.288  -5.987  0.00  0.00     0.062 A 
ATOM      7  F   UNL d   1       1.238   1.084  -5.988  0.00  0.00    -0.097 F 
ATOM      8  F1  UNL d   1      -1.466   1.251  -5.998  0.00  0.00    -0.096 F 
ATOM      9  I   UNL d   1      -3.440   3.769  -5.999  0.00  0.00    -0.060 I 
ATOM     10  F2  UNL d   1      -1.143   5.997  -5.985  0.00  0.00    -0.096 F 
ATOM     11  F3  UNL d   1       1.558   5.797  -5.975  0.00  0.00    -0.097 F 
ATOM     12  F4  UNL d   1       2.759   3.348  -5.977  0.00  0.00    -0.092 F 
ENDROOT
TORSDOF 0
ENDMDL
