MODEL 1
REMARK minimizedAffinity 15.7853994
REMARK minimizedRMSD -1
REMARK  0 active torsions:
REMARK  status: ('A' for Active; 'I' for Inactive)
ROOT
ATOM      1  C   UNL d   1       0.936   2.455   0.128  0.00  0.00     0.124 A 
ATOM      2  C1  UNL d   1       0.717   1.545   1.153  0.00  0.00     0.062 A 
ATOM      3  C2  UNL d   1      -0.089   0.430   0.939  0.00  0.00     0.162 A 
ATOM      4  C3  UNL d   1      -0.681   0.218  -0.306  0.00  0.00    -0.034 A 
ATOM      5  C4  UNL d   1      -0.457   1.138  -1.332  0.00  0.00     0.162 A 
ATOM      6  C5  UNL d   1       0.349   2.251  -1.113  0.00  0.00     0.062 A 
ATOM      7  F   UNL d   1       0.559   3.129  -2.104  0.00  0.00    -0.097 F 
ATOM      8  F1  UNL d   1      -1.011   0.965  -2.541  0.00  0.00    -0.096 F 
ATOM      9  I   UNL d   1      -1.886  -1.447  -0.629  0.00  0.00    -0.060 I 
ATOM     10  F2  UNL d   1      -0.283  -0.432   1.948  0.00  0.00    -0.096 F 
ATOM     11  F3  UNL d   1       1.282   1.741   2.353  0.00  0.00    -0.097 F 
ATOM     12  F4  UNL d   1       1.710   3.527   0.337  0.00  0.00    -0.092 F 
ENDROOT
TORSDOF 0
ENDMDL
