MODEL 1
REMARK minimizedAffinity 11.2293158
REMARK minimizedRMSD -1
REMARK  0 active torsions:
REMARK  status: ('A' for Active; 'I' for Inactive)
ROOT
ATOM      1  C   UNL d   1       1.981   3.641  -5.644  0.00  0.00     0.124 A 
ATOM      2  C1  UNL d   1       1.302   2.432  -5.589  0.00  0.00     0.062 A 
ATOM      3  C2  UNL d   1      -0.088   2.406  -5.637  0.00  0.00     0.162 A 
ATOM      4  C3  UNL d   1      -0.811   3.595  -5.742  0.00  0.00    -0.034 A 
ATOM      5  C4  UNL d   1      -0.121   4.808  -5.796  0.00  0.00     0.162 A 
ATOM      6  C5  UNL d   1       1.269   4.828  -5.747  0.00  0.00     0.062 A 
ATOM      7  F   UNL d   1       1.923   5.997  -5.801  0.00  0.00    -0.097 F 
ATOM      8  F1  UNL d   1      -0.785   5.969  -5.896  0.00  0.00    -0.096 F 
ATOM      9  I   UNL d   1      -2.890   3.561  -5.813  0.00  0.00    -0.060 I 
ATOM     10  F2  UNL d   1      -0.718   1.223  -5.582  0.00  0.00    -0.096 F 
ATOM     11  F3  UNL d   1       1.988   1.284  -5.489  0.00  0.00    -0.097 F 
ATOM     12  F4  UNL d   1       3.319   3.663  -5.597  0.00  0.00    -0.092 F 
ENDROOT
TORSDOF 0
ENDMDL
