MODEL 1
REMARK minimizedAffinity 10.6503401
REMARK minimizedRMSD -1
REMARK  0 active torsions:
REMARK  status: ('A' for Active; 'I' for Inactive)
ROOT
ATOM      1  C   UNL d   1       0.101   2.387   0.204  0.00  0.00     0.124 A 
ATOM      2  C1  UNL d   1       0.769   2.123  -0.984  0.00  0.00     0.062 A 
ATOM      3  C2  UNL d   1       1.072   0.812  -1.340  0.00  0.00     0.162 A 
ATOM      4  C3  UNL d   1       0.705  -0.246  -0.508  0.00  0.00    -0.034 A 
ATOM      5  C4  UNL d   1       0.034   0.028   0.686  0.00  0.00     0.162 A 
ATOM      6  C5  UNL d   1      -0.266   1.340   1.037  0.00  0.00     0.062 A 
ATOM      7  F   UNL d   1      -0.911   1.594   2.185  0.00  0.00    -0.097 F 
ATOM      8  F1  UNL d   1      -0.333  -0.965   1.509  0.00  0.00    -0.096 F 
ATOM      9  I   UNL d   1       1.155  -2.208  -1.036  0.00  0.00    -0.060 I 
ATOM     10  F2  UNL d   1       1.718   0.586  -2.493  0.00  0.00    -0.096 F 
ATOM     11  F3  UNL d   1       1.126   3.133  -1.790  0.00  0.00    -0.097 F 
ATOM     12  F4  UNL d   1      -0.188   3.650   0.544  0.00  0.00    -0.092 F 
ENDROOT
TORSDOF 0
ENDMDL
