MODEL 1
REMARK minimizedAffinity 2.84067488
REMARK minimizedRMSD -1
REMARK  0 active torsions:
REMARK  status: ('A' for Active; 'I' for Inactive)
ROOT
ATOM      1  C   UNL d   1       0.901   2.375  -5.961  0.00  0.00     0.124 A 
ATOM      2  C1  UNL d   1       1.319   3.699  -5.956  0.00  0.00     0.062 A 
ATOM      3  C2  UNL d   1       0.382   4.729  -5.960  0.00  0.00     0.162 A 
ATOM      4  C3  UNL d   1      -0.982   4.439  -5.969  0.00  0.00    -0.034 A 
ATOM      5  C4  UNL d   1      -1.395   3.106  -5.974  0.00  0.00     0.162 A 
ATOM      6  C5  UNL d   1      -0.455   2.080  -5.970  0.00  0.00     0.062 A 
ATOM      7  F   UNL d   1      -0.861   0.802  -5.975  0.00  0.00    -0.097 F 
ATOM      8  F1  UNL d   1      -2.699   2.792  -5.982  0.00  0.00    -0.096 F 
ATOM      9  I   UNL d   1      -2.385   5.976  -5.975  0.00  0.00    -0.060 I 
ATOM     10  F2  UNL d   1       0.815   5.999  -5.955  0.00  0.00    -0.096 F 
ATOM     11  F3  UNL d   1       2.628   3.987  -5.948  0.00  0.00    -0.097 F 
ATOM     12  F4  UNL d   1       1.804   1.387  -5.957  0.00  0.00    -0.092 F 
ENDROOT
TORSDOF 0
ENDMDL
