MODEL 1
REMARK minimizedAffinity 3.86929703
REMARK minimizedRMSD -1
REMARK  0 active torsions:
REMARK  status: ('A' for Active; 'I' for Inactive)
ROOT
ATOM      1  C   UNL d   1       0.592   2.387  -5.859  0.00  0.00     0.124 A 
ATOM      2  C1  UNL d   1      -0.746   2.021  -5.912  0.00  0.00     0.062 A 
ATOM      3  C2  UNL d   1      -1.738   2.997  -5.948  0.00  0.00     0.162 A 
ATOM      4  C3  UNL d   1      -1.395   4.349  -5.931  0.00  0.00    -0.034 A 
ATOM      5  C4  UNL d   1      -0.047   4.709  -5.876  0.00  0.00     0.162 A 
ATOM      6  C5  UNL d   1       0.940   3.730  -5.840  0.00  0.00     0.062 A 
ATOM      7  F   UNL d   1       2.232   4.085  -5.788  0.00  0.00    -0.097 F 
ATOM      8  F1  UNL d   1       0.317   6.000  -5.858  0.00  0.00    -0.096 F 
ATOM      9  I   UNL d   1      -2.875   5.812  -5.984  0.00  0.00    -0.060 I 
ATOM     10  F2  UNL d   1      -3.022   2.615  -6.000  0.00  0.00    -0.096 F 
ATOM     11  F3  UNL d   1      -1.085   0.724  -5.929  0.00  0.00    -0.097 F 
ATOM     12  F4  UNL d   1       1.543   1.445  -5.823  0.00  0.00    -0.092 F 
ENDROOT
TORSDOF 0
ENDMDL
