MODEL 1
REMARK minimizedAffinity 22.3547878
REMARK minimizedRMSD -1
REMARK  0 active torsions:
REMARK  status: ('A' for Active; 'I' for Inactive)
ROOT
ATOM      1  C   UNL d   1       0.529   2.771   0.410  0.00  0.00     0.124 A 
ATOM      2  C1  UNL d   1       0.430   2.534  -0.954  0.00  0.00     0.062 A 
ATOM      3  C2  UNL d   1      -0.026   1.304  -1.419  0.00  0.00     0.162 A 
ATOM      4  C3  UNL d   1      -0.388   0.301  -0.519  0.00  0.00    -0.034 A 
ATOM      5  C4  UNL d   1      -0.285   0.547   0.851  0.00  0.00     0.162 A 
ATOM      6  C5  UNL d   1       0.172   1.778   1.311  0.00  0.00     0.062 A 
ATOM      7  F   UNL d   1       0.267   2.006   2.629  0.00  0.00    -0.097 F 
ATOM      8  F1  UNL d   1      -0.624  -0.395   1.744  0.00  0.00    -0.096 F 
ATOM      9  I   UNL d   1      -1.070  -1.539  -1.211  0.00  0.00    -0.060 I 
ATOM     10  F2  UNL d   1      -0.111   1.102  -2.742  0.00  0.00    -0.096 F 
ATOM     11  F3  UNL d   1       0.776   3.491  -1.826  0.00  0.00    -0.097 F 
ATOM     12  F4  UNL d   1       0.969   3.955   0.855  0.00  0.00    -0.092 F 
ENDROOT
TORSDOF 0
ENDMDL
