MODEL 1
REMARK minimizedAffinity 2.76085567
REMARK minimizedRMSD -1
REMARK  0 active torsions:
REMARK  status: ('A' for Active; 'I' for Inactive)
ROOT
ATOM      1  C   UNL d   1       1.824   3.439  -5.969  0.00  0.00     0.124 A 
ATOM      2  C1  UNL d   1       1.051   2.286  -5.980  0.00  0.00     0.062 A 
ATOM      3  C2  UNL d   1      -0.338   2.374  -5.988  0.00  0.00     0.162 A 
ATOM      4  C3  UNL d   1      -0.964   3.620  -5.986  0.00  0.00    -0.034 A 
ATOM      5  C4  UNL d   1      -0.181   4.775  -5.974  0.00  0.00     0.162 A 
ATOM      6  C5  UNL d   1       1.207   4.682  -5.965  0.00  0.00     0.062 A 
ATOM      7  F   UNL d   1       1.952   5.797  -5.954  0.00  0.00    -0.097 F 
ATOM      8  F1  UNL d   1      -0.750   5.990  -5.971  0.00  0.00    -0.096 F 
ATOM      9  I   UNL d   1      -3.041   3.756  -5.999  0.00  0.00    -0.060 I 
ATOM     10  F2  UNL d   1      -1.059   1.243  -6.000  0.00  0.00    -0.096 F 
ATOM     11  F3  UNL d   1       1.644   1.083  -5.982  0.00  0.00    -0.097 F 
ATOM     12  F4  UNL d   1       3.160   3.351  -5.960  0.00  0.00    -0.092 F 
ENDROOT
TORSDOF 0
ENDMDL
