MODEL 1
REMARK minimizedAffinity 5.07982779
REMARK minimizedRMSD -1
REMARK  0 active torsions:
REMARK  status: ('A' for Active; 'I' for Inactive)
ROOT
ATOM      1  C   UNL d   1       1.258   2.301  -5.995  0.00  0.00     0.124 A 
ATOM      2  C1  UNL d   1       1.712   3.613  -5.995  0.00  0.00     0.062 A 
ATOM      3  C2  UNL d   1       0.805   4.668  -5.996  0.00  0.00     0.162 A 
ATOM      4  C3  UNL d   1      -0.567   4.417  -5.996  0.00  0.00    -0.034 A 
ATOM      5  C4  UNL d   1      -1.017   3.095  -5.996  0.00  0.00     0.162 A 
ATOM      6  C5  UNL d   1      -0.106   2.044  -5.995  0.00  0.00     0.062 A 
ATOM      7  F   UNL d   1      -0.547   0.777  -5.995  0.00  0.00    -0.097 F 
ATOM      8  F1  UNL d   1      -2.329   2.817  -5.995  0.00  0.00    -0.096 F 
ATOM      9  I   UNL d   1      -1.927   5.992  -5.997  0.00  0.00    -0.060 I 
ATOM     10  F2  UNL d   1       1.272   5.925  -5.997  0.00  0.00    -0.096 F 
ATOM     11  F3  UNL d   1       3.029   3.864  -5.996  0.00  0.00    -0.097 F 
ATOM     12  F4  UNL d   1       2.133   1.288  -5.995  0.00  0.00    -0.092 F 
ENDROOT
TORSDOF 0
ENDMDL
