MODEL 1
REMARK minimizedAffinity 16.6300163
REMARK minimizedRMSD -1
REMARK  0 active torsions:
REMARK  status: ('A' for Active; 'I' for Inactive)
ROOT
ATOM      1  C   UNL d   1       3.132  -2.586  -2.730  0.00  0.00     0.124 A 
ATOM      2  C1  UNL d   1       2.614  -3.790  -3.188  0.00  0.00     0.062 A 
ATOM      3  C2  UNL d   1       1.286  -4.123  -2.933  0.00  0.00     0.162 A 
ATOM      4  C3  UNL d   1       0.467  -3.250  -2.217  0.00  0.00    -0.034 A 
ATOM      5  C4  UNL d   1       0.995  -2.042  -1.759  0.00  0.00     0.162 A 
ATOM      6  C5  UNL d   1       2.323  -1.714  -2.016  0.00  0.00     0.062 A 
ATOM      7  F   UNL d   1       2.821  -0.551  -1.572  0.00  0.00    -0.097 F 
ATOM      8  F1  UNL d   1       0.235  -1.180  -1.067  0.00  0.00    -0.096 F 
ATOM      9  I   UNL d   1      -1.518  -3.744  -1.834  0.00  0.00    -0.060 I 
ATOM     10  F2  UNL d   1       0.812  -5.292  -3.388  0.00  0.00    -0.096 F 
ATOM     11  F3  UNL d   1       3.394  -4.635  -3.877  0.00  0.00    -0.097 F 
ATOM     12  F4  UNL d   1       4.409  -2.269  -2.976  0.00  0.00    -0.092 F 
ENDROOT
TORSDOF 0
ENDMDL
