MODEL 1
REMARK minimizedAffinity 21.3855972
REMARK minimizedRMSD -1
REMARK  0 active torsions:
REMARK  status: ('A' for Active; 'I' for Inactive)
ROOT
ATOM      1  C   UNL d   1       1.325   3.625  -5.376  0.00  0.00     0.124 A 
ATOM      2  C1  UNL d   1       0.657   2.419  -5.537  0.00  0.00     0.062 A 
ATOM      3  C2  UNL d   1      -0.724   2.401  -5.708  0.00  0.00     0.162 A 
ATOM      4  C3  UNL d   1      -1.447   3.594  -5.719  0.00  0.00    -0.034 A 
ATOM      5  C4  UNL d   1      -0.769   4.803  -5.556  0.00  0.00     0.162 A 
ATOM      6  C5  UNL d   1       0.612   4.816  -5.386  0.00  0.00     0.062 A 
ATOM      7  F   UNL d   1       1.255   5.982  -5.231  0.00  0.00    -0.097 F 
ATOM      8  F1  UNL d   1      -1.433   5.968  -5.562  0.00  0.00    -0.096 F 
ATOM      9  I   UNL d   1      -3.513   3.571  -5.974  0.00  0.00    -0.060 I 
ATOM     10  F2  UNL d   1      -1.343   1.221  -5.861  0.00  0.00    -0.096 F 
ATOM     11  F3  UNL d   1       1.344   1.268  -5.528  0.00  0.00    -0.097 F 
ATOM     12  F4  UNL d   1       2.654   3.640  -5.212  0.00  0.00    -0.092 F 
ENDROOT
TORSDOF 0
ENDMDL
