MODEL 1
REMARK minimizedAffinity 12.7088795
REMARK minimizedRMSD -1
REMARK  0 active torsions:
REMARK  status: ('A' for Active; 'I' for Inactive)
ROOT
ATOM      1  C   UNL d   1      -1.786   2.378  -5.966  0.00  0.00     0.124 A 
ATOM      2  C1  UNL d   1      -2.188   3.706  -5.954  0.00  0.00     0.062 A 
ATOM      3  C2  UNL d   1      -1.240   4.725  -5.956  0.00  0.00     0.162 A 
ATOM      4  C3  UNL d   1       0.121   4.420  -5.972  0.00  0.00    -0.034 A 
ATOM      5  C4  UNL d   1       0.518   3.081  -5.983  0.00  0.00     0.162 A 
ATOM      6  C5  UNL d   1      -0.433   2.067  -5.981  0.00  0.00     0.062 A 
ATOM      7  F   UNL d   1      -0.043   0.784  -5.993  0.00  0.00    -0.097 F 
ATOM      8  F1  UNL d   1       1.818   2.753  -5.999  0.00  0.00    -0.096 F 
ATOM      9  I   UNL d   1       1.542   5.940  -5.976  0.00  0.00    -0.060 I 
ATOM     10  F2  UNL d   1      -1.658   6.000  -5.944  0.00  0.00    -0.096 F 
ATOM     11  F3  UNL d   1      -3.494   4.009  -5.939  0.00  0.00    -0.097 F 
ATOM     12  F4  UNL d   1      -2.700   1.399  -5.963  0.00  0.00    -0.092 F 
ENDROOT
TORSDOF 0
ENDMDL
