MODEL 1
REMARK minimizedAffinity 2.68305874
REMARK minimizedRMSD -1
REMARK  0 active torsions:
REMARK  status: ('A' for Active; 'I' for Inactive)
ROOT
ATOM      1  C   UNL d   1      -0.835   2.935  -5.886  0.00  0.00     0.124 A 
ATOM      2  C1  UNL d   1       0.177   1.985  -5.877  0.00  0.00     0.062 A 
ATOM      3  C2  UNL d   1       1.510   2.383  -5.909  0.00  0.00     0.162 A 
ATOM      4  C3  UNL d   1       1.840   3.738  -5.950  0.00  0.00    -0.034 A 
ATOM      5  C4  UNL d   1       0.816   4.687  -5.960  0.00  0.00     0.162 A 
ATOM      6  C5  UNL d   1      -0.515   4.285  -5.928  0.00  0.00     0.062 A 
ATOM      7  F   UNL d   1      -1.491   5.204  -5.937  0.00  0.00    -0.097 F 
ATOM      8  F1  UNL d   1       1.098   5.998  -6.000  0.00  0.00    -0.096 F 
ATOM      9  I   UNL d   1       3.832   4.337  -5.998  0.00  0.00    -0.060 I 
ATOM     10  F2  UNL d   1       2.468   1.444  -5.899  0.00  0.00    -0.096 F 
ATOM     11  F3  UNL d   1      -0.130   0.681  -5.837  0.00  0.00    -0.097 F 
ATOM     12  F4  UNL d   1      -2.117   2.549  -5.856  0.00  0.00    -0.092 F 
ENDROOT
TORSDOF 0
ENDMDL
