MODEL 1
REMARK minimizedAffinity 1.74173033
REMARK minimizedRMSD -1
REMARK  0 active torsions:
REMARK  status: ('A' for Active; 'I' for Inactive)
ROOT
ATOM      1  C   UNL d   1       2.552   3.623  -5.791  0.00  0.00     0.124 A 
ATOM      2  C1  UNL d   1       1.858   2.422  -5.848  0.00  0.00     0.062 A 
ATOM      3  C2  UNL d   1       0.467   2.419  -5.899  0.00  0.00     0.162 A 
ATOM      4  C3  UNL d   1      -0.240   3.622  -5.895  0.00  0.00    -0.034 A 
ATOM      5  C4  UNL d   1       0.465   4.825  -5.836  0.00  0.00     0.162 A 
ATOM      6  C5  UNL d   1       1.855   4.823  -5.785  0.00  0.00     0.062 A 
ATOM      7  F   UNL d   1       2.524   5.984  -5.730  0.00  0.00    -0.097 F 
ATOM      8  F1  UNL d   1      -0.183   6.000  -5.831  0.00  0.00    -0.096 F 
ATOM      9  I   UNL d   1      -2.320   3.622  -5.972  0.00  0.00    -0.060 I 
ATOM     10  F2  UNL d   1      -0.178   1.244  -5.954  0.00  0.00    -0.096 F 
ATOM     11  F3  UNL d   1       2.529   1.261  -5.852  0.00  0.00    -0.097 F 
ATOM     12  F4  UNL d   1       3.890   3.622  -5.740  0.00  0.00    -0.092 F 
ENDROOT
TORSDOF 0
ENDMDL
