MODEL 1
REMARK minimizedAffinity 13.8581057
REMARK minimizedRMSD -1
REMARK  0 active torsions:
REMARK  status: ('A' for Active; 'I' for Inactive)
ROOT
ATOM      1  C   UNL d   1      -0.772   2.866  -5.997  0.00  0.00     0.124 A 
ATOM      2  C1  UNL d   1      -0.335   4.183  -5.998  0.00  0.00     0.062 A 
ATOM      3  C2  UNL d   1       1.027   4.469  -5.998  0.00  0.00     0.162 A 
ATOM      4  C3  UNL d   1       1.963   3.435  -5.999  0.00  0.00    -0.034 A 
ATOM      5  C4  UNL d   1       1.516   2.112  -5.998  0.00  0.00     0.162 A 
ATOM      6  C5  UNL d   1       0.154   1.832  -5.997  0.00  0.00     0.062 A 
ATOM      7  F   UNL d   1      -0.267   0.558  -5.997  0.00  0.00    -0.097 F 
ATOM      8  F1  UNL d   1       2.389   1.094  -5.999  0.00  0.00    -0.096 F 
ATOM      9  I   UNL d   1       4.001   3.858  -6.000  0.00  0.00    -0.060 I 
ATOM     10  F2  UNL d   1       1.420   5.751  -5.999  0.00  0.00    -0.096 F 
ATOM     11  F3  UNL d   1      -1.228   5.184  -5.997  0.00  0.00    -0.097 F 
ATOM     12  F4  UNL d   1      -2.083   2.594  -5.996  0.00  0.00    -0.092 F 
ENDROOT
TORSDOF 0
ENDMDL
