MODEL 1
REMARK minimizedAffinity 19.2749863
REMARK minimizedRMSD -1
REMARK  0 active torsions:
REMARK  status: ('A' for Active; 'I' for Inactive)
ROOT
ATOM      1  C   UNL d   1       3.623  -2.315  -3.132  0.00  0.00     0.124 A 
ATOM      2  C1  UNL d   1       2.712  -3.251  -3.602  0.00  0.00     0.062 A 
ATOM      3  C2  UNL d   1       1.388  -3.215  -3.176  0.00  0.00     0.162 A 
ATOM      4  C3  UNL d   1       0.965  -2.238  -2.276  0.00  0.00    -0.034 A 
ATOM      5  C4  UNL d   1       1.887  -1.300  -1.806  0.00  0.00     0.162 A 
ATOM      6  C5  UNL d   1       3.209  -1.340  -2.235  0.00  0.00     0.062 A 
ATOM      7  F   UNL d   1       4.087  -0.435  -1.780  0.00  0.00    -0.097 F 
ATOM      8  F1  UNL d   1       1.514  -0.346  -0.940  0.00  0.00    -0.096 F 
ATOM      9  I   UNL d   1      -1.015  -2.180  -1.636  0.00  0.00    -0.060 I 
ATOM     10  F2  UNL d   1       0.530  -4.132  -3.647  0.00  0.00    -0.096 F 
ATOM     11  F3  UNL d   1       3.110  -4.195  -4.468  0.00  0.00    -0.097 F 
ATOM     12  F4  UNL d   1       4.897  -2.353  -3.543  0.00  0.00    -0.092 F 
ENDROOT
TORSDOF 0
ENDMDL
