MODEL 1
REMARK minimizedAffinity -1.9796617
REMARK minimizedRMSD -1
REMARK  1 active torsions:
REMARK  status: ('A' for Active; 'I' for Inactive)
REMARK    1  A    between atoms: C1_2  and  C2_3 
ROOT
ATOM      1  C2  UNL d   1       0.356  -0.076  -0.836  0.00  0.00    -0.081 A 
ATOM      2  C3  UNL d   1      -0.151  -0.601   0.359  0.00  0.00     0.006 A 
ATOM      3  C4  UNL d   1      -0.859   0.213   1.246  0.00  0.00     0.002 A 
ATOM      4  C5  UNL d   1      -1.079   1.562   0.950  0.00  0.00    -0.080 A 
ATOM      5  C6  UNL d   1      -1.863   2.439   1.880  0.00  0.00     0.076 C 
ATOM      6  C7  UNL d   1      -0.558   2.091  -0.235  0.00  0.00     0.002 A 
ATOM      7  C8  UNL d   1       0.151   1.278  -1.122  0.00  0.00     0.006 A 
ENDROOT
BRANCH   1   8
ATOM      8  C1  UNL d   1       1.064  -0.966  -1.825  0.00  0.00     0.054 C 
ATOM      9  C   UNL d   1       0.589  -2.408  -1.710  0.00  0.00     0.018 C 
ENDBRANCH   1   8
TORSDOF 1
ENDMDL
