MODEL 1
REMARK minimizedAffinity 7.0633316
REMARK minimizedRMSD -1
REMARK  1 active torsions:
REMARK  status: ('A' for Active; 'I' for Inactive)
REMARK    1  A    between atoms: C1_2  and  C2_3 
ROOT
ATOM      1  C2  UNL d   1      -0.540  -1.738  -0.998  0.00  0.00    -0.081 A 
ATOM      2  C3  UNL d   1      -1.154  -0.734  -1.757  0.00  0.00     0.006 A 
ATOM      3  C4  UNL d   1      -1.048   0.606  -1.377  0.00  0.00     0.002 A 
ATOM      4  C5  UNL d   1      -0.321   0.965  -0.237  0.00  0.00    -0.080 A 
ATOM      5  C6  UNL d   1      -0.175   2.402   0.166  0.00  0.00     0.076 C 
ATOM      6  C7  UNL d   1       0.277  -0.040   0.531  0.00  0.00     0.002 A 
ATOM      7  C8  UNL d   1       0.171  -1.380   0.152  0.00  0.00     0.006 A 
ENDROOT
BRANCH   1   8
ATOM      8  C1  UNL d   1      -0.598  -3.177  -1.442  0.00  0.00     0.054 C 
ATOM      9  C   UNL d   1      -0.444  -3.298  -2.951  0.00  0.00     0.018 C 
ENDBRANCH   1   8
TORSDOF 1
ENDMDL
