MODEL 1
REMARK minimizedAffinity -1.69518363
REMARK minimizedRMSD -1
REMARK  1 active torsions:
REMARK  status: ('A' for Active; 'I' for Inactive)
REMARK    1  A    between atoms: C1_2  and  C2_3 
ROOT
ATOM      1  C2  UNL d   1       1.144  -3.707  -0.682  0.00  0.00    -0.081 A 
ATOM      2  C3  UNL d   1       0.712  -3.300  -1.950  0.00  0.00     0.006 A 
ATOM      3  C4  UNL d   1       0.761  -1.953  -2.317  0.00  0.00     0.002 A 
ATOM      4  C5  UNL d   1       1.250  -0.992  -1.425  0.00  0.00    -0.080 A 
ATOM      5  C6  UNL d   1       1.336   0.453  -1.817  0.00  0.00     0.076 C 
ATOM      6  C7  UNL d   1       1.665  -1.396  -0.152  0.00  0.00     0.002 A 
ATOM      7  C8  UNL d   1       1.616  -2.742   0.216  0.00  0.00     0.006 A 
ENDROOT
BRANCH   1   8
ATOM      8  C1  UNL d   1       1.153  -5.166  -0.306  0.00  0.00     0.054 C 
ATOM      9  C   UNL d   1       2.232  -5.466   0.724  0.00  0.00     0.018 C 
ENDBRANCH   1   8
TORSDOF 1
ENDMDL
