MODEL 1
REMARK minimizedAffinity -1.05590129
REMARK minimizedRMSD -1
REMARK  1 active torsions:
REMARK  status: ('A' for Active; 'I' for Inactive)
REMARK    1  A    between atoms: C1_2  and  C2_3 
ROOT
ATOM      1  C2  UNL d   1       0.754  -1.820  -1.199  0.00  0.00    -0.081 A 
ATOM      2  C3  UNL d   1      -0.548  -1.332  -1.035  0.00  0.00     0.006 A 
ATOM      3  C4  UNL d   1      -0.766   0.010  -0.713  0.00  0.00     0.002 A 
ATOM      4  C5  UNL d   1       0.313   0.887  -0.558  0.00  0.00    -0.080 A 
ATOM      5  C6  UNL d   1       0.093   2.336  -0.242  0.00  0.00     0.076 C 
ATOM      6  C7  UNL d   1       1.615   0.395  -0.705  0.00  0.00     0.002 A 
ATOM      7  C8  UNL d   1       1.833  -0.947  -1.026  0.00  0.00     0.006 A 
ENDROOT
BRANCH   1   8
ATOM      8  C1  UNL d   1       0.989  -3.251  -1.610  0.00  0.00     0.054 C 
ATOM      9  C   UNL d   1      -0.046  -3.713  -2.626  0.00  0.00     0.018 C 
ENDBRANCH   1   8
TORSDOF 1
ENDMDL
