MODEL 1
REMARK minimizedAffinity -2.8742733
REMARK minimizedRMSD -1
REMARK  1 active torsions:
REMARK  status: ('A' for Active; 'I' for Inactive)
REMARK    1  A    between atoms: C1_2  and  C2_3 
ROOT
ATOM      1  C2  UNL d   1       0.475  -0.740  -0.666  0.00  0.00    -0.081 A 
ATOM      2  C3  UNL d   1       0.201   0.511  -1.232  0.00  0.00     0.006 A 
ATOM      3  C4  UNL d   1      -0.503   1.477  -0.510  0.00  0.00     0.002 A 
ATOM      4  C5  UNL d   1      -0.939   1.211   0.793  0.00  0.00    -0.080 A 
ATOM      5  C6  UNL d   1      -1.669   2.250   1.590  0.00  0.00     0.076 C 
ATOM      6  C7  UNL d   1      -0.681  -0.045   1.353  0.00  0.00     0.002 A 
ATOM      7  C8  UNL d   1       0.023  -1.011   0.631  0.00  0.00     0.006 A 
ENDROOT
BRANCH   1   8
ATOM      8  C1  UNL d   1       1.290  -1.761  -1.418  0.00  0.00     0.054 C 
ATOM      9  C   UNL d   1       0.424  -2.561  -2.380  0.00  0.00     0.018 C 
ENDBRANCH   1   8
TORSDOF 1
ENDMDL
