MODEL 1
REMARK minimizedAffinity -5.49568319
REMARK minimizedRMSD -1
REMARK  1 active torsions:
REMARK  status: ('A' for Active; 'I' for Inactive)
REMARK    1  A    between atoms: C1_2  and  C2_3 
ROOT
ATOM      1  C2  UNL d   1      -0.861   2.094   0.316  0.00  0.00    -0.081 A 
ATOM      2  C3  UNL d   1      -1.715   2.052   1.425  0.00  0.00     0.006 A 
ATOM      3  C4  UNL d   1      -1.776   0.912   2.230  0.00  0.00     0.002 A 
ATOM      4  C5  UNL d   1      -0.978  -0.201   1.945  0.00  0.00    -0.080 A 
ATOM      5  C6  UNL d   1      -1.011  -1.419   2.819  0.00  0.00     0.076 C 
ATOM      6  C7  UNL d   1      -0.138  -0.166   0.828  0.00  0.00     0.002 A 
ATOM      7  C8  UNL d   1      -0.077   0.973   0.022  0.00  0.00     0.006 A 
ENDROOT
BRANCH   1   8
ATOM      8  C1  UNL d   1      -0.746   3.345  -0.516  0.00  0.00     0.054 C 
ATOM      9  C   UNL d   1       0.398   3.242  -1.515  0.00  0.00     0.018 C 
ENDBRANCH   1   8
TORSDOF 1
ENDMDL
