MODEL 1
REMARK minimizedAffinity -4.85622311
REMARK minimizedRMSD -1
REMARK  1 active torsions:
REMARK  status: ('A' for Active; 'I' for Inactive)
REMARK    1  A    between atoms: C1_2  and  C2_3 
ROOT
ATOM      1  C2  UNL d   1       0.574  -0.483  -0.183  0.00  0.00    -0.081 A 
ATOM      2  C3  UNL d   1       0.159  -0.761   1.125  0.00  0.00     0.006 A 
ATOM      3  C4  UNL d   1      -0.805   0.036   1.747  0.00  0.00     0.002 A 
ATOM      4  C5  UNL d   1      -1.376   1.118   1.068  0.00  0.00    -0.080 A 
ATOM      5  C6  UNL d   1      -2.434   1.964   1.713  0.00  0.00     0.076 C 
ATOM      6  C7  UNL d   1      -0.949   1.407  -0.232  0.00  0.00     0.002 A 
ATOM      7  C8  UNL d   1       0.016   0.610  -0.854  0.00  0.00     0.006 A 
ENDROOT
BRANCH   1   8
ATOM      8  C1  UNL d   1       1.566  -1.380  -0.879  0.00  0.00     0.054 C 
ATOM      9  C   UNL d   1       0.869  -2.351  -1.821  0.00  0.00     0.018 C 
ENDBRANCH   1   8
TORSDOF 1
ENDMDL
