MODEL 1
REMARK minimizedAffinity -3.557549
REMARK minimizedRMSD -1
REMARK  1 active torsions:
REMARK  status: ('A' for Active; 'I' for Inactive)
REMARK    1  A    between atoms: C1_2  and  C2_3 
ROOT
ATOM      1  C2  UNL d   1       0.688  -0.865  -0.502  0.00  0.00    -0.081 A 
ATOM      2  C3  UNL d   1       0.427  -1.125   0.849  0.00  0.00     0.006 A 
ATOM      3  C4  UNL d   1      -0.287  -0.206   1.622  0.00  0.00     0.002 A 
ATOM      4  C5  UNL d   1      -0.757   0.983   1.057  0.00  0.00    -0.080 A 
ATOM      5  C6  UNL d   1      -1.550   1.964   1.868  0.00  0.00     0.076 C 
ATOM      6  C7  UNL d   1      -0.481   1.252  -0.288  0.00  0.00     0.002 A 
ATOM      7  C8  UNL d   1       0.233   0.334  -1.062  0.00  0.00     0.006 A 
ENDROOT
BRANCH   1   8
ATOM      8  C1  UNL d   1       1.401  -1.883  -1.354  0.00  0.00     0.054 C 
ATOM      9  C   UNL d   1       0.460  -2.504  -2.377  0.00  0.00     0.018 C 
ENDBRANCH   1   8
TORSDOF 1
ENDMDL
