MODEL 1
REMARK minimizedAffinity -3.28411365
REMARK minimizedRMSD -1
REMARK  1 active torsions:
REMARK  status: ('A' for Active; 'I' for Inactive)
REMARK    1  A    between atoms: C1_2  and  C2_3 
ROOT
ATOM      1  C2  UNL d   1       0.535  -1.478  -0.734  0.00  0.00    -0.081 A 
ATOM      2  C3  UNL d   1       0.001  -1.466   0.560  0.00  0.00     0.006 A 
ATOM      3  C4  UNL d   1      -0.622  -0.319   1.058  0.00  0.00     0.002 A 
ATOM      4  C5  UNL d   1      -0.728   0.831   0.268  0.00  0.00    -0.080 A 
ATOM      5  C6  UNL d   1      -1.421   2.059   0.780  0.00  0.00     0.076 C 
ATOM      6  C7  UNL d   1      -0.180   0.824  -1.018  0.00  0.00     0.002 A 
ATOM      7  C8  UNL d   1       0.444  -0.322  -1.517  0.00  0.00     0.006 A 
ENDROOT
BRANCH   1   8
ATOM      8  C1  UNL d   1       1.149  -2.734  -1.298  0.00  0.00     0.054 C 
ATOM      9  C   UNL d   1       0.168  -3.477  -2.193  0.00  0.00     0.018 C 
ENDBRANCH   1   8
TORSDOF 1
ENDMDL
