MODEL 1
REMARK minimizedAffinity -5.59807253
REMARK minimizedRMSD -1
REMARK  1 active torsions:
REMARK  status: ('A' for Active; 'I' for Inactive)
REMARK    1  A    between atoms: C1_2  and  C2_3 
ROOT
ATOM      1  C2  UNL d   1       0.165  -0.600  -0.472  0.00  0.00    -0.081 A 
ATOM      2  C3  UNL d   1       0.402   0.589  -1.174  0.00  0.00     0.006 A 
ATOM      3  C4  UNL d   1      -0.094   1.804  -0.696  0.00  0.00     0.002 A 
ATOM      4  C5  UNL d   1      -0.827   1.853   0.495  0.00  0.00    -0.080 A 
ATOM      5  C6  UNL d   1      -1.339   3.155   1.035  0.00  0.00     0.076 C 
ATOM      6  C7  UNL d   1      -1.078   0.663   1.187  0.00  0.00     0.002 A 
ATOM      7  C8  UNL d   1      -0.583  -0.552   0.710  0.00  0.00     0.006 A 
ENDROOT
BRANCH   1   8
ATOM      8  C1  UNL d   1       0.753  -1.903  -0.950  0.00  0.00     0.054 C 
ATOM      9  C   UNL d   1       0.023  -2.420  -2.181  0.00  0.00     0.018 C 
ENDBRANCH   1   8
TORSDOF 1
ENDMDL
