MODEL 1
REMARK minimizedAffinity -1.88241899
REMARK minimizedRMSD -1
REMARK  0 active torsions:
REMARK  status: ('A' for Active; 'I' for Inactive)
ROOT
ATOM      1  C2' OXE d   1      -2.892   2.223  -2.807  0.00  0.00     0.078 C 
ATOM      2  C1' OXE d   1      -1.911  -0.091  -4.058  0.00  0.00     0.078 C 
ATOM      3  C1  OXE d   1      -1.301   0.307  -2.738  0.00  0.00    -0.078 A 
ATOM      4  C2  OXE d   1      -1.755   1.466  -2.155  0.00  0.00    -0.078 A 
ATOM      5  C3  OXE d   1      -1.264   1.849  -0.910  0.00  0.00     0.003 A 
ATOM      6  C4  OXE d   1      -0.205   1.149  -0.319  0.00  0.00    -0.002 A 
ATOM      7  C5  OXE d   1       0.298  -0.012  -0.915  0.00  0.00    -0.002 A 
ATOM      8  C6  OXE d   1      -0.266  -0.469  -2.101  0.00  0.00     0.003 A 
ENDROOT
TORSDOF 0
ENDMDL
