MODEL 1
REMARK minimizedAffinity -2.48417521
REMARK minimizedRMSD -1
REMARK  0 active torsions:
REMARK  status: ('A' for Active; 'I' for Inactive)
ROOT
ATOM      1  C2' OXE d   1      -0.237   1.238   0.323  0.00  0.00     0.078 C 
ATOM      2  C1' OXE d   1      -1.257  -0.967   1.728  0.00  0.00     0.078 C 
ATOM      3  C1  OXE d   1       0.173  -1.036   1.253  0.00  0.00    -0.078 A 
ATOM      4  C2  OXE d   1       0.649   0.028   0.525  0.00  0.00    -0.078 A 
ATOM      5  C3  OXE d   1       1.977   0.039   0.109  0.00  0.00     0.003 A 
ATOM      6  C4  OXE d   1       2.787  -1.089   0.292  0.00  0.00    -0.002 A 
ATOM      7  C5  OXE d   1       2.309  -2.199   0.996  0.00  0.00    -0.002 A 
ATOM      8  C6  OXE d   1       1.021  -2.172   1.519  0.00  0.00     0.003 A 
ENDROOT
TORSDOF 0
ENDMDL
