MODEL 1
REMARK minimizedAffinity -5.58696699
REMARK minimizedRMSD -1
REMARK  0 active torsions:
REMARK  status: ('A' for Active; 'I' for Inactive)
ROOT
ATOM      1  C2' OXE d   1       1.444  -2.958   1.423  0.00  0.00     0.078 C 
ATOM      2  C1' OXE d   1       3.240  -1.273   0.078  0.00  0.00     0.078 C 
ATOM      3  C1  OXE d   1       1.811  -0.810   0.216  0.00  0.00    -0.078 A 
ATOM      4  C2  OXE d   1       0.929  -1.663   0.835  0.00  0.00    -0.078 A 
ATOM      5  C3  OXE d   1      -0.389  -1.262   1.037  0.00  0.00     0.003 A 
ATOM      6  C4  OXE d   1      -0.860  -0.066   0.481  0.00  0.00    -0.002 A 
ATOM      7  C5  OXE d   1       0.013   0.798  -0.187  0.00  0.00    -0.002 A 
ATOM      8  C6  OXE d   1       1.358   0.461  -0.291  0.00  0.00     0.003 A 
ENDROOT
TORSDOF 0
ENDMDL
