MODEL 1
REMARK minimizedAffinity -4.42660952
REMARK minimizedRMSD -1
REMARK  0 active torsions:
REMARK  status: ('A' for Active; 'I' for Inactive)
ROOT
ATOM      1  C2' OXE d   1      -0.358   0.994  -0.186  0.00  0.00     0.078 C 
ATOM      2  C1' OXE d   1       2.442   1.152  -0.061  0.00  0.00     0.078 C 
ATOM      3  C1  OXE d   1       1.806  -0.204   0.113  0.00  0.00    -0.078 A 
ATOM      4  C2  OXE d   1       0.433  -0.266   0.097  0.00  0.00    -0.078 A 
ATOM      5  C3  OXE d   1      -0.203  -1.499   0.198  0.00  0.00     0.003 A 
ATOM      6  C4  OXE d   1       0.535  -2.658   0.469  0.00  0.00    -0.002 A 
ATOM      7  C5  OXE d   1       1.932  -2.611   0.529  0.00  0.00    -0.002 A 
ATOM      8  C6  OXE d   1       2.584  -1.402   0.311  0.00  0.00     0.003 A 
ENDROOT
TORSDOF 0
ENDMDL
