MODEL 1
REMARK minimizedAffinity -5.59142494
REMARK minimizedRMSD -1
REMARK  0 active torsions:
REMARK  status: ('A' for Active; 'I' for Inactive)
ROOT
ATOM      1  C2' OXE d   1      -0.257   1.411   0.533  0.00  0.00     0.078 C 
ATOM      2  C1' OXE d   1      -1.352  -0.612   2.141  0.00  0.00     0.078 C 
ATOM      3  C1  OXE d   1      -0.013  -0.872   1.498  0.00  0.00    -0.078 A 
ATOM      4  C2  OXE d   1       0.494   0.105   0.676  0.00  0.00    -0.078 A 
ATOM      5  C3  OXE d   1       1.751  -0.061   0.102  0.00  0.00     0.003 A 
ATOM      6  C4  OXE d   1       2.435  -1.276   0.231  0.00  0.00    -0.002 A 
ATOM      7  C5  OXE d   1       1.918  -2.300   1.032  0.00  0.00    -0.002 A 
ATOM      8  C6  OXE d   1       0.718  -2.098   1.706  0.00  0.00     0.003 A 
ENDROOT
TORSDOF 0
ENDMDL
