MODEL 1
REMARK minimizedAffinity -1.26775181
REMARK minimizedRMSD -1
REMARK  0 active torsions:
REMARK  status: ('A' for Active; 'I' for Inactive)
ROOT
ATOM      1  C2' OXE d   1      -0.243   0.505  -0.446  0.00  0.00     0.078 C 
ATOM      2  C1' OXE d   1       0.551   0.697  -3.132  0.00  0.00     0.078 C 
ATOM      3  C1  OXE d   1      -0.904   0.935  -2.810  0.00  0.00    -0.078 A 
ATOM      4  C2  OXE d   1      -1.292   0.792  -1.499  0.00  0.00    -0.078 A 
ATOM      5  C3  OXE d   1      -2.611   1.054  -1.139  0.00  0.00     0.003 A 
ATOM      6  C4  OXE d   1      -3.576   1.310  -2.120  0.00  0.00    -0.002 A 
ATOM      7  C5  OXE d   1      -3.209   1.420  -3.465  0.00  0.00    -0.002 A 
ATOM      8  C6  OXE d   1      -1.873   1.277  -3.821  0.00  0.00     0.003 A 
ENDROOT
TORSDOF 0
ENDMDL
