MODEL 1
REMARK minimizedAffinity -3.59159398
REMARK minimizedRMSD -1
REMARK  0 active torsions:
REMARK  status: ('A' for Active; 'I' for Inactive)
ROOT
ATOM      1  C2' OXE d   1       1.516  -3.011   1.036  0.00  0.00     0.078 C 
ATOM      2  C1' OXE d   1       3.597  -1.164   0.663  0.00  0.00     0.078 C 
ATOM      3  C1  OXE d   1       2.182  -0.677   0.475  0.00  0.00    -0.078 A 
ATOM      4  C2  OXE d   1       1.172  -1.599   0.614  0.00  0.00    -0.078 A 
ATOM      5  C3  OXE d   1      -0.154  -1.190   0.505  0.00  0.00     0.003 A 
ATOM      6  C4  OXE d   1      -0.463   0.115   0.104  0.00  0.00    -0.002 A 
ATOM      7  C5  OXE d   1       0.552   1.060  -0.081  0.00  0.00    -0.002 A 
ATOM      8  C6  OXE d   1       1.874   0.692   0.142  0.00  0.00     0.003 A 
ENDROOT
TORSDOF 0
ENDMDL
