MODEL 1
REMARK minimizedAffinity -4.16705942
REMARK minimizedRMSD -1
REMARK  0 active torsions:
REMARK  status: ('A' for Active; 'I' for Inactive)
ROOT
ATOM      1  C2' OXE d   1       1.155  -2.627   0.896  0.00  0.00     0.078 C 
ATOM      2  C1' OXE d   1      -1.184  -1.496   1.958  0.00  0.00     0.078 C 
ATOM      3  C1  OXE d   1      -0.350  -0.647   1.032  0.00  0.00    -0.078 A 
ATOM      4  C2  OXE d   1       0.817  -1.192   0.554  0.00  0.00    -0.078 A 
ATOM      5  C3  OXE d   1       1.596  -0.472  -0.348  0.00  0.00     0.003 A 
ATOM      6  C4  OXE d   1       1.282   0.858  -0.651  0.00  0.00    -0.002 A 
ATOM      7  C5  OXE d   1       0.118   1.446  -0.143  0.00  0.00    -0.002 A 
ATOM      8  C6  OXE d   1      -0.729   0.695   0.664  0.00  0.00     0.003 A 
ENDROOT
TORSDOF 0
ENDMDL
