MODEL 1
REMARK minimizedAffinity -3.71915674
REMARK minimizedRMSD -1
REMARK  0 active torsions:
REMARK  status: ('A' for Active; 'I' for Inactive)
ROOT
ATOM      1  C2' OXE d   1       2.607   0.809  -1.116  0.00  0.00     0.078 C 
ATOM      2  C1' OXE d   1      -0.170   0.412  -1.021  0.00  0.00     0.078 C 
ATOM      3  C1  OXE d   1       0.704  -0.545  -0.251  0.00  0.00    -0.078 A 
ATOM      4  C2  OXE d   1       2.064  -0.372  -0.341  0.00  0.00    -0.078 A 
ATOM      5  C3  OXE d   1       2.914  -1.194   0.394  0.00  0.00     0.003 A 
ATOM      6  C4  OXE d   1       2.404  -2.290   1.101  0.00  0.00    -0.002 A 
ATOM      7  C5  OXE d   1       1.024  -2.508   1.173  0.00  0.00    -0.002 A 
ATOM      8  C6  OXE d   1       0.160  -1.622   0.539  0.00  0.00     0.003 A 
ENDROOT
TORSDOF 0
ENDMDL
