MODEL 1
REMARK minimizedAffinity -4.3864975
REMARK minimizedRMSD -1
REMARK  0 active torsions:
REMARK  status: ('A' for Active; 'I' for Inactive)
ROOT
ATOM      1  C2' OXE d   1      -0.996   0.767  -0.030  0.00  0.00     0.078 C 
ATOM      2  C1' OXE d   1      -1.718  -1.194   1.844  0.00  0.00     0.078 C 
ATOM      3  C1  OXE d   1      -0.349  -1.289   1.219  0.00  0.00    -0.078 A 
ATOM      4  C2  OXE d   1      -0.022  -0.352   0.268  0.00  0.00    -0.078 A 
ATOM      5  C3  OXE d   1       1.249  -0.361  -0.300  0.00  0.00     0.003 A 
ATOM      6  C4  OXE d   1       2.140  -1.406  -0.027  0.00  0.00    -0.002 A 
ATOM      7  C5  OXE d   1       1.812  -2.393   0.909  0.00  0.00    -0.002 A 
ATOM      8  C6  OXE d   1       0.591  -2.325   1.570  0.00  0.00     0.003 A 
ENDROOT
TORSDOF 0
ENDMDL
