MODEL 1
REMARK minimizedAffinity -5.71579504
REMARK minimizedRMSD -1
REMARK  0 active torsions:
REMARK  status: ('A' for Active; 'I' for Inactive)
ROOT
ATOM      1  C2' OXE d   1      -0.383   1.063  -0.029  0.00  0.00     0.078 C 
ATOM      2  C1' OXE d   1      -1.100  -0.435   2.234  0.00  0.00     0.078 C 
ATOM      3  C1  OXE d   1       0.207  -0.765   1.557  0.00  0.00    -0.078 A 
ATOM      4  C2  OXE d   1       0.527  -0.058   0.423  0.00  0.00    -0.078 A 
ATOM      5  C3  OXE d   1       1.747  -0.285  -0.209  0.00  0.00     0.003 A 
ATOM      6  C4  OXE d   1       2.578  -1.331   0.209  0.00  0.00    -0.002 A 
ATOM      7  C5  OXE d   1       2.252  -2.089   1.339  0.00  0.00    -0.002 A 
ATOM      8  C6  OXE d   1       1.093  -1.792   2.048  0.00  0.00     0.003 A 
ENDROOT
TORSDOF 0
ENDMDL
