MODEL 1
REMARK minimizedAffinity -3.30423856
REMARK minimizedRMSD -1
REMARK  0 active torsions:
REMARK  status: ('A' for Active; 'I' for Inactive)
ROOT
ATOM      1  C2' OXE d   1       1.479  -3.047   0.790  0.00  0.00     0.078 C 
ATOM      2  C1' OXE d   1       3.230  -0.932   1.372  0.00  0.00     0.078 C 
ATOM      3  C1  OXE d   1       1.886  -0.590   0.780  0.00  0.00    -0.078 A 
ATOM      4  C2  OXE d   1       1.054  -1.634   0.455  0.00  0.00    -0.078 A 
ATOM      5  C3  OXE d   1      -0.219  -1.372  -0.044  0.00  0.00     0.003 A 
ATOM      6  C4  OXE d   1      -0.600  -0.063  -0.360  0.00  0.00    -0.002 A 
ATOM      7  C5  OXE d   1       0.248   1.013  -0.074  0.00  0.00    -0.002 A 
ATOM      8  C6  OXE d   1       1.474   0.770   0.534  0.00  0.00     0.003 A 
ENDROOT
TORSDOF 0
ENDMDL
