MODEL 1
REMARK minimizedAffinity -5.9172883
REMARK minimizedRMSD -1
REMARK  0 active torsions:
REMARK  status: ('A' for Active; 'I' for Inactive)
ROOT
ATOM      1  C2' OXE d   1       3.507  -1.003  -0.017  0.00  0.00     0.078 C 
ATOM      2  C1' OXE d   1       1.238   0.616  -0.349  0.00  0.00     0.078 C 
ATOM      3  C1  OXE d   1       1.133  -0.558   0.593  0.00  0.00    -0.078 A 
ATOM      4  C2  OXE d   1       2.233  -1.372   0.713  0.00  0.00    -0.078 A 
ATOM      5  C3  OXE d   1       2.208  -2.437   1.609  0.00  0.00     0.003 A 
ATOM      6  C4  OXE d   1       1.023  -2.777   2.273  0.00  0.00    -0.002 A 
ATOM      7  C5  OXE d   1      -0.121  -1.984   2.134  0.00  0.00    -0.002 A 
ATOM      8  C6  OXE d   1      -0.070  -0.849   1.332  0.00  0.00     0.003 A 
ENDROOT
TORSDOF 0
ENDMDL
