MODEL 1
REMARK minimizedAffinity -4.16165257
REMARK minimizedRMSD -1
REMARK  0 active torsions:
REMARK  status: ('A' for Active; 'I' for Inactive)
ROOT
ATOM      1  C2' OXE d   1       1.206  -2.876   1.266  0.00  0.00     0.078 C 
ATOM      2  C1' OXE d   1       2.838  -1.137  -0.215  0.00  0.00     0.078 C 
ATOM      3  C1  OXE d   1       1.408  -0.724   0.027  0.00  0.00    -0.078 A 
ATOM      4  C2  OXE d   1       0.603  -1.602   0.713  0.00  0.00    -0.078 A 
ATOM      5  C3  OXE d   1      -0.709  -1.247   1.011  0.00  0.00     0.003 A 
ATOM      6  C4  OXE d   1      -1.261  -0.072   0.486  0.00  0.00    -0.002 A 
ATOM      7  C5  OXE d   1      -0.471   0.818  -0.249  0.00  0.00    -0.002 A 
ATOM      8  C6  OXE d   1       0.874   0.528  -0.451  0.00  0.00     0.003 A 
ENDROOT
TORSDOF 0
ENDMDL
