MODEL 1
REMARK minimizedAffinity -1.27783394
REMARK minimizedRMSD -1
REMARK  0 active torsions:
REMARK  status: ('A' for Active; 'I' for Inactive)
ROOT
ATOM      1  C2' OXE d   1      -0.516   1.055  -0.428  0.00  0.00     0.078 C 
ATOM      2  C1' OXE d   1      -1.037  -0.222   2.016  0.00  0.00     0.078 C 
ATOM      3  C1  OXE d   1       0.231  -0.589   1.287  0.00  0.00    -0.078 A 
ATOM      4  C2  OXE d   1       0.455   0.006   0.069  0.00  0.00    -0.078 A 
ATOM      5  C3  OXE d   1       1.637  -0.256  -0.619  0.00  0.00     0.003 A 
ATOM      6  C4  OXE d   1       2.524  -1.234  -0.157  0.00  0.00    -0.002 A 
ATOM      7  C5  OXE d   1       2.295  -1.882   1.062  0.00  0.00    -0.002 A 
ATOM      8  C6  OXE d   1       1.178  -1.541   1.815  0.00  0.00     0.003 A 
ENDROOT
TORSDOF 0
ENDMDL
