MODEL 1
REMARK minimizedAffinity -2.55058336
REMARK minimizedRMSD -1
REMARK  0 active torsions:
REMARK  status: ('A' for Active; 'I' for Inactive)
ROOT
ATOM      1  C2' OXE d   1      -1.011  -0.152   1.810  0.00  0.00     0.078 C 
ATOM      2  C1' OXE d   1      -0.518   0.621  -0.844  0.00  0.00     0.078 C 
ATOM      3  C1  OXE d   1       0.477  -0.300  -0.183  0.00  0.00    -0.078 A 
ATOM      4  C2  OXE d   1       0.252  -0.635   1.131  0.00  0.00    -0.078 A 
ATOM      5  C3  OXE d   1       1.110  -1.525   1.772  0.00  0.00     0.003 A 
ATOM      6  C4  OXE d   1       2.282  -1.959   1.140  0.00  0.00    -0.002 A 
ATOM      7  C5  OXE d   1       2.550  -1.597  -0.184  0.00  0.00    -0.002 A 
ATOM      8  C6  OXE d   1       1.638  -0.805  -0.872  0.00  0.00     0.003 A 
ENDROOT
TORSDOF 0
ENDMDL
