MODEL 1
REMARK minimizedAffinity -5.95532751
REMARK minimizedRMSD -1
REMARK  0 active torsions:
REMARK  status: ('A' for Active; 'I' for Inactive)
ROOT
ATOM      1  C2' OXE d   1      -1.093  -1.195   1.036  0.00  0.00     0.078 C 
ATOM      2  C1' OXE d   1      -0.799   0.736  -0.980  0.00  0.00     0.078 C 
ATOM      3  C1  OXE d   1       0.446   0.053  -0.473  0.00  0.00    -0.078 A 
ATOM      4  C2  OXE d   1       0.298  -0.857   0.546  0.00  0.00    -0.078 A 
ATOM      5  C3  OXE d   1       1.408  -1.556   1.012  0.00  0.00     0.003 A 
ATOM      6  C4  OXE d   1       2.693  -1.230   0.560  0.00  0.00    -0.002 A 
ATOM      7  C5  OXE d   1       2.870  -0.278  -0.449  0.00  0.00    -0.002 A 
ATOM      8  C6  OXE d   1       1.755   0.341  -1.006  0.00  0.00     0.003 A 
ENDROOT
TORSDOF 0
ENDMDL
