MODEL 1
REMARK minimizedAffinity -4.49511576
REMARK minimizedRMSD -1
REMARK  0 active torsions:
REMARK  status: ('A' for Active; 'I' for Inactive)
ROOT
ATOM      1  C2' OXE d   1      -0.814   1.001   0.084  0.00  0.00     0.078 C 
ATOM      2  C1' OXE d   1      -1.425  -1.071   1.877  0.00  0.00     0.078 C 
ATOM      3  C1  OXE d   1      -0.128  -1.161   1.113  0.00  0.00    -0.078 A 
ATOM      4  C2  OXE d   1       0.141  -0.166   0.204  0.00  0.00    -0.078 A 
ATOM      5  C3  OXE d   1       1.350  -0.172  -0.487  0.00  0.00     0.003 A 
ATOM      6  C4  OXE d   1       2.223  -1.261  -0.378  0.00  0.00    -0.002 A 
ATOM      7  C5  OXE d   1       1.949  -2.304   0.513  0.00  0.00    -0.002 A 
ATOM      8  C6  OXE d   1       0.802  -2.249   1.296  0.00  0.00     0.003 A 
ENDROOT
TORSDOF 0
ENDMDL
