MODEL 1
REMARK minimizedAffinity -4.60726738
REMARK minimizedRMSD -1
REMARK  0 active torsions:
REMARK  status: ('A' for Active; 'I' for Inactive)
ROOT
ATOM      1  C4' PXY d   1       3.037  -0.855  -1.274  0.00  0.00     0.077 C 
ATOM      2  C1' PXY d   1      -2.080   0.447   1.079  0.00  0.00     0.077 C 
ATOM      3  C1  PXY d   1      -0.738   0.095   0.469  0.00  0.00    -0.082 A 
ATOM      4  C2  PXY d   1       0.033   1.055  -0.015  0.00  0.00     0.003 A 
ATOM      5  C3  PXY d   1       1.236   0.751  -0.599  0.00  0.00     0.003 A 
ATOM      6  C4  PXY d   1       1.678  -0.545  -0.640  0.00  0.00    -0.082 A 
ATOM      7  C5  PXY d   1       0.902  -1.529  -0.139  0.00  0.00     0.003 A 
ATOM      8  C6  PXY d   1      -0.334  -1.203   0.413  0.00  0.00     0.003 A 
ENDROOT
TORSDOF 0
ENDMDL
