MODEL 1
REMARK minimizedAffinity -5.35201263
REMARK minimizedRMSD -1
REMARK  0 active torsions:
REMARK  status: ('A' for Active; 'I' for Inactive)
ROOT
ATOM      1  C4' PXY d   1      -1.327   0.680   0.002  0.00  0.00     0.077 C 
ATOM      2  C1' PXY d   1       3.612   0.345  -2.982  0.00  0.00     0.077 C 
ATOM      3  C1  PXY d   1       2.316   0.420  -2.199  0.00  0.00    -0.082 A 
ATOM      4  C2  PXY d   1       1.564   1.506  -2.281  0.00  0.00     0.003 A 
ATOM      5  C3  PXY d   1       0.405   1.603  -1.555  0.00  0.00     0.003 A 
ATOM      6  C4  PXY d   1      -0.015   0.557  -0.778  0.00  0.00    -0.082 A 
ATOM      7  C5  PXY d   1       0.741  -0.559  -0.698  0.00  0.00     0.003 A 
ATOM      8  C6  PXY d   1       1.934  -0.621  -1.411  0.00  0.00     0.003 A 
ENDROOT
TORSDOF 0
ENDMDL
