MODEL 1
REMARK minimizedAffinity -4.70755577
REMARK minimizedRMSD -1
REMARK  0 active torsions:
REMARK  status: ('A' for Active; 'I' for Inactive)
ROOT
ATOM      1  C4' PXY d   1       1.125  -0.731  -5.274  0.00  0.00     0.077 C 
ATOM      2  C1' PXY d   1       2.919   0.282   0.127  0.00  0.00     0.077 C 
ATOM      3  C1  PXY d   1       2.441   0.027  -1.288  0.00  0.00    -0.082 A 
ATOM      4  C2  PXY d   1       2.549  -1.186  -1.807  0.00  0.00     0.003 A 
ATOM      5  C3  PXY d   1       2.151  -1.427  -3.096  0.00  0.00     0.003 A 
ATOM      6  C4  PXY d   1       1.587  -0.429  -3.845  0.00  0.00    -0.082 A 
ATOM      7  C5  PXY d   1       1.462   0.808  -3.320  0.00  0.00     0.003 A 
ATOM      8  C6  PXY d   1       1.911   1.042  -2.023  0.00  0.00     0.003 A 
ENDROOT
TORSDOF 0
ENDMDL
