MODEL 1
REMARK minimizedAffinity -2.42697048
REMARK minimizedRMSD -1
REMARK  0 active torsions:
REMARK  status: ('A' for Active; 'I' for Inactive)
ROOT
ATOM      1  C4' PXY d   1       2.859   0.026  -2.906  0.00  0.00     0.077 C 
ATOM      2  C1' PXY d   1      -1.493   0.789   0.820  0.00  0.00     0.077 C 
ATOM      3  C1  PXY d   1      -0.346   0.581  -0.149  0.00  0.00    -0.082 A 
ATOM      4  C2  PXY d   1      -0.076   1.510  -1.051  0.00  0.00     0.003 A 
ATOM      5  C3  PXY d   1       0.938   1.323  -1.956  0.00  0.00     0.003 A 
ATOM      6  C4  PXY d   1       1.716   0.198  -1.902  0.00  0.00    -0.082 A 
ATOM      7  C5  PXY d   1       1.453  -0.749  -0.977  0.00  0.00     0.003 A 
ATOM      8  C6  PXY d   1       0.394  -0.560  -0.094  0.00  0.00     0.003 A 
ENDROOT
TORSDOF 0
ENDMDL
