MODEL 1
REMARK minimizedAffinity -4.61819649
REMARK minimizedRMSD -1
REMARK  0 active torsions:
REMARK  status: ('A' for Active; 'I' for Inactive)
ROOT
ATOM      1  C4' PXY d   1      -1.701   0.473   0.620  0.00  0.00     0.077 C 
ATOM      2  C1' PXY d   1       3.224  -0.411  -2.274  0.00  0.00     0.077 C 
ATOM      3  C1  PXY d   1       1.935  -0.166  -1.515  0.00  0.00    -0.082 A 
ATOM      4  C2  PXY d   1       1.390  -1.149  -0.817  0.00  0.00     0.003 A 
ATOM      5  C3  PXY d   1       0.208  -0.955  -0.150  0.00  0.00     0.003 A 
ATOM      6  C4  PXY d   1      -0.396   0.275  -0.154  0.00  0.00    -0.082 A 
ATOM      7  C5  PXY d   1       0.160   1.286  -0.855  0.00  0.00     0.003 A 
ATOM      8  C6  PXY d   1       1.338   1.056  -1.559  0.00  0.00     0.003 A 
ENDROOT
TORSDOF 0
ENDMDL
