MODEL 1
REMARK minimizedAffinity -4.00616217
REMARK minimizedRMSD -1
REMARK  0 active torsions:
REMARK  status: ('A' for Active; 'I' for Inactive)
ROOT
ATOM      1  C4' PXY d   1      -2.423   0.690   1.175  0.00  0.00     0.077 C 
ATOM      2  C1' PXY d   1       2.799  -0.478  -1.011  0.00  0.00     0.077 C 
ATOM      3  C1  PXY d   1       1.430  -0.160  -0.443  0.00  0.00    -0.082 A 
ATOM      4  C2  PXY d   1       0.995  -0.815   0.621  0.00  0.00     0.003 A 
ATOM      5  C3  PXY d   1      -0.253  -0.562   1.129  0.00  0.00     0.003 A 
ATOM      6  C4  PXY d   1      -1.044   0.408   0.573  0.00  0.00    -0.082 A 
ATOM      7  C5  PXY d   1      -0.602   1.088  -0.506  0.00  0.00     0.003 A 
ATOM      8  C6  PXY d   1       0.651   0.788  -1.031  0.00  0.00     0.003 A 
ENDROOT
TORSDOF 0
ENDMDL
