MODEL 1
REMARK minimizedAffinity -5.68640947
REMARK minimizedRMSD -1
REMARK  0 active torsions:
REMARK  status: ('A' for Active; 'I' for Inactive)
ROOT
ATOM      1  C4' PXY d   1      -1.432   0.510   1.164  0.00  0.00     0.077 C 
ATOM      2  C1' PXY d   1       2.885   0.026  -2.651  0.00  0.00     0.077 C 
ATOM      3  C1  PXY d   1       1.752   0.140  -1.650  0.00  0.00    -0.082 A 
ATOM      4  C2  PXY d   1       1.012   1.236  -1.621  0.00  0.00     0.003 A 
ATOM      5  C3  PXY d   1       0.004   1.369  -0.701  0.00  0.00     0.003 A 
ATOM      6  C4  PXY d   1      -0.284   0.347   0.164  0.00  0.00    -0.082 A 
ATOM      7  C5  PXY d   1       0.460  -0.779   0.134  0.00  0.00     0.003 A 
ATOM      8  C6  PXY d   1       1.505  -0.877  -0.780  0.00  0.00     0.003 A 
ENDROOT
TORSDOF 0
ENDMDL
