MODEL 1
REMARK minimizedAffinity -3.73556304
REMARK minimizedRMSD -1
REMARK  0 active torsions:
REMARK  status: ('A' for Active; 'I' for Inactive)
ROOT
ATOM      1  C4' PXY d   1      -1.676   0.238   0.789  0.00  0.00     0.077 C 
ATOM      2  C1' PXY d   1       3.286  -0.178  -2.146  0.00  0.00     0.077 C 
ATOM      3  C1  PXY d   1       1.985  -0.082  -1.375  0.00  0.00    -0.082 A 
ATOM      4  C2  PXY d   1       1.189   0.959  -1.561  0.00  0.00     0.003 A 
ATOM      5  C3  PXY d   1       0.024   1.078  -0.849  0.00  0.00     0.003 A 
ATOM      6  C4  PXY d   1      -0.357   0.095   0.025  0.00  0.00    -0.082 A 
ATOM      7  C5  PXY d   1       0.444  -0.976   0.213  0.00  0.00     0.003 A 
ATOM      8  C6  PXY d   1       1.642  -1.057  -0.490  0.00  0.00     0.003 A 
ENDROOT
TORSDOF 0
ENDMDL
