MODEL 1
REMARK minimizedAffinity -4.3494072
REMARK minimizedRMSD -1
REMARK  0 active torsions:
REMARK  status: ('A' for Active; 'I' for Inactive)
ROOT
ATOM      1  C4' PXY d   1      -1.705   0.085   1.269  0.00  0.00     0.077 C 
ATOM      2  C1' PXY d   1       3.308  -0.231  -1.590  0.00  0.00     0.077 C 
ATOM      3  C1  PXY d   1       1.988  -0.157  -0.848  0.00  0.00    -0.082 A 
ATOM      4  C2  PXY d   1       1.687   0.930  -0.157  0.00  0.00     0.003 A 
ATOM      5  C3  PXY d   1       0.512   1.001   0.546  0.00  0.00     0.003 A 
ATOM      6  C4  PXY d   1      -0.388  -0.030   0.497  0.00  0.00    -0.082 A 
ATOM      7  C5  PXY d   1      -0.093  -1.138  -0.215  0.00  0.00     0.003 A 
ATOM      8  C6  PXY d   1       1.124  -1.207  -0.888  0.00  0.00     0.003 A 
ENDROOT
TORSDOF 0
ENDMDL
