MODEL 1
REMARK minimizedAffinity -3.33414507
REMARK minimizedRMSD -1
REMARK  0 active torsions:
REMARK  status: ('A' for Active; 'I' for Inactive)
ROOT
ATOM      1  C4' PXY d   1      -2.432   0.317   1.335  0.00  0.00     0.077 C 
ATOM      2  C1' PXY d   1       2.490  -1.612  -1.003  0.00  0.00     0.077 C 
ATOM      3  C1  PXY d   1       1.204  -1.094  -0.390  0.00  0.00    -0.082 A 
ATOM      4  C2  PXY d   1       0.415  -1.924   0.273  0.00  0.00     0.003 A 
ATOM      5  C3  PXY d   1      -0.767  -1.479   0.806  0.00  0.00     0.003 A 
ATOM      6  C4  PXY d   1      -1.120  -0.160   0.707  0.00  0.00    -0.082 A 
ATOM      7  C5  PXY d   1      -0.315   0.695   0.042  0.00  0.00     0.003 A 
ATOM      8  C6  PXY d   1       0.861   0.215  -0.528  0.00  0.00     0.003 A 
ENDROOT
TORSDOF 0
ENDMDL
