MODEL 1
REMARK minimizedAffinity -2.80992532
REMARK minimizedRMSD -1
REMARK  0 active torsions:
REMARK  status: ('A' for Active; 'I' for Inactive)
ROOT
ATOM      1  C4' PXY d   1      -1.085  -0.058   0.497  0.00  0.00     0.077 C 
ATOM      2  C1' PXY d   1       4.417  -0.450  -1.232  0.00  0.00     0.077 C 
ATOM      3  C1  PXY d   1       2.971  -0.356  -0.788  0.00  0.00    -0.082 A 
ATOM      4  C2  PXY d   1       2.552   0.724  -0.149  0.00  0.00     0.003 A 
ATOM      5  C3  PXY d   1       1.255   0.813   0.288  0.00  0.00     0.003 A 
ATOM      6  C4  PXY d   1       0.364  -0.193   0.022  0.00  0.00    -0.082 A 
ATOM      7  C5  PXY d   1       0.781  -1.293  -0.639  0.00  0.00     0.003 A 
ATOM      8  C6  PXY d   1       2.112  -1.381  -1.038  0.00  0.00     0.003 A 
ENDROOT
TORSDOF 0
ENDMDL
