MODEL 1
REMARK minimizedAffinity -4.18214989
REMARK minimizedRMSD -1
REMARK  0 active torsions:
REMARK  status: ('A' for Active; 'I' for Inactive)
ROOT
ATOM      1  C4' PXY d   1      -2.091   1.621  -0.620  0.00  0.00     0.077 C 
ATOM      2  C1' PXY d   1       3.133  -0.842  -0.871  0.00  0.00     0.077 C 
ATOM      3  C1  PXY d   1       1.758  -0.207  -0.800  0.00  0.00    -0.082 A 
ATOM      4  C2  PXY d   1       1.461   0.802  -1.604  0.00  0.00     0.003 A 
ATOM      5  C3  PXY d   1       0.234   1.408  -1.531  0.00  0.00     0.003 A 
ATOM      6  C4  PXY d   1      -0.718   0.944  -0.663  0.00  0.00    -0.082 A 
ATOM      7  C5  PXY d   1      -0.427  -0.092   0.152  0.00  0.00     0.003 A 
ATOM      8  C6  PXY d   1       0.839  -0.667   0.091  0.00  0.00     0.003 A 
ENDROOT
TORSDOF 0
ENDMDL
