MODEL 1
REMARK minimizedAffinity -5.05378246
REMARK minimizedRMSD -1
REMARK  0 active torsions:
REMARK  status: ('A' for Active; 'I' for Inactive)
ROOT
ATOM      1  C4' PXY d   1      -1.194   0.553   1.085  0.00  0.00     0.077 C 
ATOM      2  C1' PXY d   1       3.391  -0.049  -2.384  0.00  0.00     0.077 C 
ATOM      3  C1  PXY d   1       2.188   0.096  -1.473  0.00  0.00    -0.082 A 
ATOM      4  C2  PXY d   1       1.471   1.207  -1.509  0.00  0.00     0.003 A 
ATOM      5  C3  PXY d   1       0.398   1.368  -0.670  0.00  0.00     0.003 A 
ATOM      6  C4  PXY d   1       0.024   0.359   0.177  0.00  0.00    -0.082 A 
ATOM      7  C5  PXY d   1       0.744  -0.782   0.212  0.00  0.00     0.003 A 
ATOM      8  C6  PXY d   1       1.854  -0.909  -0.619  0.00  0.00     0.003 A 
ENDROOT
TORSDOF 0
ENDMDL
