MODEL 1
REMARK minimizedAffinity -4.33818436
REMARK minimizedRMSD -1
REMARK  0 active torsions:
REMARK  status: ('A' for Active; 'I' for Inactive)
ROOT
ATOM      1  C4' PXY d   1       1.540   2.182  -2.738  0.00  0.00     0.077 C 
ATOM      2  C1' PXY d   1       0.946  -2.404   0.731  0.00  0.00     0.077 C 
ATOM      3  C1  PXY d   1       1.115  -1.204  -0.180  0.00  0.00    -0.082 A 
ATOM      4  C2  PXY d   1       0.281  -0.182  -0.076  0.00  0.00     0.003 A 
ATOM      5  C3  PXY d   1       0.399   0.897  -0.914  0.00  0.00     0.003 A 
ATOM      6  C4  PXY d   1       1.413   0.954  -1.832  0.00  0.00    -0.082 A 
ATOM      7  C5  PXY d   1       2.274  -0.081  -1.938  0.00  0.00     0.003 A 
ATOM      8  C6  PXY d   1       2.112  -1.185  -1.106  0.00  0.00     0.003 A 
ENDROOT
TORSDOF 0
ENDMDL
