MODEL 1
REMARK minimizedAffinity -6.22911501
REMARK minimizedRMSD -1
REMARK  0 active torsions:
REMARK  status: ('A' for Active; 'I' for Inactive)
ROOT
ATOM      1  C4' PXY d   1      -1.782   1.174  -0.493  0.00  0.00     0.077 C 
ATOM      2  C1' PXY d   1       3.628  -0.629  -1.441  0.00  0.00     0.077 C 
ATOM      3  C1  PXY d   1       2.206  -0.168  -1.190  0.00  0.00    -0.082 A 
ATOM      4  C2  PXY d   1       1.794   0.985  -1.691  0.00  0.00     0.003 A 
ATOM      5  C3  PXY d   1       0.521   1.432  -1.447  0.00  0.00     0.003 A 
ATOM      6  C4  PXY d   1      -0.357   0.665  -0.728  0.00  0.00    -0.082 A 
ATOM      7  C5  PXY d   1       0.053  -0.518  -0.223  0.00  0.00     0.003 A 
ATOM      8  C6  PXY d   1       1.362  -0.934  -0.447  0.00  0.00     0.003 A 
ENDROOT
TORSDOF 0
ENDMDL
