MODEL 1
REMARK minimizedAffinity -3.93039513
REMARK minimizedRMSD -1
REMARK  0 active torsions:
REMARK  status: ('A' for Active; 'I' for Inactive)
ROOT
ATOM      1  C4' PXY d   1       3.384  -0.349  -1.500  0.00  0.00     0.077 C 
ATOM      2  C1' PXY d   1      -2.030   1.263  -0.273  0.00  0.00     0.077 C 
ATOM      3  C1  PXY d   1      -0.610   0.848  -0.606  0.00  0.00    -0.082 A 
ATOM      4  C2  PXY d   1      -0.145  -0.307  -0.159  0.00  0.00     0.003 A 
ATOM      5  C3  PXY d   1       1.147  -0.684  -0.423  0.00  0.00     0.003 A 
ATOM      6  C4  PXY d   1       1.954   0.106  -1.197  0.00  0.00    -0.082 A 
ATOM      7  C5  PXY d   1       1.483   1.282  -1.666  0.00  0.00     0.003 A 
ATOM      8  C6  PXY d   1       0.183   1.665  -1.352  0.00  0.00     0.003 A 
ENDROOT
TORSDOF 0
ENDMDL
