MODEL 1
REMARK minimizedAffinity -4.33068371
REMARK minimizedRMSD -1
REMARK  0 active torsions:
REMARK  status: ('A' for Active; 'I' for Inactive)
ROOT
ATOM      1  C4' PXY d   1       3.115  -0.954  -0.838  0.00  0.00     0.077 C 
ATOM      2  C1' PXY d   1      -2.295   0.051   0.932  0.00  0.00     0.077 C 
ATOM      3  C1  PXY d   1      -0.877  -0.224   0.474  0.00  0.00    -0.082 A 
ATOM      4  C2  PXY d   1      -0.088   0.786   0.147  0.00  0.00     0.003 A 
ATOM      5  C3  PXY d   1       1.188   0.554  -0.300  0.00  0.00     0.003 A 
ATOM      6  C4  PXY d   1       1.678  -0.723  -0.362  0.00  0.00    -0.082 A 
ATOM      7  C5  PXY d   1       0.883  -1.758  -0.019  0.00  0.00     0.003 A 
ATOM      8  C6  PXY d   1      -0.422  -1.504   0.392  0.00  0.00     0.003 A 
ENDROOT
TORSDOF 0
ENDMDL
