MODEL 1
REMARK minimizedAffinity -4.72338343
REMARK minimizedRMSD -1
REMARK  0 active torsions:
REMARK  status: ('A' for Active; 'I' for Inactive)
ROOT
ATOM      1  C4' PXY d   1      -1.964   0.381   1.078  0.00  0.00     0.077 C 
ATOM      2  C1' PXY d   1       3.012  -0.657  -1.674  0.00  0.00     0.077 C 
ATOM      3  C1  PXY d   1       1.704  -0.397  -0.953  0.00  0.00    -0.082 A 
ATOM      4  C2  PXY d   1       1.202   0.827  -0.929  0.00  0.00     0.003 A 
ATOM      5  C3  PXY d   1       0.037   1.086  -0.255  0.00  0.00     0.003 A 
ATOM      6  C4  PXY d   1      -0.651   0.071   0.355  0.00  0.00    -0.082 A 
ATOM      7  C5  PXY d   1      -0.151  -1.183   0.326  0.00  0.00     0.003 A 
ATOM      8  C6  PXY d   1       1.055  -1.417  -0.328  0.00  0.00     0.003 A 
ENDROOT
TORSDOF 0
ENDMDL
