MODEL 1
REMARK minimizedAffinity -5.39959669
REMARK minimizedRMSD -1
REMARK  0 active torsions:
REMARK  status: ('A' for Active; 'I' for Inactive)
ROOT
ATOM      1  C4' PXY d   1       1.157   3.536  -2.244  0.00  0.00     0.077 C 
ATOM      2  C1' PXY d   1       0.629  -1.848  -0.208  0.00  0.00     0.077 C 
ATOM      3  C1  PXY d   1       0.780  -0.438  -0.743  0.00  0.00    -0.082 A 
ATOM      4  C2  PXY d   1      -0.115   0.483  -0.425  0.00  0.00     0.003 A 
ATOM      5  C3  PXY d   1      -0.011   1.755  -0.926  0.00  0.00     0.003 A 
ATOM      6  C4  PXY d   1       1.049   2.102  -1.719  0.00  0.00    -0.082 A 
ATOM      7  C5  PXY d   1       1.973   1.172  -2.040  0.00  0.00     0.003 A 
ATOM      8  C6  PXY d   1       1.827  -0.124  -1.554  0.00  0.00     0.003 A 
ENDROOT
TORSDOF 0
ENDMDL
