MODEL 1
REMARK minimizedAffinity -4.22147799
REMARK minimizedRMSD -1
REMARK  0 active torsions:
REMARK  status: ('A' for Active; 'I' for Inactive)
ROOT
ATOM      1  C4' PXY d   1       0.387  -2.238   0.506  0.00  0.00     0.077 C 
ATOM      2  C1' PXY d   1       1.953   2.176  -2.882  0.00  0.00     0.077 C 
ATOM      3  C1  PXY d   1       1.534   1.026  -1.987  0.00  0.00    -0.082 A 
ATOM      4  C2  PXY d   1       2.355   0.003  -1.809  0.00  0.00     0.003 A 
ATOM      5  C3  PXY d   1       1.979  -1.060  -1.029  0.00  0.00     0.003 A 
ATOM      6  C4  PXY d   1       0.772  -1.051  -0.381  0.00  0.00    -0.082 A 
ATOM      7  C5  PXY d   1      -0.066  -0.007  -0.549  0.00  0.00     0.003 A 
ATOM      8  C6  PXY d   1       0.318   1.044  -1.378  0.00  0.00     0.003 A 
ENDROOT
TORSDOF 0
ENDMDL
