MODEL 1
REMARK minimizedAffinity -4.57024384
REMARK minimizedRMSD -1
REMARK  0 active torsions:
REMARK  status: ('A' for Active; 'I' for Inactive)
ROOT
ATOM      1  C4' PXY d   1      -0.704  -2.420  -0.017  0.00  0.00     0.077 C 
ATOM      2  C1' PXY d   1       0.308   3.258   0.373  0.00  0.00     0.077 C 
ATOM      3  C1  PXY d   1       0.034   1.770   0.280  0.00  0.00    -0.082 A 
ATOM      4  C2  PXY d   1       0.971   0.959  -0.184  0.00  0.00     0.003 A 
ATOM      5  C3  PXY d   1       0.729  -0.385  -0.305  0.00  0.00     0.003 A 
ATOM      6  C4  PXY d   1      -0.467  -0.912   0.103  0.00  0.00    -0.082 A 
ATOM      7  C5  PXY d   1      -1.425  -0.093   0.587  0.00  0.00     0.003 A 
ATOM      8  C6  PXY d   1      -1.174   1.274   0.663  0.00  0.00     0.003 A 
ENDROOT
TORSDOF 0
ENDMDL
