MODEL 1
REMARK minimizedAffinity -5.11515427
REMARK minimizedRMSD -1
REMARK  0 active torsions:
REMARK  status: ('A' for Active; 'I' for Inactive)
ROOT
ATOM      1  C4' PXY d   1      -0.143   3.103   0.842  0.00  0.00     0.077 C 
ATOM      2  C1' PXY d   1      -0.456  -2.522  -0.450  0.00  0.00     0.077 C 
ATOM      3  C1  PXY d   1      -0.385  -1.045  -0.117  0.00  0.00    -0.082 A 
ATOM      4  C2  PXY d   1       0.783  -0.495   0.170  0.00  0.00     0.003 A 
ATOM      5  C3  PXY d   1       0.861   0.833   0.504  0.00  0.00     0.003 A 
ATOM      6  C4  PXY d   1      -0.261   1.617   0.492  0.00  0.00    -0.082 A 
ATOM      7  C5  PXY d   1      -1.455   1.066   0.189  0.00  0.00     0.003 A 
ATOM      8  C6  PXY d   1      -1.519  -0.293  -0.107  0.00  0.00     0.003 A 
ENDROOT
TORSDOF 0
ENDMDL
