MODEL 1
REMARK minimizedAffinity -2.63632655
REMARK minimizedRMSD -1
REMARK  0 active torsions:
REMARK  status: ('A' for Active; 'I' for Inactive)
ROOT
ATOM      1  C4' PXY d   1       0.411   3.481   0.188  0.00  0.00     0.077 C 
ATOM      2  C1' PXY d   1       0.646  -2.278  -0.260  0.00  0.00     0.077 C 
ATOM      3  C1  PXY d   1       0.597  -0.768  -0.137  0.00  0.00    -0.082 A 
ATOM      4  C2  PXY d   1      -0.574  -0.155  -0.069  0.00  0.00     0.003 A 
ATOM      5  C3  PXY d   1      -0.638   1.212   0.010  0.00  0.00     0.003 A 
ATOM      6  C4  PXY d   1       0.509   1.957   0.073  0.00  0.00    -0.082 A 
ATOM      7  C5  PXY d   1       1.708   1.339   0.015  0.00  0.00     0.003 A 
ATOM      8  C6  PXY d   1       1.751  -0.047  -0.106  0.00  0.00     0.003 A 
ENDROOT
TORSDOF 0
ENDMDL
