MODEL 1
REMARK minimizedAffinity -5.41171265
REMARK minimizedRMSD -1
REMARK  0 active torsions:
REMARK  status: ('A' for Active; 'I' for Inactive)
ROOT
ATOM      1  C4' PXY d   1       0.065  -1.395   0.286  0.00  0.00     0.077 C 
ATOM      2  C1' PXY d   1       1.843   4.095   0.615  0.00  0.00     0.077 C 
ATOM      3  C1  PXY d   1       1.365   2.659   0.533  0.00  0.00    -0.082 A 
ATOM      4  C2  PXY d   1       2.246   1.673   0.573  0.00  0.00     0.003 A 
ATOM      5  C3  PXY d   1       1.834   0.370   0.468  0.00  0.00     0.003 A 
ATOM      6  C4  PXY d   1       0.502   0.070   0.375  0.00  0.00    -0.082 A 
ATOM      7  C5  PXY d   1      -0.405   1.070   0.345  0.00  0.00     0.003 A 
ATOM      8  C6  PXY d   1       0.037   2.388   0.411  0.00  0.00     0.003 A 
ENDROOT
TORSDOF 0
ENDMDL
