MODEL 1
REMARK minimizedAffinity -3.93894267
REMARK minimizedRMSD -1
REMARK  0 active torsions:
REMARK  status: ('A' for Active; 'I' for Inactive)
ROOT
ATOM      1  C4' PXY d   1      -0.636  -2.464  -0.063  0.00  0.00     0.077 C 
ATOM      2  C1' PXY d   1       0.221   3.251   0.080  0.00  0.00     0.077 C 
ATOM      3  C1  PXY d   1      -0.013   1.754   0.051  0.00  0.00    -0.082 A 
ATOM      4  C2  PXY d   1       0.959   0.947  -0.343  0.00  0.00     0.003 A 
ATOM      5  C3  PXY d   1       0.754  -0.407  -0.405  0.00  0.00     0.003 A 
ATOM      6  C4  PXY d   1      -0.441  -0.946  -0.009  0.00  0.00    -0.082 A 
ATOM      7  C5  PXY d   1      -1.434  -0.130   0.405  0.00  0.00     0.003 A 
ATOM      8  C6  PXY d   1      -1.219   1.245   0.421  0.00  0.00     0.003 A 
ENDROOT
TORSDOF 0
ENDMDL
