MODEL 1
REMARK minimizedAffinity -1.67216957
REMARK minimizedRMSD -1
REMARK  0 active torsions:
REMARK  status: ('A' for Active; 'I' for Inactive)
ROOT
ATOM      1  C4' PXY d   1       1.170   1.401   0.411  0.00  0.00     0.077 C 
ATOM      2  C1' PXY d   1      -1.040  -3.710  -1.139  0.00  0.00     0.077 C 
ATOM      3  C1  PXY d   1      -0.470  -2.369  -0.724  0.00  0.00    -0.082 A 
ATOM      4  C2  PXY d   1       0.283  -1.687  -1.572  0.00  0.00     0.003 A 
ATOM      5  C3  PXY d   1       0.833  -0.487  -1.201  0.00  0.00     0.003 A 
ATOM      6  C4  PXY d   1       0.566   0.046   0.031  0.00  0.00    -0.082 A 
ATOM      7  C5  PXY d   1      -0.211  -0.638   0.898  0.00  0.00     0.003 A 
ATOM      8  C6  PXY d   1      -0.726  -1.874   0.518  0.00  0.00     0.003 A 
ENDROOT
TORSDOF 0
ENDMDL
