MODEL 1
REMARK minimizedAffinity -3.12207103
REMARK minimizedRMSD -1
REMARK  0 active torsions:
REMARK  status: ('A' for Active; 'I' for Inactive)
ROOT
ATOM      1  C4' PXY d   1       2.964   2.967   1.918  0.00  0.00     0.077 C 
ATOM      2  C1' PXY d   1      -2.106   0.727   0.276  0.00  0.00     0.077 C 
ATOM      3  C1  PXY d   1      -0.771   1.302   0.707  0.00  0.00    -0.082 A 
ATOM      4  C2  PXY d   1      -0.732   2.474   1.321  0.00  0.00     0.003 A 
ATOM      5  C3  PXY d   1       0.469   3.024   1.689  0.00  0.00     0.003 A 
ATOM      6  C4  PXY d   1       1.638   2.343   1.474  0.00  0.00    -0.082 A 
ATOM      7  C5  PXY d   1       1.605   1.142   0.858  0.00  0.00     0.003 A 
ATOM      8  C6  PXY d   1       0.379   0.620   0.456  0.00  0.00     0.003 A 
ENDROOT
TORSDOF 0
ENDMDL
