MODEL 1
REMARK minimizedAffinity -3.8807435
REMARK minimizedRMSD -1
REMARK  0 active torsions:
REMARK  status: ('A' for Active; 'I' for Inactive)
ROOT
ATOM      1  C4' PXY d   1      -0.810  -2.019  -0.032  0.00  0.00     0.077 C 
ATOM      2  C1' PXY d   1       0.309   3.651  -0.165  0.00  0.00     0.077 C 
ATOM      3  C1  PXY d   1       0.026   2.162  -0.137  0.00  0.00    -0.082 A 
ATOM      4  C2  PXY d   1      -1.206   1.734   0.085  0.00  0.00     0.003 A 
ATOM      5  C3  PXY d   1      -1.473   0.391   0.145  0.00  0.00     0.003 A 
ATOM      6  C4  PXY d   1      -0.480  -0.524  -0.078  0.00  0.00    -0.082 A 
ATOM      7  C5  PXY d   1       0.778  -0.096  -0.316  0.00  0.00     0.003 A 
ATOM      8  C6  PXY d   1       1.037   1.272  -0.332  0.00  0.00     0.003 A 
ENDROOT
TORSDOF 0
ENDMDL
