MODEL 1
REMARK minimizedAffinity -5.64532375
REMARK minimizedRMSD -1
REMARK  0 active torsions:
REMARK  status: ('A' for Active; 'I' for Inactive)
ROOT
ATOM      1  C4' PXY d   1      -0.091   3.053  -0.201  0.00  0.00     0.077 C 
ATOM      2  C1' PXY d   1      -0.556  -2.709  -0.232  0.00  0.00     0.077 C 
ATOM      3  C1  PXY d   1      -0.447  -1.197  -0.226  0.00  0.00    -0.082 A 
ATOM      4  C2  PXY d   1       0.711  -0.624  -0.509  0.00  0.00     0.003 A 
ATOM      5  C3  PXY d   1       0.836   0.742  -0.477  0.00  0.00     0.003 A 
ATOM      6  C4  PXY d   1      -0.250   1.530  -0.204  0.00  0.00    -0.082 A 
ATOM      7  C5  PXY d   1      -1.438   0.952   0.076  0.00  0.00     0.003 A 
ATOM      8  C6  PXY d   1      -1.533  -0.436   0.078  0.00  0.00     0.003 A 
ENDROOT
TORSDOF 0
ENDMDL
