MODEL 1
REMARK minimizedAffinity -4.19087267
REMARK minimizedRMSD -1
REMARK  0 active torsions:
REMARK  status: ('A' for Active; 'I' for Inactive)
ROOT
ATOM      1  C4' PXY d   1       0.374  -2.407   0.388  0.00  0.00     0.077 C 
ATOM      2  C1' PXY d   1       0.171   3.353  -0.052  0.00  0.00     0.077 C 
ATOM      3  C1  PXY d   1       0.236   1.842   0.057  0.00  0.00    -0.082 A 
ATOM      4  C2  PXY d   1      -0.878   1.152   0.239  0.00  0.00     0.003 A 
ATOM      5  C3  PXY d   1      -0.834  -0.212   0.372  0.00  0.00     0.003 A 
ATOM      6  C4  PXY d   1       0.356  -0.881   0.263  0.00  0.00    -0.082 A 
ATOM      7  C5  PXY d   1       1.495  -0.184   0.066  0.00  0.00     0.003 A 
ATOM      8  C6  PXY d   1       1.434   1.203  -0.024  0.00  0.00     0.003 A 
ENDROOT
TORSDOF 0
ENDMDL
