MODEL 1
REMARK minimizedAffinity -4.84318542
REMARK minimizedRMSD -1
REMARK  0 active torsions:
REMARK  status: ('A' for Active; 'I' for Inactive)
ROOT
ATOM      1  C4' PXY d   1       0.126   3.347  -0.017  0.00  0.00     0.077 C 
ATOM      2  C1' PXY d   1      -0.221  -2.419  -0.231  0.00  0.00     0.077 C 
ATOM      3  C1  PXY d   1      -0.143  -0.906  -0.176  0.00  0.00    -0.082 A 
ATOM      4  C2  PXY d   1       0.989  -0.298  -0.491  0.00  0.00     0.003 A 
ATOM      5  C3  PXY d   1       1.087   1.068  -0.417  0.00  0.00     0.003 A 
ATOM      6  C4  PXY d   1      -0.001   1.822  -0.067  0.00  0.00    -0.082 A 
ATOM      7  C5  PXY d   1      -1.163   1.209   0.246  0.00  0.00     0.003 A 
ATOM      8  C6  PXY d   1      -1.229  -0.181   0.204  0.00  0.00     0.003 A 
ENDROOT
TORSDOF 0
ENDMDL
