MODEL 1
REMARK minimizedAffinity -5.10884666
REMARK minimizedRMSD -1
REMARK  0 active torsions:
REMARK  status: ('A' for Active; 'I' for Inactive)
ROOT
ATOM      1  C4' PXY d   1       0.410   3.066   0.029  0.00  0.00     0.077 C 
ATOM      2  C1' PXY d   1      -0.777  -2.547  -0.676  0.00  0.00     0.077 C 
ATOM      3  C1  PXY d   1      -0.478  -1.072  -0.493  0.00  0.00    -0.082 A 
ATOM      4  C2  PXY d   1       0.743  -0.618  -0.725  0.00  0.00     0.003 A 
ATOM      5  C3  PXY d   1       1.039   0.707  -0.534  0.00  0.00     0.003 A 
ATOM      6  C4  PXY d   1       0.061   1.586  -0.152  0.00  0.00    -0.082 A 
ATOM      7  C5  PXY d   1      -1.190   1.133   0.076  0.00  0.00     0.003 A 
ATOM      8  C6  PXY d   1      -1.459  -0.223  -0.084  0.00  0.00     0.003 A 
ENDROOT
TORSDOF 0
ENDMDL
