MODEL 1
REMARK minimizedAffinity -3.78128743
REMARK minimizedRMSD -1
REMARK  0 active torsions:
REMARK  status: ('A' for Active; 'I' for Inactive)
ROOT
ATOM      1  C4' PXY d   1      -0.355  -2.113  -0.222  0.00  0.00     0.077 C 
ATOM      2  C1' PXY d   1       0.996   3.420   0.762  0.00  0.00     0.077 C 
ATOM      3  C1  PXY d   1       0.654   1.967   0.500  0.00  0.00    -0.082 A 
ATOM      4  C2  PXY d   1      -0.608   1.616   0.313  0.00  0.00     0.003 A 
ATOM      5  C3  PXY d   1      -0.938   0.301   0.107  0.00  0.00     0.003 A 
ATOM      6  C4  PXY d   1       0.038  -0.656   0.037  0.00  0.00    -0.082 A 
ATOM      7  C5  PXY d   1       1.329  -0.304   0.215  0.00  0.00     0.003 A 
ATOM      8  C6  PXY d   1       1.640   1.030   0.465  0.00  0.00     0.003 A 
ENDROOT
TORSDOF 0
ENDMDL
