MODEL 1
REMARK minimizedAffinity -3.07504702
REMARK minimizedRMSD -1
REMARK  0 active torsions:
REMARK  status: ('A' for Active; 'I' for Inactive)
ROOT
ATOM      1  C4' PXY d   1      -0.374  -2.482  -1.525  0.00  0.00     0.077 C 
ATOM      2  C1' PXY d   1       0.667   2.760   0.679  0.00  0.00     0.077 C 
ATOM      3  C1  PXY d   1       0.393   1.380   0.113  0.00  0.00    -0.082 A 
ATOM      4  C2  PXY d   1       0.843   1.066  -1.090  0.00  0.00     0.003 A 
ATOM      5  C3  PXY d   1       0.577  -0.166  -1.631  0.00  0.00     0.003 A 
ATOM      6  C4  PXY d   1      -0.113  -1.104  -0.910  0.00  0.00    -0.082 A 
ATOM      7  C5  PXY d   1      -0.566  -0.794   0.323  0.00  0.00     0.003 A 
ATOM      8  C6  PXY d   1      -0.320   0.476   0.837  0.00  0.00     0.003 A 
ENDROOT
TORSDOF 0
ENDMDL
