MODEL 1
REMARK minimizedAffinity -2.52408791
REMARK minimizedRMSD -1
REMARK  0 active torsions:
REMARK  status: ('A' for Active; 'I' for Inactive)
ROOT
ATOM      1  C4' PXY d   1      -1.049  -1.886   0.729  0.00  0.00     0.077 C 
ATOM      2  C1' PXY d   1       0.175   3.573  -0.726  0.00  0.00     0.077 C 
ATOM      3  C1  PXY d   1      -0.137   2.137  -0.354  0.00  0.00    -0.082 A 
ATOM      4  C2  PXY d   1      -1.292   1.848   0.224  0.00  0.00     0.003 A 
ATOM      5  C3  PXY d   1      -1.578   0.559   0.596  0.00  0.00     0.003 A 
ATOM      6  C4  PXY d   1      -0.695  -0.452   0.327  0.00  0.00    -0.082 A 
ATOM      7  C5  PXY d   1       0.481  -0.166  -0.271  0.00  0.00     0.003 A 
ATOM      8  C6  PXY d   1       0.770   1.154  -0.604  0.00  0.00     0.003 A 
ENDROOT
TORSDOF 0
ENDMDL
