MODEL 1
REMARK minimizedAffinity -5.30310726
REMARK minimizedRMSD -1
REMARK  0 active torsions:
REMARK  status: ('A' for Active; 'I' for Inactive)
ROOT
ATOM      1  C4' PXY d   1       0.428  -2.489  -0.073  0.00  0.00     0.077 C 
ATOM      2  C1' PXY d   1       0.174   3.277   0.235  0.00  0.00     0.077 C 
ATOM      3  C1  PXY d   1       0.229   1.764   0.161  0.00  0.00    -0.082 A 
ATOM      4  C2  PXY d   1       1.394   1.160  -0.013  0.00  0.00     0.003 A 
ATOM      5  C3  PXY d   1       1.458  -0.206  -0.114  0.00  0.00     0.003 A 
ATOM      6  C4  PXY d   1       0.325  -0.964   0.017  0.00  0.00    -0.082 A 
ATOM      7  C5  PXY d   1      -0.865  -0.356   0.205  0.00  0.00     0.003 A 
ATOM      8  C6  PXY d   1      -0.914   1.034   0.264  0.00  0.00     0.003 A 
ENDROOT
TORSDOF 0
ENDMDL
