MODEL 1
REMARK minimizedAffinity -5.51303864
REMARK minimizedRMSD -1
REMARK  0 active torsions:
REMARK  status: ('A' for Active; 'I' for Inactive)
ROOT
ATOM      1  C4' PXY d   1       2.227   1.056  -0.156  0.00  0.00     0.077 C 
ATOM      2  C1' PXY d   1      -3.503   1.118   0.607  0.00  0.00     0.077 C 
ATOM      3  C1  PXY d   1      -2.001   1.113   0.400  0.00  0.00    -0.082 A 
ATOM      4  C2  PXY d   1      -1.337  -0.030   0.456  0.00  0.00     0.003 A 
ATOM      5  C3  PXY d   1       0.025  -0.049   0.303  0.00  0.00     0.003 A 
ATOM      6  C4  PXY d   1       0.709   1.107   0.038  0.00  0.00    -0.082 A 
ATOM      7  C5  PXY d   1       0.037   2.276  -0.031  0.00  0.00     0.003 A 
ATOM      8  C6  PXY d   1      -1.341   2.279   0.168  0.00  0.00     0.003 A 
ENDROOT
TORSDOF 0
ENDMDL
