MODEL 1
REMARK minimizedAffinity -3.6805408
REMARK minimizedRMSD -1
REMARK  0 active torsions:
REMARK  status: ('A' for Active; 'I' for Inactive)
ROOT
ATOM      1  C4' PXY d   1       2.821   1.140   0.466  0.00  0.00     0.077 C 
ATOM      2  C1' PXY d   1      -2.957   1.210   0.613  0.00  0.00     0.077 C 
ATOM      3  C1  PXY d   1      -1.442   1.204   0.571  0.00  0.00    -0.082 A 
ATOM      4  C2  PXY d   1      -0.798   0.069   0.355  0.00  0.00     0.003 A 
ATOM      5  C3  PXY d   1       0.573   0.040   0.346  0.00  0.00     0.003 A 
ATOM      6  C4  PXY d   1       1.291   1.194   0.507  0.00  0.00    -0.082 A 
ATOM      7  C5  PXY d   1       0.641   2.359   0.717  0.00  0.00     0.003 A 
ATOM      8  C6  PXY d   1      -0.750   2.360   0.764  0.00  0.00     0.003 A 
ENDROOT
TORSDOF 0
ENDMDL
