MODEL 1
REMARK minimizedAffinity -3.623631
REMARK minimizedRMSD -1
REMARK  0 active torsions:
REMARK  status: ('A' for Active; 'I' for Inactive)
ROOT
ATOM      1  C4' PXY d   1       3.146   2.533   2.195  0.00  0.00     0.077 C 
ATOM      2  C1' PXY d   1      -1.171  -0.183  -0.525  0.00  0.00     0.077 C 
ATOM      3  C1  PXY d   1      -0.044   0.541   0.186  0.00  0.00    -0.082 A 
ATOM      4  C2  PXY d   1       1.128  -0.056   0.330  0.00  0.00     0.003 A 
ATOM      5  C3  PXY d   1       2.148   0.572   0.998  0.00  0.00     0.003 A 
ATOM      6  C4  PXY d   1       1.983   1.844   1.476  0.00  0.00    -0.082 A 
ATOM      7  C5  PXY d   1       0.793   2.463   1.323  0.00  0.00     0.003 A 
ATOM      8  C6  PXY d   1      -0.242   1.793   0.679  0.00  0.00     0.003 A 
ENDROOT
TORSDOF 0
ENDMDL
