MODEL 1
REMARK minimizedAffinity 0.854299843
REMARK minimizedRMSD -1
REMARK  0 active torsions:
REMARK  status: ('A' for Active; 'I' for Inactive)
ROOT
ATOM      1  C   UNL d   1      -0.259   4.601  -0.810  0.00  0.00     0.023 A 
ATOM      2  C1  UNL d   1      -1.163   3.627  -0.385  0.00  0.00     0.003 A 
ATOM      3  C2  UNL d   1      -0.703   2.363  -0.010  0.00  0.00     0.048 A 
ATOM      4  C3  UNL d   1       0.661   2.080  -0.062  0.00  0.00     0.023 A 
ATOM      5  C4  UNL d   1       1.569   3.051  -0.486  0.00  0.00     0.048 A 
ATOM      6  C5  UNL d   1       1.105   4.314  -0.861  0.00  0.00     0.003 A 
ATOM      7  I   UNL d   1       1.347   0.199   0.495  0.00  0.00    -0.146 I 
ENDROOT
TORSDOF 0
ENDMDL
