MODEL 1
REMARK minimizedAffinity -4.19033909
REMARK minimizedRMSD -1
REMARK  0 active torsions:
REMARK  status: ('A' for Active; 'I' for Inactive)
ROOT
ATOM      1  C   UNL d   1      -4.185   1.551  -3.113  0.00  0.00     0.023 A 
ATOM      2  C1  UNL d   1      -3.320   2.603  -3.413  0.00  0.00     0.003 A 
ATOM      3  C2  UNL d   1      -3.755   3.660  -4.215  0.00  0.00     0.048 A 
ATOM      4  C3  UNL d   1      -5.057   3.659  -4.713  0.00  0.00     0.023 A 
ATOM      5  C4  UNL d   1      -5.927   2.608  -4.416  0.00  0.00     0.048 A 
ATOM      6  C5  UNL d   1      -5.487   1.553  -3.614  0.00  0.00     0.003 A 
ATOM      7  I   UNL d   1      -5.708   5.231  -5.907  0.00  0.00    -0.146 I 
ENDROOT
TORSDOF 0
ENDMDL
