MODEL 1
REMARK minimizedAffinity 15.0141325
REMARK minimizedRMSD -1
REMARK  0 active torsions:
REMARK  status: ('A' for Active; 'I' for Inactive)
ROOT
ATOM      1  C   UNL d   1      -0.568   2.452   0.297  0.00  0.00     0.023 A 
ATOM      2  C1  UNL d   1      -1.590   3.161  -0.336  0.00  0.00     0.003 A 
ATOM      3  C2  UNL d   1      -1.280   4.179  -1.240  0.00  0.00     0.048 A 
ATOM      4  C3  UNL d   1       0.055   4.483  -1.507  0.00  0.00     0.023 A 
ATOM      5  C4  UNL d   1       1.080   3.777  -0.877  0.00  0.00     0.048 A 
ATOM      6  C5  UNL d   1       0.765   2.760   0.026  0.00  0.00     0.003 A 
ATOM      7  I   UNL d   1       0.519   5.998  -2.852  0.00  0.00    -0.146 I 
ENDROOT
TORSDOF 0
ENDMDL
