MODEL 1
REMARK minimizedAffinity 3.49952221
REMARK minimizedRMSD -1
REMARK  0 active torsions:
REMARK  status: ('A' for Active; 'I' for Inactive)
ROOT
ATOM      1  C   UNL d   1      -0.007  -4.207  -2.248  0.00  0.00     0.023 A 
ATOM      2  C1  UNL d   1       0.814  -3.448  -3.081  0.00  0.00     0.003 A 
ATOM      3  C2  UNL d   1       2.039  -3.961  -3.511  0.00  0.00     0.048 A 
ATOM      4  C3  UNL d   1       2.437  -5.234  -3.106  0.00  0.00     0.023 A 
ATOM      5  C4  UNL d   1       1.618  -5.999  -2.274  0.00  0.00     0.048 A 
ATOM      6  C5  UNL d   1       0.394  -5.481  -1.845  0.00  0.00     0.003 A 
ATOM      7  I   UNL d   1       4.260  -6.000  -3.746  0.00  0.00    -0.146 I 
ENDROOT
TORSDOF 0
ENDMDL
