MODEL 1
REMARK minimizedAffinity 0.94944787
REMARK minimizedRMSD -1
REMARK  0 active torsions:
REMARK  status: ('A' for Active; 'I' for Inactive)
ROOT
ATOM      1  C   UNL d   1      -3.583   2.025  -4.303  0.00  0.00     0.023 A 
ATOM      2  C1  UNL d   1      -4.282   1.944  -5.508  0.00  0.00     0.003 A 
ATOM      3  C2  UNL d   1      -4.968   3.059  -5.995  0.00  0.00     0.048 A 
ATOM      4  C3  UNL d   1      -4.950   4.252  -5.273  0.00  0.00     0.023 A 
ATOM      5  C4  UNL d   1      -4.251   4.338  -4.068  0.00  0.00     0.048 A 
ATOM      6  C5  UNL d   1      -3.568   3.220  -3.584  0.00  0.00     0.003 A 
ATOM      7  I   UNL d   1      -5.970   5.912  -5.996  0.00  0.00    -0.146 I 
ENDROOT
TORSDOF 0
ENDMDL
