MODEL 1
REMARK minimizedAffinity 9.55113888
REMARK minimizedRMSD -1
REMARK  0 active torsions:
REMARK  status: ('A' for Active; 'I' for Inactive)
ROOT
ATOM      1  C   UNL d   1       2.240  -2.858   2.209  0.00  0.00    -0.002 A 
ATOM      2  C1  UNL d   1       1.539  -3.987   1.810  0.00  0.00     0.010 A 
ATOM      3  C2  UNL d   1       2.179  -5.008   1.106  0.00  0.00     0.041 A 
ATOM      4  C3  UNL d   1       3.550  -4.875   0.808  0.00  0.00    -0.075 A 
ATOM      5  S   UNL d   1       4.542  -5.999  -0.044  0.00  0.00     0.015 SA
ATOM      6  C4  UNL d   1       5.920  -5.006   0.103  0.00  0.00     0.022 A 
ATOM      7  C5  UNL d   1       5.648  -3.842   0.781  0.00  0.00     0.026 A 
ATOM      8  C6  UNL d   1       4.277  -3.747   1.199  0.00  0.00    -0.082 A 
ATOM      9  C7  UNL d   1       3.599  -2.729   1.911  0.00  0.00     0.045 A 
ENDROOT
TORSDOF 0
ENDMDL
