MODEL 1
REMARK minimizedAffinity 12.9382401
REMARK minimizedRMSD -1
REMARK  0 active torsions:
REMARK  status: ('A' for Active; 'I' for Inactive)
ROOT
ATOM      1  C   UNL d   1       4.655  -4.700   6.000  0.00  0.00    -0.002 A 
ATOM      2  C1  UNL d   1       4.512  -5.918   5.350  0.00  0.00     0.010 A 
ATOM      3  C2  UNL d   1       3.827  -5.999   4.136  0.00  0.00     0.041 A 
ATOM      4  C3  UNL d   1       3.284  -4.823   3.580  0.00  0.00    -0.075 A 
ATOM      5  S   UNL d   1       2.407  -4.682   2.103  0.00  0.00     0.015 SA
ATOM      6  C4  UNL d   1       2.201  -3.001   2.299  0.00  0.00     0.022 A 
ATOM      7  C5  UNL d   1       2.781  -2.543   3.458  0.00  0.00     0.026 A 
ATOM      8  C6  UNL d   1       3.416  -3.585   4.215  0.00  0.00    -0.082 A 
ATOM      9  C7  UNL d   1       4.115  -3.536   5.445  0.00  0.00     0.045 A 
ENDROOT
TORSDOF 0
ENDMDL
