MODEL 1
REMARK minimizedAffinity 16.9065266
REMARK minimizedRMSD -1
REMARK  0 active torsions:
REMARK  status: ('A' for Active; 'I' for Inactive)
ROOT
ATOM      1  C   UNL d   1       5.079  -5.158  -0.739  0.00  0.00    -0.002 A 
ATOM      2  C1  UNL d   1       5.984  -5.085   0.310  0.00  0.00     0.010 A 
ATOM      3  C2  UNL d   1       5.594  -4.577   1.551  0.00  0.00     0.041 A 
ATOM      4  C3  UNL d   1       4.264  -4.143   1.721  0.00  0.00    -0.075 A 
ATOM      5  S   UNL d   1       3.561  -3.486   3.152  0.00  0.00     0.015 SA
ATOM      6  C4  UNL d   1       2.042  -3.289   2.404  0.00  0.00     0.022 A 
ATOM      7  C5  UNL d   1       2.054  -3.708   1.095  0.00  0.00     0.026 A 
ATOM      8  C6  UNL d   1       3.335  -4.207   0.680  0.00  0.00    -0.082 A 
ATOM      9  C7  UNL d   1       3.762  -4.726  -0.566  0.00  0.00     0.045 A 
ENDROOT
TORSDOF 0
ENDMDL
