MODEL 1
REMARK minimizedAffinity 9.54140377
REMARK minimizedRMSD -1
REMARK  0 active torsions:
REMARK  status: ('A' for Active; 'I' for Inactive)
ROOT
ATOM      1  C   UNL d   1       1.473   1.427  -1.082  0.00  0.00    -0.002 A 
ATOM      2  C1  UNL d   1       2.207   1.818   0.028  0.00  0.00     0.010 A 
ATOM      3  C2  UNL d   1       2.298   0.988   1.148  0.00  0.00     0.041 A 
ATOM      4  C3  UNL d   1       1.633  -0.254   1.131  0.00  0.00    -0.075 A 
ATOM      5  S   UNL d   1       1.605  -1.434   2.387  0.00  0.00     0.015 SA
ATOM      6  C4  UNL d   1       0.617  -2.486   1.479  0.00  0.00     0.022 A 
ATOM      7  C5  UNL d   1       0.308  -1.964   0.245  0.00  0.00     0.026 A 
ATOM      8  C6  UNL d   1       0.888  -0.670   0.024  0.00  0.00    -0.082 A 
ATOM      9  C7  UNL d   1       0.815   0.194  -1.095  0.00  0.00     0.045 A 
ENDROOT
TORSDOF 0
ENDMDL
