MODEL 1
REMARK minimizedAffinity 2.48674035
REMARK minimizedRMSD -1
REMARK  0 active torsions:
REMARK  status: ('A' for Active; 'I' for Inactive)
ROOT
ATOM      1  C   UNL d   1       1.626  -3.006   2.073  0.00  0.00    -0.002 A 
ATOM      2  C1  UNL d   1       2.458  -3.339   1.014  0.00  0.00     0.010 A 
ATOM      3  C2  UNL d   1       3.568  -4.161   1.215  0.00  0.00     0.041 A 
ATOM      4  C3  UNL d   1       3.829  -4.650   2.510  0.00  0.00    -0.075 A 
ATOM      5  S   UNL d   1       5.130  -5.673   2.993  0.00  0.00     0.015 SA
ATOM      6  C4  UNL d   1       4.610  -5.693   4.616  0.00  0.00     0.022 A 
ATOM      7  C5  UNL d   1       3.474  -4.943   4.803  0.00  0.00     0.026 A 
ATOM      8  C6  UNL d   1       3.004  -4.329   3.592  0.00  0.00    -0.082 A 
ATOM      9  C7  UNL d   1       1.887  -3.492   3.356  0.00  0.00     0.045 A 
ENDROOT
TORSDOF 0
ENDMDL
