MODEL 1
REMARK minimizedAffinity 16.3350449
REMARK minimizedRMSD -1
REMARK  0 active torsions:
REMARK  status: ('A' for Active; 'I' for Inactive)
ROOT
ATOM      1  C   UNL d   1      -3.180  -0.949   2.741  0.00  0.00    -0.002 A 
ATOM      2  C1  UNL d   1      -2.662   0.125   3.450  0.00  0.00     0.010 A 
ATOM      3  C2  UNL d   1      -1.282   0.275   3.604  0.00  0.00     0.041 A 
ATOM      4  C3  UNL d   1      -0.424  -0.682   3.027  0.00  0.00    -0.075 A 
ATOM      5  S   UNL d   1       1.299  -0.702   3.086  0.00  0.00     0.015 SA
ATOM      6  C4  UNL d   1       1.387  -2.137   2.170  0.00  0.00     0.022 A 
ATOM      7  C5  UNL d   1       0.142  -2.603   1.821  0.00  0.00     0.026 A 
ATOM      8  C6  UNL d   1      -0.922  -1.772   2.308  0.00  0.00    -0.082 A 
ATOM      9  C7  UNL d   1      -2.326  -1.896   2.170  0.00  0.00     0.045 A 
ENDROOT
TORSDOF 0
ENDMDL
