MODEL 1
REMARK minimizedAffinity 1.8527565
REMARK minimizedRMSD -1
REMARK  0 active torsions:
REMARK  status: ('A' for Active; 'I' for Inactive)
ROOT
ATOM      1  C   UNL d   1       4.305  -5.991   4.550  0.00  0.00    -0.002 A 
ATOM      2  C1  UNL d   1       4.060  -4.920   5.398  0.00  0.00     0.010 A 
ATOM      3  C2  UNL d   1       3.292  -3.836   4.968  0.00  0.00     0.041 A 
ATOM      4  C3  UNL d   1       2.767  -3.847   3.660  0.00  0.00    -0.075 A 
ATOM      5  S   UNL d   1       1.798  -2.630   2.918  0.00  0.00     0.015 SA
ATOM      6  C4  UNL d   1       1.686  -3.504   1.459  0.00  0.00     0.022 A 
ATOM      7  C5  UNL d   1       2.366  -4.697   1.519  0.00  0.00     0.026 A 
ATOM      8  C6  UNL d   1       3.000  -4.915   2.789  0.00  0.00    -0.082 A 
ATOM      9  C7  UNL d   1       3.783  -5.999   3.254  0.00  0.00     0.045 A 
ENDROOT
TORSDOF 0
ENDMDL
