MODEL 1
REMARK minimizedAffinity -3.70551991
REMARK minimizedRMSD -1
REMARK  0 active torsions:
REMARK  status: ('A' for Active; 'I' for Inactive)
ROOT
ATOM      1  C   UNL d   1       4.994  -3.265   1.579  0.00  0.00    -0.002 A 
ATOM      2  C1  UNL d   1       4.921  -2.003   2.151  0.00  0.00     0.010 A 
ATOM      3  C2  UNL d   1       4.656  -1.855   3.514  0.00  0.00     0.041 A 
ATOM      4  C3  UNL d   1       4.465  -3.008   4.300  0.00  0.00    -0.075 A 
ATOM      5  S   UNL d   1       4.129  -3.070   5.990  0.00  0.00     0.015 SA
ATOM      6  C4  UNL d   1       4.076  -4.773   5.993  0.00  0.00     0.022 A 
ATOM      7  C5  UNL d   1       4.306  -5.299   4.743  0.00  0.00     0.026 A 
ATOM      8  C6  UNL d   1       4.534  -4.290   3.747  0.00  0.00    -0.082 A 
ATOM      9  C7  UNL d   1       4.804  -4.407   2.362  0.00  0.00     0.045 A 
ENDROOT
TORSDOF 0
ENDMDL
