MODEL 1
REMARK minimizedAffinity 22.8134518
REMARK minimizedRMSD -1
REMARK  0 active torsions:
REMARK  status: ('A' for Active; 'I' for Inactive)
ROOT
ATOM      1  C   UNL d   1      -5.049  -2.670  -4.103  0.00  0.00    -0.002 A 
ATOM      2  C1  UNL d   1      -5.655  -1.425  -4.202  0.00  0.00     0.010 A 
ATOM      3  C2  UNL d   1      -5.406  -0.437  -3.247  0.00  0.00     0.041 A 
ATOM      4  C3  UNL d   1      -4.529  -0.722  -2.183  0.00  0.00    -0.075 A 
ATOM      5  S   UNL d   1      -4.074   0.334  -0.898  0.00  0.00     0.015 SA
ATOM      6  C4  UNL d   1      -3.065  -0.841  -0.189  0.00  0.00     0.022 A 
ATOM      7  C5  UNL d   1      -3.063  -2.017  -0.901  0.00  0.00     0.026 A 
ATOM      8  C6  UNL d   1      -3.906  -1.968  -2.063  0.00  0.00    -0.082 A 
ATOM      9  C7  UNL d   1      -4.179  -2.949  -3.046  0.00  0.00     0.045 A 
ENDROOT
TORSDOF 0
ENDMDL
