MODEL 1
REMARK minimizedAffinity -0.251257896
REMARK minimizedRMSD -1
REMARK  0 active torsions:
REMARK  status: ('A' for Active; 'I' for Inactive)
ROOT
ATOM      1  C   UNL d   1       2.637  -4.074   1.649  0.00  0.00    -0.002 A 
ATOM      2  C1  UNL d   1       2.114  -3.127   2.518  0.00  0.00     0.010 A 
ATOM      3  C2  UNL d   1       2.476  -3.124   3.867  0.00  0.00     0.041 A 
ATOM      4  C3  UNL d   1       3.383  -4.096   4.331  0.00  0.00    -0.075 A 
ATOM      5  S   UNL d   1       3.972  -4.284   5.941  0.00  0.00     0.015 SA
ATOM      6  C4  UNL d   1       4.932  -5.625   5.512  0.00  0.00     0.022 A 
ATOM      7  C5  UNL d   1       4.819  -5.936   4.178  0.00  0.00     0.026 A 
ATOM      8  C6  UNL d   1       3.925  -5.059   3.475  0.00  0.00    -0.082 A 
ATOM      9  C7  UNL d   1       3.537  -5.037   2.113  0.00  0.00     0.045 A 
ENDROOT
TORSDOF 0
ENDMDL
