MODEL 1
REMARK minimizedAffinity -0.617242575
REMARK minimizedRMSD -1
REMARK  0 active torsions:
REMARK  status: ('A' for Active; 'I' for Inactive)
ROOT
ATOM      1  C   UNL d   1      -0.337   0.423   2.356  0.00  0.00     0.124 A 
ATOM      2  C1  UNL d   1      -1.399   0.837   1.564  0.00  0.00     0.062 A 
ATOM      3  C2  UNL d   1      -1.390   0.586   0.195  0.00  0.00     0.162 A 
ATOM      4  C3  UNL d   1      -0.315  -0.082  -0.391  0.00  0.00    -0.034 A 
ATOM      5  C4  UNL d   1       0.750  -0.493   0.412  0.00  0.00     0.162 A 
ATOM      6  C5  UNL d   1       0.736  -0.241   1.780  0.00  0.00     0.062 A 
ATOM      7  F   UNL d   1       1.763  -0.641   2.543  0.00  0.00    -0.097 F 
ATOM      8  F1  UNL d   1       1.799  -1.138  -0.119  0.00  0.00    -0.096 F 
ATOM      9  I   UNL d   1      -0.298  -0.458  -2.438  0.00  0.00    -0.060 I 
ATOM     10  F2  UNL d   1      -2.430   0.997  -0.546  0.00  0.00    -0.096 F 
ATOM     11  F3  UNL d   1      -2.437   1.480   2.119  0.00  0.00    -0.097 F 
ATOM     12  F4  UNL d   1      -0.348   0.666   3.673  0.00  0.00    -0.092 F 
ENDROOT
TORSDOF 0
ENDMDL
