MODEL 1
REMARK minimizedAffinity -4.34943533
REMARK minimizedRMSD -1
REMARK  0 active torsions:
REMARK  status: ('A' for Active; 'I' for Inactive)
ROOT
ATOM      1  C   UNL d   1       0.694  -0.240  -2.331  0.00  0.00     0.124 A 
ATOM      2  C1  UNL d   1       1.167  -0.733  -1.122  0.00  0.00     0.062 A 
ATOM      3  C2  UNL d   1       0.556  -0.361   0.072  0.00  0.00     0.162 A 
ATOM      4  C3  UNL d   1      -0.536   0.507   0.064  0.00  0.00    -0.034 A 
ATOM      5  C4  UNL d   1      -1.005   0.999  -1.155  0.00  0.00     0.162 A 
ATOM      6  C5  UNL d   1      -0.391   0.625  -2.346  0.00  0.00     0.062 A 
ATOM      7  F   UNL d   1      -0.850   1.101  -3.513  0.00  0.00    -0.097 F 
ATOM      8  F1  UNL d   1      -2.052   1.836  -1.199  0.00  0.00    -0.096 F 
ATOM      9  I   UNL d   1      -1.451   1.065   1.848  0.00  0.00    -0.060 I 
ATOM     10  F2  UNL d   1       1.034  -0.853   1.225  0.00  0.00    -0.096 F 
ATOM     11  F3  UNL d   1       2.215  -1.568  -1.105  0.00  0.00    -0.097 F 
ATOM     12  F4  UNL d   1       1.284  -0.599  -3.478  0.00  0.00    -0.092 F 
ENDROOT
TORSDOF 0
ENDMDL
