MODEL 1
REMARK minimizedAffinity -2.40220428
REMARK minimizedRMSD -1
REMARK  0 active torsions:
REMARK  status: ('A' for Active; 'I' for Inactive)
ROOT
ATOM      1  C   UNL d   1       1.083   0.122  -3.086  0.00  0.00     0.124 A 
ATOM      2  C1  UNL d   1       0.501   1.340  -2.767  0.00  0.00     0.062 A 
ATOM      3  C2  UNL d   1      -0.317   1.453  -1.646  0.00  0.00     0.162 A 
ATOM      4  C3  UNL d   1      -0.557   0.343  -0.835  0.00  0.00    -0.034 A 
ATOM      5  C4  UNL d   1       0.032  -0.880  -1.164  0.00  0.00     0.162 A 
ATOM      6  C5  UNL d   1       0.848  -0.987  -2.285  0.00  0.00     0.062 A 
ATOM      7  F   UNL d   1       1.410  -2.165  -2.593  0.00  0.00    -0.097 F 
ATOM      8  F1  UNL d   1      -0.178  -1.967  -0.407  0.00  0.00    -0.096 F 
ATOM      9  I   UNL d   1      -1.779   0.507   0.841  0.00  0.00    -0.060 I 
ATOM     10  F2  UNL d   1      -0.867   2.643  -1.361  0.00  0.00    -0.096 F 
ATOM     11  F3  UNL d   1       0.725   2.413  -3.540  0.00  0.00    -0.097 F 
ATOM     12  F4  UNL d   1       1.868   0.016  -4.166  0.00  0.00    -0.092 F 
ENDROOT
TORSDOF 0
ENDMDL
