MODEL 1
REMARK minimizedAffinity 10.8231153
REMARK minimizedRMSD -1
REMARK  0 active torsions:
REMARK  status: ('A' for Active; 'I' for Inactive)
ROOT
ATOM      1  C   UNL d   1      -3.200  -0.178  -0.363  0.00  0.00     0.124 A 
ATOM      2  C1  UNL d   1      -2.758   0.363   0.836  0.00  0.00     0.062 A 
ATOM      3  C2  UNL d   1      -1.411   0.291   1.182  0.00  0.00     0.162 A 
ATOM      4  C3  UNL d   1      -0.497  -0.323   0.326  0.00  0.00    -0.034 A 
ATOM      5  C4  UNL d   1      -0.950  -0.866  -0.878  0.00  0.00     0.162 A 
ATOM      6  C5  UNL d   1      -2.296  -0.792  -1.218  0.00  0.00     0.062 A 
ATOM      7  F   UNL d   1      -2.722  -1.315  -2.377  0.00  0.00    -0.097 F 
ATOM      8  F1  UNL d   1      -0.097  -1.463  -1.724  0.00  0.00    -0.096 F 
ATOM      9  I   UNL d   1       1.517  -0.432   0.839  0.00  0.00    -0.060 I 
ATOM     10  F2  UNL d   1      -1.012   0.823   2.347  0.00  0.00    -0.096 F 
ATOM     11  F3  UNL d   1      -3.629   0.955   1.665  0.00  0.00    -0.097 F 
ATOM     12  F4  UNL d   1      -4.497  -0.109  -0.692  0.00  0.00    -0.092 F 
ENDROOT
TORSDOF 0
ENDMDL
