MODEL 1
REMARK minimizedAffinity 1.68148291
REMARK minimizedRMSD -1
REMARK  0 active torsions:
REMARK  status: ('A' for Active; 'I' for Inactive)
ROOT
ATOM      1  C   UNL d   1      -0.393   0.024   1.638  0.00  0.00     0.124 A 
ATOM      2  C1  UNL d   1      -1.159   0.709   0.705  0.00  0.00     0.062 A 
ATOM      3  C2  UNL d   1      -0.784   0.721  -0.635  0.00  0.00     0.162 A 
ATOM      4  C3  UNL d   1       0.363   0.045  -1.051  0.00  0.00    -0.034 A 
ATOM      5  C4  UNL d   1       1.129  -0.641  -0.106  0.00  0.00     0.162 A 
ATOM      6  C5  UNL d   1       0.750  -0.650   1.232  0.00  0.00     0.062 A 
ATOM      7  F   UNL d   1       1.491  -1.312   2.132  0.00  0.00    -0.097 F 
ATOM      8  F1  UNL d   1       2.238  -1.301  -0.471  0.00  0.00    -0.096 F 
ATOM      9  I   UNL d   1       0.928   0.061  -3.054  0.00  0.00    -0.060 I 
ATOM     10  F2  UNL d   1      -1.543   1.391  -1.515  0.00  0.00    -0.096 F 
ATOM     11  F3  UNL d   1      -2.264   1.362   1.095  0.00  0.00    -0.097 F 
ATOM     12  F4  UNL d   1      -0.756   0.015   2.928  0.00  0.00    -0.092 F 
ENDROOT
TORSDOF 0
ENDMDL
