MODEL 1
REMARK minimizedAffinity 11.4378605
REMARK minimizedRMSD -1
REMARK  0 active torsions:
REMARK  status: ('A' for Active; 'I' for Inactive)
ROOT
ATOM      1  C   UNL d   1      -1.211   1.344   2.537  0.00  0.00     0.124 A 
ATOM      2  C1  UNL d   1      -1.467   0.001   2.296  0.00  0.00     0.062 A 
ATOM      3  C2  UNL d   1      -2.402  -0.372   1.336  0.00  0.00     0.162 A 
ATOM      4  C3  UNL d   1      -3.090   0.599   0.608  0.00  0.00    -0.034 A 
ATOM      5  C4  UNL d   1      -2.829   1.948   0.856  0.00  0.00     0.162 A 
ATOM      6  C5  UNL d   1      -1.892   2.316   1.817  0.00  0.00     0.062 A 
ATOM      7  F   UNL d   1      -1.647   3.614   2.048  0.00  0.00    -0.097 F 
ATOM      8  F1  UNL d   1      -3.471   2.907   0.174  0.00  0.00    -0.096 F 
ATOM      9  I   UNL d   1      -4.490   0.044  -0.829  0.00  0.00    -0.060 I 
ATOM     10  F2  UNL d   1      -2.629  -1.677   1.124  0.00  0.00    -0.096 F 
ATOM     11  F3  UNL d   1      -0.811  -0.939   2.991  0.00  0.00    -0.097 F 
ATOM     12  F4  UNL d   1      -0.311   1.701   3.462  0.00  0.00    -0.092 F 
ENDROOT
TORSDOF 0
ENDMDL
