MODEL 1
REMARK minimizedAffinity 6.73187256
REMARK minimizedRMSD -1
REMARK  0 active torsions:
REMARK  status: ('A' for Active; 'I' for Inactive)
ROOT
ATOM      1  C   UNL d   1      -3.453   0.461  -0.491  0.00  0.00     0.124 A 
ATOM      2  C1  UNL d   1      -3.287   1.164   0.695  0.00  0.00     0.062 A 
ATOM      3  C2  UNL d   1      -2.172   0.932   1.495  0.00  0.00     0.162 A 
ATOM      4  C3  UNL d   1      -1.214  -0.007   1.113  0.00  0.00    -0.034 A 
ATOM      5  C4  UNL d   1      -1.388  -0.710  -0.081  0.00  0.00     0.162 A 
ATOM      6  C5  UNL d   1      -2.504  -0.474  -0.878  0.00  0.00     0.062 A 
ATOM      7  F   UNL d   1      -2.662  -1.154  -2.023  0.00  0.00    -0.097 F 
ATOM      8  F1  UNL d   1      -0.486  -1.619  -0.479  0.00  0.00    -0.096 F 
ATOM      9  I   UNL d   1       0.455  -0.356   2.307  0.00  0.00    -0.060 I 
ATOM     10  F2  UNL d   1      -2.037   1.625   2.636  0.00  0.00    -0.096 F 
ATOM     11  F3  UNL d   1      -4.203   2.068   1.071  0.00  0.00    -0.097 F 
ATOM     12  F4  UNL d   1      -4.527   0.686  -1.259  0.00  0.00    -0.092 F 
ENDROOT
TORSDOF 0
ENDMDL
