MODEL 1
REMARK minimizedAffinity -2.71756411
REMARK minimizedRMSD -1
REMARK  0 active torsions:
REMARK  status: ('A' for Active; 'I' for Inactive)
ROOT
ATOM      1  C   UNL d   1       2.251  -0.972  -0.255  0.00  0.00     0.172 C 
ATOM      2  N   UNL d   1       1.192  -0.031   0.023  0.00  0.00    -0.070 N 
ATOM      3  C1  UNL d   1      -0.144  -0.249  -0.184  0.00  0.00    -0.004 A 
ATOM      4  C2  UNL d   1      -0.822   0.886   0.206  0.00  0.00    -0.047 A 
ATOM      5  C3  UNL d   1       0.140   1.817   0.664  0.00  0.00    -0.047 A 
ATOM      6  C4  UNL d   1       1.378   1.224   0.539  0.00  0.00    -0.004 A 
ENDROOT
TORSDOF 0
ENDMDL
