MODEL 1
REMARK minimizedAffinity -2.82922959
REMARK minimizedRMSD -1
REMARK  0 active torsions:
REMARK  status: ('A' for Active; 'I' for Inactive)
ROOT
ATOM      1  C   UNL d   1      -0.810  -0.361  -0.152  0.00  0.00     0.172 C 
ATOM      2  N   UNL d   1       0.585  -0.033   0.032  0.00  0.00    -0.070 N 
ATOM      3  C1  UNL d   1       1.603  -0.936   0.189  0.00  0.00    -0.004 A 
ATOM      4  C2  UNL d   1       2.776  -0.227   0.334  0.00  0.00    -0.047 A 
ATOM      5  C3  UNL d   1       2.451   1.149   0.264  0.00  0.00    -0.047 A 
ATOM      6  C4  UNL d   1       1.088   1.240   0.076  0.00  0.00    -0.004 A 
ENDROOT
TORSDOF 0
ENDMDL
