MODEL 1
REMARK minimizedAffinity -4.1097436
REMARK minimizedRMSD -1
REMARK  0 active torsions:
REMARK  status: ('A' for Active; 'I' for Inactive)
ROOT
ATOM      1  C   UNL d   1      -0.441  -0.110  -0.016  0.00  0.00     0.172 C 
ATOM      2  N   UNL d   1       0.944  -0.103   0.391  0.00  0.00    -0.070 N 
ATOM      3  C1  UNL d   1       1.720  -1.212   0.600  0.00  0.00    -0.004 A 
ATOM      4  C2  UNL d   1       2.976  -0.783   0.975  0.00  0.00    -0.047 A 
ATOM      5  C3  UNL d   1       2.953   0.632   0.992  0.00  0.00    -0.047 A 
ATOM      6  C4  UNL d   1       1.683   1.026   0.626  0.00  0.00    -0.004 A 
ENDROOT
TORSDOF 0
ENDMDL
