MODEL 1
REMARK minimizedAffinity -4.24253798
REMARK minimizedRMSD -1
REMARK  0 active torsions:
REMARK  status: ('A' for Active; 'I' for Inactive)
ROOT
ATOM      1  C   UNL d   1      -0.802  -0.027   0.370  0.00  0.00     0.172 C 
ATOM      2  N   UNL d   1       0.572  -0.317   0.704  0.00  0.00    -0.070 N 
ATOM      3  C1  UNL d   1       1.022  -1.455   1.318  0.00  0.00    -0.004 A 
ATOM      4  C2  UNL d   1       2.389  -1.348   1.457  0.00  0.00    -0.047 A 
ATOM      5  C3  UNL d   1       2.774  -0.102   0.909  0.00  0.00    -0.047 A 
ATOM      6  C4  UNL d   1       1.630   0.516   0.450  0.00  0.00    -0.004 A 
ENDROOT
TORSDOF 0
ENDMDL
