MODEL 1
REMARK minimizedAffinity 1.02390993
REMARK minimizedRMSD -1
REMARK  0 active torsions:
REMARK  status: ('A' for Active; 'I' for Inactive)
ROOT
ATOM      1  C   UNL d   1      -0.661  -2.915   1.318  0.00  0.00     0.172 C 
ATOM      2  N   UNL d   1      -0.745  -1.783   0.425  0.00  0.00    -0.070 N 
ATOM      3  C1  UNL d   1      -1.279  -1.799  -0.836  0.00  0.00    -0.004 A 
ATOM      4  C2  UNL d   1      -1.171  -0.528  -1.356  0.00  0.00    -0.047 A 
ATOM      5  C3  UNL d   1      -0.549   0.280  -0.375  0.00  0.00    -0.047 A 
ATOM      6  C4  UNL d   1      -0.296  -0.522   0.718  0.00  0.00    -0.004 A 
ENDROOT
TORSDOF 0
ENDMDL
