MODEL 1
REMARK minimizedAffinity -3.81994891
REMARK minimizedRMSD -1
REMARK  0 active torsions:
REMARK  status: ('A' for Active; 'I' for Inactive)
ROOT
ATOM      1  C   UNL d   1      -0.599  -0.154   0.128  0.00  0.00     0.172 C 
ATOM      2  N   UNL d   1       0.804  -0.338   0.415  0.00  0.00    -0.070 N 
ATOM      3  C1  UNL d   1       1.392  -1.512   0.803  0.00  0.00    -0.004 A 
ATOM      4  C2  UNL d   1       2.738  -1.273   0.976  0.00  0.00    -0.047 A 
ATOM      5  C3  UNL d   1       2.967   0.092   0.683  0.00  0.00    -0.047 A 
ATOM      6  C4  UNL d   1       1.752   0.647   0.338  0.00  0.00    -0.004 A 
ENDROOT
TORSDOF 0
ENDMDL
