MODEL 1
REMARK minimizedAffinity -4.12896061
REMARK minimizedRMSD -1
REMARK  0 active torsions:
REMARK  status: ('A' for Active; 'I' for Inactive)
ROOT
ATOM      1  C   UNL d   1       1.303   1.632   0.010  0.00  0.00     0.172 C 
ATOM      2  N   UNL d   1       1.764   0.459   0.715  0.00  0.00    -0.070 N 
ATOM      3  C1  UNL d   1       2.824   0.413   1.581  0.00  0.00    -0.004 A 
ATOM      4  C2  UNL d   1       2.937  -0.881   2.041  0.00  0.00    -0.047 A 
ATOM      5  C3  UNL d   1       1.909  -1.639   1.430  0.00  0.00    -0.047 A 
ATOM      6  C4  UNL d   1       1.199  -0.784   0.614  0.00  0.00    -0.004 A 
ENDROOT
TORSDOF 0
ENDMDL
