MODEL 1
REMARK minimizedAffinity -1.98666668
REMARK minimizedRMSD -1
REMARK  0 active torsions:
REMARK  status: ('A' for Active; 'I' for Inactive)
ROOT
ATOM      1  C   UNL d   1      -1.373  -0.035   0.302  0.00  0.00     0.172 C 
ATOM      2  N   UNL d   1      -1.994  -0.218  -0.988  0.00  0.00    -0.070 N 
ATOM      3  C1  UNL d   1      -2.848   0.664  -1.595  0.00  0.00    -0.004 A 
ATOM      4  C2  UNL d   1      -3.219   0.126  -2.809  0.00  0.00    -0.047 A 
ATOM      5  C3  UNL d   1      -2.566  -1.124  -2.934  0.00  0.00    -0.047 A 
ATOM      6  C4  UNL d   1      -1.815  -1.311  -1.793  0.00  0.00    -0.004 A 
ENDROOT
TORSDOF 0
ENDMDL
