MODEL 1
REMARK minimizedAffinity -4.3712616
REMARK minimizedRMSD -1
REMARK  0 active torsions:
REMARK  status: ('A' for Active; 'I' for Inactive)
ROOT
ATOM      1  C   UNL d   1      -0.767   0.061  -0.029  0.00  0.00     0.172 C 
ATOM      2  N   UNL d   1       0.634   0.190   0.300  0.00  0.00    -0.070 N 
ATOM      3  C1  UNL d   1       1.272   1.356   0.629  0.00  0.00    -0.004 A 
ATOM      4  C2  UNL d   1       2.596   1.057   0.873  0.00  0.00    -0.047 A 
ATOM      5  C3  UNL d   1       2.758  -0.335   0.682  0.00  0.00    -0.047 A 
ATOM      6  C4  UNL d   1       1.528  -0.847   0.328  0.00  0.00    -0.004 A 
ENDROOT
TORSDOF 0
ENDMDL
