MODEL 1
REMARK minimizedAffinity -1.83343518
REMARK minimizedRMSD -1
REMARK  0 active torsions:
REMARK  status: ('A' for Active; 'I' for Inactive)
ROOT
ATOM      1  C   UNL d   1       4.109   0.716  -6.000  0.00  0.00     0.172 C 
ATOM      2  N   UNL d   1       4.860   1.788  -5.392  0.00  0.00    -0.070 N 
ATOM      3  C1  UNL d   1       5.207   2.965  -6.000  0.00  0.00    -0.004 A 
ATOM      4  C2  UNL d   1       5.916   3.718  -5.089  0.00  0.00    -0.047 A 
ATOM      5  C3  UNL d   1       5.999   2.967  -3.892  0.00  0.00    -0.047 A 
ATOM      6  C4  UNL d   1       5.337   1.777  -4.108  0.00  0.00    -0.004 A 
ENDROOT
TORSDOF 0
ENDMDL
