MODEL 1
REMARK minimizedAffinity 5.06313801
REMARK minimizedRMSD -1
REMARK  0 active torsions:
REMARK  status: ('A' for Active; 'I' for Inactive)
ROOT
ATOM      1  C   UNL d   1       3.040  -0.868   0.248  0.00  0.00     0.023 A 
ATOM      2  C1  UNL d   1       2.427  -0.949  -1.003  0.00  0.00     0.003 A 
ATOM      3  C2  UNL d   1       1.489  -1.952  -1.258  0.00  0.00     0.048 A 
ATOM      4  C3  UNL d   1       1.167  -2.868  -0.258  0.00  0.00     0.023 A 
ATOM      5  C4  UNL d   1       1.777  -2.790   0.995  0.00  0.00     0.048 A 
ATOM      6  C5  UNL d   1       2.715  -1.787   1.245  0.00  0.00     0.003 A 
ATOM      7  I   UNL d   1      -0.230  -4.361  -0.636  0.00  0.00    -0.146 I 
ENDROOT
TORSDOF 0
ENDMDL
