MODEL 1
REMARK minimizedAffinity 3.6768589
REMARK minimizedRMSD -1
REMARK  0 active torsions:
REMARK  status: ('A' for Active; 'I' for Inactive)
ROOT
ATOM      1  C   UNL d   1       1.754  -2.900  -0.199  0.00  0.00     0.023 A 
ATOM      2  C1  UNL d   1       0.872  -1.860  -0.493  0.00  0.00     0.003 A 
ATOM      3  C2  UNL d   1       1.234  -0.538  -0.224  0.00  0.00     0.048 A 
ATOM      4  C3  UNL d   1       2.480  -0.264   0.339  0.00  0.00     0.023 A 
ATOM      5  C4  UNL d   1       3.366  -1.301   0.634  0.00  0.00     0.048 A 
ATOM      6  C5  UNL d   1       2.999  -2.621   0.365  0.00  0.00     0.003 A 
ATOM      7  I   UNL d   1       3.021   1.702   0.740  0.00  0.00    -0.146 I 
ENDROOT
TORSDOF 0
ENDMDL
