MODEL 1
REMARK minimizedAffinity 7.32465649
REMARK minimizedRMSD -1
REMARK  0 active torsions:
REMARK  status: ('A' for Active; 'I' for Inactive)
ROOT
ATOM      1  C   UNL d   1      -4.721  -0.624  -0.238  0.00  0.00     0.023 A 
ATOM      2  C1  UNL d   1      -5.153   0.662  -0.562  0.00  0.00     0.003 A 
ATOM      3  C2  UNL d   1      -4.621   1.319  -1.674  0.00  0.00     0.048 A 
ATOM      4  C3  UNL d   1      -3.660   0.683  -2.459  0.00  0.00     0.023 A 
ATOM      5  C4  UNL d   1      -3.226  -0.605  -2.139  0.00  0.00     0.048 A 
ATOM      6  C5  UNL d   1      -3.759  -1.257  -1.025  0.00  0.00     0.003 A 
ATOM      7  I   UNL d   1      -2.868   1.658  -4.114  0.00  0.00    -0.146 I 
ENDROOT
TORSDOF 0
ENDMDL
