MODEL 1
REMARK minimizedAffinity 3.56896019
REMARK minimizedRMSD -1
REMARK  0 active torsions:
REMARK  status: ('A' for Active; 'I' for Inactive)
ROOT
ATOM      1  C   UNL d   1       1.350   1.116   0.569  0.00  0.00     0.023 A 
ATOM      2  C1  UNL d   1       1.366   0.343  -0.592  0.00  0.00     0.003 A 
ATOM      3  C2  UNL d   1       0.166  -0.035  -1.197  0.00  0.00     0.048 A 
ATOM      4  C3  UNL d   1      -1.047   0.364  -0.636  0.00  0.00     0.023 A 
ATOM      5  C4  UNL d   1      -1.068   1.138   0.525  0.00  0.00     0.048 A 
ATOM      6  C5  UNL d   1       0.135   1.513   1.127  0.00  0.00     0.003 A 
ATOM      7  I   UNL d   1      -2.835  -0.198  -1.535  0.00  0.00    -0.146 I 
ENDROOT
TORSDOF 0
ENDMDL
