MODEL 1
REMARK minimizedAffinity 0.346329331
REMARK minimizedRMSD -1
REMARK  0 active torsions:
REMARK  status: ('A' for Active; 'I' for Inactive)
ROOT
ATOM      1  C   UNL d   1       2.235   0.830   0.184  0.00  0.00     0.023 A 
ATOM      2  C1  UNL d   1       2.941  -0.226   0.761  0.00  0.00     0.003 A 
ATOM      3  C2  UNL d   1       2.518  -1.542   0.563  0.00  0.00     0.048 A 
ATOM      4  C3  UNL d   1       1.388  -1.795  -0.214  0.00  0.00     0.023 A 
ATOM      5  C4  UNL d   1       0.679  -0.742  -0.794  0.00  0.00     0.048 A 
ATOM      6  C5  UNL d   1       1.105   0.572  -0.593  0.00  0.00     0.003 A 
ATOM      7  I   UNL d   1       0.756  -3.753  -0.510  0.00  0.00    -0.146 I 
ENDROOT
TORSDOF 0
ENDMDL
