MODEL 1
REMARK minimizedAffinity 6.62098408
REMARK minimizedRMSD -1
REMARK  0 active torsions:
REMARK  status: ('A' for Active; 'I' for Inactive)
ROOT
ATOM      1  C   UNL d   1       0.893  -3.252   0.014  0.00  0.00     0.023 A 
ATOM      2  C1  UNL d   1       1.873  -3.063   0.988  0.00  0.00     0.003 A 
ATOM      3  C2  UNL d   1       2.576  -1.858   1.049  0.00  0.00     0.048 A 
ATOM      4  C3  UNL d   1       2.292  -0.846   0.133  0.00  0.00     0.023 A 
ATOM      5  C4  UNL d   1       1.311  -1.030  -0.843  0.00  0.00     0.048 A 
ATOM      6  C5  UNL d   1       0.612  -2.237  -0.900  0.00  0.00     0.003 A 
ATOM      7  I   UNL d   1       3.336   0.949   0.222  0.00  0.00    -0.146 I 
ENDROOT
TORSDOF 0
ENDMDL
