MODEL 1
REMARK minimizedAffinity 6.61849117
REMARK minimizedRMSD -1
REMARK  0 active torsions:
REMARK  status: ('A' for Active; 'I' for Inactive)
ROOT
ATOM      1  C   UNL d   1      -4.507   0.419  -2.205  0.00  0.00     0.023 A 
ATOM      2  C1  UNL d   1      -4.579   0.822  -3.539  0.00  0.00     0.003 A 
ATOM      3  C2  UNL d   1      -5.008   2.112  -3.857  0.00  0.00     0.048 A 
ATOM      4  C3  UNL d   1      -5.362   2.995  -2.838  0.00  0.00     0.023 A 
ATOM      5  C4  UNL d   1      -5.290   2.596  -1.502  0.00  0.00     0.048 A 
ATOM      6  C5  UNL d   1      -4.862   1.305  -1.188  0.00  0.00     0.003 A 
ATOM      7  I   UNL d   1      -6.000   4.916  -3.310  0.00  0.00    -0.146 I 
ENDROOT
TORSDOF 0
ENDMDL
