MODEL 1
REMARK minimizedAffinity 5.6205411
REMARK minimizedRMSD -1
REMARK  0 active torsions:
REMARK  status: ('A' for Active; 'I' for Inactive)
ROOT
ATOM      1  C   UNL d   1       1.853  -3.244   0.830  0.00  0.00     0.023 A 
ATOM      2  C1  UNL d   1       1.566  -2.398  -0.242  0.00  0.00     0.003 A 
ATOM      3  C2  UNL d   1       2.278  -1.208  -0.403  0.00  0.00     0.048 A 
ATOM      4  C3  UNL d   1       3.275  -0.869   0.511  0.00  0.00     0.023 A 
ATOM      5  C4  UNL d   1       3.566  -1.713   1.584  0.00  0.00     0.048 A 
ATOM      6  C5  UNL d   1       2.852  -2.902   1.742  0.00  0.00     0.003 A 
ATOM      7  I   UNL d   1       4.336   0.902   0.273  0.00  0.00    -0.146 I 
ENDROOT
TORSDOF 0
ENDMDL
