MODEL 1
REMARK minimizedAffinity 4.20696831
REMARK minimizedRMSD -1
REMARK  0 active torsions:
REMARK  status: ('A' for Active; 'I' for Inactive)
ROOT
ATOM      1  C   UNL d   1       4.521  -0.871   0.698  0.00  0.00     0.023 A 
ATOM      2  C1  UNL d   1       4.634   0.319  -0.021  0.00  0.00     0.003 A 
ATOM      3  C2  UNL d   1       3.539   1.180  -0.124  0.00  0.00     0.048 A 
ATOM      4  C3  UNL d   1       2.335   0.844   0.493  0.00  0.00     0.023 A 
ATOM      5  C4  UNL d   1       2.218  -0.346   1.214  0.00  0.00     0.048 A 
ATOM      6  C5  UNL d   1       3.315  -1.203   1.314  0.00  0.00     0.003 A 
ATOM      7  I   UNL d   1       0.704   2.123   0.340  0.00  0.00    -0.146 I 
ENDROOT
TORSDOF 0
ENDMDL
