MODEL 1
REMARK minimizedAffinity 10.8998928
REMARK minimizedRMSD -1
REMARK  0 active torsions:
REMARK  status: ('A' for Active; 'I' for Inactive)
ROOT
ATOM      1  C   UNL d   1      -0.268   1.812   1.157  0.00  0.00     0.023 A 
ATOM      2  C1  UNL d   1       0.802   2.225   0.364  0.00  0.00     0.003 A 
ATOM      3  C2  UNL d   1       2.058   2.434   0.938  0.00  0.00     0.048 A 
ATOM      4  C3  UNL d   1       2.237   2.226   2.305  0.00  0.00     0.023 A 
ATOM      5  C4  UNL d   1       1.169   1.812   3.102  0.00  0.00     0.048 A 
ATOM      6  C5  UNL d   1      -0.085   1.606   2.525  0.00  0.00     0.003 A 
ATOM      7  I   UNL d   1       4.105   2.536   3.161  0.00  0.00    -0.146 I 
ENDROOT
TORSDOF 0
ENDMDL
