MODEL 1
REMARK minimizedAffinity -0.531221092
REMARK minimizedRMSD -1
REMARK  0 active torsions:
REMARK  status: ('A' for Active; 'I' for Inactive)
ROOT
ATOM      1  C   UNL d   1       4.113   0.069  -0.595  0.00  0.00     0.023 A 
ATOM      2  C1  UNL d   1       3.350   1.188  -0.930  0.00  0.00     0.003 A 
ATOM      3  C2  UNL d   1       2.010   1.036  -1.294  0.00  0.00     0.048 A 
ATOM      4  C3  UNL d   1       1.440  -0.236  -1.320  0.00  0.00     0.023 A 
ATOM      5  C4  UNL d   1       2.200  -1.358  -0.984  0.00  0.00     0.048 A 
ATOM      6  C5  UNL d   1       3.539  -1.202  -0.622  0.00  0.00     0.003 A 
ATOM      7  I   UNL d   1      -0.554  -0.463  -1.860  0.00  0.00    -0.146 I 
ENDROOT
TORSDOF 0
ENDMDL
