MODEL 1
REMARK minimizedAffinity -5.79833364
REMARK minimizedRMSD -1
REMARK  1 active torsions:
REMARK  status: ('A' for Active; 'I' for Inactive)
REMARK    1  A    between atoms: C1_2  and  C2_3 
ROOT
ATOM      1  C2  UNL d   1      -0.290   1.638  -0.006  0.00  0.00    -0.076 A 
ATOM      2  C3  UNL d   1      -0.502   1.330   1.349  0.00  0.00     0.004 A 
ATOM      3  C4  UNL d   1      -1.070   2.262   2.217  0.00  0.00    -0.003 A 
ATOM      4  C5  UNL d   1      -1.435   3.517   1.743  0.00  0.00     0.000 A 
ATOM      5  C6  UNL d   1      -1.249   3.834   0.398  0.00  0.00     0.000 A 
ATOM      6  C7  UNL d   1      -0.693   2.900  -0.494  0.00  0.00    -0.073 A 
ATOM      7  C8  UNL d   1      -0.509   3.297  -1.933  0.00  0.00     0.078 C 
ENDROOT
BRANCH   1   8
ATOM      8  C1  UNL d   1       0.354   0.597  -0.893  0.00  0.00     0.053 C 
ATOM      9  C   UNL d   1       0.679  -0.686  -0.144  0.00  0.00     0.018 C 
ENDBRANCH   1   8
TORSDOF 1
ENDMDL
