MODEL 1
REMARK minimizedAffinity -2.13916898
REMARK minimizedRMSD -1
REMARK  1 active torsions:
REMARK  status: ('A' for Active; 'I' for Inactive)
REMARK    1  A    between atoms: C1_2  and  C2_3 
ROOT
ATOM      1  C2  UNL d   1      -0.216  -1.301  -1.169  0.00  0.00    -0.076 A 
ATOM      2  C3  UNL d   1      -0.189  -2.609  -0.653  0.00  0.00     0.004 A 
ATOM      3  C4  UNL d   1      -0.894  -3.639  -1.273  0.00  0.00    -0.003 A 
ATOM      4  C5  UNL d   1      -1.636  -3.380  -2.420  0.00  0.00     0.000 A 
ATOM      5  C6  UNL d   1      -1.660  -2.092  -2.956  0.00  0.00     0.000 A 
ATOM      6  C7  UNL d   1      -0.942  -1.045  -2.352  0.00  0.00    -0.073 A 
ATOM      7  C8  UNL d   1      -1.009   0.325  -2.969  0.00  0.00     0.078 C 
ENDROOT
BRANCH   1   8
ATOM      8  C1  UNL d   1       0.545  -0.218  -0.439  0.00  0.00     0.053 C 
ATOM      9  C   UNL d   1      -0.300   0.476   0.618  0.00  0.00     0.018 C 
ENDBRANCH   1   8
TORSDOF 1
ENDMDL
