MODEL 1
REMARK minimizedAffinity -3.08366871
REMARK minimizedRMSD -1
REMARK  1 active torsions:
REMARK  status: ('A' for Active; 'I' for Inactive)
REMARK    1  A    between atoms: C1_2  and  C2_3 
ROOT
ATOM      1  C2  UNL d   1      -0.020  -1.037  -1.273  0.00  0.00    -0.076 A 
ATOM      2  C3  UNL d   1       0.232  -1.245   0.094  0.00  0.00     0.004 A 
ATOM      3  C4  UNL d   1       0.249  -0.178   0.991  0.00  0.00    -0.003 A 
ATOM      4  C5  UNL d   1       0.013   1.114   0.535  0.00  0.00     0.000 A 
ATOM      5  C6  UNL d   1      -0.256   1.337  -0.815  0.00  0.00     0.000 A 
ATOM      6  C7  UNL d   1      -0.293   0.270  -1.729  0.00  0.00    -0.073 A 
ATOM      7  C8  UNL d   1      -0.582   0.568  -3.175  0.00  0.00     0.078 C 
ENDROOT
BRANCH   1   8
ATOM      8  C1  UNL d   1       0.002  -2.229  -2.203  0.00  0.00     0.053 C 
ATOM      9  C   UNL d   1      -0.927  -3.343  -1.744  0.00  0.00     0.018 C 
ENDBRANCH   1   8
TORSDOF 1
ENDMDL
