MODEL 1
REMARK minimizedAffinity -2.07350039
REMARK minimizedRMSD -1
REMARK  1 active torsions:
REMARK  status: ('A' for Active; 'I' for Inactive)
REMARK    1  A    between atoms: C1_2  and  C2_3 
ROOT
ATOM      1  C2  UNL d   1      -0.715   1.420  -0.380  0.00  0.00    -0.076 A 
ATOM      2  C3  UNL d   1      -0.013   0.290  -0.834  0.00  0.00     0.004 A 
ATOM      3  C4  UNL d   1       0.643  -0.555   0.061  0.00  0.00    -0.003 A 
ATOM      4  C5  UNL d   1       0.606  -0.283   1.424  0.00  0.00     0.000 A 
ATOM      5  C6  UNL d   1      -0.101   0.824   1.893  0.00  0.00     0.000 A 
ATOM      6  C7  UNL d   1      -0.781   1.676   1.006  0.00  0.00    -0.073 A 
ATOM      7  C8  UNL d   1      -1.523   2.858   1.566  0.00  0.00     0.078 C 
ENDROOT
BRANCH   1   8
ATOM      8  C1  UNL d   1      -1.384   2.314  -1.400  0.00  0.00     0.053 C 
ATOM      9  C   UNL d   1      -0.518   2.547  -2.628  0.00  0.00     0.018 C 
ENDBRANCH   1   8
TORSDOF 1
ENDMDL
