MODEL 1
REMARK minimizedAffinity -3.02934051
REMARK minimizedRMSD -1
REMARK  1 active torsions:
REMARK  status: ('A' for Active; 'I' for Inactive)
REMARK    1  A    between atoms: C1_2  and  C2_3 
ROOT
ATOM      1  C2  UNL d   1      -0.356   0.577   0.100  0.00  0.00    -0.076 A 
ATOM      2  C3  UNL d   1      -1.307   1.342  -0.598  0.00  0.00     0.004 A 
ATOM      3  C4  UNL d   1      -2.028   2.349   0.043  0.00  0.00    -0.003 A 
ATOM      4  C5  UNL d   1      -1.809   2.607   1.391  0.00  0.00     0.000 A 
ATOM      5  C6  UNL d   1      -0.858   1.870   2.095  0.00  0.00     0.000 A 
ATOM      6  C7  UNL d   1      -0.110   0.863   1.461  0.00  0.00    -0.073 A 
ATOM      7  C8  UNL d   1       0.899   0.095   2.269  0.00  0.00     0.078 C 
ENDROOT
BRANCH   1   8
ATOM      8  C1  UNL d   1       0.376  -0.519  -0.640  0.00  0.00     0.053 C 
ATOM      9  C   UNL d   1      -0.504  -1.730  -0.907  0.00  0.00     0.018 C 
ENDBRANCH   1   8
TORSDOF 1
ENDMDL
