MODEL 1
REMARK minimizedAffinity -2.49082375
REMARK minimizedRMSD -1
REMARK  1 active torsions:
REMARK  status: ('A' for Active; 'I' for Inactive)
REMARK    1  A    between atoms: C1_2  and  C2_3 
ROOT
ATOM      1  C2  UNL d   1       0.495  -3.193  -0.576  0.00  0.00    -0.076 A 
ATOM      2  C3  UNL d   1       1.599  -3.847  -0.001  0.00  0.00     0.004 A 
ATOM      3  C4  UNL d   1       1.695  -5.238  -0.013  0.00  0.00    -0.003 A 
ATOM      4  C5  UNL d   1       0.690  -5.997  -0.601  0.00  0.00     0.000 A 
ATOM      5  C6  UNL d   1      -0.404  -5.364  -1.192  0.00  0.00     0.000 A 
ATOM      6  C7  UNL d   1      -0.508  -3.963  -1.203  0.00  0.00    -0.073 A 
ATOM      7  C8  UNL d   1      -1.712  -3.334  -1.848  0.00  0.00     0.078 C 
ENDROOT
BRANCH   1   8
ATOM      8  C1  UNL d   1       0.432  -1.684  -0.508  0.00  0.00     0.053 C 
ATOM      9  C   UNL d   1       1.583  -1.088   0.286  0.00  0.00     0.018 C 
ENDBRANCH   1   8
TORSDOF 1
ENDMDL
