MODEL 1
REMARK minimizedAffinity -1.49343801
REMARK minimizedRMSD -1
REMARK  1 active torsions:
REMARK  status: ('A' for Active; 'I' for Inactive)
REMARK    1  A    between atoms: C1_2  and  C2_3 
ROOT
ATOM      1  C2  UNL d   1      -0.043   1.208  -0.492  0.00  0.00    -0.076 A 
ATOM      2  C3  UNL d   1       0.910   0.257  -0.896  0.00  0.00     0.004 A 
ATOM      3  C4  UNL d   1       1.702  -0.407   0.040  0.00  0.00    -0.003 A 
ATOM      4  C5  UNL d   1       1.553  -0.131   1.394  0.00  0.00     0.000 A 
ATOM      5  C6  UNL d   1       0.601   0.797   1.814  0.00  0.00     0.000 A 
ATOM      6  C7  UNL d   1      -0.217   1.463   0.885  0.00  0.00    -0.073 A 
ATOM      7  C8  UNL d   1      -1.224   2.459   1.393  0.00  0.00     0.078 C 
ENDROOT
BRANCH   1   8
ATOM      8  C1  UNL d   1      -0.854   1.917  -1.553  0.00  0.00     0.053 C 
ATOM      9  C   UNL d   1      -0.304   1.692  -2.953  0.00  0.00     0.018 C 
ENDBRANCH   1   8
TORSDOF 1
ENDMDL
