MODEL 1
REMARK minimizedAffinity -0.139944807
REMARK minimizedRMSD -1
REMARK  1 active torsions:
REMARK  status: ('A' for Active; 'I' for Inactive)
REMARK    1  A    between atoms: C1_2  and  C2_3 
ROOT
ATOM      1  C2  UNL d   1      -0.597   1.732  -0.125  0.00  0.00    -0.076 A 
ATOM      2  C3  UNL d   1      -0.983   2.816   0.682  0.00  0.00     0.004 A 
ATOM      3  C4  UNL d   1      -0.720   2.821   2.050  0.00  0.00    -0.003 A 
ATOM      4  C5  UNL d   1      -0.065   1.742   2.634  0.00  0.00     0.000 A 
ATOM      5  C6  UNL d   1       0.341   0.666   1.846  0.00  0.00     0.000 A 
ATOM      6  C7  UNL d   1       0.098   0.653   0.462  0.00  0.00    -0.073 A 
ATOM      7  C8  UNL d   1       0.552  -0.537  -0.340  0.00  0.00     0.078 C 
ENDROOT
BRANCH   1   8
ATOM      8  C1  UNL d   1      -0.933   1.770  -1.599  0.00  0.00     0.053 C 
ATOM      9  C   UNL d   1       0.245   1.374  -2.476  0.00  0.00     0.018 C 
ENDBRANCH   1   8
TORSDOF 1
ENDMDL
