MODEL 1
REMARK minimizedAffinity -3.25800729
REMARK minimizedRMSD -1
REMARK  1 active torsions:
REMARK  status: ('A' for Active; 'I' for Inactive)
REMARK    1  A    between atoms: C1_2  and  C2_3 
ROOT
ATOM      1  C2  UNL d   1       0.355  -2.945  -1.087  0.00  0.00    -0.076 A 
ATOM      2  C3  UNL d   1       1.554  -3.184  -0.392  0.00  0.00     0.004 A 
ATOM      3  C4  UNL d   1       1.859  -4.453   0.098  0.00  0.00    -0.003 A 
ATOM      4  C5  UNL d   1       0.970  -5.504  -0.100  0.00  0.00     0.000 A 
ATOM      5  C6  UNL d   1      -0.215  -5.289  -0.803  0.00  0.00     0.000 A 
ATOM      6  C7  UNL d   1      -0.530  -4.020  -1.317  0.00  0.00    -0.073 A 
ATOM      7  C8  UNL d   1      -1.825  -3.843  -2.062  0.00  0.00     0.078 C 
ENDROOT
BRANCH   1   8
ATOM      8  C1  UNL d   1       0.066  -1.542  -1.571  0.00  0.00     0.053 C 
ATOM      9  C   UNL d   1       0.355  -0.489  -0.512  0.00  0.00     0.018 C 
ENDBRANCH   1   8
TORSDOF 1
ENDMDL
