MODEL 1
REMARK minimizedAffinity -2.36218166
REMARK minimizedRMSD -1
REMARK  1 active torsions:
REMARK  status: ('A' for Active; 'I' for Inactive)
REMARK    1  A    between atoms: C1_2  and  C2_3 
ROOT
ATOM      1  C2  UNL d   1      -0.289   0.335  -0.435  0.00  0.00    -0.076 A 
ATOM      2  C3  UNL d   1      -1.499   0.979  -0.746  0.00  0.00     0.004 A 
ATOM      3  C4  UNL d   1      -2.041   1.938   0.108  0.00  0.00    -0.003 A 
ATOM      4  C5  UNL d   1      -1.382   2.268   1.287  0.00  0.00     0.000 A 
ATOM      5  C6  UNL d   1      -0.172   1.652   1.602  0.00  0.00     0.000 A 
ATOM      6  C7  UNL d   1       0.397   0.695   0.744  0.00  0.00    -0.073 A 
ATOM      7  C8  UNL d   1       1.701   0.057   1.138  0.00  0.00     0.078 C 
ENDROOT
BRANCH   1   8
ATOM      8  C1  UNL d   1       0.237  -0.716  -1.386  0.00  0.00     0.053 C 
ATOM      9  C   UNL d   1      -0.288  -2.107  -1.066  0.00  0.00     0.018 C 
ENDBRANCH   1   8
TORSDOF 1
ENDMDL
