MODEL 1
REMARK minimizedAffinity -5.40177774
REMARK minimizedRMSD -1
REMARK  0 active torsions:
REMARK  status: ('A' for Active; 'I' for Inactive)
ROOT
ATOM      1  C1  BNZ d   1       1.933   0.733   0.300  0.00  0.00     0.000 A 
ATOM      2  C2  BNZ d   1       0.672   0.316  -0.035  0.00  0.00     0.000 A 
ATOM      3  C3  BNZ d   1      -0.365   1.205  -0.101  0.00  0.00     0.000 A 
ATOM      4  C4  BNZ d   1      -0.148   2.500   0.207  0.00  0.00     0.000 A 
ATOM      5  C5  BNZ d   1       1.115   2.934   0.556  0.00  0.00     0.000 A 
ATOM      6  C6  BNZ d   1       2.164   2.043   0.584  0.00  0.00     0.000 A 
ENDROOT
TORSDOF 0
ENDMDL
