MODEL 1
REMARK minimizedAffinity -4.78967333
REMARK minimizedRMSD -1
REMARK  0 active torsions:
REMARK  status: ('A' for Active; 'I' for Inactive)
ROOT
ATOM      1  C1  BNZ d   1      -1.000   0.944   0.327  0.00  0.00     0.000 A 
ATOM      2  C2  BNZ d   1      -0.935   2.311   0.266  0.00  0.00     0.000 A 
ATOM      3  C3  BNZ d   1       0.223   2.941  -0.093  0.00  0.00     0.000 A 
ATOM      4  C4  BNZ d   1       1.325   2.207  -0.351  0.00  0.00     0.000 A 
ATOM      5  C5  BNZ d   1       1.278   0.829  -0.283  0.00  0.00     0.000 A 
ATOM      6  C6  BNZ d   1       0.100   0.196   0.040  0.00  0.00     0.000 A 
ENDROOT
TORSDOF 0
ENDMDL
