MODEL 1
REMARK minimizedAffinity -2.63082504
REMARK minimizedRMSD -1
REMARK  0 active torsions:
REMARK  status: ('A' for Active; 'I' for Inactive)
ROOT
ATOM      1  C1  BNZ d   1      -0.122   1.535   0.137  0.00  0.00     0.000 A 
ATOM      2  C2  BNZ d   1       0.825   0.590  -0.154  0.00  0.00     0.000 A 
ATOM      3  C3  BNZ d   1       0.698  -0.692   0.303  0.00  0.00     0.000 A 
ATOM      4  C4  BNZ d   1      -0.353  -1.018   1.082  0.00  0.00     0.000 A 
ATOM      5  C5  BNZ d   1      -1.312  -0.074   1.392  0.00  0.00     0.000 A 
ATOM      6  C6  BNZ d   1      -1.201   1.206   0.898  0.00  0.00     0.000 A 
ENDROOT
TORSDOF 0
ENDMDL
