MODEL 1
REMARK minimizedAffinity -4.76045561
REMARK minimizedRMSD -1
REMARK  0 active torsions:
REMARK  status: ('A' for Active; 'I' for Inactive)
ROOT
ATOM      1  C1  BNZ d   1       3.137   1.133   0.342  0.00  0.00     0.000 A 
ATOM      2  C2  BNZ d   1       1.899   1.230  -0.235  0.00  0.00     0.000 A 
ATOM      3  C3  BNZ d   1       0.989   2.148   0.209  0.00  0.00     0.000 A 
ATOM      4  C4  BNZ d   1       1.304   2.941   1.254  0.00  0.00     0.000 A 
ATOM      5  C5  BNZ d   1       2.544   2.850   1.853  0.00  0.00     0.000 A 
ATOM      6  C6  BNZ d   1       3.472   1.950   1.378  0.00  0.00     0.000 A 
ENDROOT
TORSDOF 0
ENDMDL
