MODEL 1
REMARK minimizedAffinity -3.55455971
REMARK minimizedRMSD -1
REMARK  0 active torsions:
REMARK  status: ('A' for Active; 'I' for Inactive)
ROOT
ATOM      1  C1  BNZ d   1       0.345   1.108   0.116  0.00  0.00     0.000 A 
ATOM      2  C2  BNZ d   1      -0.471   2.192   0.302  0.00  0.00     0.000 A 
ATOM      3  C3  BNZ d   1       0.055   3.429   0.549  0.00  0.00     0.000 A 
ATOM      4  C4  BNZ d   1       1.392   3.574   0.648  0.00  0.00     0.000 A 
ATOM      5  C5  BNZ d   1       2.228   2.488   0.472  0.00  0.00     0.000 A 
ATOM      6  C6  BNZ d   1       1.696   1.252   0.185  0.00  0.00     0.000 A 
ENDROOT
TORSDOF 0
ENDMDL
