MODEL 1
REMARK minimizedAffinity -2.7027986
REMARK minimizedRMSD -1
REMARK  0 active torsions:
REMARK  status: ('A' for Active; 'I' for Inactive)
ROOT
ATOM      1  C1  BNZ d   1       1.294   2.755  -0.058  0.00  0.00     0.000 A 
ATOM      2  C2  BNZ d   1       1.101   1.502  -0.575  0.00  0.00     0.000 A 
ATOM      3  C3  BNZ d   1       0.016   0.754  -0.211  0.00  0.00     0.000 A 
ATOM      4  C4  BNZ d   1      -0.852   1.244   0.697  0.00  0.00     0.000 A 
ATOM      5  C5  BNZ d   1      -0.666   2.502   1.234  0.00  0.00     0.000 A 
ATOM      6  C6  BNZ d   1       0.406   3.268   0.837  0.00  0.00     0.000 A 
ENDROOT
TORSDOF 0
ENDMDL
