MODEL 1
REMARK minimizedAffinity -5.36591768
REMARK minimizedRMSD -1
REMARK  0 active torsions:
REMARK  status: ('A' for Active; 'I' for Inactive)
ROOT
ATOM      1  C1  BNZ d   1       0.455   3.363   0.281  0.00  0.00     0.000 A 
ATOM      2  C2  BNZ d   1       1.753   3.435   0.712  0.00  0.00     0.000 A 
ATOM      3  C3  BNZ d   1       2.551   2.326   0.718  0.00  0.00     0.000 A 
ATOM      4  C4  BNZ d   1       2.040   1.139   0.331  0.00  0.00     0.000 A 
ATOM      5  C5  BNZ d   1       0.731   1.048  -0.098  0.00  0.00     0.000 A 
ATOM      6  C6  BNZ d   1      -0.058   2.175  -0.140  0.00  0.00     0.000 A 
ENDROOT
TORSDOF 0
ENDMDL
