MODEL 1
REMARK minimizedAffinity -4.64678907
REMARK minimizedRMSD -1
REMARK  0 active torsions:
REMARK  status: ('A' for Active; 'I' for Inactive)
ROOT
ATOM      1  C1  BNZ d   1       0.876   1.162   0.062  0.00  0.00     0.000 A 
ATOM      2  C2  BNZ d   1       2.109   1.712   0.293  0.00  0.00     0.000 A 
ATOM      3  C3  BNZ d   1       2.254   3.060   0.464  0.00  0.00     0.000 A 
ATOM      4  C4  BNZ d   1       1.173   3.861   0.365  0.00  0.00     0.000 A 
ATOM      5  C5  BNZ d   1      -0.076   3.323   0.123  0.00  0.00     0.000 A 
ATOM      6  C6  BNZ d   1      -0.223   1.961  -0.010  0.00  0.00     0.000 A 
ENDROOT
TORSDOF 0
ENDMDL
