MODEL 1
REMARK minimizedAffinity -3.17218256
REMARK minimizedRMSD -1
REMARK  0 active torsions:
REMARK  status: ('A' for Active; 'I' for Inactive)
ROOT
ATOM      1  C1  BNZ d   1      -0.243   1.386   0.510  0.00  0.00     0.000 A 
ATOM      2  C2  BNZ d   1       0.894   0.789   0.034  0.00  0.00     0.000 A 
ATOM      3  C3  BNZ d   1       1.962   1.540  -0.371  0.00  0.00     0.000 A 
ATOM      4  C4  BNZ d   1       1.877   2.886  -0.337  0.00  0.00     0.000 A 
ATOM      5  C5  BNZ d   1       0.734   3.502   0.131  0.00  0.00     0.000 A 
ATOM      6  C6  BNZ d   1      -0.324   2.743   0.574  0.00  0.00     0.000 A 
ENDROOT
TORSDOF 0
ENDMDL
