MODEL 1
REMARK minimizedAffinity -3.26377082
REMARK minimizedRMSD -1
REMARK  0 active torsions:
REMARK  status: ('A' for Active; 'I' for Inactive)
ROOT
ATOM      1  C1  BNZ d   1      -1.171  -1.738  -2.434  0.00  0.00     0.000 A 
ATOM      2  C2  BNZ d   1      -1.004  -0.467  -1.950  0.00  0.00     0.000 A 
ATOM      3  C3  BNZ d   1      -0.402  -0.252  -0.742  0.00  0.00     0.000 A 
ATOM      4  C4  BNZ d   1      -0.005  -1.307  -0.002  0.00  0.00     0.000 A 
ATOM      5  C5  BNZ d   1      -0.175  -2.594  -0.472  0.00  0.00     0.000 A 
ATOM      6  C6  BNZ d   1      -0.746  -2.806  -1.706  0.00  0.00     0.000 A 
ENDROOT
TORSDOF 0
ENDMDL
