MODEL 1
REMARK minimizedAffinity -4.97851229
REMARK minimizedRMSD -1
REMARK  0 active torsions:
REMARK  status: ('A' for Active; 'I' for Inactive)
ROOT
ATOM      1  C1  BNZ d   1       0.703   3.811   0.361  0.00  0.00     0.000 A 
ATOM      2  C2  BNZ d   1       1.856   3.133   0.659  0.00  0.00     0.000 A 
ATOM      3  C3  BNZ d   1       1.917   1.773   0.547  0.00  0.00     0.000 A 
ATOM      4  C4  BNZ d   1       0.816   1.088   0.176  0.00  0.00     0.000 A 
ATOM      5  C5  BNZ d   1      -0.357   1.755  -0.118  0.00  0.00     0.000 A 
ATOM      6  C6  BNZ d   1      -0.403   3.128  -0.042  0.00  0.00     0.000 A 
ENDROOT
TORSDOF 0
ENDMDL
