MODEL 1
REMARK minimizedAffinity -3.18390965
REMARK minimizedRMSD -1
REMARK  0 active torsions:
REMARK  status: ('A' for Active; 'I' for Inactive)
ROOT
ATOM      1  C1  BNZ d   1      -1.070   2.271   0.585  0.00  0.00     0.000 A 
ATOM      2  C2  BNZ d   1      -1.495   0.969   0.542  0.00  0.00     0.000 A 
ATOM      3  C3  BNZ d   1      -0.650  -0.030   0.147  0.00  0.00     0.000 A 
ATOM      4  C4  BNZ d   1       0.604   0.277  -0.242  0.00  0.00     0.000 A 
ATOM      5  C5  BNZ d   1       1.044   1.586  -0.214  0.00  0.00     0.000 A 
ATOM      6  C6  BNZ d   1       0.203   2.584   0.222  0.00  0.00     0.000 A 
ENDROOT
TORSDOF 0
ENDMDL
