MODEL 1
REMARK minimizedAffinity -3.21291208
REMARK minimizedRMSD -1
REMARK  0 active torsions:
REMARK  status: ('A' for Active; 'I' for Inactive)
ROOT
ATOM      1  C1  BNZ d   1      -0.648  -3.118  -0.649  0.00  0.00     0.000 A 
ATOM      2  C2  BNZ d   1      -0.381  -1.990   0.081  0.00  0.00     0.000 A 
ATOM      3  C3  BNZ d   1       0.143  -0.878  -0.516  0.00  0.00     0.000 A 
ATOM      4  C4  BNZ d   1       0.435  -0.907  -1.832  0.00  0.00     0.000 A 
ATOM      5  C5  BNZ d   1       0.180  -2.040  -2.580  0.00  0.00     0.000 A 
ATOM      6  C6  BNZ d   1      -0.383  -3.144  -1.983  0.00  0.00     0.000 A 
ENDROOT
TORSDOF 0
ENDMDL
