MODEL 1
REMARK minimizedAffinity 11.719533
REMARK minimizedRMSD -1
REMARK  0 active torsions:
REMARK  status: ('A' for Active; 'I' for Inactive)
ROOT
ATOM      1  O1  BZF d   1       3.506  -2.473   0.589  0.00  0.00    -0.204 OA
ATOM      2  C2  BZF d   1       3.206  -3.686   0.002  0.00  0.00     0.174 A 
ATOM      3  C3  BZF d   1       2.258  -3.538  -0.946  0.00  0.00    -0.012 A 
ATOM      4  C3A BZF d   1       2.013  -2.130  -1.015  0.00  0.00    -0.107 A 
ATOM      5  C4  BZF d   1       1.186  -1.357  -1.780  0.00  0.00     0.055 A 
ATOM      6  C5  BZF d   1       1.132  -0.019  -1.549  0.00  0.00    -0.016 A 
ATOM      7  C6  BZF d   1       1.885   0.578  -0.560  0.00  0.00     0.022 A 
ATOM      8  C7  BZF d   1       2.723  -0.146   0.221  0.00  0.00     0.029 A 
ATOM      9  C7A BZF d   1       2.805  -1.494  -0.032  0.00  0.00     0.058 A 
ENDROOT
TORSDOF 0
ENDMDL
