MODEL 1
REMARK minimizedAffinity 14.2039919
REMARK minimizedRMSD -1
REMARK  0 active torsions:
REMARK  status: ('A' for Active; 'I' for Inactive)
ROOT
ATOM      1  O1  BZF d   1       1.990  -4.289   0.010  0.00  0.00    -0.204 OA
ATOM      2  C2  BZF d   1       1.934  -2.909   0.030  0.00  0.00     0.174 A 
ATOM      3  C3  BZF d   1       3.175  -2.380   0.044  0.00  0.00    -0.012 A 
ATOM      4  C3A BZF d   1       4.062  -3.498  -0.063  0.00  0.00    -0.107 A 
ATOM      5  C4  BZF d   1       5.421  -3.617  -0.117  0.00  0.00     0.055 A 
ATOM      6  C5  BZF d   1       5.975  -4.857  -0.146  0.00  0.00    -0.016 A 
ATOM      7  C6  BZF d   1       5.202  -5.999  -0.116  0.00  0.00     0.022 A 
ATOM      8  C7  BZF d   1       3.849  -5.932  -0.068  0.00  0.00     0.029 A 
ATOM      9  C7A BZF d   1       3.285  -4.680  -0.072  0.00  0.00     0.058 A 
ENDROOT
TORSDOF 0
ENDMDL
