MODEL 1
REMARK minimizedAffinity 19.546999
REMARK minimizedRMSD -1
REMARK  0 active torsions:
REMARK  status: ('A' for Active; 'I' for Inactive)
ROOT
ATOM      1  O1  BZF d   1      -3.070   1.309   1.702  0.00  0.00    -0.204 OA
ATOM      2  C2  BZF d   1      -3.865   1.550   2.806  0.00  0.00     0.174 A 
ATOM      3  C3  BZF d   1      -3.121   1.592   3.930  0.00  0.00    -0.012 A 
ATOM      4  C3A BZF d   1      -1.767   1.456   3.491  0.00  0.00    -0.107 A 
ATOM      5  C4  BZF d   1      -0.566   1.439   4.142  0.00  0.00     0.055 A 
ATOM      6  C5  BZF d   1       0.569   1.215   3.429  0.00  0.00    -0.016 A 
ATOM      7  C6  BZF d   1       0.539   0.999   2.067  0.00  0.00     0.022 A 
ATOM      8  C7  BZF d   1      -0.627   1.011   1.377  0.00  0.00     0.029 A 
ATOM      9  C7A BZF d   1      -1.772   1.270   2.090  0.00  0.00     0.058 A 
ENDROOT
TORSDOF 0
ENDMDL
