MODEL 1
REMARK minimizedAffinity 23.3052464
REMARK minimizedRMSD -1
REMARK  0 active torsions:
REMARK  status: ('A' for Active; 'I' for Inactive)
ROOT
ATOM      1  O1  BZF d   1       3.361  -3.285   0.170  0.00  0.00    -0.204 OA
ATOM      2  C2  BZF d   1       2.626  -4.436  -0.040  0.00  0.00     0.174 A 
ATOM      3  C3  BZF d   1       1.552  -4.183  -0.815  0.00  0.00    -0.012 A 
ATOM      4  C3A BZF d   1       1.669  -2.805  -1.183  0.00  0.00    -0.107 A 
ATOM      5  C4  BZF d   1       0.913  -1.973  -1.957  0.00  0.00     0.055 A 
ATOM      6  C5  BZF d   1       1.262  -0.663  -2.055  0.00  0.00    -0.016 A 
ATOM      7  C6  BZF d   1       2.357  -0.152  -1.390  0.00  0.00     0.022 A 
ATOM      8  C7  BZF d   1       3.141  -0.940  -0.614  0.00  0.00     0.029 A 
ATOM      9  C7A BZF d   1       2.809  -2.271  -0.539  0.00  0.00     0.058 A 
ENDROOT
TORSDOF 0
ENDMDL
