MODEL 1
REMARK minimizedAffinity 2.09857202
REMARK minimizedRMSD -1
REMARK  0 active torsions:
REMARK  status: ('A' for Active; 'I' for Inactive)
ROOT
ATOM      1  O1  BZF d   1       3.796  -2.598   0.812  0.00  0.00    -0.204 OA
ATOM      2  C2  BZF d   1       3.946  -3.888   0.342  0.00  0.00     0.174 A 
ATOM      3  C3  BZF d   1       3.343  -4.035  -0.855  0.00  0.00    -0.012 A 
ATOM      4  C3A BZF d   1       2.859  -2.732  -1.195  0.00  0.00    -0.107 A 
ATOM      5  C4  BZF d   1       2.185  -2.231  -2.272  0.00  0.00     0.055 A 
ATOM      6  C5  BZF d   1       1.796  -0.929  -2.261  0.00  0.00    -0.016 A 
ATOM      7  C6  BZF d   1       2.059  -0.102  -1.189  0.00  0.00     0.022 A 
ATOM      8  C7  BZF d   1       2.728  -0.552  -0.100  0.00  0.00     0.029 A 
ATOM      9  C7A BZF d   1       3.152  -1.858  -0.122  0.00  0.00     0.058 A 
ENDROOT
TORSDOF 0
ENDMDL
