MODEL 1
REMARK minimizedAffinity 27.5456791
REMARK minimizedRMSD -1
REMARK  0 active torsions:
REMARK  status: ('A' for Active; 'I' for Inactive)
ROOT
ATOM      1  O1  BZF d   1       0.949   1.613   3.466  0.00  0.00    -0.204 OA
ATOM      2  C2  BZF d   1      -0.234   0.933   3.248  0.00  0.00     0.174 A 
ATOM      3  C3  BZF d   1      -0.257   0.395   2.012  0.00  0.00    -0.012 A 
ATOM      4  C3A BZF d   1       1.028   0.684   1.453  0.00  0.00    -0.107 A 
ATOM      5  C4  BZF d   1       1.617   0.396   0.254  0.00  0.00     0.055 A 
ATOM      6  C5  BZF d   1       2.857   0.886  -0.007  0.00  0.00    -0.016 A 
ATOM      7  C6  BZF d   1       3.535   1.670   0.904  0.00  0.00     0.022 A 
ATOM      8  C7  BZF d   1       2.994   1.978   2.108  0.00  0.00     0.029 A 
ATOM      9  C7A BZF d   1       1.754   1.457   2.388  0.00  0.00     0.058 A 
ENDROOT
TORSDOF 0
ENDMDL
