MODEL 1
REMARK minimizedAffinity 20.338028
REMARK minimizedRMSD -1
REMARK  0 active torsions:
REMARK  status: ('A' for Active; 'I' for Inactive)
ROOT
ATOM      1  O1  BZF d   1       2.021   4.160  -3.059  0.00  0.00    -0.204 OA
ATOM      2  C2  BZF d   1       2.568   4.869  -2.007  0.00  0.00     0.174 A 
ATOM      3  C3  BZF d   1       3.099   4.033  -1.091  0.00  0.00    -0.012 A 
ATOM      4  C3A BZF d   1       2.952   2.723  -1.647  0.00  0.00    -0.107 A 
ATOM      5  C4  BZF d   1       3.301   1.476  -1.216  0.00  0.00     0.055 A 
ATOM      6  C5  BZF d   1       2.949   0.396  -1.963  0.00  0.00    -0.016 A 
ATOM      7  C6  BZF d   1       2.244   0.527  -3.141  0.00  0.00     0.022 A 
ATOM      8  C7  BZF d   1       1.880   1.744  -3.612  0.00  0.00     0.029 A 
ATOM      9  C7A BZF d   1       2.263   2.839  -2.877  0.00  0.00     0.058 A 
ENDROOT
TORSDOF 0
ENDMDL
