MODEL 1
REMARK minimizedAffinity 19.5593834
REMARK minimizedRMSD -1
REMARK  0 active torsions:
REMARK  status: ('A' for Active; 'I' for Inactive)
ROOT
ATOM      1  O1  BZF d   1       1.563   2.249  -3.642  0.00  0.00    -0.204 OA
ATOM      2  C2  BZF d   1       1.701   0.886  -3.822  0.00  0.00     0.174 A 
ATOM      3  C3  BZF d   1       2.325   0.325  -2.766  0.00  0.00    -0.012 A 
ATOM      4  C3A BZF d   1       2.512   1.390  -1.829  0.00  0.00    -0.107 A 
ATOM      5  C4  BZF d   1       3.061   1.457  -0.581  0.00  0.00     0.055 A 
ATOM      6  C5  BZF d   1       3.155   2.665   0.036  0.00  0.00    -0.016 A 
ATOM      7  C6  BZF d   1       2.714   3.824  -0.568  0.00  0.00     0.022 A 
ATOM      8  C7  BZF d   1       2.157   3.807  -1.803  0.00  0.00     0.029 A 
ATOM      9  C7A BZF d   1       2.031   2.584  -2.415  0.00  0.00     0.058 A 
ENDROOT
TORSDOF 0
ENDMDL
