MODEL 1
REMARK minimizedAffinity 25.1648045
REMARK minimizedRMSD -1
REMARK  0 active torsions:
REMARK  status: ('A' for Active; 'I' for Inactive)
ROOT
ATOM      1  O1  BZF d   1       4.672  -2.657   0.354  0.00  0.00    -0.204 OA
ATOM      2  C2  BZF d   1       3.802  -3.678   0.024  0.00  0.00     0.174 A 
ATOM      3  C3  BZF d   1       2.587  -3.187  -0.293  0.00  0.00    -0.012 A 
ATOM      4  C3A BZF d   1       2.731  -1.764  -0.242  0.00  0.00    -0.107 A 
ATOM      5  C4  BZF d   1       1.876  -0.725  -0.474  0.00  0.00     0.055 A 
ATOM      6  C5  BZF d   1       2.309   0.546  -0.265  0.00  0.00    -0.016 A 
ATOM      7  C6  BZF d   1       3.588   0.814   0.180  0.00  0.00     0.022 A 
ATOM      8  C7  BZF d   1       4.473  -0.184   0.419  0.00  0.00     0.029 A 
ATOM      9  C7A BZF d   1       4.049  -1.468   0.177  0.00  0.00     0.058 A 
ENDROOT
TORSDOF 0
ENDMDL
