MODEL 1
REMARK minimizedAffinity -1.73632967
REMARK minimizedRMSD -1
REMARK  0 active torsions:
REMARK  status: ('A' for Active; 'I' for Inactive)
ROOT
ATOM      1  O1  BZF d   1       3.087  -2.770  -0.197  0.00  0.00    -0.204 OA
ATOM      2  C2  BZF d   1       2.434  -1.685  -0.749  0.00  0.00     0.174 A 
ATOM      3  C3  BZF d   1       1.875  -2.014  -1.932  0.00  0.00    -0.012 A 
ATOM      4  C3A BZF d   1       2.120  -3.415  -2.086  0.00  0.00    -0.107 A 
ATOM      5  C4  BZF d   1       1.796  -4.324  -3.053  0.00  0.00     0.055 A 
ATOM      6  C5  BZF d   1       2.249  -5.600  -2.939  0.00  0.00    -0.016 A 
ATOM      7  C6  BZF d   1       3.031  -6.000  -1.875  0.00  0.00     0.022 A 
ATOM      8  C7  BZF d   1       3.375  -5.136  -0.889  0.00  0.00     0.029 A 
ATOM      9  C7A BZF d   1       2.891  -3.854  -0.985  0.00  0.00     0.058 A 
ENDROOT
TORSDOF 0
ENDMDL
