MODEL 1
REMARK minimizedAffinity 15.5895929
REMARK minimizedRMSD -1
REMARK  0 active torsions:
REMARK  status: ('A' for Active; 'I' for Inactive)
ROOT
ATOM      1  O1  BZF d   1      -3.134   2.190   2.376  0.00  0.00    -0.204 OA
ATOM      2  C2  BZF d   1      -3.750   1.081   2.924  0.00  0.00     0.174 A 
ATOM      3  C3  BZF d   1      -2.842   0.134   3.235  0.00  0.00    -0.012 A 
ATOM      4  C3A BZF d   1      -1.570   0.722   2.944  0.00  0.00    -0.107 A 
ATOM      5  C4  BZF d   1      -0.283   0.280   3.059  0.00  0.00     0.055 A 
ATOM      6  C5  BZF d   1       0.729   1.073   2.618  0.00  0.00    -0.016 A 
ATOM      7  C6  BZF d   1       0.490   2.308   2.053  0.00  0.00     0.022 A 
ATOM      8  C7  BZF d   1      -0.769   2.792   1.923  0.00  0.00     0.029 A 
ATOM      9  C7A BZF d   1      -1.792   2.007   2.397  0.00  0.00     0.058 A 
ENDROOT
TORSDOF 0
ENDMDL
