MODEL 1
REMARK minimizedAffinity 11.4376297
REMARK minimizedRMSD -1
REMARK  0 active torsions:
REMARK  status: ('A' for Active; 'I' for Inactive)
ROOT
ATOM      1  O1  BZF d   1      -1.459   0.446   0.887  0.00  0.00    -0.204 OA
ATOM      2  C2  BZF d   1      -2.633   0.796   1.527  0.00  0.00     0.174 A 
ATOM      3  C3  BZF d   1      -2.374   1.486   2.657  0.00  0.00    -0.012 A 
ATOM      4  C3A BZF d   1      -0.953   1.652   2.679  0.00  0.00    -0.107 A 
ATOM      5  C4  BZF d   1      -0.094   2.268   3.544  0.00  0.00     0.055 A 
ATOM      6  C5  BZF d   1       1.243   2.186   3.316  0.00  0.00    -0.016 A 
ATOM      7  C6  BZF d   1       1.755   1.493   2.239  0.00  0.00     0.022 A 
ATOM      8  C7  BZF d   1       0.942   0.870   1.351  0.00  0.00     0.029 A 
ATOM      9  C7A BZF d   1      -0.411   0.979   1.560  0.00  0.00     0.058 A 
ENDROOT
TORSDOF 0
ENDMDL
