MODEL 1
REMARK minimizedAffinity 15.3871698
REMARK minimizedRMSD -1
REMARK  0 active torsions:
REMARK  status: ('A' for Active; 'I' for Inactive)
ROOT
ATOM      1  O1  BZF d   1      -3.274   1.506   2.266  0.00  0.00    -0.204 OA
ATOM      2  C2  BZF d   1      -2.019   0.962   2.465  0.00  0.00     0.174 A 
ATOM      3  C3  BZF d   1      -1.625   1.125   3.744  0.00  0.00    -0.012 A 
ATOM      4  C3A BZF d   1      -2.739   1.731   4.407  0.00  0.00    -0.107 A 
ATOM      5  C4  BZF d   1      -2.964   2.125   5.695  0.00  0.00     0.055 A 
ATOM      6  C5  BZF d   1      -4.131   2.751   6.000  0.00  0.00    -0.016 A 
ATOM      7  C6  BZF d   1      -5.091   3.003   5.042  0.00  0.00     0.022 A 
ATOM      8  C7  BZF d   1      -4.915   2.627   3.752  0.00  0.00     0.029 A 
ATOM      9  C7A BZF d   1      -3.751   1.965   3.448  0.00  0.00     0.058 A 
ENDROOT
TORSDOF 0
ENDMDL
