MODEL 1
REMARK minimizedAffinity 13.0324764
REMARK minimizedRMSD -1
REMARK  0 active torsions:
REMARK  status: ('A' for Active; 'I' for Inactive)
ROOT
ATOM      1  O1  BZF d   1       2.340   1.644   2.589  0.00  0.00    -0.204 OA
ATOM      2  C2  BZF d   1       1.011   1.527   2.946  0.00  0.00     0.174 A 
ATOM      3  C3  BZF d   1       0.272   1.095   1.903  0.00  0.00    -0.012 A 
ATOM      4  C3A BZF d   1       1.213   0.843   0.855  0.00  0.00    -0.107 A 
ATOM      5  C4  BZF d   1       1.091   0.382  -0.425  0.00  0.00     0.055 A 
ATOM      6  C5  BZF d   1       2.196   0.320  -1.213  0.00  0.00    -0.016 A 
ATOM      7  C6  BZF d   1       3.436   0.716  -0.756  0.00  0.00     0.022 A 
ATOM      8  C7  BZF d   1       3.608   1.176   0.507  0.00  0.00     0.029 A 
ATOM      9  C7A BZF d   1       2.498   1.208   1.317  0.00  0.00     0.058 A 
ENDROOT
TORSDOF 0
ENDMDL
