MODEL 1
REMARK minimizedAffinity 22.4631958
REMARK minimizedRMSD -1
REMARK  0 active torsions:
REMARK  status: ('A' for Active; 'I' for Inactive)
ROOT
ATOM      1  O1  BZF d   1       4.266   0.226   0.114  0.00  0.00    -0.204 OA
ATOM      2  C2  BZF d   1       3.992  -1.097   0.403  0.00  0.00     0.174 A 
ATOM      3  C3  BZF d   1       3.007  -1.565  -0.391  0.00  0.00    -0.012 A 
ATOM      4  C3A BZF d   1       2.707  -0.494  -1.290  0.00  0.00    -0.107 A 
ATOM      5  C4  BZF d   1       1.826  -0.356  -2.325  0.00  0.00     0.055 A 
ATOM      6  C5  BZF d   1       1.730   0.845  -2.954  0.00  0.00    -0.016 A 
ATOM      7  C6  BZF d   1       2.494   1.928  -2.572  0.00  0.00     0.022 A 
ATOM      8  C7  BZF d   1       3.385   1.838  -1.555  0.00  0.00     0.029 A 
ATOM      9  C7A BZF d   1       3.508   0.617  -0.939  0.00  0.00     0.058 A 
ENDROOT
TORSDOF 0
ENDMDL
