MODEL 1
REMARK minimizedAffinity 18.3834476
REMARK minimizedRMSD -1
REMARK  0 active torsions:
REMARK  status: ('A' for Active; 'I' for Inactive)
ROOT
ATOM      1  O1  BZF d   1      -1.228  -4.063  -2.301  0.00  0.00    -0.204 OA
ATOM      2  C2  BZF d   1      -0.017  -4.658  -2.599  0.00  0.00     0.174 A 
ATOM      3  C3  BZF d   1       0.089  -4.890  -3.923  0.00  0.00    -0.012 A 
ATOM      4  C3A BZF d   1      -1.092  -4.325  -4.500  0.00  0.00    -0.107 A 
ATOM      5  C4  BZF d   1      -1.555  -4.225  -5.781  0.00  0.00     0.055 A 
ATOM      6  C5  BZF d   1      -2.781  -3.680  -5.999  0.00  0.00    -0.016 A 
ATOM      7  C6  BZF d   1      -3.571  -3.231  -4.961  0.00  0.00     0.022 A 
ATOM      8  C7  BZF d   1      -3.152  -3.304  -3.674  0.00  0.00     0.029 A 
ATOM      9  C7A BZF d   1      -1.900  -3.824  -3.453  0.00  0.00     0.058 A 
ENDROOT
TORSDOF 0
ENDMDL
