MODEL 1
REMARK minimizedAffinity 11.1907244
REMARK minimizedRMSD -1
REMARK  0 active torsions:
REMARK  status: ('A' for Active; 'I' for Inactive)
ROOT
ATOM      1  O1  BZF d   1      -3.750   1.179   2.599  0.00  0.00    -0.204 OA
ATOM      2  C2  BZF d   1      -2.856   0.241   3.077  0.00  0.00     0.174 A 
ATOM      3  C3  BZF d   1      -2.629   0.425   4.394  0.00  0.00    -0.012 A 
ATOM      4  C3A BZF d   1      -3.502   1.490   4.781  0.00  0.00    -0.107 A 
ATOM      5  C4  BZF d   1      -3.747   2.118   5.969  0.00  0.00     0.055 A 
ATOM      6  C5  BZF d   1      -4.606   3.170   5.995  0.00  0.00    -0.016 A 
ATOM      7  C6  BZF d   1      -5.233   3.624   4.853  0.00  0.00     0.022 A 
ATOM      8  C7  BZF d   1      -5.025   3.030   3.652  0.00  0.00     0.029 A 
ATOM      9  C7A BZF d   1      -4.182   1.946   3.629  0.00  0.00     0.058 A 
ENDROOT
TORSDOF 0
ENDMDL
