MODEL 1
REMARK minimizedAffinity 18.7109966
REMARK minimizedRMSD -1
REMARK  0 active torsions:
REMARK  status: ('A' for Active; 'I' for Inactive)
ROOT
ATOM      1  O1  BZF d   1       3.985  -0.622   0.073  0.00  0.00    -0.204 OA
ATOM      2  C2  BZF d   1       4.920   0.388  -0.050  0.00  0.00     0.174 A 
ATOM      3  C3  BZF d   1       4.553   1.266  -1.006  0.00  0.00    -0.012 A 
ATOM      4  C3A BZF d   1       3.266   0.824  -1.448  0.00  0.00    -0.107 A 
ATOM      5  C4  BZF d   1       2.378   1.296  -2.372  0.00  0.00     0.055 A 
ATOM      6  C5  BZF d   1       1.242   0.591  -2.616  0.00  0.00    -0.016 A 
ATOM      7  C6  BZF d   1       0.964  -0.590  -1.959  0.00  0.00     0.022 A 
ATOM      8  C7  BZF d   1       1.812  -1.094  -1.029  0.00  0.00     0.029 A 
ATOM      9  C7A BZF d   1       2.945  -0.367  -0.757  0.00  0.00     0.058 A 
ENDROOT
TORSDOF 0
ENDMDL
