MODEL 1
REMARK minimizedAffinity 1.27595329
REMARK minimizedRMSD -1
REMARK  0 active torsions:
REMARK  status: ('A' for Active; 'I' for Inactive)
ROOT
ATOM      1  C   UNL d   1      -2.078   0.405   1.628  0.00  0.00     0.172 C 
ATOM      2  N   UNL d   1      -1.149   1.102   2.485  0.00  0.00    -0.070 N 
ATOM      3  C1  UNL d   1      -0.264   0.514   3.349  0.00  0.00    -0.004 A 
ATOM      4  C2  UNL d   1       0.440   1.516   3.980  0.00  0.00    -0.047 A 
ATOM      5  C3  UNL d   1      -0.039   2.750   3.479  0.00  0.00    -0.047 A 
ATOM      6  C4  UNL d   1      -1.022   2.464   2.556  0.00  0.00    -0.004 A 
ENDROOT
TORSDOF 0
ENDMDL
