MODEL 1
REMARK minimizedAffinity -0.959364891
REMARK minimizedRMSD -1
REMARK  0 active torsions:
REMARK  status: ('A' for Active; 'I' for Inactive)
ROOT
ATOM      1  C   UNL d   1      -3.759   4.490   2.842  0.00  0.00     0.172 C 
ATOM      2  N   UNL d   1      -4.390   4.982   4.044  0.00  0.00    -0.070 N 
ATOM      3  C1  UNL d   1      -5.701   4.791   4.393  0.00  0.00    -0.004 A 
ATOM      4  C2  UNL d   1      -5.910   5.412   5.605  0.00  0.00    -0.047 A 
ATOM      5  C3  UNL d   1      -4.683   5.997   5.999  0.00  0.00    -0.047 A 
ATOM      6  C4  UNL d   1      -3.759   5.715   5.014  0.00  0.00    -0.004 A 
ENDROOT
TORSDOF 0
ENDMDL
