MODEL 1
REMARK minimizedAffinity -0.739154041
REMARK minimizedRMSD -1
REMARK  0 active torsions:
REMARK  status: ('A' for Active; 'I' for Inactive)
ROOT
ATOM      1  C   UNL d   1      -4.534  -5.391  -6.000  0.00  0.00     0.172 C 
ATOM      2  N   UNL d   1      -3.952  -4.070  -5.999  0.00  0.00    -0.070 N 
ATOM      3  C1  UNL d   1      -4.648  -2.891  -6.000  0.00  0.00    -0.004 A 
ATOM      4  C2  UNL d   1      -3.733  -1.860  -5.998  0.00  0.00    -0.047 A 
ATOM      5  C3  UNL d   1      -2.442  -2.440  -5.997  0.00  0.00    -0.047 A 
ATOM      6  C4  UNL d   1      -2.607  -3.809  -5.997  0.00  0.00    -0.004 A 
ENDROOT
TORSDOF 0
ENDMDL
