MODEL 1
REMARK minimizedAffinity -0.75849843
REMARK minimizedRMSD -1
REMARK  0 active torsions:
REMARK  status: ('A' for Active; 'I' for Inactive)
ROOT
ATOM      1  C   UNL d   1      -0.998  -4.355  -5.985  0.00  0.00     0.172 C 
ATOM      2  N   UNL d   1      -2.234  -3.608  -5.989  0.00  0.00    -0.070 N 
ATOM      3  C1  UNL d   1      -2.343  -2.243  -5.998  0.00  0.00    -0.004 A 
ATOM      4  C2  UNL d   1      -3.684  -1.927  -6.000  0.00  0.00    -0.047 A 
ATOM      5  C3  UNL d   1      -4.407  -3.143  -5.990  0.00  0.00    -0.047 A 
ATOM      6  C4  UNL d   1      -3.485  -4.169  -5.983  0.00  0.00    -0.004 A 
ENDROOT
TORSDOF 0
ENDMDL
