MODEL 1
REMARK minimizedAffinity 4.79275417
REMARK minimizedRMSD -1
REMARK  0 active torsions:
REMARK  status: ('A' for Active; 'I' for Inactive)
ROOT
ATOM      1  C   UNL d   1      -5.498  -2.608  -5.991  0.00  0.00     0.172 C 
ATOM      2  N   UNL d   1      -4.075  -2.367  -5.994  0.00  0.00    -0.070 N 
ATOM      3  C1  UNL d   1      -3.473  -1.137  -5.998  0.00  0.00    -0.004 A 
ATOM      4  C2  UNL d   1      -2.109  -1.334  -5.999  0.00  0.00    -0.047 A 
ATOM      5  C3  UNL d   1      -1.883  -2.731  -5.996  0.00  0.00    -0.047 A 
ATOM      6  C4  UNL d   1      -3.117  -3.346  -5.993  0.00  0.00    -0.004 A 
ENDROOT
TORSDOF 0
ENDMDL
