MODEL 1
REMARK minimizedAffinity 5.59650517
REMARK minimizedRMSD -1
REMARK  0 active torsions:
REMARK  status: ('A' for Active; 'I' for Inactive)
ROOT
ATOM      1  C   UNL d   1      -3.392   6.000   4.238  0.00  0.00     0.172 C 
ATOM      2  N   UNL d   1      -4.420   5.111   4.726  0.00  0.00    -0.070 N 
ATOM      3  C1  UNL d   1      -5.111   5.257   5.899  0.00  0.00    -0.004 A 
ATOM      4  C2  UNL d   1      -5.999   4.208   6.000  0.00  0.00    -0.047 A 
ATOM      5  C3  UNL d   1      -5.835   3.402   4.848  0.00  0.00    -0.047 A 
ATOM      6  C4  UNL d   1      -4.851   3.984   4.076  0.00  0.00    -0.004 A 
ENDROOT
TORSDOF 0
ENDMDL
