MODEL 1
REMARK minimizedAffinity -2.31546617
REMARK minimizedRMSD -1
REMARK  0 active torsions:
REMARK  status: ('A' for Active; 'I' for Inactive)
ROOT
ATOM      1  C   UNL d   1      -3.356   0.736   1.267  0.00  0.00     0.172 C 
ATOM      2  N   UNL d   1      -2.246   0.940   2.168  0.00  0.00    -0.070 N 
ATOM      3  C1  UNL d   1      -1.991   2.086   2.873  0.00  0.00    -0.004 A 
ATOM      4  C2  UNL d   1      -0.848   1.879   3.614  0.00  0.00    -0.047 A 
ATOM      5  C3  UNL d   1      -0.400   0.564   3.345  0.00  0.00    -0.047 A 
ATOM      6  C4  UNL d   1      -1.284   0.005   2.446  0.00  0.00    -0.004 A 
ENDROOT
TORSDOF 0
ENDMDL
