MODEL 1
REMARK minimizedAffinity 0.583016396
REMARK minimizedRMSD -1
REMARK  0 active torsions:
REMARK  status: ('A' for Active; 'I' for Inactive)
ROOT
ATOM      1  C   UNL d   1       2.606  -4.926   1.444  0.00  0.00     0.172 C 
ATOM      2  N   UNL d   1       3.980  -4.897   1.888  0.00  0.00    -0.070 N 
ATOM      3  C1  UNL d   1       4.758  -3.777   2.005  0.00  0.00    -0.004 A 
ATOM      4  C2  UNL d   1       5.999  -4.170   2.458  0.00  0.00    -0.047 A 
ATOM      5  C3  UNL d   1       5.966  -5.576   2.617  0.00  0.00    -0.047 A 
ATOM      6  C4  UNL d   1       4.704  -6.000   2.257  0.00  0.00    -0.004 A 
ENDROOT
TORSDOF 0
ENDMDL
