MODEL 1
REMARK minimizedAffinity 0.976699471
REMARK minimizedRMSD -1
REMARK  0 active torsions:
REMARK  status: ('A' for Active; 'I' for Inactive)
ROOT
ATOM      1  C   UNL d   1       4.408   0.387  -6.000  0.00  0.00     0.172 C 
ATOM      2  N   UNL d   1       3.354  -0.040  -5.110  0.00  0.00    -0.070 N 
ATOM      3  C1  UNL d   1       3.340   0.129  -3.751  0.00  0.00    -0.004 A 
ATOM      4  C2  UNL d   1       2.167  -0.412  -3.271  0.00  0.00    -0.047 A 
ATOM      5  C3  UNL d   1       1.452  -0.925  -4.379  0.00  0.00    -0.047 A 
ATOM      6  C4  UNL d   1       2.210  -0.681  -5.505  0.00  0.00    -0.004 A 
ENDROOT
TORSDOF 0
ENDMDL
