MODEL 1
REMARK minimizedAffinity 7.06477594
REMARK minimizedRMSD -1
REMARK  0 active torsions:
REMARK  status: ('A' for Active; 'I' for Inactive)
ROOT
ATOM      1  C   UNL d   1      -1.726   0.641   1.536  0.00  0.00     0.172 C 
ATOM      2  N   UNL d   1      -2.535  -0.484   1.129  0.00  0.00    -0.070 N 
ATOM      3  C1  UNL d   1      -2.082  -1.758   0.915  0.00  0.00    -0.004 A 
ATOM      4  C2  UNL d   1      -3.158  -2.532   0.541  0.00  0.00    -0.047 A 
ATOM      5  C3  UNL d   1      -4.299  -1.694   0.529  0.00  0.00    -0.047 A 
ATOM      6  C4  UNL d   1      -3.884  -0.432   0.897  0.00  0.00    -0.004 A 
ENDROOT
TORSDOF 0
ENDMDL
