MODEL 1
REMARK minimizedAffinity 6.92941713
REMARK minimizedRMSD -1
REMARK  0 active torsions:
REMARK  status: ('A' for Active; 'I' for Inactive)
ROOT
ATOM      1  C   UNL d   1       5.984  -4.895   4.045  0.00  0.00     0.172 C 
ATOM      2  N   UNL d   1       5.938  -3.474   4.295  0.00  0.00    -0.070 N 
ATOM      3  C1  UNL d   1       5.830  -2.499   3.339  0.00  0.00    -0.004 A 
ATOM      4  C2  UNL d   1       5.819  -1.279   3.981  0.00  0.00    -0.047 A 
ATOM      5  C3  UNL d   1       5.926  -1.529   5.369  0.00  0.00    -0.047 A 
ATOM      6  C4  UNL d   1       5.998  -2.896   5.536  0.00  0.00    -0.004 A 
ENDROOT
TORSDOF 0
ENDMDL
