MODEL 1
REMARK minimizedAffinity 5.07772684
REMARK minimizedRMSD -1
REMARK  0 active torsions:
REMARK  status: ('A' for Active; 'I' for Inactive)
ROOT
ATOM      1  C   UNL d   1       5.929  -0.373   5.798  0.00  0.00     0.172 C 
ATOM      2  N   UNL d   1       5.923  -0.371   4.354  0.00  0.00    -0.070 N 
ATOM      3  C1  UNL d   1       5.839  -1.479   3.554  0.00  0.00    -0.004 A 
ATOM      4  C2  UNL d   1       5.863  -1.056   2.243  0.00  0.00    -0.047 A 
ATOM      5  C3  UNL d   1       5.965   0.356   2.255  0.00  0.00    -0.047 A 
ATOM      6  C4  UNL d   1       6.000   0.753   3.575  0.00  0.00    -0.004 A 
ENDROOT
TORSDOF 0
ENDMDL
