MODEL 1
REMARK minimizedAffinity 3.15018344
REMARK minimizedRMSD -1
REMARK  0 active torsions:
REMARK  status: ('A' for Active; 'I' for Inactive)
ROOT
ATOM      1  C   UNL d   1      -1.929   0.498   1.985  0.00  0.00     0.172 C 
ATOM      2  N   UNL d   1      -3.076  -0.029   1.284  0.00  0.00    -0.070 N 
ATOM      3  C1  UNL d   1      -3.356  -1.357   1.095  0.00  0.00    -0.004 A 
ATOM      4  C2  UNL d   1      -4.532  -1.443   0.383  0.00  0.00    -0.047 A 
ATOM      5  C3  UNL d   1      -4.975  -0.122   0.134  0.00  0.00    -0.047 A 
ATOM      6  C4  UNL d   1      -4.055   0.733   0.702  0.00  0.00    -0.004 A 
ENDROOT
TORSDOF 0
ENDMDL
