MODEL 1
REMARK minimizedAffinity 1.12413704
REMARK minimizedRMSD -1
REMARK  0 active torsions:
REMARK  status: ('A' for Active; 'I' for Inactive)
ROOT
ATOM      1  C   UNL d   1       2.600  -5.643   1.942  0.00  0.00     0.172 C 
ATOM      2  N   UNL d   1       3.971  -5.357   2.295  0.00  0.00    -0.070 N 
ATOM      3  C1  UNL d   1       4.767  -4.412   1.704  0.00  0.00    -0.004 A 
ATOM      4  C2  UNL d   1       5.998  -4.451   2.323  0.00  0.00    -0.047 A 
ATOM      5  C3  UNL d   1       5.940  -5.454   3.319  0.00  0.00    -0.047 A 
ATOM      6  C4  UNL d   1       4.674  -5.999   3.280  0.00  0.00    -0.004 A 
ENDROOT
TORSDOF 0
ENDMDL
