MODEL 1
REMARK minimizedAffinity 0.259597361
REMARK minimizedRMSD -1
REMARK  0 active torsions:
REMARK  status: ('A' for Active; 'I' for Inactive)
ROOT
ATOM      1  C   UNL d   1      -0.596   0.618   2.961  0.00  0.00     0.172 C 
ATOM      2  N   UNL d   1      -2.000   0.527   2.637  0.00  0.00    -0.070 N 
ATOM      3  C1  UNL d   1      -3.020   0.385   3.539  0.00  0.00    -0.004 A 
ATOM      4  C2  UNL d   1      -4.204   0.338   2.835  0.00  0.00    -0.047 A 
ATOM      5  C3  UNL d   1      -3.884   0.456   1.461  0.00  0.00    -0.047 A 
ATOM      6  C4  UNL d   1      -2.513   0.571   1.367  0.00  0.00    -0.004 A 
ENDROOT
TORSDOF 0
ENDMDL
