MODEL 1
REMARK minimizedAffinity 1.77174115
REMARK minimizedRMSD -1
REMARK  0 active torsions:
REMARK  status: ('A' for Active; 'I' for Inactive)
ROOT
ATOM      1  C   UNL d   1      -3.616  -4.463  -5.991  0.00  0.00     0.172 C 
ATOM      2  N   UNL d   1      -3.168  -3.090  -5.994  0.00  0.00    -0.070 N 
ATOM      3  C1  UNL d   1      -3.978  -1.986  -5.992  0.00  0.00    -0.004 A 
ATOM      4  C2  UNL d   1      -3.170  -0.870  -5.995  0.00  0.00    -0.047 A 
ATOM      5  C3  UNL d   1      -1.828  -1.318  -6.000  0.00  0.00    -0.047 A 
ATOM      6  C4  UNL d   1      -1.856  -2.697  -5.998  0.00  0.00    -0.004 A 
ENDROOT
TORSDOF 0
ENDMDL
