MODEL 1
REMARK minimizedAffinity 7.43724775
REMARK minimizedRMSD -1
REMARK  0 active torsions:
REMARK  status: ('A' for Active; 'I' for Inactive)
ROOT
ATOM      1  C   UNL d   1       3.117   5.265  -4.109  0.00  0.00     0.172 C 
ATOM      2  N   UNL d   1       4.073   4.381  -4.733  0.00  0.00    -0.070 N 
ATOM      3  C1  UNL d   1       3.776   3.390  -5.630  0.00  0.00    -0.004 A 
ATOM      4  C2  UNL d   1       4.957   2.777  -5.988  0.00  0.00    -0.047 A 
ATOM      5  C3  UNL d   1       6.000   3.421  -5.281  0.00  0.00    -0.047 A 
ATOM      6  C4  UNL d   1       5.425   4.410  -4.512  0.00  0.00    -0.004 A 
ENDROOT
TORSDOF 0
ENDMDL
