MODEL 1
REMARK minimizedAffinity 0.495179266
REMARK minimizedRMSD -1
REMARK  0 active torsions:
REMARK  status: ('A' for Active; 'I' for Inactive)
ROOT
ATOM      1  C   UNL d   1      -2.045   1.837   3.175  0.00  0.00     0.172 C 
ATOM      2  N   UNL d   1      -0.625   1.751   3.420  0.00  0.00    -0.070 N 
ATOM      3  C1  UNL d   1       0.201   0.748   2.987  0.00  0.00    -0.004 A 
ATOM      4  C2  UNL d   1       1.476   1.033   3.424  0.00  0.00    -0.047 A 
ATOM      5  C3  UNL d   1       1.415   2.249   4.145  0.00  0.00    -0.047 A 
ATOM      6  C4  UNL d   1       0.103   2.672   4.127  0.00  0.00    -0.004 A 
ENDROOT
TORSDOF 0
ENDMDL
