MODEL 1
REMARK minimizedAffinity 10.2801208
REMARK minimizedRMSD -1
REMARK  2 active torsions:
REMARK  status: ('A' for Active; 'I' for Inactive)
REMARK    1  A    between atoms: C2'_3  and  C1'_4 
REMARK    2  A    between atoms: C1'_4  and  C1_5 
ROOT
ATOM      1  C1  I4B d   1       2.283  -3.257   2.247  0.00  0.00    -0.075 A 
ATOM      2  C2  I4B d   1       1.525  -4.048   1.420  0.00  0.00     0.003 A 
ATOM      3  C3  I4B d   1       1.412  -5.437   1.669  0.00  0.00     0.002 A 
ATOM      4  C4  I4B d   1       2.110  -5.998   2.719  0.00  0.00    -0.004 A 
ATOM      5  C5  I4B d   1       2.859  -5.191   3.570  0.00  0.00     0.002 A 
ATOM      6  C6  I4B d   1       2.937  -3.810   3.340  0.00  0.00     0.003 A 
ENDROOT
BRANCH   1   7
ATOM      7  C1' I4B d   1       2.408  -1.799   1.935  0.00  0.00     0.060 C 
BRANCH   7   8
ATOM      8  C2' I4B d   1       1.291  -1.071   2.655  0.00  0.00    -0.013 C 
ATOM      9  C4' I4B d   1       1.333  -1.337   4.137  0.00  0.00     0.013 C 
ATOM     10  C3' I4B d   1       1.430   0.393   2.364  0.00  0.00     0.013 C 
ENDBRANCH   7   8
ENDBRANCH   1   7
TORSDOF 2
ENDMDL
