MODEL 1
REMARK minimizedAffinity 13.6146269
REMARK minimizedRMSD -1
REMARK  2 active torsions:
REMARK  status: ('A' for Active; 'I' for Inactive)
REMARK    1  A    between atoms: C2'_3  and  C1'_4 
REMARK    2  A    between atoms: C1'_4  and  C1_5 
ROOT
ATOM      1  C1  I4B d   1       1.384  -2.590   3.581  0.00  0.00    -0.075 A 
ATOM      2  C2  I4B d   1       0.959  -2.042   4.766  0.00  0.00     0.003 A 
ATOM      3  C3  I4B d   1       1.370  -2.604   5.999  0.00  0.00     0.002 A 
ATOM      4  C4  I4B d   1       2.160  -3.735   6.000  0.00  0.00    -0.004 A 
ATOM      5  C5  I4B d   1       2.608  -4.276   4.798  0.00  0.00     0.002 A 
ATOM      6  C6  I4B d   1       2.228  -3.692   3.581  0.00  0.00     0.003 A 
ENDROOT
BRANCH   1   7
ATOM      7  C1' I4B d   1       0.903  -1.991   2.297  0.00  0.00     0.060 C 
BRANCH   7   8
ATOM      8  C2' I4B d   1       1.852  -0.871   1.920  0.00  0.00    -0.013 C 
ATOM      9  C4' I4B d   1       2.751  -1.278   0.782  0.00  0.00     0.013 C 
ATOM     10  C3' I4B d   1       1.030   0.330   1.558  0.00  0.00     0.013 C 
ENDBRANCH   7   8
ENDBRANCH   1   7
TORSDOF 2
ENDMDL
