MODEL 1
REMARK minimizedAffinity 10.4673605
REMARK minimizedRMSD -1
REMARK  2 active torsions:
REMARK  status: ('A' for Active; 'I' for Inactive)
REMARK    1  A    between atoms: C2'_3  and  C1'_4 
REMARK    2  A    between atoms: C1'_4  and  C1_5 
ROOT
ATOM      1  C1  I4B d   1      -3.687   3.412  -2.972  0.00  0.00    -0.075 A 
ATOM      2  C2  I4B d   1      -4.728   2.990  -2.184  0.00  0.00     0.003 A 
ATOM      3  C3  I4B d   1      -5.916   3.756  -2.100  0.00  0.00     0.002 A 
ATOM      4  C4  I4B d   1      -6.000   4.955  -2.778  0.00  0.00    -0.004 A 
ATOM      5  C5  I4B d   1      -4.952   5.371  -3.595  0.00  0.00     0.002 A 
ATOM      6  C6  I4B d   1      -3.793   4.589  -3.703  0.00  0.00     0.003 A 
ENDROOT
BRANCH   1   7
ATOM      7  C1' I4B d   1      -2.434   2.595  -3.011  0.00  0.00     0.060 C 
BRANCH   7   8
ATOM      8  C2' I4B d   1      -2.575   1.477  -1.999  0.00  0.00    -0.013 C 
ATOM      9  C4' I4B d   1      -2.579   0.130  -2.671  0.00  0.00     0.013 C 
ATOM     10  C3' I4B d   1      -1.441   1.591  -1.023  0.00  0.00     0.013 C 
ENDBRANCH   7   8
ENDBRANCH   1   7
TORSDOF 2
ENDMDL
