MODEL 1
REMARK minimizedAffinity 3.0157299
REMARK minimizedRMSD -1
REMARK  1 active torsions:
REMARK  status: ('A' for Active; 'I' for Inactive)
REMARK    1  A    between atoms: N_2  and  C1_3 
ROOT
ATOM      1  C1  UNL d   1       1.844  -0.394   2.639  0.00  0.00     0.143 A 
ATOM      2  C2  UNL d   1       0.762   0.492   2.673  0.00  0.00    -0.057 A 
ATOM      3  C3  UNL d   1       0.946   1.870   2.505  0.00  0.00     0.033 A 
ATOM      4  C4  UNL d   1       2.224   2.391   2.327  0.00  0.00    -0.042 A 
ATOM      5  C5  UNL d   1       3.317   1.531   2.314  0.00  0.00     0.033 A 
ATOM      6  C6  UNL d   1       3.126   0.156   2.476  0.00  0.00    -0.057 A 
ENDROOT
BRANCH   1   7
ATOM      7  N   UNL d   1       1.737  -1.762   2.898  0.00  0.00    -0.732 N 
ATOM      8  C   UNL d   1       2.164  -2.307   4.169  0.00  0.00     0.284 C 
ATOM      9  H3  UNL d   1       0.868  -2.157   2.547  0.00  0.00     0.395 HD
ENDBRANCH   1   7
TORSDOF 1
ENDMDL
