MODEL 1
REMARK minimizedAffinity 11.8331642
REMARK minimizedRMSD -1
REMARK  1 active torsions:
REMARK  status: ('A' for Active; 'I' for Inactive)
REMARK    1  A    between atoms: N_2  and  C1_3 
ROOT
ATOM      1  C1  UNL d   1       5.001   5.081   3.368  0.00  0.00     0.143 A 
ATOM      2  C2  UNL d   1       5.881   5.294   2.302  0.00  0.00    -0.057 A 
ATOM      3  C3  UNL d   1       5.998   4.365   1.261  0.00  0.00     0.033 A 
ATOM      4  C4  UNL d   1       5.255   3.190   1.283  0.00  0.00    -0.042 A 
ATOM      5  C5  UNL d   1       4.392   2.945   2.345  0.00  0.00     0.033 A 
ATOM      6  C6  UNL d   1       4.275   3.880   3.379  0.00  0.00    -0.057 A 
ENDROOT
BRANCH   1   7
ATOM      7  N   UNL d   1       4.912   5.919   4.482  0.00  0.00    -0.732 N 
ATOM      8  C   UNL d   1       6.000   6.000   5.433  0.00  0.00     0.284 C 
ATOM      9  H3  UNL d   1       4.486   6.816   4.261  0.00  0.00     0.395 HD
ENDBRANCH   1   7
TORSDOF 1
ENDMDL
