MODEL 1
REMARK minimizedAffinity 8.40439892
REMARK minimizedRMSD -1
REMARK  1 active torsions:
REMARK  status: ('A' for Active; 'I' for Inactive)
REMARK    1  A    between atoms: N_2  and  C1_3 
ROOT
ATOM      1  C1  UNL d   1      -3.183   4.959  -0.985  0.00  0.00     0.143 A 
ATOM      2  C2  UNL d   1      -3.822   6.000  -1.666  0.00  0.00    -0.057 A 
ATOM      3  C3  UNL d   1      -5.182   5.928  -1.991  0.00  0.00     0.033 A 
ATOM      4  C4  UNL d   1      -5.923   4.797  -1.664  0.00  0.00    -0.042 A 
ATOM      5  C5  UNL d   1      -5.302   3.739  -1.009  0.00  0.00     0.033 A 
ATOM      6  C6  UNL d   1      -3.945   3.820  -0.681  0.00  0.00    -0.057 A 
ENDROOT
BRANCH   1   7
ATOM      7  N   UNL d   1      -1.811   4.928  -0.721  0.00  0.00    -0.732 N 
ATOM      8  C   UNL d   1      -1.320   5.018   0.637  0.00  0.00     0.284 C 
ATOM      9  H3  UNL d   1      -1.320   4.248  -1.296  0.00  0.00     0.395 HD
ENDBRANCH   1   7
TORSDOF 1
ENDMDL
