MODEL 1
REMARK minimizedAffinity 3.03231001
REMARK minimizedRMSD -1
REMARK  1 active torsions:
REMARK  status: ('A' for Active; 'I' for Inactive)
REMARK    1  A    between atoms: N_2  and  C1_3 
ROOT
ATOM      1  C1  UNL d   1       1.499  -1.011   5.014  0.00  0.00     0.143 A 
ATOM      2  C2  UNL d   1       0.768   0.173   5.164  0.00  0.00    -0.057 A 
ATOM      3  C3  UNL d   1       0.020   0.704   4.106  0.00  0.00     0.033 A 
ATOM      4  C4  UNL d   1       0.012   0.073   2.867  0.00  0.00    -0.042 A 
ATOM      5  C5  UNL d   1       0.751  -1.092   2.687  0.00  0.00     0.033 A 
ATOM      6  C6  UNL d   1       1.491  -1.620   3.750  0.00  0.00    -0.057 A 
ENDROOT
BRANCH   1   7
ATOM      7  N   UNL d   1       2.340  -1.535   5.998  0.00  0.00    -0.732 N 
ATOM      8  C   UNL d   1       3.754  -1.226   5.999  0.00  0.00     0.284 C 
ATOM      9  H3  UNL d   1       1.912  -1.526   6.921  0.00  0.00     0.395 HD
ENDBRANCH   1   7
TORSDOF 1
ENDMDL
