MODEL 1
REMARK minimizedAffinity 12.2534161
REMARK minimizedRMSD -1
REMARK  1 active torsions:
REMARK  status: ('A' for Active; 'I' for Inactive)
REMARK    1  A    between atoms: N_2  and  C1_3 
ROOT
ATOM      1  C1  UNL d   1       1.878  -1.434   3.100  0.00  0.00     0.143 A 
ATOM      2  C2  UNL d   1       1.162  -1.636   1.915  0.00  0.00    -0.057 A 
ATOM      3  C3  UNL d   1       0.366  -0.624   1.365  0.00  0.00     0.033 A 
ATOM      4  C4  UNL d   1       0.248   0.603   2.010  0.00  0.00    -0.042 A 
ATOM      5  C5  UNL d   1       0.930   0.818   3.202  0.00  0.00     0.033 A 
ATOM      6  C6  UNL d   1       1.729  -0.195   3.742  0.00  0.00    -0.057 A 
ENDROOT
BRANCH   1   7
ATOM      7  N   UNL d   1       2.608  -2.433   3.748  0.00  0.00    -0.732 N 
ATOM      8  C   UNL d   1       2.035  -3.161   4.860  0.00  0.00     0.284 C 
ATOM      9  H3  UNL d   1       3.133  -3.013   3.098  0.00  0.00     0.395 HD
ENDBRANCH   1   7
TORSDOF 1
ENDMDL
