MODEL 1
REMARK minimizedAffinity 13.3759193
REMARK minimizedRMSD -1
REMARK  1 active torsions:
REMARK  status: ('A' for Active; 'I' for Inactive)
REMARK    1  A    between atoms: N_2  and  C1_3 
ROOT
ATOM      1  C1  UNL d   1      -0.965  -3.188  -4.074  0.00  0.00     0.143 A 
ATOM      2  C2  UNL d   1      -0.906  -3.815  -5.323  0.00  0.00    -0.057 A 
ATOM      3  C3  UNL d   1      -1.009  -5.206  -5.442  0.00  0.00     0.033 A 
ATOM      4  C4  UNL d   1      -1.143  -6.000  -4.307  0.00  0.00    -0.042 A 
ATOM      5  C5  UNL d   1      -1.179  -5.400  -3.054  0.00  0.00     0.033 A 
ATOM      6  C6  UNL d   1      -1.083  -4.009  -2.941  0.00  0.00    -0.057 A 
ENDROOT
BRANCH   1   7
ATOM      7  N   UNL d   1      -0.770  -1.818  -3.881  0.00  0.00    -0.732 N 
ATOM      8  C   UNL d   1       0.012  -1.045  -4.823  0.00  0.00     0.284 C 
ATOM      9  H3  UNL d   1      -1.611  -1.348  -3.555  0.00  0.00     0.395 HD
ENDBRANCH   1   7
TORSDOF 1
ENDMDL
