MODEL 1
REMARK minimizedAffinity 7.75236607
REMARK minimizedRMSD -1
REMARK  1 active torsions:
REMARK  status: ('A' for Active; 'I' for Inactive)
REMARK    1  A    between atoms: C1_2  and  C2_3 
ROOT
ATOM      1  C2  UNL d   1      -3.033  -5.216  -5.152  0.00  0.00    -0.077 A 
ATOM      2  C3  UNL d   1      -4.193  -6.000  -5.226  0.00  0.00     0.002 A 
ATOM      3  C4  UNL d   1      -5.400  -5.437  -5.645  0.00  0.00     0.002 A 
ATOM      4  C5  UNL d   1      -5.458  -4.090  -5.997  0.00  0.00    -0.004 A 
ATOM      5  C6  UNL d   1      -4.310  -3.302  -5.925  0.00  0.00     0.002 A 
ATOM      6  C7  UNL d   1      -3.103  -3.862  -5.505  0.00  0.00     0.002 A 
ENDROOT
BRANCH   1   7
ATOM      7  C1  UNL d   1      -1.719  -5.832  -4.748  0.00  0.00     0.055 C 
ATOM      8  C   UNL d   1      -0.986  -4.960  -3.739  0.00  0.00     0.019 C 
ENDBRANCH   1   7
TORSDOF 1
ENDMDL
