MODEL 1
REMARK minimizedAffinity 10.5485458
REMARK minimizedRMSD -1
REMARK  1 active torsions:
REMARK  status: ('A' for Active; 'I' for Inactive)
REMARK    1  A    between atoms: C1_2  and  C2_3 
ROOT
ATOM      1  C2  UNL d   1      -0.896   4.374  -2.040  0.00  0.00    -0.077 A 
ATOM      2  C3  UNL d   1       0.485   4.371  -2.282  0.00  0.00     0.002 A 
ATOM      3  C4  UNL d   1       1.360   3.776  -1.372  0.00  0.00     0.002 A 
ATOM      4  C5  UNL d   1       0.864   3.175  -0.217  0.00  0.00    -0.004 A 
ATOM      5  C6  UNL d   1      -0.507   3.175   0.034  0.00  0.00     0.002 A 
ATOM      6  C7  UNL d   1      -1.384   3.770  -0.874  0.00  0.00     0.002 A 
ENDROOT
BRANCH   1   7
ATOM      7  C1  UNL d   1      -1.846   4.972  -3.045  0.00  0.00     0.055 C 
ATOM      8  C   UNL d   1      -3.292   4.641  -2.705  0.00  0.00     0.019 C 
ENDBRANCH   1   7
TORSDOF 1
ENDMDL
