MODEL 1
REMARK minimizedAffinity 3.56324267
REMARK minimizedRMSD -1
REMARK  1 active torsions:
REMARK  status: ('A' for Active; 'I' for Inactive)
REMARK    1  A    between atoms: C1_2  and  C2_3 
ROOT
ATOM      1  C2  UNL d   1       1.445   2.663   0.444  0.00  0.00    -0.077 A 
ATOM      2  C3  UNL d   1       1.928   3.520  -0.555  0.00  0.00     0.002 A 
ATOM      3  C4  UNL d   1       1.044   4.283  -1.320  0.00  0.00     0.002 A 
ATOM      4  C5  UNL d   1      -0.328   4.199  -1.091  0.00  0.00    -0.004 A 
ATOM      5  C6  UNL d   1      -0.819   3.348  -0.102  0.00  0.00     0.002 A 
ATOM      6  C7  UNL d   1       0.064   2.584   0.663  0.00  0.00     0.002 A 
ENDROOT
BRANCH   1   7
ATOM      7  C1  UNL d   1       2.401   1.877   1.304  0.00  0.00     0.055 C 
ATOM      8  C   UNL d   1       2.160   2.140   2.783  0.00  0.00     0.019 C 
ENDBRANCH   1   7
TORSDOF 1
ENDMDL
