MODEL 1
REMARK minimizedAffinity 11.4471083
REMARK minimizedRMSD -1
REMARK  1 active torsions:
REMARK  status: ('A' for Active; 'I' for Inactive)
REMARK    1  A    between atoms: C1_2  and  C2_3 
ROOT
ATOM      1  C2  UNL d   1      -4.551   1.174  -2.674  0.00  0.00    -0.077 A 
ATOM      2  C3  UNL d   1      -4.222   2.537  -2.652  0.00  0.00     0.002 A 
ATOM      3  C4  UNL d   1      -3.704   3.156  -3.791  0.00  0.00     0.002 A 
ATOM      4  C5  UNL d   1      -3.516   2.423  -4.961  0.00  0.00    -0.004 A 
ATOM      5  C6  UNL d   1      -3.838   1.066  -4.991  0.00  0.00     0.002 A 
ATOM      6  C7  UNL d   1      -4.354   0.445  -3.853  0.00  0.00     0.002 A 
ENDROOT
BRANCH   1   7
ATOM      7  C1  UNL d   1      -5.155   0.515  -1.461  0.00  0.00     0.055 C 
ATOM      8  C   UNL d   1      -4.084   0.113  -0.458  0.00  0.00     0.019 C 
ENDBRANCH   1   7
TORSDOF 1
ENDMDL
