MODEL 1
REMARK minimizedAffinity 3.96215272
REMARK minimizedRMSD -1
REMARK  1 active torsions:
REMARK  status: ('A' for Active; 'I' for Inactive)
REMARK    1  A    between atoms: C1_2  and  C2_3 
ROOT
ATOM      1  C2  UNL d   1      -0.235   2.397   1.935  0.00  0.00    -0.077 A 
ATOM      2  C3  UNL d   1      -1.560   2.771   2.198  0.00  0.00     0.002 A 
ATOM      3  C4  UNL d   1      -2.425   3.091   1.150  0.00  0.00     0.002 A 
ATOM      4  C5  UNL d   1      -1.976   3.036  -0.167  0.00  0.00    -0.004 A 
ATOM      5  C6  UNL d   1      -0.659   2.668  -0.439  0.00  0.00     0.002 A 
ATOM      6  C7  UNL d   1       0.207   2.349   0.607  0.00  0.00     0.002 A 
ENDROOT
BRANCH   1   7
ATOM      7  C1  UNL d   1       0.686   2.004   3.061  0.00  0.00     0.055 C 
ATOM      8  C   UNL d   1       2.041   2.683   2.931  0.00  0.00     0.019 C 
ENDBRANCH   1   7
TORSDOF 1
ENDMDL
