MODEL 1
REMARK minimizedAffinity 6.43543196
REMARK minimizedRMSD -1
REMARK  1 active torsions:
REMARK  status: ('A' for Active; 'I' for Inactive)
REMARK    1  A    between atoms: C1_2  and  C2_3 
ROOT
ATOM      1  C2  UNL d   1       1.172  -0.436  -0.296  0.00  0.00    -0.077 A 
ATOM      2  C3  UNL d   1       2.343  -0.959   0.271  0.00  0.00     0.002 A 
ATOM      3  C4  UNL d   1       2.526  -2.339   0.366  0.00  0.00     0.002 A 
ATOM      4  C5  UNL d   1       1.546  -3.208  -0.107  0.00  0.00    -0.004 A 
ATOM      5  C6  UNL d   1       0.377  -2.699  -0.671  0.00  0.00     0.002 A 
ATOM      6  C7  UNL d   1       0.191  -1.319  -0.766  0.00  0.00     0.002 A 
ENDROOT
BRANCH   1   7
ATOM      7  C1  UNL d   1       0.994   1.052  -0.444  0.00  0.00     0.055 C 
ATOM      8  C   UNL d   1      -0.380   1.496   0.036  0.00  0.00     0.019 C 
ENDBRANCH   1   7
TORSDOF 1
ENDMDL
