MODEL 1
REMARK minimizedAffinity 7.40266848
REMARK minimizedRMSD -1
REMARK  1 active torsions:
REMARK  status: ('A' for Active; 'I' for Inactive)
REMARK    1  A    between atoms: C1_2  and  C2_3 
ROOT
ATOM      1  C2  UNL d   1       3.731  -4.953  -0.976  0.00  0.00    -0.077 A 
ATOM      2  C3  UNL d   1       4.847  -4.132  -0.759  0.00  0.00     0.002 A 
ATOM      3  C4  UNL d   1       5.897  -4.110  -1.680  0.00  0.00     0.002 A 
ATOM      4  C5  UNL d   1       5.839  -4.902  -2.824  0.00  0.00    -0.004 A 
ATOM      5  C6  UNL d   1       4.735  -5.723  -3.048  0.00  0.00     0.002 A 
ATOM      6  C7  UNL d   1       3.685  -5.748  -2.129  0.00  0.00     0.002 A 
ENDROOT
BRANCH   1   7
ATOM      7  C1  UNL d   1       2.576  -4.941  -0.010  0.00  0.00     0.055 C 
ATOM      8  C   UNL d   1       1.286  -4.511  -0.694  0.00  0.00     0.019 C 
ENDBRANCH   1   7
TORSDOF 1
ENDMDL
