MODEL 1
REMARK minimizedAffinity 6.68353605
REMARK minimizedRMSD -1
REMARK  1 active torsions:
REMARK  status: ('A' for Active; 'I' for Inactive)
REMARK    1  A    between atoms: C1_2  and  C2_3 
ROOT
ATOM      1  C2  UNL d   1       1.133   3.702  -0.909  0.00  0.00    -0.077 A 
ATOM      2  C3  UNL d   1      -0.160   4.239  -0.835  0.00  0.00     0.002 A 
ATOM      3  C4  UNL d   1      -1.199   3.502  -0.263  0.00  0.00     0.002 A 
ATOM      4  C5  UNL d   1      -0.955   2.226   0.242  0.00  0.00    -0.004 A 
ATOM      5  C6  UNL d   1       0.327   1.683   0.171  0.00  0.00     0.002 A 
ATOM      6  C7  UNL d   1       1.367   2.417  -0.401  0.00  0.00     0.002 A 
ENDROOT
BRANCH   1   7
ATOM      7  C1  UNL d   1       2.265   4.514  -1.481  0.00  0.00     0.055 C 
ATOM      8  C   UNL d   1       1.931   5.999  -1.491  0.00  0.00     0.019 C 
ENDBRANCH   1   7
TORSDOF 1
ENDMDL
