MODEL 1
REMARK minimizedAffinity 7.29686403
REMARK minimizedRMSD -1
REMARK  1 active torsions:
REMARK  status: ('A' for Active; 'I' for Inactive)
REMARK    1  A    between atoms: C1_2  and  C2_3 
ROOT
ATOM      1  C2  UNL d   1       0.516   3.501  -0.488  0.00  0.00    -0.077 A 
ATOM      2  C3  UNL d   1      -0.834   3.871  -0.569  0.00  0.00     0.002 A 
ATOM      3  C4  UNL d   1      -1.803   3.170   0.152  0.00  0.00     0.002 A 
ATOM      4  C5  UNL d   1      -1.432   2.098   0.961  0.00  0.00    -0.004 A 
ATOM      5  C6  UNL d   1      -0.092   1.721   1.047  0.00  0.00     0.002 A 
ATOM      6  C7  UNL d   1       0.877   2.420   0.326  0.00  0.00     0.002 A 
ENDROOT
BRANCH   1   7
ATOM      7  C1  UNL d   1       1.568   4.286  -1.227  0.00  0.00     0.055 C 
ATOM      8  C   UNL d   1       0.999   5.579  -1.792  0.00  0.00     0.019 C 
ENDBRANCH   1   7
TORSDOF 1
ENDMDL
