MODEL 1
REMARK minimizedAffinity 0.000461840566
REMARK minimizedRMSD -1
REMARK  0 active torsions:
REMARK  status: ('A' for Active; 'I' for Inactive)
ROOT
ATOM      1  C   UNL d   1       5.999  -5.966  -2.559  0.00  0.00     0.172 C 
ATOM      2  N   UNL d   1       5.325  -5.769  -3.821  0.00  0.00    -0.070 N 
ATOM      3  C1  UNL d   1       5.863  -6.000  -5.059  0.00  0.00    -0.004 A 
ATOM      4  C2  UNL d   1       4.905  -5.692  -6.000  0.00  0.00    -0.047 A 
ATOM      5  C3  UNL d   1       3.751  -5.260  -5.304  0.00  0.00    -0.047 A 
ATOM      6  C4  UNL d   1       4.039  -5.317  -3.956  0.00  0.00    -0.004 A 
ENDROOT
TORSDOF 0
ENDMDL
