MODEL 1
REMARK minimizedAffinity -2.84936047
REMARK minimizedRMSD -1
REMARK  0 active torsions:
REMARK  status: ('A' for Active; 'I' for Inactive)
ROOT
ATOM      1  C   UNL d   1       3.871  -4.872  -2.571  0.00  0.00     0.172 C 
ATOM      2  N   UNL d   1       3.818  -5.241  -3.966  0.00  0.00    -0.070 N 
ATOM      3  C1  UNL d   1       4.884  -5.635  -4.729  0.00  0.00    -0.004 A 
ATOM      4  C2  UNL d   1       4.420  -5.900  -5.999  0.00  0.00    -0.047 A 
ATOM      5  C3  UNL d   1       3.026  -5.655  -6.000  0.00  0.00    -0.047 A 
ATOM      6  C4  UNL d   1       2.680  -5.249  -4.729  0.00  0.00    -0.004 A 
ENDROOT
TORSDOF 0
ENDMDL
