MODEL 1
REMARK minimizedAffinity -1.50662971
REMARK minimizedRMSD -1
REMARK  0 active torsions:
REMARK  status: ('A' for Active; 'I' for Inactive)
ROOT
ATOM      1  C   UNL d   1       3.759  -5.664  -2.474  0.00  0.00     0.172 C 
ATOM      2  N   UNL d   1       3.833  -5.516  -3.909  0.00  0.00    -0.070 N 
ATOM      3  C1  UNL d   1       2.910  -4.878  -4.694  0.00  0.00    -0.004 A 
ATOM      4  C2  UNL d   1       3.343  -4.954  -6.000  0.00  0.00    -0.047 A 
ATOM      5  C3  UNL d   1       4.568  -5.663  -6.000  0.00  0.00    -0.047 A 
ATOM      6  C4  UNL d   1       4.847  -5.999  -4.692  0.00  0.00    -0.004 A 
ENDROOT
TORSDOF 0
ENDMDL
