MODEL 1
REMARK minimizedAffinity -1.90619957
REMARK minimizedRMSD -1
REMARK  0 active torsions:
REMARK  status: ('A' for Active; 'I' for Inactive)
ROOT
ATOM      1  C   UNL d   1       3.749  -5.744  -2.397  0.00  0.00     0.172 C 
ATOM      2  N   UNL d   1       3.951  -5.845  -3.823  0.00  0.00    -0.070 N 
ATOM      3  C1  UNL d   1       5.165  -5.892  -4.456  0.00  0.00    -0.004 A 
ATOM      4  C2  UNL d   1       4.931  -5.988  -5.811  0.00  0.00    -0.047 A 
ATOM      5  C3  UNL d   1       3.528  -5.999  -5.999  0.00  0.00    -0.047 A 
ATOM      6  C4  UNL d   1       2.946  -5.910  -4.752  0.00  0.00    -0.004 A 
ENDROOT
TORSDOF 0
ENDMDL
