MODEL 1
REMARK minimizedAffinity -3.28266191
REMARK minimizedRMSD -1
REMARK  0 active torsions:
REMARK  status: ('A' for Active; 'I' for Inactive)
ROOT
ATOM      1  C   UNL d   1       1.915  -5.623  -5.627  0.00  0.00     0.172 C 
ATOM      2  N   UNL d   1       3.276  -5.443  -5.179  0.00  0.00    -0.070 N 
ATOM      3  C1  UNL d   1       3.671  -5.249  -3.883  0.00  0.00    -0.004 A 
ATOM      4  C2  UNL d   1       5.043  -5.121  -3.874  0.00  0.00    -0.047 A 
ATOM      5  C3  UNL d   1       5.488  -5.242  -5.212  0.00  0.00    -0.047 A 
ATOM      6  C4  UNL d   1       4.373  -5.440  -5.999  0.00  0.00    -0.004 A 
ENDROOT
TORSDOF 0
ENDMDL
