MODEL 1
REMARK minimizedAffinity -2.66806197
REMARK minimizedRMSD -1
REMARK  0 active torsions:
REMARK  status: ('A' for Active; 'I' for Inactive)
ROOT
ATOM      1  C   UNL d   1       6.000  -5.886  -6.000  0.00  0.00     0.172 C 
ATOM      2  N   UNL d   1       4.891  -5.678  -5.098  0.00  0.00    -0.070 N 
ATOM      3  C1  UNL d   1       4.978  -5.577  -3.736  0.00  0.00    -0.004 A 
ATOM      4  C2  UNL d   1       3.706  -5.382  -3.245  0.00  0.00    -0.047 A 
ATOM      5  C3  UNL d   1       2.823  -5.366  -4.350  0.00  0.00    -0.047 A 
ATOM      6  C4  UNL d   1       3.583  -5.551  -5.486  0.00  0.00    -0.004 A 
ENDROOT
TORSDOF 0
ENDMDL
