MODEL 1
REMARK minimizedAffinity -1.65191507
REMARK minimizedRMSD -1
REMARK  0 active torsions:
REMARK  status: ('A' for Active; 'I' for Inactive)
ROOT
ATOM      1  C   UNL d   1       4.140  -5.888  -2.282  0.00  0.00     0.172 C 
ATOM      2  N   UNL d   1       4.630  -5.926  -3.640  0.00  0.00    -0.070 N 
ATOM      3  C1  UNL d   1       5.948  -5.920  -4.013  0.00  0.00    -0.004 A 
ATOM      4  C2  UNL d   1       5.996  -5.965  -5.390  0.00  0.00    -0.047 A 
ATOM      5  C3  UNL d   1       4.662  -5.999  -5.860  0.00  0.00    -0.047 A 
ATOM      6  C4  UNL d   1       3.837  -5.974  -4.756  0.00  0.00    -0.004 A 
ENDROOT
TORSDOF 0
ENDMDL
