MODEL 1
REMARK minimizedAffinity -3.31836152
REMARK minimizedRMSD -1
REMARK  0 active torsions:
REMARK  status: ('A' for Active; 'I' for Inactive)
ROOT
ATOM      1  C   UNL d   1       5.989  -5.890  -5.999  0.00  0.00     0.172 C 
ATOM      2  N   UNL d   1       4.909  -5.839  -5.041  0.00  0.00    -0.070 N 
ATOM      3  C1  UNL d   1       3.580  -5.999  -5.327  0.00  0.00    -0.004 A 
ATOM      4  C2  UNL d   1       2.877  -5.882  -4.147  0.00  0.00    -0.047 A 
ATOM      5  C3  UNL d   1       3.817  -5.641  -3.117  0.00  0.00    -0.047 A 
ATOM      6  C4  UNL d   1       5.067  -5.619  -3.698  0.00  0.00    -0.004 A 
ENDROOT
TORSDOF 0
ENDMDL
