MODEL 1
REMARK minimizedAffinity -0.22724998
REMARK minimizedRMSD -1
REMARK  0 active torsions:
REMARK  status: ('A' for Active; 'I' for Inactive)
ROOT
ATOM      1  C   UNL d   1       4.062  -4.477  -5.995  0.00  0.00     0.172 C 
ATOM      2  N   UNL d   1       4.084  -5.096  -4.691  0.00  0.00    -0.070 N 
ATOM      3  C1  UNL d   1       5.209  -5.435  -3.987  0.00  0.00    -0.004 A 
ATOM      4  C2  UNL d   1       4.807  -5.998  -2.795  0.00  0.00    -0.047 A 
ATOM      5  C3  UNL d   1       3.392  -5.998  -2.782  0.00  0.00    -0.047 A 
ATOM      6  C4  UNL d   1       2.971  -5.434  -3.968  0.00  0.00    -0.004 A 
ENDROOT
TORSDOF 0
ENDMDL
