MODEL 1
REMARK minimizedAffinity -2.57979012
REMARK minimizedRMSD -1
REMARK  0 active torsions:
REMARK  status: ('A' for Active; 'I' for Inactive)
ROOT
ATOM      1  C   UNL d   1      -4.876   5.782  -6.000  0.00  0.00     0.172 C 
ATOM      2  N   UNL d   1      -4.893   4.347  -5.837  0.00  0.00    -0.070 N 
ATOM      3  C1  UNL d   1      -3.818   3.569  -5.500  0.00  0.00    -0.004 A 
ATOM      4  C2  UNL d   1      -4.245   2.260  -5.446  0.00  0.00    -0.047 A 
ATOM      5  C3  UNL d   1      -5.624   2.251  -5.762  0.00  0.00    -0.047 A 
ATOM      6  C4  UNL d   1      -6.000   3.556  -6.000  0.00  0.00    -0.004 A 
ENDROOT
TORSDOF 0
ENDMDL
