MODEL 1
REMARK minimizedAffinity -2.09981561
REMARK minimizedRMSD -1
REMARK  0 active torsions:
REMARK  status: ('A' for Active; 'I' for Inactive)
ROOT
ATOM      1  C   UNL d   1       3.647  -5.996  -2.451  0.00  0.00     0.172 C 
ATOM      2  N   UNL d   1       3.745  -5.602  -3.837  0.00  0.00    -0.070 N 
ATOM      3  C1  UNL d   1       4.729  -4.817  -4.376  0.00  0.00    -0.004 A 
ATOM      4  C2  UNL d   1       4.466  -4.674  -5.721  0.00  0.00    -0.047 A 
ATOM      5  C3  UNL d   1       3.282  -5.398  -6.000  0.00  0.00    -0.047 A 
ATOM      6  C4  UNL d   1       2.857  -5.962  -4.816  0.00  0.00    -0.004 A 
ENDROOT
TORSDOF 0
ENDMDL
