MODEL 1
REMARK minimizedAffinity -1.14384568
REMARK minimizedRMSD -1
REMARK  0 active torsions:
REMARK  status: ('A' for Active; 'I' for Inactive)
ROOT
ATOM      1  C   UNL d   1      -2.599   3.644  -5.974  0.00  0.00     0.172 C 
ATOM      2  N   UNL d   1      -3.834   3.077  -5.487  0.00  0.00    -0.070 N 
ATOM      3  C1  UNL d   1      -3.951   2.189  -4.450  0.00  0.00    -0.004 A 
ATOM      4  C2  UNL d   1      -5.288   1.892  -4.298  0.00  0.00    -0.047 A 
ATOM      5  C3  UNL d   1      -5.999   2.625  -5.277  0.00  0.00    -0.047 A 
ATOM      6  C4  UNL d   1      -5.075   3.350  -5.999  0.00  0.00    -0.004 A 
ENDROOT
TORSDOF 0
ENDMDL
