MODEL 1
REMARK minimizedAffinity -3.3141613
REMARK minimizedRMSD -1
REMARK  0 active torsions:
REMARK  status: ('A' for Active; 'I' for Inactive)
ROOT
ATOM      1  C   UNL d   1       2.177  -6.000  -5.348  0.00  0.00     0.172 C 
ATOM      2  N   UNL d   1       3.269  -5.719  -4.445  0.00  0.00    -0.070 N 
ATOM      3  C1  UNL d   1       3.165  -5.576  -3.087  0.00  0.00    -0.004 A 
ATOM      4  C2  UNL d   1       4.424  -5.316  -2.592  0.00  0.00    -0.047 A 
ATOM      5  C3  UNL d   1       5.316  -5.302  -3.691  0.00  0.00    -0.047 A 
ATOM      6  C4  UNL d   1       4.574  -5.554  -4.825  0.00  0.00    -0.004 A 
ENDROOT
TORSDOF 0
ENDMDL
