MODEL 1
REMARK minimizedAffinity -2.76658964
REMARK minimizedRMSD -1
REMARK  0 active torsions:
REMARK  status: ('A' for Active; 'I' for Inactive)
ROOT
ATOM      1  C   UNL d   1       5.135  -5.981  -6.000  0.00  0.00     0.172 C 
ATOM      2  N   UNL d   1       4.372  -5.778  -4.790  0.00  0.00    -0.070 N 
ATOM      3  C1  UNL d   1       4.889  -5.694  -3.525  0.00  0.00    -0.004 A 
ATOM      4  C2  UNL d   1       3.840  -5.499  -2.652  0.00  0.00    -0.047 A 
ATOM      5  C3  UNL d   1       2.652  -5.467  -3.420  0.00  0.00    -0.047 A 
ATOM      6  C4  UNL d   1       3.010  -5.642  -4.740  0.00  0.00    -0.004 A 
ENDROOT
TORSDOF 0
ENDMDL
