MODEL 1
REMARK minimizedAffinity -1.66728461
REMARK minimizedRMSD -1
REMARK  0 active torsions:
REMARK  status: ('A' for Active; 'I' for Inactive)
ROOT
ATOM      1  C   UNL d   1      -2.407   3.374  -5.996  0.00  0.00     0.172 C 
ATOM      2  N   UNL d   1      -3.791   3.174  -5.637  0.00  0.00    -0.070 N 
ATOM      3  C1  UNL d   1      -4.834   3.984  -6.000  0.00  0.00    -0.004 A 
ATOM      4  C2  UNL d   1      -5.987   3.454  -5.462  0.00  0.00    -0.047 A 
ATOM      5  C3  UNL d   1      -5.624   2.285  -4.750  0.00  0.00    -0.047 A 
ATOM      6  C4  UNL d   1      -4.259   2.136  -4.876  0.00  0.00    -0.004 A 
ENDROOT
TORSDOF 0
ENDMDL
