MODEL 1
REMARK minimizedAffinity 0.414152414
REMARK minimizedRMSD -1
REMARK  0 active torsions:
REMARK  status: ('A' for Active; 'I' for Inactive)
ROOT
ATOM      1  C   UNL d   1       1.530   3.232   2.425  0.00  0.00     0.172 C 
ATOM      2  N   UNL d   1       1.998   2.356   1.377  0.00  0.00    -0.070 N 
ATOM      3  C1  UNL d   1       1.204   1.662   0.503  0.00  0.00    -0.004 A 
ATOM      4  C2  UNL d   1       2.028   0.947  -0.339  0.00  0.00    -0.047 A 
ATOM      5  C3  UNL d   1       3.364   1.220   0.043  0.00  0.00    -0.047 A 
ATOM      6  C4  UNL d   1       3.316   2.095   1.107  0.00  0.00    -0.004 A 
ENDROOT
TORSDOF 0
ENDMDL
