MODEL 1
REMARK minimizedAffinity -3.04235148
REMARK minimizedRMSD -1
REMARK  0 active torsions:
REMARK  status: ('A' for Active; 'I' for Inactive)
ROOT
ATOM      1  C   UNL d   1      -2.348   2.267  -5.244  0.00  0.00     0.172 C 
ATOM      2  N   UNL d   1      -0.914   2.259  -5.074  0.00  0.00    -0.070 N 
ATOM      3  C1  UNL d   1       0.002   2.682  -6.000  0.00  0.00    -0.004 A 
ATOM      4  C2  UNL d   1       1.258   2.514  -5.458  0.00  0.00    -0.047 A 
ATOM      5  C3  UNL d   1       1.092   1.972  -4.162  0.00  0.00    -0.047 A 
ATOM      6  C4  UNL d   1      -0.263   1.824  -3.950  0.00  0.00    -0.004 A 
ENDROOT
TORSDOF 0
ENDMDL
