MODEL 1
REMARK minimizedAffinity -0.280273199
REMARK minimizedRMSD -1
REMARK  0 active torsions:
REMARK  status: ('A' for Active; 'I' for Inactive)
ROOT
ATOM      1  C   UNL d   1       0.380   1.980   1.763  0.00  0.00    -0.002 A 
ATOM      2  C1  UNL d   1      -0.933   1.555   1.617  0.00  0.00     0.010 A 
ATOM      3  C2  UNL d   1      -1.255   0.541   0.713  0.00  0.00     0.041 A 
ATOM      4  C3  UNL d   1      -0.225  -0.046  -0.048  0.00  0.00    -0.075 A 
ATOM      5  S   UNL d   1      -0.383  -1.304  -1.216  0.00  0.00     0.015 SA
ATOM      6  C4  UNL d   1       1.289  -1.308  -1.548  0.00  0.00     0.022 A 
ATOM      7  C5  UNL d   1       1.966  -0.378  -0.795  0.00  0.00     0.026 A 
ATOM      8  C6  UNL d   1       1.105   0.364   0.082  0.00  0.00    -0.082 A 
ATOM      9  C7  UNL d   1       1.399   1.395   1.007  0.00  0.00     0.045 A 
ENDROOT
TORSDOF 0
ENDMDL
