MODEL 1
REMARK minimizedAffinity -1.28269744
REMARK minimizedRMSD -1
REMARK  0 active torsions:
REMARK  status: ('A' for Active; 'I' for Inactive)
ROOT
ATOM      1  C   UNL d   1       1.189   2.347   1.758  0.00  0.00    -0.002 A 
ATOM      2  C1  UNL d   1       1.793   2.509   0.519  0.00  0.00     0.010 A 
ATOM      3  C2  UNL d   1       1.473   1.662  -0.544  0.00  0.00     0.041 A 
ATOM      4  C3  UNL d   1       0.525   0.640  -0.339  0.00  0.00    -0.075 A 
ATOM      5  S   UNL d   1      -0.024  -0.516  -1.495  0.00  0.00     0.015 SA
ATOM      6  C4  UNL d   1      -1.074  -1.251  -0.371  0.00  0.00     0.022 A 
ATOM      7  C5  UNL d   1      -1.020  -0.643   0.860  0.00  0.00     0.026 A 
ATOM      8  C6  UNL d   1      -0.098   0.458   0.899  0.00  0.00    -0.082 A 
ATOM      9  C7  UNL d   1       0.248   1.333   1.957  0.00  0.00     0.045 A 
ENDROOT
TORSDOF 0
ENDMDL
