MODEL 1
REMARK minimizedAffinity -0.5364784
REMARK minimizedRMSD -1
REMARK  0 active torsions:
REMARK  status: ('A' for Active; 'I' for Inactive)
ROOT
ATOM      1  C   UNL d   1       1.982   2.457   0.410  0.00  0.00    -0.002 A 
ATOM      2  C1  UNL d   1       1.472   2.763   1.664  0.00  0.00     0.010 A 
ATOM      3  C2  UNL d   1       0.376   2.064   2.175  0.00  0.00     0.041 A 
ATOM      4  C3  UNL d   1      -0.202   1.041   1.398  0.00  0.00    -0.075 A 
ATOM      5  S   UNL d   1      -1.549   0.051   1.819  0.00  0.00     0.015 SA
ATOM      6  C4  UNL d   1      -1.478  -0.802   0.346  0.00  0.00     0.022 A 
ATOM      7  C5  UNL d   1      -0.458  -0.355  -0.460  0.00  0.00     0.026 A 
ATOM      8  C6  UNL d   1       0.295   0.714   0.133  0.00  0.00    -0.082 A 
ATOM      9  C7  UNL d   1       1.405   1.442  -0.358  0.00  0.00     0.045 A 
ENDROOT
TORSDOF 0
ENDMDL
