MODEL 1
REMARK minimizedAffinity -1.79904985
REMARK minimizedRMSD -1
REMARK  0 active torsions:
REMARK  status: ('A' for Active; 'I' for Inactive)
ROOT
ATOM      1  C   UNL d   1       1.153   2.038   1.656  0.00  0.00    -0.002 A 
ATOM      2  C1  UNL d   1       1.985   1.832   0.565  0.00  0.00     0.010 A 
ATOM      3  C2  UNL d   1       1.640   0.913  -0.428  0.00  0.00     0.041 A 
ATOM      4  C3  UNL d   1       0.432   0.198  -0.305  0.00  0.00    -0.075 A 
ATOM      5  S   UNL d   1      -0.196  -0.978  -1.399  0.00  0.00     0.015 SA
ATOM      6  C4  UNL d   1      -1.584  -1.234  -0.444  0.00  0.00     0.022 A 
ATOM      7  C5  UNL d   1      -1.584  -0.450   0.686  0.00  0.00     0.026 A 
ATOM      8  C6  UNL d   1      -0.423   0.388   0.784  0.00  0.00    -0.082 A 
ATOM      9  C7  UNL d   1      -0.045   1.327   1.774  0.00  0.00     0.045 A 
ENDROOT
TORSDOF 0
ENDMDL
