MODEL 1
REMARK minimizedAffinity -0.829989851
REMARK minimizedRMSD -1
REMARK  0 active torsions:
REMARK  status: ('A' for Active; 'I' for Inactive)
ROOT
ATOM      1  C   UNL d   1       1.753   2.773   0.491  0.00  0.00    -0.002 A 
ATOM      2  C1  UNL d   1       0.955   2.983   1.607  0.00  0.00     0.010 A 
ATOM      3  C2  UNL d   1      -0.083   2.101   1.914  0.00  0.00     0.041 A 
ATOM      4  C3  UNL d   1      -0.306   0.993   1.073  0.00  0.00    -0.075 A 
ATOM      5  S   UNL d   1      -1.518  -0.221   1.253  0.00  0.00     0.015 SA
ATOM      6  C4  UNL d   1      -1.004  -1.046  -0.147  0.00  0.00     0.022 A 
ATOM      7  C5  UNL d   1       0.064  -0.426  -0.749  0.00  0.00     0.026 A 
ATOM      8  C6  UNL d   1       0.485   0.759  -0.055  0.00  0.00    -0.082 A 
ATOM      9  C7  UNL d   1       1.528   1.673  -0.340  0.00  0.00     0.045 A 
ENDROOT
TORSDOF 0
ENDMDL
