MODEL 1
REMARK minimizedAffinity -0.548433602
REMARK minimizedRMSD -1
REMARK  0 active torsions:
REMARK  status: ('A' for Active; 'I' for Inactive)
ROOT
ATOM      1  C   UNL d   1       0.761   2.563   1.375  0.00  0.00    -0.002 A 
ATOM      2  C1  UNL d   1      -0.475   1.955   1.546  0.00  0.00     0.010 A 
ATOM      3  C2  UNL d   1      -0.745   0.717   0.960  0.00  0.00     0.041 A 
ATOM      4  C3  UNL d   1       0.258   0.093   0.192  0.00  0.00    -0.075 A 
ATOM      5  S   UNL d   1       0.153  -1.424  -0.620  0.00  0.00     0.015 SA
ATOM      6  C4  UNL d   1       1.747  -1.302  -1.212  0.00  0.00     0.022 A 
ATOM      7  C5  UNL d   1       2.358  -0.138  -0.810  0.00  0.00     0.026 A 
ATOM      8  C6  UNL d   1       1.511   0.685   0.006  0.00  0.00    -0.082 A 
ATOM      9  C7  UNL d   1       1.753   1.941   0.613  0.00  0.00     0.045 A 
ENDROOT
TORSDOF 0
ENDMDL
