MODEL 1
REMARK minimizedAffinity -1.35640275
REMARK minimizedRMSD -1
REMARK  0 active torsions:
REMARK  status: ('A' for Active; 'I' for Inactive)
ROOT
ATOM      1  C   UNL d   1       0.445  -0.197   0.247  0.00  0.00    -0.002 A 
ATOM      2  C1  UNL d   1       0.131   0.996  -0.388  0.00  0.00     0.010 A 
ATOM      3  C2  UNL d   1      -0.787   1.020  -1.440  0.00  0.00     0.041 A 
ATOM      4  C3  UNL d   1      -1.391  -0.187  -1.846  0.00  0.00    -0.075 A 
ATOM      5  S   UNL d   1      -2.544  -0.399  -3.110  0.00  0.00     0.015 SA
ATOM      6  C4  UNL d   1      -2.647  -2.078  -2.835  0.00  0.00     0.022 A 
ATOM      7  C5  UNL d   1      -1.828  -2.484  -1.808  0.00  0.00     0.026 A 
ATOM      8  C6  UNL d   1      -1.091  -1.401  -1.221  0.00  0.00    -0.082 A 
ATOM      9  C7  UNL d   1      -0.156  -1.392  -0.158  0.00  0.00     0.045 A 
ENDROOT
TORSDOF 0
ENDMDL
