MODEL 1
REMARK minimizedAffinity -3.77136612
REMARK minimizedRMSD -1
REMARK  0 active torsions:
REMARK  status: ('A' for Active; 'I' for Inactive)
ROOT
ATOM      1  C   UNL d   1       0.688   2.764   1.656  0.00  0.00    -0.002 A 
ATOM      2  C1  UNL d   1       1.138   2.957   0.357  0.00  0.00     0.010 A 
ATOM      3  C2  UNL d   1       0.908   1.992  -0.625  0.00  0.00     0.041 A 
ATOM      4  C3  UNL d   1       0.208   0.820  -0.278  0.00  0.00    -0.075 A 
ATOM      5  S   UNL d   1      -0.191  -0.498  -1.316  0.00  0.00     0.015 SA
ATOM      6  C4  UNL d   1      -0.969  -1.348  -0.060  0.00  0.00     0.022 A 
ATOM      7  C5  UNL d   1      -0.935  -0.658   1.128  0.00  0.00     0.026 A 
ATOM      8  C6  UNL d   1      -0.256   0.603   1.022  0.00  0.00    -0.082 A 
ATOM      9  C7  UNL d   1      -0.006   1.600   1.996  0.00  0.00     0.045 A 
ENDROOT
TORSDOF 0
ENDMDL
