MODEL 1
REMARK minimizedAffinity -3.31656885
REMARK minimizedRMSD -1
REMARK  0 active torsions:
REMARK  status: ('A' for Active; 'I' for Inactive)
ROOT
ATOM      1  C   UNL d   1      -0.795   1.908   1.952  0.00  0.00    -0.002 A 
ATOM      2  C1  UNL d   1      -1.403   0.746   1.499  0.00  0.00     0.010 A 
ATOM      3  C2  UNL d   1      -0.747  -0.092   0.595  0.00  0.00     0.041 A 
ATOM      4  C3  UNL d   1       0.543   0.260   0.152  0.00  0.00    -0.075 A 
ATOM      5  S   UNL d   1       1.537  -0.614  -0.953  0.00  0.00     0.015 SA
ATOM      6  C4  UNL d   1       2.792   0.534  -0.848  0.00  0.00     0.022 A 
ATOM      7  C5  UNL d   1       2.477   1.566   0.004  0.00  0.00     0.026 A 
ATOM      8  C6  UNL d   1       1.176   1.425   0.595  0.00  0.00    -0.082 A 
ATOM      9  C7  UNL d   1       0.485   2.254   1.510  0.00  0.00     0.045 A 
ENDROOT
TORSDOF 0
ENDMDL
