MODEL 1
REMARK minimizedAffinity -5.83404922
REMARK minimizedRMSD -1
REMARK  0 active torsions:
REMARK  status: ('A' for Active; 'I' for Inactive)
ROOT
ATOM      1  C   UNL d   1       3.041   2.509   0.701  0.00  0.00    -0.002 A 
ATOM      2  C1  UNL d   1       2.107   3.021   1.590  0.00  0.00     0.010 A 
ATOM      3  C2  UNL d   1       0.895   2.362   1.805  0.00  0.00     0.041 A 
ATOM      4  C3  UNL d   1       0.636   1.166   1.106  0.00  0.00    -0.075 A 
ATOM      5  S   UNL d   1      -0.779   0.187   1.211  0.00  0.00     0.015 SA
ATOM      6  C4  UNL d   1      -0.176  -0.935   0.078  0.00  0.00     0.022 A 
ATOM      7  C5  UNL d   1       1.073  -0.586  -0.379  0.00  0.00     0.026 A 
ATOM      8  C6  UNL d   1       1.562   0.630   0.207  0.00  0.00    -0.082 A 
ATOM      9  C7  UNL d   1       2.781   1.323   0.010  0.00  0.00     0.045 A 
ENDROOT
TORSDOF 0
ENDMDL
