MODEL 1
REMARK minimizedAffinity 4.35523653
REMARK minimizedRMSD -1
REMARK  1 active torsions:
REMARK  status: ('A' for Active; 'I' for Inactive)
REMARK    1  A    between atoms: C1_2  and  C2_3 
ROOT
ATOM      1  C2  UNL d   1      -3.919   1.351   0.624  0.00  0.00    -0.073 A 
ATOM      2  C3  UNL d   1      -3.437   0.377   1.506  0.00  0.00    -0.002 A 
ATOM      3  C4  UNL d   1      -2.066   0.249   1.734  0.00  0.00     0.004 A 
ATOM      4  C5  UNL d   1      -1.165   1.096   1.089  0.00  0.00    -0.004 A 
ATOM      5  C6  UNL d   1      -1.628   2.083   0.213  0.00  0.00    -0.075 A 
ATOM      6  C7  UNL d   1      -0.671   3.000  -0.491  0.00  0.00     0.076 C 
ATOM      7  C8  UNL d   1      -3.006   2.204  -0.013  0.00  0.00     0.001 A 
ENDROOT
BRANCH   1   8
ATOM      8  C1  UNL d   1      -5.399   1.498   0.380  0.00  0.00     0.053 C 
ATOM      9  C   UNL d   1      -6.000   2.636   1.189  0.00  0.00     0.018 C 
ENDBRANCH   1   8
TORSDOF 1
ENDMDL
