MODEL 1
REMARK minimizedAffinity -5.58248186
REMARK minimizedRMSD -1
REMARK  1 active torsions:
REMARK  status: ('A' for Active; 'I' for Inactive)
REMARK    1  A    between atoms: C1_2  and  C2_3 
ROOT
ATOM      1  C2  UNL d   1      -0.872   1.324   0.535  0.00  0.00    -0.073 A 
ATOM      2  C3  UNL d   1      -0.785   0.075   1.161  0.00  0.00    -0.002 A 
ATOM      3  C4  UNL d   1      -1.940  -0.581   1.589  0.00  0.00     0.004 A 
ATOM      4  C5  UNL d   1      -3.192  -0.000   1.389  0.00  0.00    -0.004 A 
ATOM      5  C6  UNL d   1      -3.301   1.241   0.754  0.00  0.00    -0.075 A 
ATOM      6  C7  UNL d   1      -4.640   1.881   0.534  0.00  0.00     0.076 C 
ATOM      7  C8  UNL d   1      -2.136   1.896   0.330  0.00  0.00     0.001 A 
ENDROOT
BRANCH   1   8
ATOM      8  C1  UNL d   1       0.371   2.034   0.066  0.00  0.00     0.053 C 
ATOM      9  C   UNL d   1       1.623   1.498   0.744  0.00  0.00     0.018 C 
ENDBRANCH   1   8
TORSDOF 1
ENDMDL
