MODEL 1
REMARK minimizedAffinity -1.60493422
REMARK minimizedRMSD -1
REMARK  1 active torsions:
REMARK  status: ('A' for Active; 'I' for Inactive)
REMARK    1  A    between atoms: C1_2  and  C2_3 
ROOT
ATOM      1  C2  UNL d   1      -2.919   0.296   1.088  0.00  0.00    -0.073 A 
ATOM      2  C3  UNL d   1      -3.573   1.436   0.605  0.00  0.00    -0.002 A 
ATOM      3  C4  UNL d   1      -2.851   2.443  -0.037  0.00  0.00     0.004 A 
ATOM      4  C5  UNL d   1      -1.472   2.318  -0.208  0.00  0.00    -0.004 A 
ATOM      5  C6  UNL d   1      -0.803   1.181   0.257  0.00  0.00    -0.075 A 
ATOM      6  C7  UNL d   1       0.680   1.033   0.082  0.00  0.00     0.076 C 
ATOM      7  C8  UNL d   1      -1.535   0.175   0.902  0.00  0.00     0.001 A 
ENDROOT
BRANCH   1   8
ATOM      8  C1  UNL d   1      -3.695  -0.797   1.776  0.00  0.00     0.053 C 
ATOM      9  C   UNL d   1      -4.192  -0.368   3.147  0.00  0.00     0.018 C 
ENDBRANCH   1   8
TORSDOF 1
ENDMDL
