MODEL 1
REMARK minimizedAffinity 4.54366159
REMARK minimizedRMSD -1
REMARK  1 active torsions:
REMARK  status: ('A' for Active; 'I' for Inactive)
REMARK    1  A    between atoms: C1_2  and  C2_3 
ROOT
ATOM      1  C2  UNL d   1      -0.821  -4.777  -2.529  0.00  0.00    -0.073 A 
ATOM      2  C3  UNL d   1      -1.231  -5.196  -1.258  0.00  0.00    -0.002 A 
ATOM      3  C4  UNL d   1      -2.096  -4.404  -0.500  0.00  0.00     0.004 A 
ATOM      4  C5  UNL d   1      -2.564  -3.192  -1.007  0.00  0.00    -0.004 A 
ATOM      5  C6  UNL d   1      -2.174  -2.762  -2.279  0.00  0.00    -0.075 A 
ATOM      6  C7  UNL d   1      -2.667  -1.459  -2.838  0.00  0.00     0.076 C 
ATOM      7  C8  UNL d   1      -1.304  -3.561  -3.033  0.00  0.00     0.001 A 
ENDROOT
BRANCH   1   8
ATOM      8  C1  UNL d   1       0.107  -5.631  -3.354  0.00  0.00     0.053 C 
ATOM      9  C   UNL d   1       1.563  -5.239  -3.162  0.00  0.00     0.018 C 
ENDBRANCH   1   8
TORSDOF 1
ENDMDL
