MODEL 1
REMARK minimizedAffinity -2.90418243
REMARK minimizedRMSD -1
REMARK  1 active torsions:
REMARK  status: ('A' for Active; 'I' for Inactive)
REMARK    1  A    between atoms: C1_2  and  C2_3 
ROOT
ATOM      1  C2  UNL d   1      -0.206   1.120   0.841  0.00  0.00    -0.073 A 
ATOM      2  C3  UNL d   1      -0.474   2.279   0.104  0.00  0.00    -0.002 A 
ATOM      3  C4  UNL d   1      -1.781   2.587  -0.274  0.00  0.00     0.004 A 
ATOM      4  C5  UNL d   1      -2.833   1.746   0.086  0.00  0.00    -0.004 A 
ATOM      5  C6  UNL d   1      -2.587   0.589   0.833  0.00  0.00    -0.075 A 
ATOM      6  C7  UNL d   1      -3.708  -0.328   1.227  0.00  0.00     0.076 C 
ATOM      7  C8  UNL d   1      -1.271   0.285   1.207  0.00  0.00     0.001 A 
ENDROOT
BRANCH   1   8
ATOM      8  C1  UNL d   1       1.204   0.786   1.257  0.00  0.00     0.053 C 
ATOM      9  C   UNL d   1       2.207   1.069   0.150  0.00  0.00     0.018 C 
ENDBRANCH   1   8
TORSDOF 1
ENDMDL
