MODEL 1
REMARK minimizedAffinity 0.498401046
REMARK minimizedRMSD -1
REMARK  1 active torsions:
REMARK  status: ('A' for Active; 'I' for Inactive)
REMARK    1  A    between atoms: C1_2  and  C2_3 
ROOT
ATOM      1  C2  UNL d   1      -0.948   0.981   0.848  0.00  0.00    -0.073 A 
ATOM      2  C3  UNL d   1      -0.777   2.275   0.343  0.00  0.00    -0.002 A 
ATOM      3  C4  UNL d   1      -1.884   3.034  -0.040  0.00  0.00     0.004 A 
ATOM      4  C5  UNL d   1      -3.171   2.510   0.083  0.00  0.00    -0.004 A 
ATOM      5  C6  UNL d   1      -3.363   1.224   0.596  0.00  0.00    -0.075 A 
ATOM      6  C7  UNL d   1      -4.741   0.645   0.733  0.00  0.00     0.076 C 
ATOM      7  C8  UNL d   1      -2.247   0.467   0.976  0.00  0.00     0.001 A 
ENDROOT
BRANCH   1   8
ATOM      8  C1  UNL d   1       0.243   0.160   1.269  0.00  0.00     0.053 C 
ATOM      9  C   UNL d   1       1.526   0.636   0.607  0.00  0.00     0.018 C 
ENDBRANCH   1   8
TORSDOF 1
ENDMDL
