MODEL 1
REMARK minimizedAffinity 6.4628787
REMARK minimizedRMSD -1
REMARK  1 active torsions:
REMARK  status: ('A' for Active; 'I' for Inactive)
REMARK    1  A    between atoms: C1_2  and  C2_3 
ROOT
ATOM      1  C2  UNL d   1      -2.960   0.139   1.534  0.00  0.00    -0.073 A 
ATOM      2  C3  UNL d   1      -1.914   0.874   0.965  0.00  0.00    -0.002 A 
ATOM      3  C4  UNL d   1      -2.187   1.941   0.108  0.00  0.00     0.004 A 
ATOM      4  C5  UNL d   1      -3.507   2.288  -0.183  0.00  0.00    -0.004 A 
ATOM      5  C6  UNL d   1      -4.566   1.572   0.385  0.00  0.00    -0.075 A 
ATOM      6  C7  UNL d   1      -5.991   1.931   0.081  0.00  0.00     0.076 C 
ATOM      7  C8  UNL d   1      -4.283   0.500   1.243  0.00  0.00     0.001 A 
ENDROOT
BRANCH   1   8
ATOM      8  C1  UNL d   1      -2.669  -1.010   2.464  0.00  0.00     0.053 C 
ATOM      9  C   UNL d   1      -2.562  -0.558   3.912  0.00  0.00     0.018 C 
ENDBRANCH   1   8
TORSDOF 1
ENDMDL
