MODEL 1
REMARK minimizedAffinity 1.21803844
REMARK minimizedRMSD -1
REMARK  1 active torsions:
REMARK  status: ('A' for Active; 'I' for Inactive)
REMARK    1  A    between atoms: C1_2  and  C2_3 
ROOT
ATOM      1  C2  UNL d   1       0.728   1.570   0.375  0.00  0.00    -0.073 A 
ATOM      2  C3  UNL d   1       2.006   1.610   0.944  0.00  0.00    -0.002 A 
ATOM      3  C4  UNL d   1       2.172   1.983   2.279  0.00  0.00     0.004 A 
ATOM      4  C5  UNL d   1       1.063   2.311   3.059  0.00  0.00    -0.004 A 
ATOM      5  C6  UNL d   1      -0.223   2.266   2.511  0.00  0.00    -0.075 A 
ATOM      6  C7  UNL d   1      -1.426   2.619   3.336  0.00  0.00     0.076 C 
ATOM      7  C8  UNL d   1      -0.381   1.893   1.169  0.00  0.00     0.001 A 
ENDROOT
BRANCH   1   8
ATOM      8  C1  UNL d   1       0.543   1.162  -1.064  0.00  0.00     0.053 C 
ATOM      9  C   UNL d   1       1.745   1.532  -1.920  0.00  0.00     0.018 C 
ENDBRANCH   1   8
TORSDOF 1
ENDMDL
