MODEL 1
REMARK minimizedAffinity 0.76869607
REMARK minimizedRMSD -1
REMARK  1 active torsions:
REMARK  status: ('A' for Active; 'I' for Inactive)
REMARK    1  A    between atoms: C1_2  and  C2_3 
ROOT
ATOM      1  C2  UNL d   1      -0.648   1.313   0.735  0.00  0.00    -0.073 A 
ATOM      2  C3  UNL d   1       0.287   0.435   0.174  0.00  0.00    -0.002 A 
ATOM      3  C4  UNL d   1       1.651   0.618   0.402  0.00  0.00     0.004 A 
ATOM      4  C5  UNL d   1       2.095   1.676   1.196  0.00  0.00    -0.004 A 
ATOM      5  C6  UNL d   1       1.176   2.557   1.774  0.00  0.00    -0.075 A 
ATOM      6  C7  UNL d   1       1.636   3.701   2.629  0.00  0.00     0.076 C 
ATOM      7  C8  UNL d   1      -0.193   2.368   1.539  0.00  0.00     0.001 A 
ENDROOT
BRANCH   1   8
ATOM      8  C1  UNL d   1      -2.123   1.115   0.497  0.00  0.00     0.053 C 
ATOM      9  C   UNL d   1      -2.525  -0.348   0.600  0.00  0.00     0.018 C 
ENDBRANCH   1   8
TORSDOF 1
ENDMDL
