MODEL 1
REMARK minimizedAffinity 8.04149818
REMARK minimizedRMSD -1
REMARK  1 active torsions:
REMARK  status: ('A' for Active; 'I' for Inactive)
REMARK    1  A    between atoms: C1_2  and  C2_3 
ROOT
ATOM      1  C2  UNL d   1       0.441   0.095   0.564  0.00  0.00    -0.073 A 
ATOM      2  C3  UNL d   1       1.199  -1.013   0.960  0.00  0.00    -0.002 A 
ATOM      3  C4  UNL d   1       0.588  -2.253   1.149  0.00  0.00     0.004 A 
ATOM      4  C5  UNL d   1      -0.782  -2.400   0.938  0.00  0.00    -0.004 A 
ATOM      5  C6  UNL d   1      -1.555  -1.308   0.530  0.00  0.00    -0.075 A 
ATOM      6  C7  UNL d   1      -3.031  -1.449   0.301  0.00  0.00     0.076 C 
ATOM      7  C8  UNL d   1      -0.935  -0.065   0.345  0.00  0.00     0.001 A 
ENDROOT
BRANCH   1   8
ATOM      8  C1  UNL d   1       1.097   1.435   0.352  0.00  0.00     0.053 C 
ATOM      9  C   UNL d   1       1.511   1.645  -1.096  0.00  0.00     0.018 C 
ENDBRANCH   1   8
TORSDOF 1
ENDMDL
