MODEL 1
REMARK minimizedAffinity 1.60212111
REMARK minimizedRMSD -1
REMARK  1 active torsions:
REMARK  status: ('A' for Active; 'I' for Inactive)
REMARK    1  A    between atoms: C1_2  and  C2_3 
ROOT
ATOM      1  C2  UNL d   1      -2.603  -2.171  -0.824  0.00  0.00    -0.081 A 
ATOM      2  C3  UNL d   1      -1.469  -2.201  -0.004  0.00  0.00     0.006 A 
ATOM      3  C4  UNL d   1      -0.193  -2.302  -0.563  0.00  0.00     0.002 A 
ATOM      4  C5  UNL d   1      -0.030  -2.368  -1.951  0.00  0.00    -0.080 A 
ATOM      5  C6  UNL d   1       1.336  -2.447  -2.566  0.00  0.00     0.076 C 
ATOM      6  C7  UNL d   1      -1.164  -2.356  -2.770  0.00  0.00     0.002 A 
ATOM      7  C8  UNL d   1      -2.440  -2.255  -2.211  0.00  0.00     0.006 A 
ENDROOT
BRANCH   1   8
ATOM      8  C1  UNL d   1      -3.976  -1.996  -0.227  0.00  0.00     0.054 C 
ATOM      9  C   UNL d   1      -4.051  -0.742   0.632  0.00  0.00     0.018 C 
ENDBRANCH   1   8
TORSDOF 1
ENDMDL
