MODEL 1
REMARK minimizedAffinity -4.70964289
REMARK minimizedRMSD -1
REMARK  1 active torsions:
REMARK  status: ('A' for Active; 'I' for Inactive)
REMARK    1  A    between atoms: C1_2  and  C2_3 
ROOT
ATOM      1  C2  UNL d   1       1.152   0.998  -1.283  0.00  0.00    -0.081 A 
ATOM      2  C3  UNL d   1       2.412   1.610  -1.272  0.00  0.00     0.006 A 
ATOM      3  C4  UNL d   1       2.780   2.453  -0.221  0.00  0.00     0.002 A 
ATOM      4  C5  UNL d   1       1.899   2.692   0.840  0.00  0.00    -0.080 A 
ATOM      5  C6  UNL d   1       2.294   3.571   1.989  0.00  0.00     0.076 C 
ATOM      6  C7  UNL d   1       0.635   2.094   0.820  0.00  0.00     0.002 A 
ATOM      7  C8  UNL d   1       0.265   1.252  -0.231  0.00  0.00     0.006 A 
ENDROOT
BRANCH   1   8
ATOM      8  C1  UNL d   1       0.777   0.037  -2.382  0.00  0.00     0.054 C 
ATOM      9  C   UNL d   1       1.576   0.306  -3.649  0.00  0.00     0.018 C 
ENDBRANCH   1   8
TORSDOF 1
ENDMDL
