MODEL 1
REMARK minimizedAffinity 7.5109601
REMARK minimizedRMSD -1
REMARK  1 active torsions:
REMARK  status: ('A' for Active; 'I' for Inactive)
REMARK    1  A    between atoms: C1_2  and  C2_3 
ROOT
ATOM      1  C2  UNL d   1      -0.443   1.789   1.185  0.00  0.00    -0.081 A 
ATOM      2  C3  UNL d   1      -1.225   1.193   0.189  0.00  0.00     0.006 A 
ATOM      3  C4  UNL d   1      -1.551  -0.163   0.261  0.00  0.00     0.002 A 
ATOM      4  C5  UNL d   1      -1.106  -0.944   1.333  0.00  0.00    -0.080 A 
ATOM      5  C6  UNL d   1      -1.473  -2.394   1.438  0.00  0.00     0.076 C 
ATOM      6  C7  UNL d   1      -0.309  -0.353   2.319  0.00  0.00     0.002 A 
ATOM      7  C8  UNL d   1       0.017   1.003   2.248  0.00  0.00     0.006 A 
ENDROOT
BRANCH   1   8
ATOM      8  C1  UNL d   1      -0.144   3.266   1.144  0.00  0.00     0.054 C 
ATOM      9  C   UNL d   1       1.312   3.546   1.487  0.00  0.00     0.018 C 
ENDBRANCH   1   8
TORSDOF 1
ENDMDL
