MODEL 1
REMARK minimizedAffinity -0.36052388
REMARK minimizedRMSD -1
REMARK  1 active torsions:
REMARK  status: ('A' for Active; 'I' for Inactive)
REMARK    1  A    between atoms: C1_2  and  C2_3 
ROOT
ATOM      1  C2  UNL d   1       0.544   0.861  -0.397  0.00  0.00    -0.081 A 
ATOM      2  C3  UNL d   1       1.869   1.306  -0.306  0.00  0.00     0.006 A 
ATOM      3  C4  UNL d   1       2.718   1.232  -1.413  0.00  0.00     0.002 A 
ATOM      4  C5  UNL d   1       2.255   0.720  -2.629  0.00  0.00    -0.080 A 
ATOM      5  C6  UNL d   1       3.148   0.664  -3.834  0.00  0.00     0.076 C 
ATOM      6  C7  UNL d   1       0.937   0.259  -2.715  0.00  0.00     0.002 A 
ATOM      7  C8  UNL d   1       0.088   0.332  -1.609  0.00  0.00     0.006 A 
ENDROOT
BRANCH   1   8
ATOM      8  C1  UNL d   1      -0.393   0.998   0.776  0.00  0.00     0.054 C 
ATOM      9  C   UNL d   1      -1.150  -0.297   1.035  0.00  0.00     0.018 C 
ENDBRANCH   1   8
TORSDOF 1
ENDMDL
