MODEL 1
REMARK minimizedAffinity -2.26727366
REMARK minimizedRMSD -1
REMARK  1 active torsions:
REMARK  status: ('A' for Active; 'I' for Inactive)
REMARK    1  A    between atoms: C1_2  and  C2_3 
ROOT
ATOM      1  C2  UNL d   1      -1.428   0.773   1.930  0.00  0.00    -0.081 A 
ATOM      2  C3  UNL d   1      -1.067   1.856   1.119  0.00  0.00     0.006 A 
ATOM      3  C4  UNL d   1      -0.447   1.642  -0.114  0.00  0.00     0.002 A 
ATOM      4  C5  UNL d   1      -0.185   0.343  -0.561  0.00  0.00    -0.080 A 
ATOM      5  C6  UNL d   1       0.453   0.098  -1.896  0.00  0.00     0.076 C 
ATOM      6  C7  UNL d   1      -0.530  -0.739   0.257  0.00  0.00     0.002 A 
ATOM      7  C8  UNL d   1      -1.149  -0.526   1.490  0.00  0.00     0.006 A 
ENDROOT
BRANCH   1   8
ATOM      8  C1  UNL d   1      -2.155   0.998   3.231  0.00  0.00     0.054 C 
ATOM      9  C   UNL d   1      -3.458   1.754   3.012  0.00  0.00     0.018 C 
ENDBRANCH   1   8
TORSDOF 1
ENDMDL
