MODEL 1
REMARK minimizedAffinity -5.17418766
REMARK minimizedRMSD -1
REMARK  1 active torsions:
REMARK  status: ('A' for Active; 'I' for Inactive)
REMARK    1  A    between atoms: C1_2  and  C2_3 
ROOT
ATOM      1  C2  UNL d   1       0.315   1.439   0.193  0.00  0.00    -0.081 A 
ATOM      2  C3  UNL d   1      -0.467   0.851   1.195  0.00  0.00     0.006 A 
ATOM      3  C4  UNL d   1      -0.629  -0.536   1.245  0.00  0.00     0.002 A 
ATOM      4  C5  UNL d   1      -0.006  -1.357   0.299  0.00  0.00    -0.080 A 
ATOM      5  C6  UNL d   1      -0.147  -2.849   0.358  0.00  0.00     0.076 C 
ATOM      6  C7  UNL d   1       0.760  -0.768  -0.713  0.00  0.00     0.002 A 
ATOM      7  C8  UNL d   1       0.922   0.618  -0.763  0.00  0.00     0.006 A 
ENDROOT
BRANCH   1   8
ATOM      8  C1  UNL d   1       0.544   2.929   0.176  0.00  0.00     0.054 C 
ATOM      9  C   UNL d   1       2.020   3.263   0.339  0.00  0.00     0.018 C 
ENDBRANCH   1   8
TORSDOF 1
ENDMDL
