MODEL 1
REMARK minimizedAffinity -0.337840974
REMARK minimizedRMSD -1
REMARK  1 active torsions:
REMARK  status: ('A' for Active; 'I' for Inactive)
REMARK    1  A    between atoms: C1_2  and  C2_3 
ROOT
ATOM      1  C2  UNL d   1      -0.807   1.935   1.077  0.00  0.00    -0.081 A 
ATOM      2  C3  UNL d   1      -1.269   1.177   2.160  0.00  0.00     0.006 A 
ATOM      3  C4  UNL d   1      -1.375  -0.212   2.057  0.00  0.00     0.002 A 
ATOM      4  C5  UNL d   1      -1.015  -0.867   0.875  0.00  0.00    -0.080 A 
ATOM      5  C6  UNL d   1      -1.096  -2.360   0.762  0.00  0.00     0.076 C 
ATOM      6  C7  UNL d   1      -0.570  -0.108  -0.213  0.00  0.00     0.002 A 
ATOM      7  C8  UNL d   1      -0.464   1.281  -0.112  0.00  0.00     0.006 A 
ENDROOT
BRANCH   1   8
ATOM      8  C1  UNL d   1      -0.629   3.426   1.205  0.00  0.00     0.054 C 
ATOM      9  C   UNL d   1       0.841   3.800   1.326  0.00  0.00     0.018 C 
ENDBRANCH   1   8
TORSDOF 1
ENDMDL
