MODEL 1
REMARK minimizedAffinity -5.74588966
REMARK minimizedRMSD -1
REMARK  1 active torsions:
REMARK  status: ('A' for Active; 'I' for Inactive)
REMARK    1  A    between atoms: C1_2  and  C2_3 
ROOT
ATOM      1  C2  UNL d   1       0.384   1.195   0.261  0.00  0.00    -0.081 A 
ATOM      2  C3  UNL d   1      -0.321   0.612   1.320  0.00  0.00     0.006 A 
ATOM      3  C4  UNL d   1      -0.495  -0.773   1.378  0.00  0.00     0.002 A 
ATOM      4  C5  UNL d   1       0.041  -1.597   0.383  0.00  0.00    -0.080 A 
ATOM      5  C6  UNL d   1      -0.112  -3.088   0.449  0.00  0.00     0.076 C 
ATOM      6  C7  UNL d   1       0.731  -1.013  -0.684  0.00  0.00     0.002 A 
ATOM      7  C8  UNL d   1       0.904   0.371  -0.743  0.00  0.00     0.006 A 
ENDROOT
BRANCH   1   8
ATOM      8  C1  UNL d   1       0.629   2.683   0.230  0.00  0.00     0.054 C 
ATOM      9  C   UNL d   1       2.107   3.004   0.395  0.00  0.00     0.018 C 
ENDBRANCH   1   8
TORSDOF 1
ENDMDL
