MODEL 1
REMARK minimizedAffinity -4.18076134
REMARK minimizedRMSD -1
REMARK  1 active torsions:
REMARK  status: ('A' for Active; 'I' for Inactive)
REMARK    1  A    between atoms: C1_2  and  C2_3 
ROOT
ATOM      1  C2  UNL d   1       0.476   0.856  -0.334  0.00  0.00    -0.081 A 
ATOM      2  C3  UNL d   1      -0.415   0.548   0.702  0.00  0.00     0.006 A 
ATOM      3  C4  UNL d   1      -0.699  -0.782   1.019  0.00  0.00     0.002 A 
ATOM      4  C5  UNL d   1      -0.093  -1.826   0.312  0.00  0.00    -0.080 A 
ATOM      5  C6  UNL d   1      -0.367  -3.258   0.663  0.00  0.00     0.076 C 
ATOM      6  C7  UNL d   1       0.784  -1.519  -0.734  0.00  0.00     0.002 A 
ATOM      7  C8  UNL d   1       1.069  -0.189  -1.052  0.00  0.00     0.006 A 
ENDROOT
BRANCH   1   8
ATOM      8  C1  UNL d   1       0.835   2.288  -0.636  0.00  0.00     0.054 C 
ATOM      9  C   UNL d   1       0.676   3.170   0.595  0.00  0.00     0.018 C 
ENDBRANCH   1   8
TORSDOF 1
ENDMDL
