MODEL 1
REMARK minimizedAffinity -4.74104023
REMARK minimizedRMSD -1
REMARK  1 active torsions:
REMARK  status: ('A' for Active; 'I' for Inactive)
REMARK    1  A    between atoms: C1_2  and  C2_3 
ROOT
ATOM      1  C2  UNL d   1       0.281   1.100  -0.114  0.00  0.00    -0.081 A 
ATOM      2  C3  UNL d   1       1.580   1.613  -0.215  0.00  0.00     0.006 A 
ATOM      3  C4  UNL d   1       2.290   1.510  -1.414  0.00  0.00     0.002 A 
ATOM      4  C5  UNL d   1       1.711   0.901  -2.532  0.00  0.00    -0.080 A 
ATOM      5  C6  UNL d   1       2.451   0.811  -3.833  0.00  0.00     0.076 C 
ATOM      6  C7  UNL d   1       0.420   0.373  -2.425  0.00  0.00     0.002 A 
ATOM      7  C8  UNL d   1      -0.290   0.474  -1.227  0.00  0.00     0.006 A 
ENDROOT
BRANCH   1   8
ATOM      8  C1  UNL d   1      -0.512   1.267   1.158  0.00  0.00     0.054 C 
ATOM      9  C   UNL d   1      -1.193  -0.033   1.559  0.00  0.00     0.018 C 
ENDBRANCH   1   8
TORSDOF 1
ENDMDL
