MODEL 1
REMARK minimizedAffinity -4.76657438
REMARK minimizedRMSD -1
REMARK  1 active torsions:
REMARK  status: ('A' for Active; 'I' for Inactive)
REMARK    1  A    between atoms: C1_2  and  C2_3 
ROOT
ATOM      1  C2  UNL d   1      -0.647  -0.719   0.983  0.00  0.00    -0.081 A 
ATOM      2  C3  UNL d   1      -0.227  -1.973   0.524  0.00  0.00     0.006 A 
ATOM      3  C4  UNL d   1       0.371  -2.103  -0.732  0.00  0.00     0.002 A 
ATOM      4  C5  UNL d   1       0.565  -0.982  -1.545  0.00  0.00    -0.080 A 
ATOM      5  C6  UNL d   1       1.233  -1.104  -2.883  0.00  0.00     0.076 C 
ATOM      6  C7  UNL d   1       0.129   0.268  -1.094  0.00  0.00     0.002 A 
ATOM      7  C8  UNL d   1      -0.469   0.399   0.161  0.00  0.00     0.006 A 
ENDROOT
BRANCH   1   8
ATOM      8  C1  UNL d   1      -1.233  -0.565   2.363  0.00  0.00     0.054 C 
ATOM      9  C   UNL d   1      -1.862   0.809   2.548  0.00  0.00     0.018 C 
ENDBRANCH   1   8
TORSDOF 1
ENDMDL
