MODEL 1
REMARK minimizedAffinity 5.98123169
REMARK minimizedRMSD -1
REMARK  3 active torsions:
REMARK  status: ('A' for Active; 'I' for Inactive)
REMARK    1  A    between atoms: C3'_2  and  C2'_3 
REMARK    2  A    between atoms: C2'_3  and  C1'_4 
REMARK    3  A    between atoms: C1'_4  and  C1_5 
ROOT
ATOM      1  C1  N4B d   1       0.406   3.773   1.027  0.00  0.00    -0.075 A 
ATOM      2  C2  N4B d   1       1.499   3.388   1.833  0.00  0.00     0.002 A 
ATOM      3  C3  N4B d   1       1.322   2.461   2.832  0.00  0.00     0.002 A 
ATOM      4  C4  N4B d   1       0.063   1.923   3.053  0.00  0.00    -0.004 A 
ATOM      5  C5  N4B d   1      -0.982   2.282   2.253  0.00  0.00     0.002 A 
ATOM      6  C6  N4B d   1      -0.818   3.209   1.243  0.00  0.00     0.002 A 
ENDROOT
BRANCH   1   7
ATOM      7  C1' N4B d   1       0.531   4.846  -0.021  0.00  0.00     0.057 C 
BRANCH   7   8
ATOM      8  C2' N4B d   1      -0.811   5.553  -0.177  0.00  0.00     0.009 C 
BRANCH   8   9
ATOM      9  C3' N4B d   1      -1.067   5.978  -1.613  0.00  0.00     0.004 C 
ATOM     10  C4' N4B d   1      -2.524   5.986  -1.966  0.00  0.00     0.003 C 
ENDBRANCH   8   9
ENDBRANCH   7   8
ENDBRANCH   1   7
TORSDOF 3
ENDMDL
