MODEL 1
REMARK minimizedAffinity 11.0353746
REMARK minimizedRMSD -1
REMARK  3 active torsions:
REMARK  status: ('A' for Active; 'I' for Inactive)
REMARK    1  A    between atoms: C3'_2  and  C2'_3 
REMARK    2  A    between atoms: C2'_3  and  C1'_4 
REMARK    3  A    between atoms: C1'_4  and  C1_5 
ROOT
ATOM      1  C1  N4B d   1       3.908  -1.651   0.159  0.00  0.00    -0.075 A 
ATOM      2  C2  N4B d   1       3.729  -3.014   0.484  0.00  0.00     0.002 A 
ATOM      3  C3  N4B d   1       4.636  -3.948   0.047  0.00  0.00     0.002 A 
ATOM      4  C4  N4B d   1       5.714  -3.547  -0.728  0.00  0.00    -0.004 A 
ATOM      5  C5  N4B d   1       5.893  -2.225  -1.015  0.00  0.00     0.002 A 
ATOM      6  C6  N4B d   1       4.992  -1.275  -0.580  0.00  0.00     0.002 A 
ENDROOT
BRANCH   1   7
ATOM      7  C1' N4B d   1       2.897  -0.605   0.542  0.00  0.00     0.057 C 
BRANCH   7   8
ATOM      8  C2' N4B d   1       1.983  -0.332  -0.650  0.00  0.00     0.009 C 
BRANCH   8   9
ATOM      9  C3' N4B d   1       0.707   0.382  -0.236  0.00  0.00     0.004 C 
ATOM     10  C4' N4B d   1      -0.524  -0.247  -0.816  0.00  0.00     0.003 C 
ENDBRANCH   8   9
ENDBRANCH   7   8
ENDBRANCH   1   7
TORSDOF 3
ENDMDL
