MODEL 1
REMARK minimizedAffinity 3.54680657
REMARK minimizedRMSD -1
REMARK  0 active torsions:
REMARK  status: ('A' for Active; 'I' for Inactive)
ROOT
ATOM      1  C   UNL d   1       3.143   0.326   0.166  0.00  0.00     0.023 A 
ATOM      2  C1  UNL d   1       2.376   1.177  -0.631  0.00  0.00     0.003 A 
ATOM      3  C2  UNL d   1       0.995   0.994  -0.722  0.00  0.00     0.048 A 
ATOM      4  C3  UNL d   1       0.387  -0.042  -0.014  0.00  0.00     0.023 A 
ATOM      5  C4  UNL d   1       1.150  -0.895   0.785  0.00  0.00     0.048 A 
ATOM      6  C5  UNL d   1       2.530  -0.709   0.872  0.00  0.00     0.003 A 
ATOM      7  I   UNL d   1      -1.669  -0.317  -0.148  0.00  0.00    -0.146 I 
ENDROOT
TORSDOF 0
ENDMDL
