MODEL 1
REMARK minimizedAffinity 3.55344772
REMARK minimizedRMSD -1
REMARK  0 active torsions:
REMARK  status: ('A' for Active; 'I' for Inactive)
ROOT
ATOM      1  C   UNL d   1      -2.621   0.197   0.228  0.00  0.00     0.023 A 
ATOM      2  C1  UNL d   1      -1.959  -0.407  -0.842  0.00  0.00     0.003 A 
ATOM      3  C2  UNL d   1      -0.563  -0.437  -0.874  0.00  0.00     0.048 A 
ATOM      4  C3  UNL d   1       0.165   0.137   0.168  0.00  0.00     0.023 A 
ATOM      5  C4  UNL d   1      -0.493   0.742   1.241  0.00  0.00     0.048 A 
ATOM      6  C5  UNL d   1      -1.889   0.770   1.268  0.00  0.00     0.003 A 
ATOM      7  I   UNL d   1       2.242   0.094   0.123  0.00  0.00    -0.146 I 
ENDROOT
TORSDOF 0
ENDMDL
