MODEL 1
REMARK minimizedAffinity -0.504232526
REMARK minimizedRMSD -1
REMARK  0 active torsions:
REMARK  status: ('A' for Active; 'I' for Inactive)
ROOT
ATOM      1  C   UNL d   1       2.031   1.327  -2.953  0.00  0.00     0.023 A 
ATOM      2  C1  UNL d   1       0.840   0.749  -3.394  0.00  0.00     0.003 A 
ATOM      3  C2  UNL d   1      -0.052   0.196  -2.472  0.00  0.00     0.048 A 
ATOM      4  C3  UNL d   1       0.253   0.225  -1.112  0.00  0.00     0.023 A 
ATOM      5  C4  UNL d   1       1.443   0.803  -0.666  0.00  0.00     0.048 A 
ATOM      6  C5  UNL d   1       2.332   1.354  -1.591  0.00  0.00     0.003 A 
ATOM      7  I   UNL d   1      -1.073  -0.597   0.261  0.00  0.00    -0.146 I 
ENDROOT
TORSDOF 0
ENDMDL
