MODEL 1
REMARK minimizedAffinity 10.0820274
REMARK minimizedRMSD -1
REMARK  0 active torsions:
REMARK  status: ('A' for Active; 'I' for Inactive)
ROOT
ATOM      1  C   UNL d   1       1.311   1.143  -4.755  0.00  0.00     0.023 A 
ATOM      2  C1  UNL d   1       0.096   0.458  -4.752  0.00  0.00     0.003 A 
ATOM      3  C2  UNL d   1      -0.390  -0.100  -3.567  0.00  0.00     0.048 A 
ATOM      4  C3  UNL d   1       0.344   0.032  -2.389  0.00  0.00     0.023 A 
ATOM      5  C4  UNL d   1       1.561   0.717  -2.387  0.00  0.00     0.048 A 
ATOM      6  C5  UNL d   1       2.043   1.272  -3.574  0.00  0.00     0.003 A 
ATOM      7  I   UNL d   1      -0.376  -0.797  -0.625  0.00  0.00    -0.146 I 
ENDROOT
TORSDOF 0
ENDMDL
