MODEL 1
REMARK minimizedAffinity -0.348558873
REMARK minimizedRMSD -1
REMARK  0 active torsions:
REMARK  status: ('A' for Active; 'I' for Inactive)
ROOT
ATOM      1  C   UNL d   1      -2.199   0.881   1.958  0.00  0.00     0.023 A 
ATOM      2  C1  UNL d   1      -1.312   0.841   3.034  0.00  0.00     0.003 A 
ATOM      3  C2  UNL d   1      -0.002   0.398   2.845  0.00  0.00     0.048 A 
ATOM      4  C3  UNL d   1       0.416  -0.003   1.576  0.00  0.00     0.023 A 
ATOM      5  C4  UNL d   1      -0.467   0.037   0.496  0.00  0.00     0.048 A 
ATOM      6  C5  UNL d   1      -1.777   0.480   0.691  0.00  0.00     0.003 A 
ATOM      7  I   UNL d   1       2.366  -0.662   1.291  0.00  0.00    -0.146 I 
ENDROOT
TORSDOF 0
ENDMDL
