MODEL 1
REMARK minimizedAffinity -1.7259897
REMARK minimizedRMSD -1
REMARK  0 active torsions:
REMARK  status: ('A' for Active; 'I' for Inactive)
ROOT
ATOM      1  C   UNL d   1       0.844  -0.111   1.818  0.00  0.00     0.023 A 
ATOM      2  C1  UNL d   1      -0.239   0.161   2.655  0.00  0.00     0.003 A 
ATOM      3  C2  UNL d   1      -1.528   0.251   2.125  0.00  0.00     0.048 A 
ATOM      4  C3  UNL d   1      -1.727   0.067   0.757  0.00  0.00     0.023 A 
ATOM      5  C4  UNL d   1      -0.647  -0.205  -0.085  0.00  0.00     0.048 A 
ATOM      6  C5  UNL d   1       0.640  -0.293   0.450  0.00  0.00     0.003 A 
ATOM      7  I   UNL d   1      -3.644   0.201  -0.034  0.00  0.00    -0.146 I 
ENDROOT
TORSDOF 0
ENDMDL
