MODEL 1
REMARK minimizedAffinity -2.90244079
REMARK minimizedRMSD -1
REMARK  0 active torsions:
REMARK  status: ('A' for Active; 'I' for Inactive)
ROOT
ATOM      1  C   UNL d   1       1.059   0.150  -4.241  0.00  0.00     0.023 A 
ATOM      2  C1  UNL d   1       2.328   0.593  -3.868  0.00  0.00     0.003 A 
ATOM      3  C2  UNL d   1       2.730   0.520  -2.533  0.00  0.00     0.048 A 
ATOM      4  C3  UNL d   1       1.859   0.002  -1.575  0.00  0.00     0.023 A 
ATOM      5  C4  UNL d   1       0.588  -0.443  -1.944  0.00  0.00     0.048 A 
ATOM      6  C5  UNL d   1       0.190  -0.367  -3.280  0.00  0.00     0.003 A 
ATOM      7  I   UNL d   1       2.455  -0.109   0.412  0.00  0.00    -0.146 I 
ENDROOT
TORSDOF 0
ENDMDL
