MODEL 1
REMARK minimizedAffinity -5.09745836
REMARK minimizedRMSD -1
REMARK  0 active torsions:
REMARK  status: ('A' for Active; 'I' for Inactive)
ROOT
ATOM      1  C   UNL d   1      -0.558   1.005   2.887  0.00  0.00     0.023 A 
ATOM      2  C1  UNL d   1       0.744   0.640   2.543  0.00  0.00     0.003 A 
ATOM      3  C2  UNL d   1       1.035   0.235   1.239  0.00  0.00     0.048 A 
ATOM      4  C3  UNL d   1       0.020   0.197   0.284  0.00  0.00     0.023 A 
ATOM      5  C4  UNL d   1      -1.284   0.562   0.623  0.00  0.00     0.048 A 
ATOM      6  C5  UNL d   1      -1.571   0.966   1.929  0.00  0.00     0.003 A 
ATOM      7  I   UNL d   1       0.451  -0.406  -1.658  0.00  0.00    -0.146 I 
ENDROOT
TORSDOF 0
ENDMDL
