MODEL 1
REMARK minimizedAffinity -2.95201397
REMARK minimizedRMSD -1
REMARK  0 active torsions:
REMARK  status: ('A' for Active; 'I' for Inactive)
ROOT
ATOM      1  C   UNL d   1       0.258   1.445   3.118  0.00  0.00     0.023 A 
ATOM      2  C1  UNL d   1      -0.812   1.729   2.269  0.00  0.00     0.003 A 
ATOM      3  C2  UNL d   1      -0.848   1.185   0.984  0.00  0.00     0.048 A 
ATOM      4  C3  UNL d   1       0.189   0.358   0.554  0.00  0.00     0.023 A 
ATOM      5  C4  UNL d   1       1.261   0.071   1.400  0.00  0.00     0.048 A 
ATOM      6  C5  UNL d   1       1.294   0.617   2.684  0.00  0.00     0.003 A 
ATOM      7  I   UNL d   1       0.138  -0.453  -1.359  0.00  0.00    -0.146 I 
ENDROOT
TORSDOF 0
ENDMDL
