MODEL 1
REMARK minimizedAffinity -4.17080927
REMARK minimizedRMSD -1
REMARK  0 active torsions:
REMARK  status: ('A' for Active; 'I' for Inactive)
ROOT
ATOM      1  C   UNL d   1      -0.211   0.552   3.234  0.00  0.00     0.023 A 
ATOM      2  C1  UNL d   1      -1.296   0.777   2.385  0.00  0.00     0.003 A 
ATOM      3  C2  UNL d   1      -1.115   0.764   1.001  0.00  0.00     0.048 A 
ATOM      4  C3  UNL d   1       0.152   0.524   0.471  0.00  0.00     0.023 A 
ATOM      5  C4  UNL d   1       1.240   0.298   1.316  0.00  0.00     0.048 A 
ATOM      6  C5  UNL d   1       1.055   0.313   2.700  0.00  0.00     0.003 A 
ATOM      7  I   UNL d   1       0.424   0.503  -1.590  0.00  0.00    -0.146 I 
ENDROOT
TORSDOF 0
ENDMDL
