MODEL 1
REMARK minimizedAffinity -3.0054245
REMARK minimizedRMSD -1
REMARK  0 active torsions:
REMARK  status: ('A' for Active; 'I' for Inactive)
ROOT
ATOM      1  C   UNL d   1      -1.131   0.690   3.137  0.00  0.00     0.023 A 
ATOM      2  C1  UNL d   1      -0.012   1.330   2.603  0.00  0.00     0.003 A 
ATOM      3  C2  UNL d   1       0.464   0.969   1.341  0.00  0.00     0.048 A 
ATOM      4  C3  UNL d   1      -0.183  -0.032   0.618  0.00  0.00     0.023 A 
ATOM      5  C4  UNL d   1      -1.303  -0.675   1.148  0.00  0.00     0.048 A 
ATOM      6  C5  UNL d   1      -1.775  -0.311   2.410  0.00  0.00     0.003 A 
ATOM      7  I   UNL d   1       0.524  -0.571  -1.261  0.00  0.00    -0.146 I 
ENDROOT
TORSDOF 0
ENDMDL
