MODEL 1
REMARK minimizedAffinity -2.59465933
REMARK minimizedRMSD -1
REMARK  0 active torsions:
REMARK  status: ('A' for Active; 'I' for Inactive)
ROOT
ATOM      1  C   UNL d   1      -0.205  -0.428   2.936  0.00  0.00     0.023 A 
ATOM      2  C1  UNL d   1      -1.199   0.034   2.073  0.00  0.00     0.003 A 
ATOM      3  C2  UNL d   1      -0.999  -0.002   0.692  0.00  0.00     0.048 A 
ATOM      4  C3  UNL d   1       0.198  -0.502   0.179  0.00  0.00     0.023 A 
ATOM      5  C4  UNL d   1       1.195  -0.966   1.038  0.00  0.00     0.048 A 
ATOM      6  C5  UNL d   1       0.991  -0.927   2.419  0.00  0.00     0.003 A 
ATOM      7  I   UNL d   1       0.498  -0.556  -1.877  0.00  0.00    -0.146 I 
ENDROOT
TORSDOF 0
ENDMDL
