MODEL 1
REMARK minimizedAffinity -1.38675749
REMARK minimizedRMSD -1
REMARK  0 active torsions:
REMARK  status: ('A' for Active; 'I' for Inactive)
ROOT
ATOM      1  C   UNL d   1       0.354  -0.161   3.621  0.00  0.00     0.023 A 
ATOM      2  C1  UNL d   1       1.372  -0.681   2.822  0.00  0.00     0.003 A 
ATOM      3  C2  UNL d   1       1.236  -0.688   1.432  0.00  0.00     0.048 A 
ATOM      4  C3  UNL d   1       0.080  -0.171   0.848  0.00  0.00     0.023 A 
ATOM      5  C4  UNL d   1      -0.941   0.351   1.644  0.00  0.00     0.048 A 
ATOM      6  C5  UNL d   1      -0.801   0.355   3.033  0.00  0.00     0.003 A 
ATOM      7  I   UNL d   1      -0.125  -0.179  -1.220  0.00  0.00    -0.146 I 
ENDROOT
TORSDOF 0
ENDMDL
