MODEL 1
REMARK minimizedAffinity 19.5318356
REMARK minimizedRMSD -1
REMARK  0 active torsions:
REMARK  status: ('A' for Active; 'I' for Inactive)
ROOT
ATOM      1  C   UNL d   1       5.124  -4.461  -0.424  0.00  0.00     0.023 A 
ATOM      2  C1  UNL d   1       5.434  -3.537  -1.421  0.00  0.00     0.003 A 
ATOM      3  C2  UNL d   1       5.179  -3.841  -2.760  0.00  0.00     0.048 A 
ATOM      4  C3  UNL d   1       4.613  -5.071  -3.094  0.00  0.00     0.023 A 
ATOM      5  C4  UNL d   1       4.301  -5.999  -2.099  0.00  0.00     0.048 A 
ATOM      6  C5  UNL d   1       4.559  -5.691  -0.762  0.00  0.00     0.003 A 
ATOM      7  I   UNL d   1       4.232  -5.525  -5.086  0.00  0.00    -0.146 I 
ENDROOT
TORSDOF 0
ENDMDL
