MODEL 1
REMARK minimizedAffinity 4.79236078
REMARK minimizedRMSD -1
REMARK  0 active torsions:
REMARK  status: ('A' for Active; 'I' for Inactive)
ROOT
ATOM      1  C   UNL d   1      -5.336   3.185  -1.797  0.00  0.00     0.023 A 
ATOM      2  C1  UNL d   1      -5.059   3.484  -3.131  0.00  0.00     0.003 A 
ATOM      3  C2  UNL d   1      -5.184   2.496  -4.110  0.00  0.00     0.048 A 
ATOM      4  C3  UNL d   1      -5.585   1.211  -3.747  0.00  0.00     0.023 A 
ATOM      5  C4  UNL d   1      -5.864   0.907  -2.414  0.00  0.00     0.048 A 
ATOM      6  C5  UNL d   1      -5.737   1.898  -1.439  0.00  0.00     0.003 A 
ATOM      7  I   UNL d   1      -5.771  -0.262  -5.202  0.00  0.00    -0.146 I 
ENDROOT
TORSDOF 0
ENDMDL
