MODEL 1
REMARK minimizedAffinity 4.84310532
REMARK minimizedRMSD -1
REMARK  0 active torsions:
REMARK  status: ('A' for Active; 'I' for Inactive)
ROOT
ATOM      1  C   UNL d   1      -0.932   4.440  -0.444  0.00  0.00     0.023 A 
ATOM      2  C1  UNL d   1      -1.875   4.867  -1.379  0.00  0.00     0.003 A 
ATOM      3  C2  UNL d   1      -1.462   5.315  -2.635  0.00  0.00     0.048 A 
ATOM      4  C3  UNL d   1      -0.104   5.332  -2.950  0.00  0.00     0.023 A 
ATOM      5  C4  UNL d   1       0.844   4.905  -2.018  0.00  0.00     0.048 A 
ATOM      6  C5  UNL d   1       0.426   4.458  -0.763  0.00  0.00     0.003 A 
ATOM      7  I   UNL d   1       0.514   5.998  -4.819  0.00  0.00    -0.146 I 
ENDROOT
TORSDOF 0
ENDMDL
