MODEL 1
REMARK minimizedAffinity 6.88456821
REMARK minimizedRMSD -1
REMARK  0 active torsions:
REMARK  status: ('A' for Active; 'I' for Inactive)
ROOT
ATOM      1  C   UNL d   1      -5.020   4.667  -1.867  0.00  0.00     0.023 A 
ATOM      2  C1  UNL d   1      -5.718   3.496  -1.573  0.00  0.00     0.003 A 
ATOM      3  C2  UNL d   1      -6.000   2.576  -2.586  0.00  0.00     0.048 A 
ATOM      4  C3  UNL d   1      -5.581   2.835  -3.890  0.00  0.00     0.023 A 
ATOM      5  C4  UNL d   1      -4.882   4.005  -4.189  0.00  0.00     0.048 A 
ATOM      6  C5  UNL d   1      -4.603   4.922  -3.174  0.00  0.00     0.003 A 
ATOM      7  I   UNL d   1      -5.999   1.468  -5.399  0.00  0.00    -0.146 I 
ENDROOT
TORSDOF 0
ENDMDL
