MODEL 1
REMARK minimizedAffinity -1.93133414
REMARK minimizedRMSD -1
REMARK  3 active torsions:
REMARK  status: ('A' for Active; 'I' for Inactive)
REMARK    1  A    between atoms: C3'_2  and  C2'_3 
REMARK    2  A    between atoms: C2'_3  and  C1'_4 
REMARK    3  A    between atoms: C1'_4  and  C1_5 
ROOT
ATOM      1  C1  N4B d   1       2.339   5.649   4.882  0.00  0.00    -0.075 A 
ATOM      2  C2  N4B d   1       1.477   5.608   5.999  0.00  0.00     0.002 A 
ATOM      3  C3  N4B d   1       0.123   5.767   5.828  0.00  0.00     0.002 A 
ATOM      4  C4  N4B d   1      -0.386   5.986   4.556  0.00  0.00    -0.004 A 
ATOM      5  C5  N4B d   1       0.451   5.998   3.479  0.00  0.00     0.002 A 
ATOM      6  C6  N4B d   1       1.813   5.836   3.636  0.00  0.00     0.002 A 
ENDROOT
BRANCH   1   7
ATOM      7  C1' N4B d   1       3.834   5.567   5.029  0.00  0.00     0.057 C 
BRANCH   7   8
ATOM      8  C2' N4B d   1       4.188   4.340   5.864  0.00  0.00     0.009 C 
BRANCH   8   9
ATOM      9  C3' N4B d   1       3.732   3.051   5.202  0.00  0.00     0.004 C 
ATOM     10  C4' N4B d   1       3.789   3.116   3.705  0.00  0.00     0.003 C 
ENDBRANCH   8   9
ENDBRANCH   7   8
ENDBRANCH   1   7
TORSDOF 3
ENDMDL
