MODEL 1
REMARK minimizedAffinity -1.37387776
REMARK minimizedRMSD -1
REMARK  3 active torsions:
REMARK  status: ('A' for Active; 'I' for Inactive)
REMARK    1  A    between atoms: C3'_2  and  C2'_3 
REMARK    2  A    between atoms: C2'_3  and  C1'_4 
REMARK    3  A    between atoms: C1'_4  and  C1_5 
ROOT
ATOM      1  C1  N4B d   1       4.032   5.276   4.077  0.00  0.00    -0.075 A 
ATOM      2  C2  N4B d   1       4.799   5.997   5.017  0.00  0.00     0.002 A 
ATOM      3  C3  N4B d   1       5.599   5.327   5.910  0.00  0.00     0.002 A 
ATOM      4  C4  N4B d   1       5.632   3.940   5.894  0.00  0.00    -0.004 A 
ATOM      5  C5  N4B d   1       4.907   3.252   4.966  0.00  0.00     0.002 A 
ATOM      6  C6  N4B d   1       4.102   3.913   4.060  0.00  0.00     0.002 A 
ENDROOT
BRANCH   1   7
ATOM      7  C1' N4B d   1       3.077   5.961   3.137  0.00  0.00     0.057 C 
BRANCH   7   8
ATOM      8  C2' N4B d   1       1.687   5.985   3.765  0.00  0.00     0.009 C 
BRANCH   8   9
ATOM      9  C3' N4B d   1       1.723   5.620   5.239  0.00  0.00     0.004 C 
ATOM     10  C4' N4B d   1       0.465   6.000   5.962  0.00  0.00     0.003 C 
ENDBRANCH   8   9
ENDBRANCH   7   8
ENDBRANCH   1   7
TORSDOF 3
ENDMDL
