MODEL 1
REMARK minimizedAffinity 4.77063417
REMARK minimizedRMSD -1
REMARK  3 active torsions:
REMARK  status: ('A' for Active; 'I' for Inactive)
REMARK    1  A    between atoms: C3'_2  and  C2'_3 
REMARK    2  A    between atoms: C2'_3  and  C1'_4 
REMARK    3  A    between atoms: C1'_4  and  C1_5 
ROOT
ATOM      1  C1  N4B d   1       1.419  -0.337   0.034  0.00  0.00    -0.075 A 
ATOM      2  C2  N4B d   1       1.720  -1.657  -0.367  0.00  0.00     0.002 A 
ATOM      3  C3  N4B d   1       2.961  -1.954  -0.875  0.00  0.00     0.002 A 
ATOM      4  C4  N4B d   1       3.907  -0.948  -1.007  0.00  0.00    -0.004 A 
ATOM      5  C5  N4B d   1       3.617   0.319  -0.593  0.00  0.00     0.002 A 
ATOM      6  C6  N4B d   1       2.375   0.631  -0.078  0.00  0.00     0.002 A 
ENDROOT
BRANCH   1   7
ATOM      7  C1' N4B d   1       0.048   0.054   0.514  0.00  0.00     0.057 C 
BRANCH   7   8
ATOM      8  C2' N4B d   1      -0.653   0.861  -0.575  0.00  0.00     0.009 C 
BRANCH   8   9
ATOM      9  C3' N4B d   1      -1.858   0.128  -1.138  0.00  0.00     0.004 C 
ATOM     10  C4' N4B d   1      -2.199   0.557  -2.534  0.00  0.00     0.003 C 
ENDBRANCH   8   9
ENDBRANCH   7   8
ENDBRANCH   1   7
TORSDOF 3
ENDMDL
