MODEL 1
REMARK minimizedAffinity -0.924893022
REMARK minimizedRMSD -1
REMARK  0 active torsions:
REMARK  status: ('A' for Active; 'I' for Inactive)
ROOT
ATOM      1  C1  BNZ d   1       0.234  -3.936   4.782  0.00  0.00     0.000 A 
ATOM      2  C2  BNZ d   1      -1.046  -3.596   4.435  0.00  0.00     0.000 A 
ATOM      3  C3  BNZ d   1      -1.284  -2.598   3.530  0.00  0.00     0.000 A 
ATOM      4  C4  BNZ d   1      -0.244  -1.917   3.006  0.00  0.00     0.000 A 
ATOM      5  C5  BNZ d   1       1.052  -2.243   3.353  0.00  0.00     0.000 A 
ATOM      6  C6  BNZ d   1       1.289  -3.273   4.234  0.00  0.00     0.000 A 
ENDROOT
TORSDOF 0
ENDMDL
