MODEL 1
REMARK minimizedAffinity -1.72428477
REMARK minimizedRMSD -1
REMARK  0 active torsions:
REMARK  status: ('A' for Active; 'I' for Inactive)
ROOT
ATOM      1  C1  BNZ d   1      -3.708  -3.633  -5.885  0.00  0.00     0.000 A 
ATOM      2  C2  BNZ d   1      -2.339  -3.628  -5.829  0.00  0.00     0.000 A 
ATOM      3  C3  BNZ d   1      -1.633  -4.796  -5.884  0.00  0.00     0.000 A 
ATOM      4  C4  BNZ d   1      -2.295  -5.969  -5.952  0.00  0.00     0.000 A 
ATOM      5  C5  BNZ d   1      -3.675  -5.991  -5.999  0.00  0.00     0.000 A 
ATOM      6  C6  BNZ d   1      -4.382  -4.811  -5.983  0.00  0.00     0.000 A 
ENDROOT
TORSDOF 0
ENDMDL
