MODEL 1
REMARK minimizedAffinity -1.51550782
REMARK minimizedRMSD -1
REMARK  0 active torsions:
REMARK  status: ('A' for Active; 'I' for Inactive)
ROOT
ATOM      1  C1  BNZ d   1      -2.061  -6.000  -3.664  0.00  0.00     0.000 A 
ATOM      2  C2  BNZ d   1      -2.847  -5.998  -4.785  0.00  0.00     0.000 A 
ATOM      3  C3  BNZ d   1      -2.391  -5.465  -5.959  0.00  0.00     0.000 A 
ATOM      4  C4  BNZ d   1      -1.168  -4.900  -5.999  0.00  0.00     0.000 A 
ATOM      5  C5  BNZ d   1      -0.366  -4.886  -4.875  0.00  0.00     0.000 A 
ATOM      6  C6  BNZ d   1      -0.813  -5.458  -3.706  0.00  0.00     0.000 A 
ENDROOT
TORSDOF 0
ENDMDL
