MODEL 1
REMARK minimizedAffinity -1.06069243
REMARK minimizedRMSD -1
REMARK  0 active torsions:
REMARK  status: ('A' for Active; 'I' for Inactive)
ROOT
ATOM      1  C1  BNZ d   1      -4.351  -4.675   3.652  0.00  0.00     0.000 A 
ATOM      2  C2  BNZ d   1      -5.446  -5.498   3.663  0.00  0.00     0.000 A 
ATOM      3  C3  BNZ d   1      -5.935  -5.996   4.839  0.00  0.00     0.000 A 
ATOM      4  C4  BNZ d   1      -5.305  -5.705   5.995  0.00  0.00     0.000 A 
ATOM      5  C5  BNZ d   1      -4.195  -4.884   5.999  0.00  0.00     0.000 A 
ATOM      6  C6  BNZ d   1      -3.729  -4.353   4.818  0.00  0.00     0.000 A 
ENDROOT
TORSDOF 0
ENDMDL
