MODEL 1
REMARK minimizedAffinity -3.21161246
REMARK minimizedRMSD -1
REMARK  0 active torsions:
REMARK  status: ('A' for Active; 'I' for Inactive)
ROOT
ATOM      1  C1  BNZ d   1      -1.966  -5.389  -3.658  0.00  0.00     0.000 A 
ATOM      2  C2  BNZ d   1      -0.711  -5.935  -3.691  0.00  0.00     0.000 A 
ATOM      3  C3  BNZ d   1      -0.004  -5.997  -4.860  0.00  0.00     0.000 A 
ATOM      4  C4  BNZ d   1      -0.569  -5.550  -6.000  0.00  0.00     0.000 A 
ATOM      5  C5  BNZ d   1      -1.838  -5.005  -5.985  0.00  0.00     0.000 A 
ATOM      6  C6  BNZ d   1      -2.530  -4.909  -4.800  0.00  0.00     0.000 A 
ENDROOT
TORSDOF 0
ENDMDL
