MODEL 1
REMARK minimizedAffinity 0.748594105
REMARK minimizedRMSD -1
REMARK  0 active torsions:
REMARK  status: ('A' for Active; 'I' for Inactive)
ROOT
ATOM      1  C1  BNZ d   1      -1.716  -1.784  -0.971  0.00  0.00     0.000 A 
ATOM      2  C2  BNZ d   1      -0.441  -1.840  -0.473  0.00  0.00     0.000 A 
ATOM      3  C3  BNZ d   1       0.074  -0.802   0.251  0.00  0.00     0.000 A 
ATOM      4  C4  BNZ d   1      -0.670   0.307   0.443  0.00  0.00     0.000 A 
ATOM      5  C5  BNZ d   1      -1.953   0.383  -0.060  0.00  0.00     0.000 A 
ATOM      6  C6  BNZ d   1      -2.483  -0.680  -0.756  0.00  0.00     0.000 A 
ENDROOT
TORSDOF 0
ENDMDL
