MODEL 1
REMARK minimizedAffinity 0.730846524
REMARK minimizedRMSD -1
REMARK  0 active torsions:
REMARK  status: ('A' for Active; 'I' for Inactive)
ROOT
ATOM      1  C1  BNZ d   1      -4.197  -4.711  -5.998  0.00  0.00     0.000 A 
ATOM      2  C2  BNZ d   1      -3.546  -5.915  -5.970  0.00  0.00     0.000 A 
ATOM      3  C3  BNZ d   1      -2.182  -5.973  -5.918  0.00  0.00     0.000 A 
ATOM      4  C4  BNZ d   1      -1.469  -4.828  -5.935  0.00  0.00     0.000 A 
ATOM      5  C5  BNZ d   1      -2.109  -3.606  -5.973  0.00  0.00     0.000 A 
ATOM      6  C6  BNZ d   1      -3.484  -3.551  -5.986  0.00  0.00     0.000 A 
ENDROOT
TORSDOF 0
ENDMDL
