MODEL 1
REMARK minimizedAffinity 1.46846271
REMARK minimizedRMSD -1
REMARK  0 active torsions:
REMARK  status: ('A' for Active; 'I' for Inactive)
ROOT
ATOM      1  C1  BNZ d   1       4.247   2.906  -2.464  0.00  0.00     0.000 A 
ATOM      2  C2  BNZ d   1       2.929   2.790  -2.113  0.00  0.00     0.000 A 
ATOM      3  C3  BNZ d   1       2.113   1.893  -2.742  0.00  0.00     0.000 A 
ATOM      4  C4  BNZ d   1       2.605   1.141  -3.748  0.00  0.00     0.000 A 
ATOM      5  C5  BNZ d   1       3.929   1.253  -4.121  0.00  0.00     0.000 A 
ATOM      6  C6  BNZ d   1       4.758   2.130  -3.459  0.00  0.00     0.000 A 
ENDROOT
TORSDOF 0
ENDMDL
