MODEL 1
REMARK minimizedAffinity 4.59645605
REMARK minimizedRMSD -1
REMARK  0 active torsions:
REMARK  status: ('A' for Active; 'I' for Inactive)
ROOT
ATOM      1  C1  BNZ d   1      -3.909  -3.920   5.034  0.00  0.00     0.000 A 
ATOM      2  C2  BNZ d   1      -4.897  -3.997   5.979  0.00  0.00     0.000 A 
ATOM      3  C3  BNZ d   1      -5.772  -5.047   5.993  0.00  0.00     0.000 A 
ATOM      4  C4  BNZ d   1      -5.683  -5.997   5.040  0.00  0.00     0.000 A 
ATOM      5  C5  BNZ d   1      -4.697  -5.929   4.075  0.00  0.00     0.000 A 
ATOM      6  C6  BNZ d   1      -3.794  -4.891   4.087  0.00  0.00     0.000 A 
ENDROOT
TORSDOF 0
ENDMDL
