MODEL 1
REMARK minimizedAffinity 3.61089087
REMARK minimizedRMSD -1
REMARK  0 active torsions:
REMARK  status: ('A' for Active; 'I' for Inactive)
ROOT
ATOM      1  C1  BNZ d   1       0.707  -2.437   2.274  0.00  0.00     0.000 A 
ATOM      2  C2  BNZ d   1       1.631  -3.186   2.952  0.00  0.00     0.000 A 
ATOM      3  C3  BNZ d   1       1.396  -3.593   4.236  0.00  0.00     0.000 A 
ATOM      4  C4  BNZ d   1       0.257  -3.218   4.853  0.00  0.00     0.000 A 
ATOM      5  C5  BNZ d   1      -0.680  -2.455   4.185  0.00  0.00     0.000 A 
ATOM      6  C6  BNZ d   1      -0.458  -2.080   2.880  0.00  0.00     0.000 A 
ENDROOT
TORSDOF 0
ENDMDL
