MODEL 1
REMARK minimizedAffinity 5.00195599
REMARK minimizedRMSD -1
REMARK  0 active torsions:
REMARK  status: ('A' for Active; 'I' for Inactive)
ROOT
ATOM      1  C1  BNZ d   1      -0.339  -1.243   1.112  0.00  0.00     0.000 A 
ATOM      2  C2  BNZ d   1       0.912  -1.229   0.556  0.00  0.00     0.000 A 
ATOM      3  C3  BNZ d   1       1.564  -0.049   0.330  0.00  0.00     0.000 A 
ATOM      4  C4  BNZ d   1       0.949   1.115   0.623  0.00  0.00     0.000 A 
ATOM      5  C5  BNZ d   1      -0.317   1.117   1.175  0.00  0.00     0.000 A 
ATOM      6  C6  BNZ d   1      -0.954  -0.074   1.437  0.00  0.00     0.000 A 
ENDROOT
TORSDOF 0
ENDMDL
