MODEL 1
REMARK minimizedAffinity 5.1680398
REMARK minimizedRMSD -1
REMARK  0 active torsions:
REMARK  status: ('A' for Active; 'I' for Inactive)
ROOT
ATOM      1  C1  BNZ d   1      -3.120   3.763  -1.766  0.00  0.00     0.000 A 
ATOM      2  C2  BNZ d   1      -3.552   4.167  -3.001  0.00  0.00     0.000 A 
ATOM      3  C3  BNZ d   1      -2.946   3.710  -4.138  0.00  0.00     0.000 A 
ATOM      4  C4  BNZ d   1      -1.885   2.883  -4.037  0.00  0.00     0.000 A 
ATOM      5  C5  BNZ d   1      -1.432   2.475  -2.799  0.00  0.00     0.000 A 
ATOM      6  C6  BNZ d   1      -2.069   2.905  -1.658  0.00  0.00     0.000 A 
ENDROOT
TORSDOF 0
ENDMDL
