MODEL 1
REMARK minimizedAffinity -5.01259565
REMARK minimizedRMSD -1
REMARK  0 active torsions:
REMARK  status: ('A' for Active; 'I' for Inactive)
ROOT
ATOM      1  C1  BNZ d   1      -1.018  -2.030   3.435  0.00  0.00     0.000 A 
ATOM      2  C2  BNZ d   1      -2.383  -1.943   3.370  0.00  0.00     0.000 A 
ATOM      3  C3  BNZ d   1      -3.040  -2.119   2.184  0.00  0.00     0.000 A 
ATOM      4  C4  BNZ d   1      -2.330  -2.342   1.060  0.00  0.00     0.000 A 
ATOM      5  C5  BNZ d   1      -0.952  -2.423   1.107  0.00  0.00     0.000 A 
ATOM      6  C6  BNZ d   1      -0.297  -2.284   2.309  0.00  0.00     0.000 A 
ENDROOT
TORSDOF 0
ENDMDL
