MODEL 1
REMARK minimizedAffinity -2.62837958
REMARK minimizedRMSD -1
REMARK  0 active torsions:
REMARK  status: ('A' for Active; 'I' for Inactive)
ROOT
ATOM      1  C1  BNZ d   1      -3.003  -3.483  -5.830  0.00  0.00     0.000 A 
ATOM      2  C2  BNZ d   1      -4.352  -3.657  -5.983  0.00  0.00     0.000 A 
ATOM      3  C3  BNZ d   1      -4.899  -4.909  -6.000  0.00  0.00     0.000 A 
ATOM      4  C4  BNZ d   1      -4.092  -5.986  -5.904  0.00  0.00     0.000 A 
ATOM      5  C5  BNZ d   1      -2.729  -5.827  -5.758  0.00  0.00     0.000 A 
ATOM      6  C6  BNZ d   1      -2.186  -4.564  -5.703  0.00  0.00     0.000 A 
ENDROOT
TORSDOF 0
ENDMDL
