MODEL 1
REMARK minimizedAffinity -1.45478106
REMARK minimizedRMSD -1
REMARK  0 active torsions:
REMARK  status: ('A' for Active; 'I' for Inactive)
ROOT
ATOM      1  C1  BNZ d   1       1.095  -2.977   2.941  0.00  0.00     0.000 A 
ATOM      2  C2  BNZ d   1       1.349  -2.329   1.762  0.00  0.00     0.000 A 
ATOM      3  C3  BNZ d   1       0.498  -1.366   1.295  0.00  0.00     0.000 A 
ATOM      4  C4  BNZ d   1      -0.625  -1.082   1.986  0.00  0.00     0.000 A 
ATOM      5  C5  BNZ d   1      -0.899  -1.733   3.172  0.00  0.00     0.000 A 
ATOM      6  C6  BNZ d   1      -0.021  -2.673   3.659  0.00  0.00     0.000 A 
ENDROOT
TORSDOF 0
ENDMDL
