MODEL 1
REMARK minimizedAffinity 3.91162419
REMARK minimizedRMSD -1
REMARK  0 active torsions:
REMARK  status: ('A' for Active; 'I' for Inactive)
ROOT
ATOM      1  C   UNL d   1       0.894  -0.314   0.835  0.00  0.00     0.020 A 
ATOM      2  C1  UNL d   1       0.606   0.756  -0.012  0.00  0.00     0.020 A 
ATOM      3  C2  UNL d   1      -0.549   0.734  -0.797  0.00  0.00     0.034 A 
ATOM      4  C3  UNL d   1      -1.419  -0.361  -0.738  0.00  0.00     0.017 A 
ATOM      5  C4  UNL d   1      -1.130  -1.434   0.112  0.00  0.00     0.017 A 
ATOM      6  C5  UNL d   1       0.028  -1.407   0.897  0.00  0.00     0.034 A 
ATOM      7 Cl   UNL d   1      -2.156  -2.819   0.240  0.00  0.00    -0.070 Cl
ATOM      8 Cl1  UNL d   1      -2.829  -0.321  -1.737  0.00  0.00    -0.070 Cl
ENDROOT
TORSDOF 0
ENDMDL
