MODEL 1
REMARK minimizedAffinity 8.32918549
REMARK minimizedRMSD -1
REMARK  0 active torsions:
REMARK  status: ('A' for Active; 'I' for Inactive)
ROOT
ATOM      1  C   UNL d   1      -4.329   5.996  -5.999  0.00  0.00     0.020 A 
ATOM      2  C1  UNL d   1      -5.649   5.997  -5.549  0.00  0.00     0.020 A 
ATOM      3  C2  UNL d   1      -5.921   5.901  -4.183  0.00  0.00     0.034 A 
ATOM      4  C3  UNL d   1      -4.872   5.804  -3.261  0.00  0.00     0.017 A 
ATOM      5  C4  UNL d   1      -3.547   5.804  -3.714  0.00  0.00     0.017 A 
ATOM      6  C5  UNL d   1      -3.281   5.901  -5.083  0.00  0.00     0.034 A 
ATOM      7 Cl   UNL d   1      -2.200   5.689  -2.637  0.00  0.00    -0.070 Cl
ATOM      8 Cl1  UNL d   1      -5.281   5.689  -1.587  0.00  0.00    -0.070 Cl
ENDROOT
TORSDOF 0
ENDMDL
