MODEL 1
REMARK minimizedAffinity 0.775114238
REMARK minimizedRMSD -1
REMARK  0 active torsions:
REMARK  status: ('A' for Active; 'I' for Inactive)
ROOT
ATOM      1  C   UNL d   1      -4.087  -1.648  -4.371  0.00  0.00     0.020 A 
ATOM      2  C1  UNL d   1      -3.832  -1.222  -3.068  0.00  0.00     0.020 A 
ATOM      3  C2  UNL d   1      -3.100  -2.033  -2.199  0.00  0.00     0.034 A 
ATOM      4  C3  UNL d   1      -2.620  -3.275  -2.631  0.00  0.00     0.017 A 
ATOM      5  C4  UNL d   1      -2.877  -3.702  -3.939  0.00  0.00     0.017 A 
ATOM      6  C5  UNL d   1      -3.610  -2.885  -4.806  0.00  0.00     0.034 A 
ATOM      7 Cl   UNL d   1      -2.318  -5.221  -4.545  0.00  0.00    -0.070 Cl
ATOM      8 Cl1  UNL d   1      -1.722  -4.226  -1.503  0.00  0.00    -0.070 Cl
ENDROOT
TORSDOF 0
ENDMDL
