MODEL 1
REMARK minimizedAffinity 3.23050117
REMARK minimizedRMSD -1
REMARK  0 active torsions:
REMARK  status: ('A' for Active; 'I' for Inactive)
ROOT
ATOM      1  C   UNL d   1      -1.296  -0.808  -0.290  0.00  0.00     0.020 A 
ATOM      2  C1  UNL d   1      -1.675   0.533  -0.258  0.00  0.00     0.020 A 
ATOM      3  C2  UNL d   1      -0.931   1.451   0.488  0.00  0.00     0.034 A 
ATOM      4  C3  UNL d   1       0.194   1.028   1.205  0.00  0.00     0.017 A 
ATOM      5  C4  UNL d   1       0.573  -0.319   1.172  0.00  0.00     0.017 A 
ATOM      6  C5  UNL d   1      -0.174  -1.233   0.423  0.00  0.00     0.034 A 
ATOM      7 Cl   UNL d   1       1.950  -0.916   2.030  0.00  0.00    -0.070 Cl
ATOM      8 Cl1  UNL d   1       1.066   2.216   2.106  0.00  0.00    -0.070 Cl
ENDROOT
TORSDOF 0
ENDMDL
