MODEL 1
REMARK minimizedAffinity -0.885909319
REMARK minimizedRMSD -1
REMARK  0 active torsions:
REMARK  status: ('A' for Active; 'I' for Inactive)
ROOT
ATOM      1  C   UNL d   1      -5.436   5.580  -5.831  0.00  0.00     0.020 A 
ATOM      2  C1  UNL d   1      -5.998   4.307  -5.926  0.00  0.00     0.020 A 
ATOM      3  C2  UNL d   1      -5.962   3.445  -4.829  0.00  0.00     0.034 A 
ATOM      4  C3  UNL d   1      -5.362   3.853  -3.632  0.00  0.00     0.017 A 
ATOM      5  C4  UNL d   1      -4.797   5.130  -3.538  0.00  0.00     0.017 A 
ATOM      6  C5  UNL d   1      -4.837   5.990  -4.640  0.00  0.00     0.034 A 
ATOM      7 Cl   UNL d   1      -4.039   5.705  -2.095  0.00  0.00    -0.070 Cl
ATOM      8 Cl1  UNL d   1      -5.353   2.734  -2.315  0.00  0.00    -0.070 Cl
ENDROOT
TORSDOF 0
ENDMDL
