MODEL 1
REMARK minimizedAffinity 6.41483974
REMARK minimizedRMSD -1
REMARK  0 active torsions:
REMARK  status: ('A' for Active; 'I' for Inactive)
ROOT
ATOM      1  C   UNL d   1      -0.263   0.770  -0.148  0.00  0.00     0.020 A 
ATOM      2  C1  UNL d   1       0.428  -0.418  -0.385  0.00  0.00     0.020 A 
ATOM      3  C2  UNL d   1       1.213  -0.982   0.623  0.00  0.00     0.034 A 
ATOM      4  C3  UNL d   1       1.309  -0.359   1.872  0.00  0.00     0.017 A 
ATOM      5  C4  UNL d   1       0.615   0.833   2.109  0.00  0.00     0.017 A 
ATOM      6  C5  UNL d   1      -0.169   1.394   1.096  0.00  0.00     0.034 A 
ATOM      7 Cl   UNL d   1       0.685   1.661   3.625  0.00  0.00    -0.070 Cl
ATOM      8 Cl1  UNL d   1       2.297  -1.112   3.072  0.00  0.00    -0.070 Cl
ENDROOT
TORSDOF 0
ENDMDL
