MODEL 1
REMARK minimizedAffinity 1.69777608
REMARK minimizedRMSD -1
REMARK  0 active torsions:
REMARK  status: ('A' for Active; 'I' for Inactive)
ROOT
ATOM      1  C   UNL d   1       1.762   0.051   1.862  0.00  0.00     0.020 A 
ATOM      2  C1  UNL d   1       1.707   0.093   0.469  0.00  0.00     0.020 A 
ATOM      3  C2  UNL d   1       0.708  -0.607  -0.211  0.00  0.00     0.034 A 
ATOM      4  C3  UNL d   1      -0.240  -1.351   0.501  0.00  0.00     0.017 A 
ATOM      5  C4  UNL d   1      -0.184  -1.392   1.899  0.00  0.00     0.017 A 
ATOM      6  C5  UNL d   1       0.819  -0.689   2.575  0.00  0.00     0.034 A 
ATOM      7 Cl   UNL d   1      -1.318  -2.288   2.846  0.00  0.00    -0.070 Cl
ATOM      8 Cl1  UNL d   1      -1.447  -2.191  -0.405  0.00  0.00    -0.070 Cl
ENDROOT
TORSDOF 0
ENDMDL
