MODEL 1
REMARK minimizedAffinity 3.69372964
REMARK minimizedRMSD -1
REMARK  0 active torsions:
REMARK  status: ('A' for Active; 'I' for Inactive)
ROOT
ATOM      1  C   UNL d   1      -0.335   0.923  -0.396  0.00  0.00     0.020 A 
ATOM      2  C1  UNL d   1      -1.419   1.795  -0.309  0.00  0.00     0.020 A 
ATOM      3  C2  UNL d   1      -2.689   1.302   0.001  0.00  0.00     0.034 A 
ATOM      4  C3  UNL d   1      -2.876  -0.067   0.226  0.00  0.00     0.017 A 
ATOM      5  C4  UNL d   1      -1.787  -0.941   0.138  0.00  0.00     0.017 A 
ATOM      6  C5  UNL d   1      -0.518  -0.442  -0.172  0.00  0.00     0.034 A 
ATOM      7 Cl   UNL d   1      -1.941  -2.642   0.402  0.00  0.00    -0.070 Cl
ATOM      8 Cl1  UNL d   1      -4.473  -0.607   0.605  0.00  0.00    -0.070 Cl
ENDROOT
TORSDOF 0
ENDMDL
