MODEL 1
REMARK minimizedAffinity 5.15737534
REMARK minimizedRMSD -1
REMARK  0 active torsions:
REMARK  status: ('A' for Active; 'I' for Inactive)
ROOT
ATOM      1  C   UNL d   1       1.352  -0.027   0.787  0.00  0.00     0.020 A 
ATOM      2  C1  UNL d   1       0.531   0.640   1.695  0.00  0.00     0.020 A 
ATOM      3  C2  UNL d   1      -0.754   1.036   1.315  0.00  0.00     0.034 A 
ATOM      4  C3  UNL d   1      -1.221   0.764   0.023  0.00  0.00     0.017 A 
ATOM      5  C4  UNL d   1      -0.395   0.094  -0.887  0.00  0.00     0.017 A 
ATOM      6  C5  UNL d   1       0.890  -0.299  -0.502  0.00  0.00     0.034 A 
ATOM      7 Cl   UNL d   1      -0.902  -0.276  -2.498  0.00  0.00    -0.070 Cl
ATOM      8 Cl1  UNL d   1      -2.819   1.282  -0.378  0.00  0.00    -0.070 Cl
ENDROOT
TORSDOF 0
ENDMDL
