MODEL 1
REMARK minimizedAffinity 6.60704088
REMARK minimizedRMSD -1
REMARK  0 active torsions:
REMARK  status: ('A' for Active; 'I' for Inactive)
ROOT
ATOM      1  C   UNL d   1       2.469   2.664   3.519  0.00  0.00     0.020 A 
ATOM      2  C1  UNL d   1       3.345   2.201   4.499  0.00  0.00     0.020 A 
ATOM      3  C2  UNL d   1       3.701   0.851   4.538  0.00  0.00     0.034 A 
ATOM      4  C3  UNL d   1       3.179  -0.041   3.593  0.00  0.00     0.017 A 
ATOM      5  C4  UNL d   1       2.300   0.425   2.609  0.00  0.00     0.017 A 
ATOM      6  C5  UNL d   1       1.947   1.777   2.575  0.00  0.00     0.034 A 
ATOM      7 Cl   UNL d   1       1.616  -0.616   1.410  0.00  0.00    -0.070 Cl
ATOM      8 Cl1  UNL d   1       3.662  -1.696   3.700  0.00  0.00    -0.070 Cl
ENDROOT
TORSDOF 0
ENDMDL
