MODEL 1
REMARK minimizedAffinity 4.73613977
REMARK minimizedRMSD -1
REMARK  0 active torsions:
REMARK  status: ('A' for Active; 'I' for Inactive)
ROOT
ATOM      1  C   UNL d   1       2.730   2.646   0.542  0.00  0.00     0.078 C 
ATOM      2  C1  UNL d   1       2.280   2.019  -0.744  0.00  0.00    -0.077 A 
ATOM      3  C2  UNL d   1       2.476   2.667  -1.970  0.00  0.00    -0.001 A 
ATOM      4  C3  UNL d   1       2.043   2.076  -3.157  0.00  0.00     0.003 A 
ATOM      5  C4  UNL d   1       1.409   0.834  -3.131  0.00  0.00    -0.005 A 
ATOM      6  C5  UNL d   1       1.208   0.183  -1.916  0.00  0.00     0.003 A 
ATOM      7  C6  UNL d   1       1.640   0.773  -0.727  0.00  0.00    -0.001 A 
ENDROOT
TORSDOF 0
ENDMDL
