MODEL 1
REMARK minimizedAffinity -1.4151547
REMARK minimizedRMSD -1
REMARK  0 active torsions:
REMARK  status: ('A' for Active; 'I' for Inactive)
ROOT
ATOM      1  C   UNL d   1       2.250  -1.325  -0.253  0.00  0.00     0.078 C 
ATOM      2  C1  UNL d   1       2.125  -0.063  -1.053  0.00  0.00    -0.077 A 
ATOM      3  C2  UNL d   1       1.780   1.148  -0.441  0.00  0.00    -0.001 A 
ATOM      4  C3  UNL d   1       1.658   2.313  -1.199  0.00  0.00     0.003 A 
ATOM      5  C4  UNL d   1       1.877   2.279  -2.575  0.00  0.00    -0.005 A 
ATOM      6  C5  UNL d   1       2.218   1.078  -3.194  0.00  0.00     0.003 A 
ATOM      7  C6  UNL d   1       2.341  -0.088  -2.437  0.00  0.00    -0.001 A 
ENDROOT
TORSDOF 0
ENDMDL
