MODEL 1
REMARK minimizedAffinity 3.14757609
REMARK minimizedRMSD -1
REMARK  0 active torsions:
REMARK  status: ('A' for Active; 'I' for Inactive)
ROOT
ATOM      1  C   UNL d   1      -0.457  -3.619   3.008  0.00  0.00     0.078 C 
ATOM      2  C1  UNL d   1       0.159  -2.252   2.988  0.00  0.00    -0.077 A 
ATOM      3  C2  UNL d   1       1.548  -2.088   2.928  0.00  0.00    -0.001 A 
ATOM      4  C3  UNL d   1       2.108  -0.810   2.920  0.00  0.00     0.003 A 
ATOM      5  C4  UNL d   1       1.287   0.314   2.974  0.00  0.00    -0.005 A 
ATOM      6  C5  UNL d   1      -0.097   0.161   3.037  0.00  0.00     0.003 A 
ATOM      7  C6  UNL d   1      -0.659  -1.117   3.045  0.00  0.00    -0.001 A 
ENDROOT
TORSDOF 0
ENDMDL
