MODEL 1
REMARK minimizedAffinity 1.71007764
REMARK minimizedRMSD -1
REMARK  0 active torsions:
REMARK  status: ('A' for Active; 'I' for Inactive)
ROOT
ATOM      1  C   UNL d   1       1.072  -1.448   2.026  0.00  0.00     0.078 C 
ATOM      2  C1  UNL d   1      -0.169  -0.692   2.396  0.00  0.00    -0.077 A 
ATOM      3  C2  UNL d   1      -1.371  -0.899   1.709  0.00  0.00    -0.001 A 
ATOM      4  C3  UNL d   1      -2.516  -0.181   2.058  0.00  0.00     0.003 A 
ATOM      5  C4  UNL d   1      -2.469   0.750   3.094  0.00  0.00    -0.005 A 
ATOM      6  C5  UNL d   1      -1.277   0.965   3.781  0.00  0.00     0.003 A 
ATOM      7  C6  UNL d   1      -0.131   0.248   3.434  0.00  0.00    -0.001 A 
ENDROOT
TORSDOF 0
ENDMDL
