MODEL 1
REMARK minimizedAffinity 0.966296017
REMARK minimizedRMSD -1
REMARK  0 active torsions:
REMARK  status: ('A' for Active; 'I' for Inactive)
ROOT
ATOM      1  C   UNL d   1       2.777  -2.739   0.771  0.00  0.00    -0.002 A 
ATOM      2  C1  UNL d   1       2.834  -2.097  -0.458  0.00  0.00     0.010 A 
ATOM      3  C2  UNL d   1       1.970  -1.039  -0.747  0.00  0.00     0.041 A 
ATOM      4  C3  UNL d   1       1.039  -0.633   0.229  0.00  0.00    -0.075 A 
ATOM      5  S   UNL d   1      -0.118   0.639   0.098  0.00  0.00     0.015 SA
ATOM      6  C4  UNL d   1      -0.715   0.360   1.669  0.00  0.00     0.022 A 
ATOM      7  C5  UNL d   1      -0.059  -0.675   2.294  0.00  0.00     0.026 A 
ATOM      8  C6  UNL d   1       0.963  -1.264   1.474  0.00  0.00    -0.082 A 
ATOM      9  C7  UNL d   1       1.852  -2.333   1.737  0.00  0.00     0.045 A 
ENDROOT
TORSDOF 0
ENDMDL
