MODEL 1
REMARK minimizedAffinity -1.73018265
REMARK minimizedRMSD -1
REMARK  0 active torsions:
REMARK  status: ('A' for Active; 'I' for Inactive)
ROOT
ATOM      1  C   UNL d   1      -0.406  -0.037   2.222  0.00  0.00    -0.002 A 
ATOM      2  C1  UNL d   1       0.380  -1.146   1.940  0.00  0.00     0.010 A 
ATOM      3  C2  UNL d   1       0.704  -1.470   0.621  0.00  0.00     0.041 A 
ATOM      4  C3  UNL d   1       0.221  -0.653  -0.420  0.00  0.00    -0.075 A 
ATOM      5  S   UNL d   1       0.491  -0.856  -2.111  0.00  0.00     0.015 SA
ATOM      6  C4  UNL d   1      -0.430   0.525  -2.499  0.00  0.00     0.022 A 
ATOM      7  C5  UNL d   1      -0.938   1.138  -1.378  0.00  0.00     0.026 A 
ATOM      8  C6  UNL d   1      -0.571   0.469  -0.161  0.00  0.00    -0.082 A 
ATOM      9  C7  UNL d   1      -0.882   0.771   1.186  0.00  0.00     0.045 A 
ENDROOT
TORSDOF 0
ENDMDL
