MODEL 1
REMARK minimizedAffinity 12.0718842
REMARK minimizedRMSD -1
REMARK  0 active torsions:
REMARK  status: ('A' for Active; 'I' for Inactive)
ROOT
ATOM      1  C   UNL d   1      -1.728  -0.393   1.568  0.00  0.00    -0.002 A 
ATOM      2  C1  UNL d   1      -1.273   0.852   1.977  0.00  0.00     0.010 A 
ATOM      3  C2  UNL d   1      -0.143   1.424   1.389  0.00  0.00     0.041 A 
ATOM      4  C3  UNL d   1       0.526   0.718   0.370  0.00  0.00    -0.075 A 
ATOM      5  S   UNL d   1       1.930   1.222  -0.494  0.00  0.00     0.015 SA
ATOM      6  C4  UNL d   1       1.958  -0.203  -1.429  0.00  0.00     0.022 A 
ATOM      7  C5  UNL d   1       0.929  -1.054  -1.102  0.00  0.00     0.026 A 
ATOM      8  C6  UNL d   1       0.087  -0.537  -0.060  0.00  0.00    -0.082 A 
ATOM      9  C7  UNL d   1      -1.061  -1.091   0.557  0.00  0.00     0.045 A 
ENDROOT
TORSDOF 0
ENDMDL
