MODEL 1
REMARK minimizedAffinity 6.40662241
REMARK minimizedRMSD -1
REMARK  0 active torsions:
REMARK  status: ('A' for Active; 'I' for Inactive)
ROOT
ATOM      1  C   UNL d   1      -1.202  -0.558   1.424  0.00  0.00    -0.002 A 
ATOM      2  C1  UNL d   1      -0.983   0.694   1.982  0.00  0.00     0.010 A 
ATOM      3  C2  UNL d   1      -1.151   1.851   1.219  0.00  0.00     0.041 A 
ATOM      4  C3  UNL d   1      -1.550   1.728  -0.126  0.00  0.00    -0.075 A 
ATOM      5  S   UNL d   1      -1.820   3.006  -1.252  0.00  0.00     0.015 SA
ATOM      6  C4  UNL d   1      -2.234   1.920  -2.499  0.00  0.00     0.022 A 
ATOM      7  C5  UNL d   1      -2.173   0.611  -2.084  0.00  0.00     0.026 A 
ATOM      8  C6  UNL d   1      -1.778   0.478  -0.710  0.00  0.00    -0.082 A 
ATOM      9  C7  UNL d   1      -1.598  -0.676   0.089  0.00  0.00     0.045 A 
ENDROOT
TORSDOF 0
ENDMDL
