MODEL 1
REMARK minimizedAffinity 1.65239608
REMARK minimizedRMSD -1
REMARK  0 active torsions:
REMARK  status: ('A' for Active; 'I' for Inactive)
ROOT
ATOM      1  C   UNL d   1       0.322  -0.498  -1.552  0.00  0.00    -0.002 A 
ATOM      2  C1  UNL d   1       1.504  -1.170  -1.274  0.00  0.00     0.010 A 
ATOM      3  C2  UNL d   1       1.771  -1.634   0.015  0.00  0.00     0.041 A 
ATOM      4  C3  UNL d   1       0.820  -1.410   1.030  0.00  0.00    -0.075 A 
ATOM      5  S   UNL d   1       0.932  -1.889   2.683  0.00  0.00     0.015 SA
ATOM      6  C4  UNL d   1      -0.587  -1.214   3.059  0.00  0.00     0.022 A 
ATOM      7  C5  UNL d   1      -1.179  -0.633   1.962  0.00  0.00     0.026 A 
ATOM      8  C6  UNL d   1      -0.378  -0.737   0.775  0.00  0.00    -0.082 A 
ATOM      9  C7  UNL d   1      -0.619  -0.279  -0.543  0.00  0.00     0.045 A 
ENDROOT
TORSDOF 0
ENDMDL
