MODEL 1
REMARK minimizedAffinity -1.38647008
REMARK minimizedRMSD -1
REMARK  0 active torsions:
REMARK  status: ('A' for Active; 'I' for Inactive)
ROOT
ATOM      1  C4' PXY d   1      -2.901  -0.043   0.134  0.00  0.00     0.077 C 
ATOM      2  C1' PXY d   1       2.750  -0.382   1.301  0.00  0.00     0.077 C 
ATOM      3  C1  PXY d   1       1.266  -0.290   1.007  0.00  0.00    -0.082 A 
ATOM      4  C2  PXY d   1       0.757  -0.963  -0.013  0.00  0.00     0.003 A 
ATOM      5  C3  PXY d   1      -0.577  -0.865  -0.312  0.00  0.00     0.003 A 
ATOM      6  C4  PXY d   1      -1.410  -0.114   0.474  0.00  0.00    -0.082 A 
ATOM      7  C5  PXY d   1      -0.901   0.567   1.522  0.00  0.00     0.003 A 
ATOM      8  C6  PXY d   1       0.464   0.487   1.784  0.00  0.00     0.003 A 
ENDROOT
TORSDOF 0
ENDMDL
