MODEL 1
REMARK minimizedAffinity 5.7212739
REMARK minimizedRMSD -1
REMARK  0 active torsions:
REMARK  status: ('A' for Active; 'I' for Inactive)
ROOT
ATOM      1  C4' PXY d   1      -2.889   0.658  -0.483  0.00  0.00     0.077 C 
ATOM      2  C1' PXY d   1       2.365  -1.005   1.263  0.00  0.00     0.077 C 
ATOM      3  C1  PXY d   1       0.993  -0.558   0.799  0.00  0.00    -0.082 A 
ATOM      4  C2  PXY d   1      -0.085  -0.988   1.436  0.00  0.00     0.003 A 
ATOM      5  C3  PXY d   1      -1.335  -0.620   1.011  0.00  0.00     0.003 A 
ATOM      6  C4  PXY d   1      -1.482   0.241  -0.044  0.00  0.00    -0.082 A 
ATOM      7  C5  PXY d   1      -0.388   0.692  -0.692  0.00  0.00     0.003 A 
ATOM      8  C6  PXY d   1       0.871   0.274  -0.271  0.00  0.00     0.003 A 
ENDROOT
TORSDOF 0
ENDMDL
