MODEL 1
REMARK minimizedAffinity 4.63486385
REMARK minimizedRMSD -1
REMARK  0 active torsions:
REMARK  status: ('A' for Active; 'I' for Inactive)
ROOT
ATOM      1  C4' PXY d   1       2.267  -0.244  -0.341  0.00  0.00     0.077 C 
ATOM      2  C1' PXY d   1      -3.428   0.720  -0.111  0.00  0.00     0.077 C 
ATOM      3  C1  PXY d   1      -1.937   0.456  -0.165  0.00  0.00    -0.082 A 
ATOM      4  C2  PXY d   1      -1.093   1.474  -0.222  0.00  0.00     0.003 A 
ATOM      5  C3  PXY d   1       0.257   1.252  -0.304  0.00  0.00     0.003 A 
ATOM      6  C4  PXY d   1       0.753  -0.024  -0.275  0.00  0.00    -0.082 A 
ATOM      7  C5  PXY d   1      -0.100  -1.068  -0.207  0.00  0.00     0.003 A 
ATOM      8  C6  PXY d   1      -1.470  -0.822  -0.166  0.00  0.00     0.003 A 
ENDROOT
TORSDOF 0
ENDMDL
