MODEL 1
REMARK minimizedAffinity -2.31688023
REMARK minimizedRMSD -1
REMARK  0 active torsions:
REMARK  status: ('A' for Active; 'I' for Inactive)
ROOT
ATOM      1  C4' PXY d   1      -1.554   1.872  -0.579  0.00  0.00     0.077 C 
ATOM      2  C1' PXY d   1       1.608  -0.767   3.478  0.00  0.00     0.077 C 
ATOM      3  C1  PXY d   1       0.768  -0.079   2.420  0.00  0.00    -0.082 A 
ATOM      4  C2  PXY d   1       1.308   0.222   1.250  0.00  0.00     0.003 A 
ATOM      5  C3  PXY d   1       0.572   0.873   0.293  0.00  0.00     0.003 A 
ATOM      6  C4  PXY d   1      -0.746   1.169   0.516  0.00  0.00    -0.082 A 
ATOM      7  C5  PXY d   1      -1.307   0.855   1.703  0.00  0.00     0.003 A 
ATOM      8  C6  PXY d   1      -0.532   0.232   2.676  0.00  0.00     0.003 A 
ENDROOT
TORSDOF 0
ENDMDL
