MODEL 1
REMARK minimizedAffinity -3.88449049
REMARK minimizedRMSD -1
REMARK  0 active torsions:
REMARK  status: ('A' for Active; 'I' for Inactive)
ROOT
ATOM      1  C4' PXY d   1       0.391  -0.760  -2.418  0.00  0.00     0.077 C 
ATOM      2  C1' PXY d   1      -1.049   0.795   2.960  0.00  0.00     0.077 C 
ATOM      3  C1  PXY d   1      -0.659   0.392   1.552  0.00  0.00    -0.082 A 
ATOM      4  C2  PXY d   1      -1.595   0.266   0.625  0.00  0.00     0.003 A 
ATOM      5  C3  PXY d   1      -1.264  -0.129  -0.646  0.00  0.00     0.003 A 
ATOM      6  C4  PXY d   1       0.045  -0.346  -0.985  0.00  0.00    -0.082 A 
ATOM      7  C5  PXY d   1       1.006  -0.210  -0.047  0.00  0.00     0.003 A 
ATOM      8  C6  PXY d   1       0.645   0.152   1.247  0.00  0.00     0.003 A 
ENDROOT
TORSDOF 0
ENDMDL
