MODEL 1
REMARK minimizedAffinity -0.89498961
REMARK minimizedRMSD -1
REMARK  0 active torsions:
REMARK  status: ('A' for Active; 'I' for Inactive)
ROOT
ATOM      1  C4' PXY d   1       2.862  -1.070   0.758  0.00  0.00     0.077 C 
ATOM      2  C1' PXY d   1      -2.615   0.431  -0.321  0.00  0.00     0.077 C 
ATOM      3  C1  PXY d   1      -1.178   0.030  -0.049  0.00  0.00    -0.082 A 
ATOM      4  C2  PXY d   1      -0.714   0.061   1.189  0.00  0.00     0.003 A 
ATOM      5  C3  PXY d   1       0.592  -0.268   1.449  0.00  0.00     0.003 A 
ATOM      6  C4  PXY d   1       1.416  -0.683   0.438  0.00  0.00    -0.082 A 
ATOM      7  C5  PXY d   1       0.946  -0.727  -0.827  0.00  0.00     0.003 A 
ATOM      8  C6  PXY d   1      -0.370  -0.350  -1.076  0.00  0.00     0.003 A 
ENDROOT
TORSDOF 0
ENDMDL
