MODEL 1
REMARK minimizedAffinity 4.0270257
REMARK minimizedRMSD -1
REMARK  0 active torsions:
REMARK  status: ('A' for Active; 'I' for Inactive)
ROOT
ATOM      1  C4' PXY d   1       2.398  -0.744   1.646  0.00  0.00     0.077 C 
ATOM      2  C1' PXY d   1      -2.990   0.510  -0.030  0.00  0.00     0.077 C 
ATOM      3  C1  PXY d   1      -1.575   0.175   0.398  0.00  0.00    -0.082 A 
ATOM      4  C2  PXY d   1      -1.285   0.086   1.686  0.00  0.00     0.003 A 
ATOM      5  C3  PXY d   1      -0.003  -0.184   2.091  0.00  0.00     0.003 A 
ATOM      6  C4  PXY d   1       0.980  -0.418   1.168  0.00  0.00    -0.082 A 
ATOM      7  C5  PXY d   1       0.690  -0.339  -0.148  0.00  0.00     0.003 A 
ATOM      8  C6  PXY d   1      -0.608  -0.023  -0.539  0.00  0.00     0.003 A 
ENDROOT
TORSDOF 0
ENDMDL
