MODEL 1
REMARK minimizedAffinity -0.821351826
REMARK minimizedRMSD -1
REMARK  0 active torsions:
REMARK  status: ('A' for Active; 'I' for Inactive)
ROOT
ATOM      1  C4' PXY d   1       0.387  -0.131  -3.116  0.00  0.00     0.077 C 
ATOM      2  C1' PXY d   1      -1.717   0.341   2.248  0.00  0.00     0.077 C 
ATOM      3  C1  PXY d   1      -1.154   0.222   0.845  0.00  0.00    -0.082 A 
ATOM      4  C2  PXY d   1      -1.975   0.229  -0.192  0.00  0.00     0.003 A 
ATOM      5  C3  PXY d   1      -1.485   0.090  -1.465  0.00  0.00     0.003 A 
ATOM      6  C4  PXY d   1      -0.136  -0.004  -1.682  0.00  0.00    -0.082 A 
ATOM      7  C5  PXY d   1       0.709  -0.001  -0.630  0.00  0.00     0.003 A 
ATOM      8  C6  PXY d   1       0.189   0.099   0.657  0.00  0.00     0.003 A 
ENDROOT
TORSDOF 0
ENDMDL
