MODEL 1
REMARK minimizedAffinity 4.28306341
REMARK minimizedRMSD -1
REMARK  0 active torsions:
REMARK  status: ('A' for Active; 'I' for Inactive)
ROOT
ATOM      1  C4' PXY d   1       2.592   2.467  -0.357  0.00  0.00     0.077 C 
ATOM      2  C1' PXY d   1      -0.074   0.469  -5.081  0.00  0.00     0.077 C 
ATOM      3  C1  PXY d   1       0.614   0.993  -3.836  0.00  0.00    -0.082 A 
ATOM      4  C2  PXY d   1       1.759   1.646  -3.947  0.00  0.00     0.003 A 
ATOM      5  C3  PXY d   1       2.411   2.099  -2.828  0.00  0.00     0.003 A 
ATOM      6  C4  PXY d   1       1.857   1.929  -1.588  0.00  0.00    -0.082 A 
ATOM      7  C5  PXY d   1       0.683   1.273  -1.467  0.00  0.00     0.003 A 
ATOM      8  C6  PXY d   1       0.059   0.785  -2.611  0.00  0.00     0.003 A 
ENDROOT
TORSDOF 0
ENDMDL
