MODEL 1
REMARK minimizedAffinity -0.350855887
REMARK minimizedRMSD -1
REMARK  0 active torsions:
REMARK  status: ('A' for Active; 'I' for Inactive)
ROOT
ATOM      1  C4' PXY d   1       0.736   1.150  -4.482  0.00  0.00     0.077 C 
ATOM      2  C1' PXY d   1       1.578  -0.781   0.902  0.00  0.00     0.077 C 
ATOM      3  C1  PXY d   1       1.364  -0.264  -0.507  0.00  0.00    -0.082 A 
ATOM      4  C2  PXY d   1       0.304  -0.656  -1.195  0.00  0.00     0.003 A 
ATOM      5  C3  PXY d   1       0.112  -0.224  -2.482  0.00  0.00     0.003 A 
ATOM      6  C4  PXY d   1       0.987   0.662  -3.052  0.00  0.00    -0.082 A 
ATOM      7  C5  PXY d   1       2.066   1.075  -2.354  0.00  0.00     0.003 A 
ATOM      8  C6  PXY d   1       2.264   0.592  -1.064  0.00  0.00     0.003 A 
ENDROOT
TORSDOF 0
ENDMDL
