MODEL 1
REMARK minimizedAffinity -3.99588561
REMARK minimizedRMSD -1
REMARK  0 active torsions:
REMARK  status: ('A' for Active; 'I' for Inactive)
ROOT
ATOM      1  C4' PXY d   1       0.334  -0.768  -1.969  0.00  0.00     0.077 C 
ATOM      2  C1' PXY d   1       0.348   0.102   3.746  0.00  0.00     0.077 C 
ATOM      3  C1  PXY d   1       0.331  -0.125   2.247  0.00  0.00    -0.082 A 
ATOM      4  C2  PXY d   1       1.346  -0.747   1.668  0.00  0.00     0.003 A 
ATOM      5  C3  PXY d   1       1.362  -0.933   0.310  0.00  0.00     0.003 A 
ATOM      6  C4  PXY d   1       0.304  -0.525  -0.457  0.00  0.00    -0.082 A 
ATOM      7  C5  PXY d   1      -0.740   0.101   0.127  0.00  0.00     0.003 A 
ATOM      8  C6  PXY d   1      -0.718   0.316   1.502  0.00  0.00     0.003 A 
ENDROOT
TORSDOF 0
ENDMDL
