MODEL 1
REMARK minimizedAffinity -5.87628269
REMARK minimizedRMSD -1
REMARK  0 active torsions:
REMARK  status: ('A' for Active; 'I' for Inactive)
ROOT
ATOM      1  C4' PXY d   1       0.418  -0.739  -1.286  0.00  0.00     0.077 C 
ATOM      2  C1' PXY d   1      -0.084   1.292   4.103  0.00  0.00     0.077 C 
ATOM      3  C1  PXY d   1       0.035   0.758   2.689  0.00  0.00    -0.082 A 
ATOM      4  C2  PXY d   1       1.175   0.222   2.286  0.00  0.00     0.003 A 
ATOM      5  C3  PXY d   1       1.310  -0.237   1.001  0.00  0.00     0.003 A 
ATOM      6  C4  PXY d   1       0.250  -0.196   0.136  0.00  0.00    -0.082 A 
ATOM      7  C5  PXY d   1      -0.920   0.340   0.543  0.00  0.00     0.003 A 
ATOM      8  C6  PXY d   1      -1.024   0.838   1.838  0.00  0.00     0.003 A 
ENDROOT
TORSDOF 0
ENDMDL
