MODEL 1
REMARK minimizedAffinity -5.20112419
REMARK minimizedRMSD -1
REMARK  0 active torsions:
REMARK  status: ('A' for Active; 'I' for Inactive)
ROOT
ATOM      1  C4' PXY d   1       0.211  -0.686  -1.127  0.00  0.00     0.077 C 
ATOM      2  C1' PXY d   1       0.079   1.207   4.333  0.00  0.00     0.077 C 
ATOM      3  C1  PXY d   1       0.101   0.711   2.901  0.00  0.00    -0.082 A 
ATOM      4  C2  PXY d   1       1.135   0.009   2.467  0.00  0.00     0.003 A 
ATOM      5  C3  PXY d   1       1.185  -0.420   1.166  0.00  0.00     0.003 A 
ATOM      6  C4  PXY d   1       0.142  -0.173   0.314  0.00  0.00    -0.082 A 
ATOM      7  C5  PXY d   1      -0.921   0.534   0.752  0.00  0.00     0.003 A 
ATOM      8  C6  PXY d   1      -0.935   0.996   2.065  0.00  0.00     0.003 A 
ENDROOT
TORSDOF 0
ENDMDL
