MODEL 1
REMARK minimizedAffinity -3.2844646
REMARK minimizedRMSD -1
REMARK  3 active torsions:
REMARK  status: ('A' for Active; 'I' for Inactive)
REMARK    1  A    between atoms: C3'_2  and  C2'_3 
REMARK    2  A    between atoms: C2'_3  and  C1'_4 
REMARK    3  A    between atoms: C1'_4  and  C1_5 
ROOT
ATOM      1  C1  N4B d   1       0.694  -1.957  -1.080  0.00  0.00    -0.075 A 
ATOM      2  C2  N4B d   1       1.053  -3.195  -0.503  0.00  0.00     0.002 A 
ATOM      3  C3  N4B d   1       0.527  -4.362  -1.001  0.00  0.00     0.002 A 
ATOM      4  C4  N4B d   1      -0.371  -4.315  -2.057  0.00  0.00    -0.004 A 
ATOM      5  C5  N4B d   1      -0.693  -3.117  -2.624  0.00  0.00     0.002 A 
ATOM      6  C6  N4B d   1      -0.169  -1.936  -2.137  0.00  0.00     0.002 A 
ENDROOT
BRANCH   1   7
ATOM      7  C1' N4B d   1       1.176  -0.649  -0.515  0.00  0.00     0.057 C 
BRANCH   7   8
ATOM      8  C2' N4B d   1      -0.022   0.152  -0.013  0.00  0.00     0.009 C 
BRANCH   8   9
ATOM      9  C3' N4B d   1      -0.386  -0.207   1.417  0.00  0.00     0.004 C 
ATOM     10  C4' N4B d   1      -1.421   0.709   2.000  0.00  0.00     0.003 C 
ENDBRANCH   8   9
ENDBRANCH   7   8
ENDBRANCH   1   7
TORSDOF 3
ENDMDL
