MODEL 1
REMARK minimizedAffinity -3.39733458
REMARK minimizedRMSD -1
REMARK  3 active torsions:
REMARK  status: ('A' for Active; 'I' for Inactive)
REMARK    1  A    between atoms: C3'_2  and  C2'_3 
REMARK    2  A    between atoms: C2'_3  and  C1'_4 
REMARK    3  A    between atoms: C1'_4  and  C1_5 
ROOT
ATOM      1  C1  N4B d   1       0.684  -1.288  -1.211  0.00  0.00    -0.075 A 
ATOM      2  C2  N4B d   1       1.054  -2.579  -0.775  0.00  0.00     0.002 A 
ATOM      3  C3  N4B d   1       0.871  -3.661  -1.602  0.00  0.00     0.002 A 
ATOM      4  C4  N4B d   1       0.306  -3.479  -2.855  0.00  0.00    -0.004 A 
ATOM      5  C5  N4B d   1      -0.025  -2.225  -3.278  0.00  0.00     0.002 A 
ATOM      6  C6  N4B d   1       0.156  -1.128  -2.459  0.00  0.00     0.002 A 
ENDROOT
BRANCH   1   7
ATOM      7  C1' N4B d   1       0.785  -0.087  -0.310  0.00  0.00     0.057 C 
BRANCH   7   8
ATOM      8  C2' N4B d   1       0.479  -0.509   1.124  0.00  0.00     0.009 C 
BRANCH   8   9
ATOM      9  C3' N4B d   1      -0.870   0.007   1.593  0.00  0.00     0.004 C 
ATOM     10  C4' N4B d   1      -0.855   1.475   1.900  0.00  0.00     0.003 C 
ENDBRANCH   8   9
ENDBRANCH   7   8
ENDBRANCH   1   7
TORSDOF 3
ENDMDL
