MODEL 1
REMARK minimizedAffinity -3.60839677
REMARK minimizedRMSD -1
REMARK  3 active torsions:
REMARK  status: ('A' for Active; 'I' for Inactive)
REMARK    1  A    between atoms: C3'_2  and  C2'_3 
REMARK    2  A    between atoms: C2'_3  and  C1'_4 
REMARK    3  A    between atoms: C1'_4  and  C1_5 
ROOT
ATOM      1  C1  N4B d   1      -0.571   1.178   0.441  0.00  0.00    -0.075 A 
ATOM      2  C2  N4B d   1      -0.054   1.997  -0.587  0.00  0.00     0.002 A 
ATOM      3  C3  N4B d   1      -0.158   3.363  -0.493  0.00  0.00     0.002 A 
ATOM      4  C4  N4B d   1      -0.788   3.930   0.605  0.00  0.00    -0.004 A 
ATOM      5  C5  N4B d   1      -1.262   3.132   1.605  0.00  0.00     0.002 A 
ATOM      6  C6  N4B d   1      -1.161   1.758   1.526  0.00  0.00     0.002 A 
ENDROOT
BRANCH   1   7
ATOM      7  C1' N4B d   1      -0.558  -0.323   0.342  0.00  0.00     0.057 C 
BRANCH   7   8
ATOM      8  C2' N4B d   1       0.780  -0.776  -0.233  0.00  0.00     0.009 C 
BRANCH   8   9
ATOM      9  C3' N4B d   1       0.603  -1.688  -1.434  0.00  0.00     0.004 C 
ATOM     10  C4' N4B d   1       1.661  -2.748  -1.520  0.00  0.00     0.003 C 
ENDBRANCH   8   9
ENDBRANCH   7   8
ENDBRANCH   1   7
TORSDOF 3
ENDMDL
