MODEL 1
REMARK minimizedAffinity -2.01296353
REMARK minimizedRMSD -1
REMARK  3 active torsions:
REMARK  status: ('A' for Active; 'I' for Inactive)
REMARK    1  A    between atoms: C3'_2  and  C2'_3 
REMARK    2  A    between atoms: C2'_3  and  C1'_4 
REMARK    3  A    between atoms: C1'_4  and  C1_5 
ROOT
ATOM      1  C1  N4B d   1       0.899  -0.187   0.391  0.00  0.00    -0.075 A 
ATOM      2  C2  N4B d   1       0.144   0.988   0.181  0.00  0.00     0.002 A 
ATOM      3  C3  N4B d   1      -0.692   1.452   1.167  0.00  0.00     0.002 A 
ATOM      4  C4  N4B d   1      -0.803   0.751   2.359  0.00  0.00    -0.004 A 
ATOM      5  C5  N4B d   1      -0.051  -0.369   2.563  0.00  0.00     0.002 A 
ATOM      6  C6  N4B d   1       0.796  -0.845   1.583  0.00  0.00     0.002 A 
ENDROOT
BRANCH   1   7
ATOM      7  C1' N4B d   1       1.761  -0.781  -0.689  0.00  0.00     0.057 C 
BRANCH   7   8
ATOM      8  C2' N4B d   1       1.427  -2.262  -0.839  0.00  0.00     0.009 C 
BRANCH   8   9
ATOM      9  C3' N4B d   1       0.861  -2.581  -2.212  0.00  0.00     0.004 C 
ATOM     10  C4' N4B d   1      -0.450  -3.305  -2.145  0.00  0.00     0.003 C 
ENDBRANCH   8   9
ENDBRANCH   7   8
ENDBRANCH   1   7
TORSDOF 3
ENDMDL
