MODEL 1
REMARK minimizedAffinity -0.991743624
REMARK minimizedRMSD -1
REMARK  3 active torsions:
REMARK  status: ('A' for Active; 'I' for Inactive)
REMARK    1  A    between atoms: C3'_2  and  C2'_3 
REMARK    2  A    between atoms: C2'_3  and  C1'_4 
REMARK    3  A    between atoms: C1'_4  and  C1_5 
ROOT
ATOM      1  C1  N4B d   1       0.822  -1.662  -1.537  0.00  0.00    -0.075 A 
ATOM      2  C2  N4B d   1       0.092  -1.855  -2.730  0.00  0.00     0.002 A 
ATOM      3  C3  N4B d   1      -0.023  -3.113  -3.268  0.00  0.00     0.002 A 
ATOM      4  C4  N4B d   1       0.595  -4.186  -2.643  0.00  0.00    -0.004 A 
ATOM      5  C5  N4B d   1       1.277  -3.995  -1.477  0.00  0.00     0.002 A 
ATOM      6  C6  N4B d   1       1.397  -2.737  -0.923  0.00  0.00     0.002 A 
ENDROOT
BRANCH   1   7
ATOM      7  C1' N4B d   1       1.048  -0.292  -0.957  0.00  0.00     0.057 C 
BRANCH   7   8
ATOM      8  C2' N4B d   1      -0.186   0.125  -0.161  0.00  0.00     0.009 C 
BRANCH   8   9
ATOM      9  C3' N4B d   1      -0.068  -0.249   1.306  0.00  0.00     0.004 C 
ATOM     10  C4' N4B d   1      -1.361  -0.743   1.885  0.00  0.00     0.003 C 
ENDBRANCH   8   9
ENDBRANCH   7   8
ENDBRANCH   1   7
TORSDOF 3
ENDMDL
