MODEL 1
REMARK minimizedAffinity -2.8355298
REMARK minimizedRMSD -1
REMARK  3 active torsions:
REMARK  status: ('A' for Active; 'I' for Inactive)
REMARK    1  A    between atoms: C3'_2  and  C2'_3 
REMARK    2  A    between atoms: C2'_3  and  C1'_4 
REMARK    3  A    between atoms: C1'_4  and  C1_5 
ROOT
ATOM      1  C1  N4B d   1      -0.122   0.474   0.686  0.00  0.00    -0.075 A 
ATOM      2  C2  N4B d   1      -0.692   0.794   1.937  0.00  0.00     0.002 A 
ATOM      3  C3  N4B d   1      -0.970   2.102   2.250  0.00  0.00     0.002 A 
ATOM      4  C4  N4B d   1      -0.670   3.104   1.339  0.00  0.00    -0.004 A 
ATOM      5  C5  N4B d   1      -0.143   2.783   0.122  0.00  0.00     0.002 A 
ATOM      6  C6  N4B d   1       0.138   1.472  -0.207  0.00  0.00     0.002 A 
ENDROOT
BRANCH   1   7
ATOM      7  C1' N4B d   1       0.278  -0.933   0.333  0.00  0.00     0.057 C 
BRANCH   7   8
ATOM      8  C2' N4B d   1       1.094  -0.913  -0.956  0.00  0.00     0.009 C 
BRANCH   8   9
ATOM      9  C3' N4B d   1       1.234  -2.299  -1.562  0.00  0.00     0.004 C 
ATOM     10  C4' N4B d   1       0.769  -2.360  -2.987  0.00  0.00     0.003 C 
ENDBRANCH   8   9
ENDBRANCH   7   8
ENDBRANCH   1   7
TORSDOF 3
ENDMDL
