MODEL 1
REMARK minimizedAffinity -5.43256378
REMARK minimizedRMSD -1
REMARK  3 active torsions:
REMARK  status: ('A' for Active; 'I' for Inactive)
REMARK    1  A    between atoms: C3'_2  and  C2'_3 
REMARK    2  A    between atoms: C2'_3  and  C1'_4 
REMARK    3  A    between atoms: C1'_4  and  C1_5 
ROOT
ATOM      1  C1  N4B d   1       0.812  -1.638  -1.317  0.00  0.00    -0.075 A 
ATOM      2  C2  N4B d   1       1.538  -2.821  -1.060  0.00  0.00     0.002 A 
ATOM      3  C3  N4B d   1       1.105  -4.018  -1.576  0.00  0.00     0.002 A 
ATOM      4  C4  N4B d   1      -0.056  -4.059  -2.332  0.00  0.00    -0.004 A 
ATOM      5  C5  N4B d   1      -0.738  -2.907  -2.597  0.00  0.00     0.002 A 
ATOM      6  C6  N4B d   1      -0.313  -1.697  -2.088  0.00  0.00     0.002 A 
ENDROOT
BRANCH   1   7
ATOM      7  C1' N4B d   1       1.198  -0.320  -0.703  0.00  0.00     0.057 C 
BRANCH   7   8
ATOM      8  C2' N4B d   1       0.008   0.241   0.070  0.00  0.00     0.009 C 
BRANCH   8   9
ATOM      9  C3' N4B d   1      -0.012  -0.239   1.511  0.00  0.00     0.004 C 
ATOM     10  C4' N4B d   1      -1.368  -0.130   2.141  0.00  0.00     0.003 C 
ENDBRANCH   8   9
ENDBRANCH   7   8
ENDBRANCH   1   7
TORSDOF 3
ENDMDL
