MODEL 1
REMARK minimizedAffinity -4.40998316
REMARK minimizedRMSD -1
REMARK  3 active torsions:
REMARK  status: ('A' for Active; 'I' for Inactive)
REMARK    1  A    between atoms: C3'_2  and  C2'_3 
REMARK    2  A    between atoms: C2'_3  and  C1'_4 
REMARK    3  A    between atoms: C1'_4  and  C1_5 
ROOT
ATOM      1  C1  N4B d   1       0.120  -0.089  -0.179  0.00  0.00    -0.075 A 
ATOM      2  C2  N4B d   1      -0.571  -0.667   0.908  0.00  0.00     0.002 A 
ATOM      3  C3  N4B d   1      -1.067   0.131   1.910  0.00  0.00     0.002 A 
ATOM      4  C4  N4B d   1      -0.868   1.502   1.856  0.00  0.00    -0.004 A 
ATOM      5  C5  N4B d   1      -0.221   2.056   0.790  0.00  0.00     0.002 A 
ATOM      6  C6  N4B d   1       0.279   1.266  -0.226  0.00  0.00     0.002 A 
ENDROOT
BRANCH   1   7
ATOM      7  C1' N4B d   1       0.755  -0.928  -1.254  0.00  0.00     0.057 C 
BRANCH   7   8
ATOM      8  C2' N4B d   1      -0.308  -1.826  -1.880  0.00  0.00     0.009 C 
BRANCH   8   9
ATOM      9  C3' N4B d   1       0.258  -3.176  -2.288  0.00  0.00     0.004 C 
ATOM     10  C4' N4B d   1       1.527  -3.517  -1.565  0.00  0.00     0.003 C 
ENDBRANCH   8   9
ENDBRANCH   7   8
ENDBRANCH   1   7
TORSDOF 3
ENDMDL
