MODEL 1
REMARK minimizedAffinity -4.57196808
REMARK minimizedRMSD -1
REMARK  3 active torsions:
REMARK  status: ('A' for Active; 'I' for Inactive)
REMARK    1  A    between atoms: C3'_2  and  C2'_3 
REMARK    2  A    between atoms: C2'_3  and  C1'_4 
REMARK    3  A    between atoms: C1'_4  and  C1_5 
ROOT
ATOM      1  C1  N4B d   1       0.013   0.491   0.059  0.00  0.00    -0.075 A 
ATOM      2  C2  N4B d   1      -0.506  -0.287   1.117  0.00  0.00     0.002 A 
ATOM      3  C3  N4B d   1      -1.392   0.269   2.007  0.00  0.00     0.002 A 
ATOM      4  C4  N4B d   1      -1.756   1.600   1.872  0.00  0.00    -0.004 A 
ATOM      5  C5  N4B d   1      -1.269   2.338   0.833  0.00  0.00     0.002 A 
ATOM      6  C6  N4B d   1      -0.381   1.791  -0.072  0.00  0.00     0.002 A 
ENDROOT
BRANCH   1   7
ATOM      7  C1' N4B d   1       1.050  -0.048  -0.889  0.00  0.00     0.057 C 
BRANCH   7   8
ATOM      8  C2' N4B d   1       0.945  -1.570  -0.932  0.00  0.00     0.009 C 
BRANCH   8   9
ATOM      9  C3' N4B d   1       0.293  -2.058  -2.215  0.00  0.00     0.004 C 
ATOM     10  C4' N4B d   1      -0.132  -3.494  -2.140  0.00  0.00     0.003 C 
ENDBRANCH   8   9
ENDBRANCH   7   8
ENDBRANCH   1   7
TORSDOF 3
ENDMDL
