MODEL 1
REMARK minimizedAffinity 0.0255670957
REMARK minimizedRMSD -1
REMARK  0 active torsions:
REMARK  status: ('A' for Active; 'I' for Inactive)
ROOT
ATOM      1  C1  BNZ d   1      -1.504  -3.773  -1.628  0.00  0.00     0.000 A 
ATOM      2  C2  BNZ d   1      -0.779  -3.986  -2.770  0.00  0.00     0.000 A 
ATOM      3  C3  BNZ d   1       0.483  -3.478  -2.902  0.00  0.00     0.000 A 
ATOM      4  C4  BNZ d   1       1.003  -2.726  -1.911  0.00  0.00     0.000 A 
ATOM      5  C5  BNZ d   1       0.281  -2.495  -0.757  0.00  0.00     0.000 A 
ATOM      6  C6  BNZ d   1      -0.974  -3.040  -0.611  0.00  0.00     0.000 A 
ENDROOT
TORSDOF 0
ENDMDL
