MODEL 1
REMARK minimizedAffinity -0.522678018
REMARK minimizedRMSD -1
REMARK  0 active torsions:
REMARK  status: ('A' for Active; 'I' for Inactive)
ROOT
ATOM      1  C1  BNZ d   1       1.071   1.145   0.759  0.00  0.00     0.000 A 
ATOM      2  C2  BNZ d   1       2.361   1.498   1.052  0.00  0.00     0.000 A 
ATOM      3  C3  BNZ d   1       2.654   2.744   1.531  0.00  0.00     0.000 A 
ATOM      4  C4  BNZ d   1       1.664   3.648   1.677  0.00  0.00     0.000 A 
ATOM      5  C5  BNZ d   1       0.360   3.311   1.377  0.00  0.00     0.000 A 
ATOM      6  C6  BNZ d   1       0.063   2.043   0.932  0.00  0.00     0.000 A 
ENDROOT
TORSDOF 0
ENDMDL
