MODEL 1
REMARK minimizedAffinity -3.95069885
REMARK minimizedRMSD -1
REMARK  0 active torsions:
REMARK  status: ('A' for Active; 'I' for Inactive)
ROOT
ATOM      1  C1  BNZ d   1      -2.418  -3.227  -1.571  0.00  0.00     0.000 A 
ATOM      2  C2  BNZ d   1      -1.489  -3.399  -2.563  0.00  0.00     0.000 A 
ATOM      3  C3  BNZ d   1      -0.163  -3.164  -2.329  0.00  0.00     0.000 A 
ATOM      4  C4  BNZ d   1       0.227  -2.721  -1.117  0.00  0.00     0.000 A 
ATOM      5  C5  BNZ d   1      -0.698  -2.534  -0.109  0.00  0.00     0.000 A 
ATOM      6  C6  BNZ d   1      -2.027  -2.809  -0.337  0.00  0.00     0.000 A 
ENDROOT
TORSDOF 0
ENDMDL
