MODEL 1
REMARK minimizedAffinity -4.70319033
REMARK minimizedRMSD -1
REMARK  0 active torsions:
REMARK  status: ('A' for Active; 'I' for Inactive)
ROOT
ATOM      1  C1  BNZ d   1       0.807   1.808  -0.274  0.00  0.00     0.000 A 
ATOM      2  C2  BNZ d   1       0.590   0.464  -0.420  0.00  0.00     0.000 A 
ATOM      3  C3  BNZ d   1      -0.599  -0.098  -0.044  0.00  0.00     0.000 A 
ATOM      4  C4  BNZ d   1      -1.551   0.677   0.514  0.00  0.00     0.000 A 
ATOM      5  C5  BNZ d   1      -1.343   2.033   0.676  0.00  0.00     0.000 A 
ATOM      6  C6  BNZ d   1      -0.161   2.601   0.261  0.00  0.00     0.000 A 
ENDROOT
TORSDOF 0
ENDMDL
