MODEL 1
REMARK minimizedAffinity -1.22925615
REMARK minimizedRMSD -1
REMARK  0 active torsions:
REMARK  status: ('A' for Active; 'I' for Inactive)
ROOT
ATOM      1  C1  BNZ d   1      -0.509  -3.444  -0.444  0.00  0.00     0.000 A 
ATOM      2  C2  BNZ d   1       0.358  -3.324  -1.498  0.00  0.00     0.000 A 
ATOM      3  C3  BNZ d   1      -0.102  -3.305  -2.784  0.00  0.00     0.000 A 
ATOM      4  C4  BNZ d   1      -1.423  -3.447  -3.018  0.00  0.00     0.000 A 
ATOM      5  C5  BNZ d   1      -2.309  -3.578  -1.967  0.00  0.00     0.000 A 
ATOM      6  C6  BNZ d   1      -1.846  -3.557  -0.672  0.00  0.00     0.000 A 
ENDROOT
TORSDOF 0
ENDMDL
