MODEL 1
REMARK minimizedAffinity -2.88301611
REMARK minimizedRMSD -1
REMARK  0 active torsions:
REMARK  status: ('A' for Active; 'I' for Inactive)
ROOT
ATOM      1  C1  BNZ d   1      -1.122   0.303   0.416  0.00  0.00     0.000 A 
ATOM      2  C2  BNZ d   1      -1.781   1.179   1.237  0.00  0.00     0.000 A 
ATOM      3  C3  BNZ d   1      -1.265   2.418   1.496  0.00  0.00     0.000 A 
ATOM      4  C4  BNZ d   1      -0.074   2.764   0.966  0.00  0.00     0.000 A 
ATOM      5  C5  BNZ d   1       0.606   1.889   0.143  0.00  0.00     0.000 A 
ATOM      6  C6  BNZ d   1       0.065   0.657  -0.146  0.00  0.00     0.000 A 
ENDROOT
TORSDOF 0
ENDMDL
