MODEL 1
REMARK minimizedAffinity -4.89983034
REMARK minimizedRMSD -1
REMARK  0 active torsions:
REMARK  status: ('A' for Active; 'I' for Inactive)
ROOT
ATOM      1  C1  BNZ d   1      -0.944   2.986   0.687  0.00  0.00     0.000 A 
ATOM      2  C2  BNZ d   1      -1.471   1.734   0.862  0.00  0.00     0.000 A 
ATOM      3  C3  BNZ d   1      -0.808   0.626   0.414  0.00  0.00     0.000 A 
ATOM      4  C4  BNZ d   1       0.361   0.774  -0.243  0.00  0.00     0.000 A 
ATOM      5  C5  BNZ d   1       0.901   2.030  -0.435  0.00  0.00     0.000 A 
ATOM      6  C6  BNZ d   1       0.249   3.140   0.051  0.00  0.00     0.000 A 
ENDROOT
TORSDOF 0
ENDMDL
