MODEL 1
REMARK minimizedAffinity -4.13973379
REMARK minimizedRMSD -1
REMARK  0 active torsions:
REMARK  status: ('A' for Active; 'I' for Inactive)
ROOT
ATOM      1  C1  BNZ d   1       1.348   1.685   0.852  0.00  0.00     0.000 A 
ATOM      2  C2  BNZ d   1       1.131   0.426   0.358  0.00  0.00     0.000 A 
ATOM      3  C3  BNZ d   1      -0.133  -0.002   0.062  0.00  0.00     0.000 A 
ATOM      4  C4  BNZ d   1      -1.181   0.814   0.298  0.00  0.00     0.000 A 
ATOM      5  C5  BNZ d   1      -0.980   2.082   0.805  0.00  0.00     0.000 A 
ATOM      6  C6  BNZ d   1       0.297   2.524   1.065  0.00  0.00     0.000 A 
ENDROOT
TORSDOF 0
ENDMDL
