MODEL 1
REMARK minimizedAffinity -4.12808037
REMARK minimizedRMSD -1
REMARK  0 active torsions:
REMARK  status: ('A' for Active; 'I' for Inactive)
ROOT
ATOM      1  C1  BNZ d   1      -0.280   2.380   1.091  0.00  0.00     0.000 A 
ATOM      2  C2  BNZ d   1       1.058   2.522   1.345  0.00  0.00     0.000 A 
ATOM      3  C3  BNZ d   1       1.922   1.481   1.149  0.00  0.00     0.000 A 
ATOM      4  C4  BNZ d   1       1.442   0.289   0.740  0.00  0.00     0.000 A 
ATOM      5  C5  BNZ d   1       0.094   0.127   0.489  0.00  0.00     0.000 A 
ATOM      6  C6  BNZ d   1      -0.767   1.188   0.649  0.00  0.00     0.000 A 
ENDROOT
TORSDOF 0
ENDMDL
