MODEL 1
REMARK minimizedAffinity 0.574615777
REMARK minimizedRMSD -1
REMARK  3 active torsions:
REMARK  status: ('A' for Active; 'I' for Inactive)
REMARK    1  A    between atoms: C3'_2  and  C2'_3 
REMARK    2  A    between atoms: C2'_3  and  C1'_4 
REMARK    3  A    between atoms: C1'_4  and  C1_5 
ROOT
ATOM      1  C1  N4B d   1       0.311  -0.420  -0.705  0.00  0.00    -0.075 A 
ATOM      2  C2  N4B d   1       0.796   0.461  -1.697  0.00  0.00     0.002 A 
ATOM      3  C3  N4B d   1       0.318   1.747  -1.766  0.00  0.00     0.002 A 
ATOM      4  C4  N4B d   1      -0.653   2.166  -0.870  0.00  0.00    -0.004 A 
ATOM      5  C5  N4B d   1      -1.098   1.317   0.101  0.00  0.00     0.002 A 
ATOM      6  C6  N4B d   1      -0.624   0.023   0.185  0.00  0.00     0.002 A 
ENDROOT
BRANCH   1   7
ATOM      7  C1' N4B d   1       0.739  -1.861  -0.644  0.00  0.00     0.057 C 
BRANCH   7   8
ATOM      8  C2' N4B d   1      -0.376  -2.689  -0.014  0.00  0.00     0.009 C 
BRANCH   8   9
ATOM      9  C3' N4B d   1      -1.359  -3.202  -1.052  0.00  0.00     0.004 C 
ATOM     10  C4' N4B d   1      -1.960  -4.525  -0.678  0.00  0.00     0.003 C 
ENDBRANCH   8   9
ENDBRANCH   7   8
ENDBRANCH   1   7
TORSDOF 3
ENDMDL
