MODEL 1
REMARK minimizedAffinity -3.56740117
REMARK minimizedRMSD -1
REMARK  3 active torsions:
REMARK  status: ('A' for Active; 'I' for Inactive)
REMARK    1  A    between atoms: C3'_2  and  C2'_3 
REMARK    2  A    between atoms: C2'_3  and  C1'_4 
REMARK    3  A    between atoms: C1'_4  and  C1_5 
ROOT
ATOM      1  C1  N4B d   1      -0.212   0.015  -0.186  0.00  0.00    -0.075 A 
ATOM      2  C2  N4B d   1       0.075  -1.311   0.204  0.00  0.00     0.002 A 
ATOM      3  C3  N4B d   1       1.134  -1.978  -0.360  0.00  0.00     0.002 A 
ATOM      4  C4  N4B d   1       1.906  -1.349  -1.326  0.00  0.00    -0.004 A 
ATOM      5  C5  N4B d   1       1.637  -0.059  -1.678  0.00  0.00     0.002 A 
ATOM      6  C6  N4B d   1       0.578   0.625  -1.117  0.00  0.00     0.002 A 
ENDROOT
BRANCH   1   7
ATOM      7  C1' N4B d   1      -1.412   0.755   0.340  0.00  0.00     0.057 C 
BRANCH   7   8
ATOM      8  C2' N4B d   1      -2.050  -0.058   1.462  0.00  0.00     0.009 C 
BRANCH   8   9
ATOM      9  C3' N4B d   1      -3.190   0.691   2.130  0.00  0.00     0.004 C 
ATOM     10  C4' N4B d   1      -2.766   1.400   3.382  0.00  0.00     0.003 C 
ENDBRANCH   8   9
ENDBRANCH   7   8
ENDBRANCH   1   7
TORSDOF 3
ENDMDL
