MODEL 1
REMARK minimizedAffinity -0.668131709
REMARK minimizedRMSD -1
REMARK  3 active torsions:
REMARK  status: ('A' for Active; 'I' for Inactive)
REMARK    1  A    between atoms: C3'_2  and  C2'_3 
REMARK    2  A    between atoms: C2'_3  and  C1'_4 
REMARK    3  A    between atoms: C1'_4  and  C1_5 
ROOT
ATOM      1  C1  N4B d   1      -0.083   0.831   2.282  0.00  0.00    -0.075 A 
ATOM      2  C2  N4B d   1      -1.406   1.226   2.580  0.00  0.00     0.002 A 
ATOM      3  C3  N4B d   1      -1.723   1.665   3.842  0.00  0.00     0.002 A 
ATOM      4  C4  N4B d   1      -0.743   1.699   4.823  0.00  0.00    -0.004 A 
ATOM      5  C5  N4B d   1       0.537   1.340   4.520  0.00  0.00     0.002 A 
ATOM      6  C6  N4B d   1       0.872   0.901   3.255  0.00  0.00     0.002 A 
ENDROOT
BRANCH   1   7
ATOM      7  C1' N4B d   1       0.293   0.264   0.940  0.00  0.00     0.057 C 
BRANCH   7   8
ATOM      8  C2' N4B d   1      -0.502  -1.015   0.697  0.00  0.00     0.009 C 
BRANCH   8   9
ATOM      9  C3' N4B d   1      -0.241  -1.593  -0.684  0.00  0.00     0.004 C 
ATOM     10  C4' N4B d   1       1.026  -1.077  -1.299  0.00  0.00     0.003 C 
ENDBRANCH   8   9
ENDBRANCH   7   8
ENDBRANCH   1   7
TORSDOF 3
ENDMDL
