MODEL 1
REMARK minimizedAffinity -2.12738252
REMARK minimizedRMSD -1
REMARK  3 active torsions:
REMARK  status: ('A' for Active; 'I' for Inactive)
REMARK    1  A    between atoms: C3'_2  and  C2'_3 
REMARK    2  A    between atoms: C2'_3  and  C1'_4 
REMARK    3  A    between atoms: C1'_4  and  C1_5 
ROOT
ATOM      1  C1  N4B d   1      -0.087  -0.639  -0.186  0.00  0.00    -0.075 A 
ATOM      2  C2  N4B d   1       0.309  -0.943  -1.507  0.00  0.00     0.002 A 
ATOM      3  C3  N4B d   1       1.458  -1.661  -1.731  0.00  0.00     0.002 A 
ATOM      4  C4  N4B d   1       2.234  -2.067  -0.656  0.00  0.00    -0.004 A 
ATOM      5  C5  N4B d   1       1.831  -1.790   0.618  0.00  0.00     0.002 A 
ATOM      6  C6  N4B d   1       0.677  -1.073   0.858  0.00  0.00     0.002 A 
ENDROOT
BRANCH   1   7
ATOM      7  C1' N4B d   1      -1.289   0.217   0.105  0.00  0.00     0.057 C 
BRANCH   7   8
ATOM      8  C2' N4B d   1      -1.217   0.707   1.548  0.00  0.00     0.009 C 
BRANCH   8   9
ATOM      9  C3' N4B d   1      -2.557   0.593   2.255  0.00  0.00     0.004 C 
ATOM     10  C4' N4B d   1      -2.745  -0.730   2.934  0.00  0.00     0.003 C 
ENDBRANCH   8   9
ENDBRANCH   7   8
ENDBRANCH   1   7
TORSDOF 3
ENDMDL
