MODEL 1
REMARK minimizedAffinity -0.461488277
REMARK minimizedRMSD -1
REMARK  3 active torsions:
REMARK  status: ('A' for Active; 'I' for Inactive)
REMARK    1  A    between atoms: C3'_2  and  C2'_3 
REMARK    2  A    between atoms: C2'_3  and  C1'_4 
REMARK    3  A    between atoms: C1'_4  and  C1_5 
ROOT
ATOM      1  C1  N4B d   1      -0.051  -0.264  -0.676  0.00  0.00    -0.075 A 
ATOM      2  C2  N4B d   1       0.658   0.088  -1.846  0.00  0.00     0.002 A 
ATOM      3  C3  N4B d   1       1.744  -0.654  -2.241  0.00  0.00     0.002 A 
ATOM      4  C4  N4B d   1       2.149  -1.737  -1.475  0.00  0.00    -0.004 A 
ATOM      5  C5  N4B d   1       1.443  -2.087  -0.361  0.00  0.00     0.002 A 
ATOM      6  C6  N4B d   1       0.348  -1.352   0.045  0.00  0.00     0.002 A 
ENDROOT
BRANCH   1   7
ATOM      7  C1' N4B d   1      -1.192   0.568  -0.158  0.00  0.00     0.057 C 
BRANCH   7   8
ATOM      8  C2' N4B d   1      -1.110   0.637   1.364  0.00  0.00     0.009 C 
BRANCH   8   9
ATOM      9  C3' N4B d   1      -2.460   0.397   2.018  0.00  0.00     0.004 C 
ATOM     10  C4' N4B d   1      -2.522   0.907   3.427  0.00  0.00     0.003 C 
ENDBRANCH   8   9
ENDBRANCH   7   8
ENDBRANCH   1   7
TORSDOF 3
ENDMDL
