MODEL 1
REMARK minimizedAffinity 8.00719643
REMARK minimizedRMSD -1
REMARK  2 active torsions:
REMARK  status: ('A' for Active; 'I' for Inactive)
REMARK    1  A    between atoms: C2'_3  and  C1'_4 
REMARK    2  A    between atoms: C1'_4  and  C1_5 
ROOT
ATOM      1  C1  I4B d   1       4.413  -4.233   3.549  0.00  0.00    -0.075 A 
ATOM      2  C2  I4B d   1       4.576  -2.962   4.041  0.00  0.00     0.003 A 
ATOM      3  C3  I4B d   1       5.241  -2.755   5.273  0.00  0.00     0.002 A 
ATOM      4  C4  I4B d   1       5.680  -3.843   6.000  0.00  0.00    -0.004 A 
ATOM      5  C5  I4B d   1       5.535  -5.129   5.489  0.00  0.00     0.002 A 
ATOM      6  C6  I4B d   1       4.908  -5.325   4.250  0.00  0.00     0.003 A 
ENDROOT
BRANCH   1   7
ATOM      7  C1' I4B d   1       3.676  -4.419   2.260  0.00  0.00     0.060 C 
BRANCH   7   8
ATOM      8  C2' I4B d   1       2.921  -3.138   1.966  0.00  0.00    -0.013 C 
ATOM      9  C4' I4B d   1       3.127  -2.700   0.540  0.00  0.00     0.013 C 
ATOM     10  C3' I4B d   1       1.469  -3.379   2.254  0.00  0.00     0.013 C 
ENDBRANCH   7   8
ENDBRANCH   1   7
TORSDOF 2
ENDMDL
