MODEL 1
REMARK minimizedAffinity -1.41986704
REMARK minimizedRMSD -1
REMARK  2 active torsions:
REMARK  status: ('A' for Active; 'I' for Inactive)
REMARK    1  A    between atoms: C2'_3  and  C1'_4 
REMARK    2  A    between atoms: C1'_4  and  C1_5 
ROOT
ATOM      1  C1  I4B d   1       1.847  -3.279   2.630  0.00  0.00    -0.075 A 
ATOM      2  C2  I4B d   1       0.859  -4.182   2.936  0.00  0.00     0.003 A 
ATOM      3  C3  I4B d   1      -0.434  -3.729   3.294  0.00  0.00     0.002 A 
ATOM      4  C4  I4B d   1      -0.679  -2.374   3.381  0.00  0.00    -0.004 A 
ATOM      5  C5  I4B d   1       0.317  -1.460   3.048  0.00  0.00     0.002 A 
ATOM      6  C6  I4B d   1       1.585  -1.916   2.658  0.00  0.00     0.003 A 
ENDROOT
BRANCH   1   7
ATOM      7  C1' I4B d   1       3.210  -3.792   2.288  0.00  0.00     0.060 C 
BRANCH   7   8
ATOM      8  C2' I4B d   1       3.719  -4.590   3.471  0.00  0.00    -0.013 C 
ATOM      9  C4' I4B d   1       4.476  -5.811   3.019  0.00  0.00     0.013 C 
ATOM     10  C3' I4B d   1       4.587  -3.690   4.298  0.00  0.00     0.013 C 
ENDBRANCH   7   8
ENDBRANCH   1   7
TORSDOF 2
ENDMDL
