MODEL 1
REMARK minimizedAffinity -4.30981636
REMARK minimizedRMSD -1
REMARK  2 active torsions:
REMARK  status: ('A' for Active; 'I' for Inactive)
REMARK    1  A    between atoms: C2'_3  and  C1'_4 
REMARK    2  A    between atoms: C1'_4  and  C1_5 
ROOT
ATOM      1  C1  I4B d   1      -3.194   5.067   4.464  0.00  0.00    -0.075 A 
ATOM      2  C2  I4B d   1      -4.473   5.478   4.182  0.00  0.00     0.003 A 
ATOM      3  C3  I4B d   1      -5.567   4.608   4.408  0.00  0.00     0.002 A 
ATOM      4  C4  I4B d   1      -5.334   3.328   4.866  0.00  0.00    -0.004 A 
ATOM      5  C5  I4B d   1      -4.038   2.921   5.173  0.00  0.00     0.002 A 
ATOM      6  C6  I4B d   1      -2.962   3.800   4.982  0.00  0.00     0.003 A 
ENDROOT
BRANCH   1   7
ATOM      7  C1' I4B d   1      -2.059   6.000   4.182  0.00  0.00     0.060 C 
BRANCH   7   8
ATOM      8  C2' I4B d   1      -0.767   5.220   4.323  0.00  0.00    -0.013 C 
ATOM      9  C4' I4B d   1      -0.036   5.135   3.009  0.00  0.00     0.013 C 
ATOM     10  C3' I4B d   1       0.071   5.896   5.366  0.00  0.00     0.013 C 
ENDBRANCH   7   8
ENDBRANCH   1   7
TORSDOF 2
ENDMDL
