MODEL 1
REMARK minimizedAffinity 6.34683228
REMARK minimizedRMSD -1
REMARK  2 active torsions:
REMARK  status: ('A' for Active; 'I' for Inactive)
REMARK    1  A    between atoms: C2'_3  and  C1'_4 
REMARK    2  A    between atoms: C1'_4  and  C1_5 
ROOT
ATOM      1  C1  I4B d   1       2.345  -1.393   2.537  0.00  0.00    -0.075 A 
ATOM      2  C2  I4B d   1       3.188  -1.097   1.495  0.00  0.00     0.003 A 
ATOM      3  C3  I4B d   1       2.790  -1.354   0.161  0.00  0.00     0.002 A 
ATOM      4  C4  I4B d   1       1.570  -1.952  -0.081  0.00  0.00    -0.004 A 
ATOM      5  C5  I4B d   1       0.707  -2.230   0.975  0.00  0.00     0.002 A 
ATOM      6  C6  I4B d   1       1.092  -1.938   2.292  0.00  0.00     0.003 A 
ENDROOT
BRANCH   1   7
ATOM      7  C1' I4B d   1       2.811  -1.138   3.936  0.00  0.00     0.060 C 
BRANCH   7   8
ATOM      8  C2' I4B d   1       3.930  -2.113   4.240  0.00  0.00    -0.013 C 
ATOM      9  C4' I4B d   1       5.260  -1.411   4.316  0.00  0.00     0.013 C 
ATOM     10  C3' I4B d   1       3.605  -2.801   5.533  0.00  0.00     0.013 C 
ENDBRANCH   7   8
ENDBRANCH   1   7
TORSDOF 2
ENDMDL
