MODEL 1
REMARK minimizedAffinity 10.685462
REMARK minimizedRMSD -1
REMARK  2 active torsions:
REMARK  status: ('A' for Active; 'I' for Inactive)
REMARK    1  A    between atoms: C2'_3  and  C1'_4 
REMARK    2  A    between atoms: C1'_4  and  C1_5 
ROOT
ATOM      1  C1  I4B d   1      -3.954   2.943  -3.385  0.00  0.00    -0.075 A 
ATOM      2  C2  I4B d   1      -4.176   4.271  -3.649  0.00  0.00     0.003 A 
ATOM      3  C3  I4B d   1      -5.119   4.654  -4.632  0.00  0.00     0.002 A 
ATOM      4  C4  I4B d   1      -5.777   3.683  -5.358  0.00  0.00    -0.004 A 
ATOM      5  C5  I4B d   1      -5.568   2.336  -5.074  0.00  0.00     0.002 A 
ATOM      6  C6  I4B d   1      -4.659   1.964  -4.072  0.00  0.00     0.003 A 
ENDROOT
BRANCH   1   7
ATOM      7  C1' I4B d   1      -2.926   2.573  -2.363  0.00  0.00     0.060 C 
BRANCH   7   8
ATOM      8  C2' I4B d   1      -1.666   2.161  -3.096  0.00  0.00    -0.013 C 
ATOM      9  C4' I4B d   1      -0.533   3.110  -2.807  0.00  0.00     0.013 C 
ATOM     10  C3' I4B d   1      -1.322   0.763  -2.675  0.00  0.00     0.013 C 
ENDBRANCH   7   8
ENDBRANCH   1   7
TORSDOF 2
ENDMDL
