MODEL 1
REMARK minimizedAffinity 15.6229362
REMARK minimizedRMSD -1
REMARK  2 active torsions:
REMARK  status: ('A' for Active; 'I' for Inactive)
REMARK    1  A    between atoms: C2'_3  and  C1'_4 
REMARK    2  A    between atoms: C1'_4  and  C1_5 
ROOT
ATOM      1  C1  I4B d   1       3.615  -2.134  -0.379  0.00  0.00    -0.075 A 
ATOM      2  C2  I4B d   1       3.684  -1.742  -1.693  0.00  0.00     0.003 A 
ATOM      3  C3  I4B d   1       4.899  -1.249  -2.227  0.00  0.00     0.002 A 
ATOM      4  C4  I4B d   1       6.000  -1.119  -1.405  0.00  0.00    -0.004 A 
ATOM      5  C5  I4B d   1       5.935  -1.539  -0.079  0.00  0.00     0.002 A 
ATOM      6  C6  I4B d   1       4.739  -2.061   0.434  0.00  0.00     0.003 A 
ENDROOT
BRANCH   1   7
ATOM      7  C1' I4B d   1       2.307  -2.619   0.161  0.00  0.00     0.060 C 
BRANCH   7   8
ATOM      8  C2' I4B d   1       1.290  -2.565  -0.961  0.00  0.00    -0.013 C 
ATOM      9  C4' I4B d   1       1.029  -3.937  -1.526  0.00  0.00     0.013 C 
ATOM     10  C3' I4B d   1       0.033  -1.955  -0.418  0.00  0.00     0.013 C 
ENDBRANCH   7   8
ENDBRANCH   1   7
TORSDOF 2
ENDMDL
