MODEL 1
REMARK minimizedAffinity -4.52133608
REMARK minimizedRMSD -1
REMARK  1 active torsions:
REMARK  status: ('A' for Active; 'I' for Inactive)
REMARK    1  A    between atoms: C1_2  and  C2_3 
ROOT
ATOM      1  C2  UNL d   1       1.483  -1.633   0.621  0.00  0.00    -0.081 A 
ATOM      2  C3  UNL d   1       1.371  -1.763   2.011  0.00  0.00     0.006 A 
ATOM      3  C4  UNL d   1       0.302  -1.178   2.693  0.00  0.00     0.002 A 
ATOM      4  C5  UNL d   1      -0.677  -0.460   1.997  0.00  0.00    -0.080 A 
ATOM      5  C6  UNL d   1      -1.846   0.147   2.713  0.00  0.00     0.076 C 
ATOM      6  C7  UNL d   1      -0.555  -0.315   0.611  0.00  0.00     0.002 A 
ATOM      7  C8  UNL d   1       0.514  -0.900  -0.072  0.00  0.00     0.006 A 
ENDROOT
BRANCH   1   8
ATOM      8  C1  UNL d   1       2.600  -2.318  -0.125  0.00  0.00     0.054 C 
ATOM      9  C   UNL d   1       3.962  -1.850   0.367  0.00  0.00     0.018 C 
ENDBRANCH   1   8
TORSDOF 1
ENDMDL
