MODEL 1
REMARK minimizedAffinity -3.83036971
REMARK minimizedRMSD -1
REMARK  1 active torsions:
REMARK  status: ('A' for Active; 'I' for Inactive)
REMARK    1  A    between atoms: C1_2  and  C2_3 
ROOT
ATOM      1  C2  UNL d   1      -1.891  -0.727   0.042  0.00  0.00    -0.081 A 
ATOM      2  C3  UNL d   1      -0.576  -0.589  -0.420  0.00  0.00     0.006 A 
ATOM      3  C4  UNL d   1       0.456  -0.271   0.466  0.00  0.00     0.002 A 
ATOM      4  C5  UNL d   1       0.192  -0.093   1.828  0.00  0.00    -0.080 A 
ATOM      5  C6  UNL d   1       1.295   0.219   2.795  0.00  0.00     0.076 C 
ATOM      6  C7  UNL d   1      -1.124  -0.214   2.287  0.00  0.00     0.002 A 
ATOM      7  C8  UNL d   1      -2.156  -0.531   1.401  0.00  0.00     0.006 A 
ENDROOT
BRANCH   1   8
ATOM      8  C1  UNL d   1      -2.995  -1.134  -0.900  0.00  0.00     0.054 C 
ATOM      9  C   UNL d   1      -4.072  -1.931  -0.178  0.00  0.00     0.018 C 
ENDBRANCH   1   8
TORSDOF 1
ENDMDL
