MODEL 1
REMARK minimizedAffinity -4.43090105
REMARK minimizedRMSD -1
REMARK  1 active torsions:
REMARK  status: ('A' for Active; 'I' for Inactive)
REMARK    1  A    between atoms: C1_2  and  C2_3 
ROOT
ATOM      1  C2  UNL d   1      -1.366  -0.745  -0.439  0.00  0.00    -0.081 A 
ATOM      2  C3  UNL d   1      -0.033  -0.560  -0.826  0.00  0.00     0.006 A 
ATOM      3  C4  UNL d   1       0.967  -0.397   0.136  0.00  0.00     0.002 A 
ATOM      4  C5  UNL d   1       0.653  -0.424   1.499  0.00  0.00    -0.080 A 
ATOM      5  C6  UNL d   1       1.721  -0.280   2.542  0.00  0.00     0.076 C 
ATOM      6  C7  UNL d   1      -0.682  -0.592   1.885  0.00  0.00     0.002 A 
ATOM      7  C8  UNL d   1      -1.682  -0.754   0.924  0.00  0.00     0.006 A 
ENDROOT
BRANCH   1   8
ATOM      8  C1  UNL d   1      -2.437  -0.986  -1.472  0.00  0.00     0.054 C 
ATOM      9  C   UNL d   1      -3.558  -1.852  -0.916  0.00  0.00     0.018 C 
ENDBRANCH   1   8
TORSDOF 1
ENDMDL
