MODEL 1
REMARK minimizedAffinity -2.7967639
REMARK minimizedRMSD -1
REMARK  1 active torsions:
REMARK  status: ('A' for Active; 'I' for Inactive)
REMARK    1  A    between atoms: C1_2  and  C2_3 
ROOT
ATOM      1  C2  UNL d   1      -1.382  -0.667   0.306  0.00  0.00    -0.081 A 
ATOM      2  C3  UNL d   1      -0.066  -0.541  -0.155  0.00  0.00     0.006 A 
ATOM      3  C4  UNL d   1       1.002  -0.533   0.745  0.00  0.00     0.002 A 
ATOM      4  C5  UNL d   1       0.774  -0.658   2.119  0.00  0.00    -0.080 A 
ATOM      5  C6  UNL d   1       1.914  -0.682   3.094  0.00  0.00     0.076 C 
ATOM      6  C7  UNL d   1      -0.542  -0.766   2.582  0.00  0.00     0.002 A 
ATOM      7  C8  UNL d   1      -1.611  -0.774   1.683  0.00  0.00     0.006 A 
ENDROOT
BRANCH   1   8
ATOM      8  C1  UNL d   1      -2.531  -0.741  -0.666  0.00  0.00     0.054 C 
ATOM      9  C   UNL d   1      -3.468  -1.893  -0.329  0.00  0.00     0.018 C 
ENDBRANCH   1   8
TORSDOF 1
ENDMDL
