MODEL 1
REMARK minimizedAffinity -3.78231406
REMARK minimizedRMSD -1
REMARK  0 active torsions:
REMARK  status: ('A' for Active; 'I' for Inactive)
ROOT
ATOM      1  C   UNL d   1       2.168  -1.114  -1.481  0.00  0.00     0.023 A 
ATOM      2  C1  UNL d   1       1.264  -2.042  -0.965  0.00  0.00     0.003 A 
ATOM      3  C2  UNL d   1       0.206  -1.615  -0.161  0.00  0.00     0.048 A 
ATOM      4  C3  UNL d   1       0.057  -0.258   0.123  0.00  0.00     0.023 A 
ATOM      5  C4  UNL d   1       0.959   0.675  -0.392  0.00  0.00     0.048 A 
ATOM      6  C5  UNL d   1       2.016   0.243  -1.195  0.00  0.00     0.003 A 
ATOM      7  I   UNL d   1      -1.517   0.380   1.321  0.00  0.00    -0.146 I 
ENDROOT
TORSDOF 0
ENDMDL
