MODEL 1
REMARK minimizedAffinity -3.79866266
REMARK minimizedRMSD -1
REMARK  0 active torsions:
REMARK  status: ('A' for Active; 'I' for Inactive)
ROOT
ATOM      1  C   UNL d   1       1.421  -1.168  -0.980  0.00  0.00     0.023 A 
ATOM      2  C1  UNL d   1       1.796   0.070  -0.458  0.00  0.00     0.003 A 
ATOM      3  C2  UNL d   1       1.003   0.690   0.509  0.00  0.00     0.048 A 
ATOM      4  C3  UNL d   1      -0.163   0.067   0.951  0.00  0.00     0.023 A 
ATOM      5  C4  UNL d   1      -0.543  -1.171   0.431  0.00  0.00     0.048 A 
ATOM      6  C5  UNL d   1       0.252  -1.788  -0.536  0.00  0.00     0.003 A 
ATOM      7  I   UNL d   1      -1.345   0.989   2.391  0.00  0.00    -0.146 I 
ENDROOT
TORSDOF 0
ENDMDL
