MODEL 1
REMARK minimizedAffinity 0.902866244
REMARK minimizedRMSD -1
REMARK  0 active torsions:
REMARK  status: ('A' for Active; 'I' for Inactive)
ROOT
ATOM      1  C   UNL d   1       1.496  -0.439  -2.089  0.00  0.00     0.023 A 
ATOM      2  C1  UNL d   1       1.759  -1.387  -1.099  0.00  0.00     0.003 A 
ATOM      3  C2  UNL d   1       1.219  -1.232   0.179  0.00  0.00     0.048 A 
ATOM      4  C3  UNL d   1       0.414  -0.128   0.461  0.00  0.00     0.023 A 
ATOM      5  C4  UNL d   1       0.147   0.822  -0.526  0.00  0.00     0.048 A 
ATOM      6  C5  UNL d   1       0.691   0.664  -1.803  0.00  0.00     0.003 A 
ATOM      7  I   UNL d   1      -0.391   0.104   2.362  0.00  0.00    -0.146 I 
ENDROOT
TORSDOF 0
ENDMDL
