MODEL 1
REMARK minimizedAffinity -3.2541585
REMARK minimizedRMSD -1
REMARK  0 active torsions:
REMARK  status: ('A' for Active; 'I' for Inactive)
ROOT
ATOM      1  C   UNL d   1       1.561   2.322  -1.335  0.00  0.00     0.023 A 
ATOM      2  C1  UNL d   1       0.200   2.106  -1.119  0.00  0.00     0.003 A 
ATOM      3  C2  UNL d   1      -0.257   0.840  -0.749  0.00  0.00     0.048 A 
ATOM      4  C3  UNL d   1       0.652  -0.206  -0.596  0.00  0.00     0.023 A 
ATOM      5  C4  UNL d   1       2.015   0.005  -0.809  0.00  0.00     0.048 A 
ATOM      6  C5  UNL d   1       2.468   1.273  -1.180  0.00  0.00     0.003 A 
ATOM      7  I   UNL d   1      -0.027  -2.092  -0.044  0.00  0.00    -0.146 I 
ENDROOT
TORSDOF 0
ENDMDL
