MODEL 1
REMARK minimizedAffinity -4.18904972
REMARK minimizedRMSD -1
REMARK  0 active torsions:
REMARK  status: ('A' for Active; 'I' for Inactive)
ROOT
ATOM      1  C   UNL d   1       2.930  -0.761  -1.360  0.00  0.00     0.023 A 
ATOM      2  C1  UNL d   1       2.530   0.575  -1.315  0.00  0.00     0.003 A 
ATOM      3  C2  UNL d   1       1.311   0.921  -0.728  0.00  0.00     0.048 A 
ATOM      4  C3  UNL d   1       0.498  -0.073  -0.186  0.00  0.00     0.023 A 
ATOM      5  C4  UNL d   1       0.894  -1.411  -0.227  0.00  0.00     0.048 A 
ATOM      6  C5  UNL d   1       2.113  -1.753  -0.817  0.00  0.00     0.003 A 
ATOM      7  I   UNL d   1      -1.316   0.439   0.689  0.00  0.00    -0.146 I 
ENDROOT
TORSDOF 0
ENDMDL
