MODEL 1
REMARK minimizedAffinity -2.40389872
REMARK minimizedRMSD -1
REMARK  0 active torsions:
REMARK  status: ('A' for Active; 'I' for Inactive)
ROOT
ATOM      1  C   UNL d   1      -1.211  -0.165   0.028  0.00  0.00     0.023 A 
ATOM      2  C1  UNL d   1      -0.630  -1.430  -0.068  0.00  0.00     0.003 A 
ATOM      3  C2  UNL d   1       0.716  -1.557  -0.420  0.00  0.00     0.048 A 
ATOM      4  C3  UNL d   1       1.475  -0.414  -0.673  0.00  0.00     0.023 A 
ATOM      5  C4  UNL d   1       0.898   0.853  -0.578  0.00  0.00     0.048 A 
ATOM      6  C5  UNL d   1      -0.448   0.975  -0.226  0.00  0.00     0.003 A 
ATOM      7  I   UNL d   1       3.477  -0.600  -1.197  0.00  0.00    -0.146 I 
ENDROOT
TORSDOF 0
ENDMDL
