MODEL 1
REMARK minimizedAffinity -1.36869943
REMARK minimizedRMSD -1
REMARK  0 active torsions:
REMARK  status: ('A' for Active; 'I' for Inactive)
ROOT
ATOM      1  C   UNL d   1       1.342  -2.224  -0.679  0.00  0.00     0.023 A 
ATOM      2  C1  UNL d   1       0.039  -1.848  -0.354  0.00  0.00     0.003 A 
ATOM      3  C2  UNL d   1      -0.351  -0.511  -0.464  0.00  0.00     0.048 A 
ATOM      4  C3  UNL d   1       0.567   0.443  -0.902  0.00  0.00     0.023 A 
ATOM      5  C4  UNL d   1       1.871   0.070  -1.229  0.00  0.00     0.048 A 
ATOM      6  C5  UNL d   1       2.257  -1.267  -1.116  0.00  0.00     0.003 A 
ATOM      7  I   UNL d   1      -0.011   2.432  -1.068  0.00  0.00    -0.146 I 
ENDROOT
TORSDOF 0
ENDMDL
