MODEL 1
REMARK minimizedAffinity -3.86953568
REMARK minimizedRMSD -1
REMARK  0 active torsions:
REMARK  status: ('A' for Active; 'I' for Inactive)
ROOT
ATOM      1  C   UNL d   1       1.078  -2.898  -0.560  0.00  0.00     0.023 A 
ATOM      2  C1  UNL d   1       0.166  -2.175   0.210  0.00  0.00     0.003 A 
ATOM      3  C2  UNL d   1       0.031  -0.797   0.024  0.00  0.00     0.048 A 
ATOM      4  C3  UNL d   1       0.810  -0.149  -0.935  0.00  0.00     0.023 A 
ATOM      5  C4  UNL d   1       1.722  -0.869  -1.708  0.00  0.00     0.048 A 
ATOM      6  C5  UNL d   1       1.855  -2.246  -1.518  0.00  0.00     0.003 A 
ATOM      7  I   UNL d   1       0.610   1.900  -1.213  0.00  0.00    -0.146 I 
ENDROOT
TORSDOF 0
ENDMDL
