MODEL 1
REMARK minimizedAffinity -3.2841351
REMARK minimizedRMSD -1
REMARK  0 active torsions:
REMARK  status: ('A' for Active; 'I' for Inactive)
ROOT
ATOM      1  C   UNL d   1       2.919  -0.751  -1.872  0.00  0.00     0.023 A 
ATOM      2  C1  UNL d   1       1.874  -1.669  -1.973  0.00  0.00     0.003 A 
ATOM      3  C2  UNL d   1       0.763  -1.560  -1.134  0.00  0.00     0.048 A 
ATOM      4  C3  UNL d   1       0.703  -0.529  -0.197  0.00  0.00     0.023 A 
ATOM      5  C4  UNL d   1       1.746   0.393  -0.092  0.00  0.00     0.048 A 
ATOM      6  C5  UNL d   1       2.855   0.279  -0.933  0.00  0.00     0.003 A 
ATOM      7  I   UNL d   1      -0.950  -0.364   1.053  0.00  0.00    -0.146 I 
ENDROOT
TORSDOF 0
ENDMDL
