MODEL 1
REMARK minimizedAffinity -3.01478148
REMARK minimizedRMSD -1
REMARK  0 active torsions:
REMARK  status: ('A' for Active; 'I' for Inactive)
ROOT
ATOM      1  C   UNL d   1       2.236  -1.645  -1.786  0.00  0.00     0.023 A 
ATOM      2  C1  UNL d   1       1.885  -0.298  -1.886  0.00  0.00     0.003 A 
ATOM      3  C2  UNL d   1       0.939   0.244  -1.014  0.00  0.00     0.048 A 
ATOM      4  C3  UNL d   1       0.349  -0.565  -0.044  0.00  0.00     0.023 A 
ATOM      5  C4  UNL d   1       0.698  -1.912   0.061  0.00  0.00     0.048 A 
ATOM      6  C5  UNL d   1       1.644  -2.450  -0.813  0.00  0.00     0.003 A 
ATOM      7  I   UNL d   1      -1.060   0.241   1.256  0.00  0.00    -0.146 I 
ENDROOT
TORSDOF 0
ENDMDL
