MODEL 1
REMARK minimizedAffinity -4.32063341
REMARK minimizedRMSD -1
REMARK  0 active torsions:
REMARK  status: ('A' for Active; 'I' for Inactive)
ROOT
ATOM      1  C   UNL d   1       2.347  -1.051  -1.593  0.00  0.00     0.023 A 
ATOM      2  C1  UNL d   1       1.515  -2.010  -1.015  0.00  0.00     0.003 A 
ATOM      3  C2  UNL d   1       0.410  -1.613  -0.258  0.00  0.00     0.048 A 
ATOM      4  C3  UNL d   1       0.143  -0.256  -0.085  0.00  0.00     0.023 A 
ATOM      5  C4  UNL d   1       0.972   0.707  -0.662  0.00  0.00     0.048 A 
ATOM      6  C5  UNL d   1       2.076   0.306  -1.416  0.00  0.00     0.003 A 
ATOM      7  I   UNL d   1      -1.501   0.338   1.040  0.00  0.00    -0.146 I 
ENDROOT
TORSDOF 0
ENDMDL
