MODEL 1
REMARK minimizedAffinity -3.7068851
REMARK minimizedRMSD -1
REMARK  0 active torsions:
REMARK  status: ('A' for Active; 'I' for Inactive)
ROOT
ATOM      1  C   UNL d   1       1.139   1.120  -0.689  0.00  0.00     0.023 A 
ATOM      2  C1  UNL d   1      -0.115   0.530  -0.528  0.00  0.00     0.003 A 
ATOM      3  C2  UNL d   1      -0.230  -0.859  -0.451  0.00  0.00     0.048 A 
ATOM      4  C3  UNL d   1       0.914  -1.653  -0.535  0.00  0.00     0.023 A 
ATOM      5  C4  UNL d   1       2.170  -1.068  -0.695  0.00  0.00     0.048 A 
ATOM      6  C5  UNL d   1       2.280   0.322  -0.773  0.00  0.00     0.003 A 
ATOM      7  I   UNL d   1       0.745  -3.722  -0.420  0.00  0.00    -0.146 I 
ENDROOT
TORSDOF 0
ENDMDL
