MODEL 1
REMARK minimizedAffinity -3.99535084
REMARK minimizedRMSD -1
REMARK  0 active torsions:
REMARK  status: ('A' for Active; 'I' for Inactive)
ROOT
ATOM      1  C   UNL d   1       2.364  -1.120  -1.394  0.00  0.00     0.023 A 
ATOM      2  C1  UNL d   1       1.314  -2.033  -1.492  0.00  0.00     0.003 A 
ATOM      3  C2  UNL d   1       0.040  -1.685  -1.039  0.00  0.00     0.048 A 
ATOM      4  C3  UNL d   1      -0.177  -0.421  -0.491  0.00  0.00     0.023 A 
ATOM      5  C4  UNL d   1       0.870   0.496  -0.391  0.00  0.00     0.048 A 
ATOM      6  C5  UNL d   1       2.143   0.143  -0.844  0.00  0.00     0.003 A 
ATOM      7  I   UNL d   1      -2.073   0.100   0.183  0.00  0.00    -0.146 I 
ENDROOT
TORSDOF 0
ENDMDL
