MODEL 1
REMARK minimizedAffinity -3.54112625
REMARK minimizedRMSD -1
REMARK  0 active torsions:
REMARK  status: ('A' for Active; 'I' for Inactive)
ROOT
ATOM      1  C   UNL d   1      -1.772   0.569  -0.471  0.00  0.00     0.023 A 
ATOM      2  C1  UNL d   1      -1.382  -0.708  -0.066  0.00  0.00     0.003 A 
ATOM      3  C2  UNL d   1      -0.053  -1.111  -0.206  0.00  0.00     0.048 A 
ATOM      4  C3  UNL d   1       0.883  -0.232  -0.751  0.00  0.00     0.023 A 
ATOM      5  C4  UNL d   1       0.497   1.047  -1.157  0.00  0.00     0.048 A 
ATOM      6  C5  UNL d   1      -0.833   1.445  -1.016  0.00  0.00     0.003 A 
ATOM      7  I   UNL d   1       2.862  -0.829  -0.960  0.00  0.00    -0.146 I 
ENDROOT
TORSDOF 0
ENDMDL
