MODEL 1
REMARK minimizedAffinity -4.05593967
REMARK minimizedRMSD -1
REMARK  0 active torsions:
REMARK  status: ('A' for Active; 'I' for Inactive)
ROOT
ATOM      1  C   UNL d   1       2.468  -1.108  -1.465  0.00  0.00     0.023 A 
ATOM      2  C1  UNL d   1       1.421  -1.864  -0.940  0.00  0.00     0.003 A 
ATOM      3  C2  UNL d   1       0.415  -1.245  -0.195  0.00  0.00     0.048 A 
ATOM      4  C3  UNL d   1       0.463   0.132   0.021  0.00  0.00     0.023 A 
ATOM      5  C4  UNL d   1       1.509   0.893  -0.503  0.00  0.00     0.048 A 
ATOM      6  C5  UNL d   1       2.512   0.269  -1.247  0.00  0.00     0.003 A 
ATOM      7  I   UNL d   1      -1.033   1.056   1.129  0.00  0.00    -0.146 I 
ENDROOT
TORSDOF 0
ENDMDL
