MODEL 1
REMARK minimizedAffinity -2.73123908
REMARK minimizedRMSD -1
REMARK  0 active torsions:
REMARK  status: ('A' for Active; 'I' for Inactive)
ROOT
ATOM      1  C   UNL d   1       2.902  -0.921  -2.229  0.00  0.00     0.023 A 
ATOM      2  C1  UNL d   1       2.402   0.334  -2.578  0.00  0.00     0.003 A 
ATOM      3  C2  UNL d   1       1.251   0.824  -1.959  0.00  0.00     0.048 A 
ATOM      4  C3  UNL d   1       0.605   0.055  -0.992  0.00  0.00     0.023 A 
ATOM      5  C4  UNL d   1       1.102  -1.200  -0.639  0.00  0.00     0.048 A 
ATOM      6  C5  UNL d   1       2.253  -1.687  -1.261  0.00  0.00     0.003 A 
ATOM      7  I   UNL d   1      -1.109   0.783  -0.069  0.00  0.00    -0.146 I 
ENDROOT
TORSDOF 0
ENDMDL
