MODEL 1
REMARK minimizedAffinity 0.62901032
REMARK minimizedRMSD -1
REMARK  1 active torsions:
REMARK  status: ('A' for Active; 'I' for Inactive)
REMARK    1  A    between atoms: C1_2  and  C2_3 
ROOT
ATOM      1  C2  UNL d   1       0.430   2.326   0.907  0.00  0.00    -0.081 A 
ATOM      2  C3  UNL d   1       1.026   1.517   1.883  0.00  0.00     0.006 A 
ATOM      3  C4  UNL d   1       1.086   0.132   1.714  0.00  0.00     0.002 A 
ATOM      4  C5  UNL d   1       0.559  -0.467   0.564  0.00  0.00    -0.080 A 
ATOM      5  C6  UNL d   1       0.645  -1.950   0.356  0.00  0.00     0.076 C 
ATOM      6  C7  UNL d   1      -0.051   0.340  -0.402  0.00  0.00     0.002 A 
ATOM      7  C8  UNL d   1      -0.113   1.725  -0.234  0.00  0.00     0.006 A 
ENDROOT
BRANCH   1   8
ATOM      8  C1  UNL d   1       0.421   3.826   1.056  0.00  0.00     0.054 C 
ATOM      9  C   UNL d   1       1.790   4.349   1.469  0.00  0.00     0.018 C 
ENDBRANCH   1   8
TORSDOF 1
ENDMDL
