MODEL 1
REMARK minimizedAffinity 4.86992264
REMARK minimizedRMSD -1
REMARK  1 active torsions:
REMARK  status: ('A' for Active; 'I' for Inactive)
REMARK    1  A    between atoms: C1_2  and  C2_3 
ROOT
ATOM      1  C2  UNL d   1      -0.099   1.956   1.205  0.00  0.00    -0.081 A 
ATOM      2  C3  UNL d   1       0.371   3.275   1.208  0.00  0.00     0.006 A 
ATOM      3  C4  UNL d   1       0.229   4.079   0.075  0.00  0.00     0.002 A 
ATOM      4  C5  UNL d   1      -0.393   3.582  -1.076  0.00  0.00    -0.080 A 
ATOM      5  C6  UNL d   1      -0.579   4.445  -2.288  0.00  0.00     0.076 C 
ATOM      6  C7  UNL d   1      -0.847   2.259  -1.084  0.00  0.00     0.002 A 
ATOM      7  C8  UNL d   1      -0.705   1.454   0.048  0.00  0.00     0.006 A 
ENDROOT
BRANCH   1   8
ATOM      8  C1  UNL d   1      -0.005   1.107   2.447  0.00  0.00     0.054 C 
ATOM      9  C   UNL d   1       0.447  -0.309   2.116  0.00  0.00     0.018 C 
ENDBRANCH   1   8
TORSDOF 1
ENDMDL
