MODEL 1
REMARK minimizedAffinity 5.24180222
REMARK minimizedRMSD -1
REMARK  1 active torsions:
REMARK  status: ('A' for Active; 'I' for Inactive)
REMARK    1  A    between atoms: C1_2  and  C2_3 
ROOT
ATOM      1  C2  UNL d   1      -0.248   1.128   1.735  0.00  0.00    -0.081 A 
ATOM      2  C3  UNL d   1      -0.583   0.623   2.997  0.00  0.00     0.006 A 
ATOM      3  C4  UNL d   1       0.158  -0.417   3.563  0.00  0.00     0.002 A 
ATOM      4  C5  UNL d   1       1.249  -0.964   2.880  0.00  0.00    -0.080 A 
ATOM      5  C6  UNL d   1       2.072  -2.061   3.489  0.00  0.00     0.076 C 
ATOM      6  C7  UNL d   1       1.573  -0.472   1.611  0.00  0.00     0.002 A 
ATOM      7  C8  UNL d   1       0.832   0.567   1.045  0.00  0.00     0.006 A 
ENDROOT
BRANCH   1   8
ATOM      8  C1  UNL d   1      -1.005   2.293   1.150  0.00  0.00     0.054 C 
ATOM      9  C   UNL d   1      -1.636   3.147   2.241  0.00  0.00     0.018 C 
ENDBRANCH   1   8
TORSDOF 1
ENDMDL
