MODEL 1
REMARK minimizedAffinity 7.57746029
REMARK minimizedRMSD -1
REMARK  1 active torsions:
REMARK  status: ('A' for Active; 'I' for Inactive)
REMARK    1  A    between atoms: C1_2  and  C2_3 
ROOT
ATOM      1  C2  UNL d   1      -0.869  -2.817  -1.885  0.00  0.00    -0.081 A 
ATOM      2  C3  UNL d   1      -1.762  -2.047  -2.641  0.00  0.00     0.006 A 
ATOM      3  C4  UNL d   1      -1.466  -0.716  -2.947  0.00  0.00     0.002 A 
ATOM      4  C5  UNL d   1      -0.270  -0.137  -2.510  0.00  0.00    -0.080 A 
ATOM      5  C6  UNL d   1       0.074   1.281  -2.857  0.00  0.00     0.076 C 
ATOM      6  C7  UNL d   1       0.614  -0.901  -1.740  0.00  0.00     0.002 A 
ATOM      7  C8  UNL d   1       0.318  -2.231  -1.433  0.00  0.00     0.006 A 
ENDROOT
BRANCH   1   8
ATOM      8  C1  UNL d   1      -1.156  -4.271  -1.609  0.00  0.00     0.054 C 
ATOM      9  C   UNL d   1       0.060  -4.972  -1.021  0.00  0.00     0.018 C 
ENDBRANCH   1   8
TORSDOF 1
ENDMDL
