MODEL 1
REMARK minimizedAffinity 5.64433193
REMARK minimizedRMSD -1
REMARK  1 active torsions:
REMARK  status: ('A' for Active; 'I' for Inactive)
REMARK    1  A    between atoms: C1_2  and  C2_3 
ROOT
ATOM      1  C2  UNL d   1       1.155  -1.612   0.209  0.00  0.00    -0.081 A 
ATOM      2  C3  UNL d   1       1.584  -1.497   1.536  0.00  0.00     0.006 A 
ATOM      3  C4  UNL d   1       1.230  -0.382   2.300  0.00  0.00     0.002 A 
ATOM      4  C5  UNL d   1       0.436   0.631   1.752  0.00  0.00    -0.080 A 
ATOM      5  C6  UNL d   1       0.024   1.818   2.571  0.00  0.00     0.076 C 
ATOM      6  C7  UNL d   1       0.022   0.524   0.420  0.00  0.00     0.002 A 
ATOM      7  C8  UNL d   1       0.376  -0.590  -0.344  0.00  0.00     0.006 A 
ENDROOT
BRANCH   1   8
ATOM      8  C1  UNL d   1       1.480  -2.844  -0.598  0.00  0.00     0.054 C 
ATOM      9  C   UNL d   1       0.357  -3.868  -0.521  0.00  0.00     0.018 C 
ENDBRANCH   1   8
TORSDOF 1
ENDMDL
