MODEL 1
REMARK minimizedAffinity 1.71994543
REMARK minimizedRMSD -1
REMARK  1 active torsions:
REMARK  status: ('A' for Active; 'I' for Inactive)
REMARK    1  A    between atoms: C1_2  and  C2_3 
ROOT
ATOM      1  C2  UNL d   1       3.043   4.817  -4.380  0.00  0.00    -0.073 A 
ATOM      2  C3  UNL d   1       3.548   5.927  -5.067  0.00  0.00    -0.002 A 
ATOM      3  C4  UNL d   1       4.832   5.894  -5.611  0.00  0.00     0.004 A 
ATOM      4  C5  UNL d   1       5.621   4.751  -5.482  0.00  0.00    -0.004 A 
ATOM      5  C6  UNL d   1       5.130   3.628  -4.809  0.00  0.00    -0.075 A 
ATOM      6  C7  UNL d   1       5.966   2.391  -4.659  0.00  0.00     0.076 C 
ATOM      7  C8  UNL d   1       3.840   3.669  -4.262  0.00  0.00     0.001 A 
ENDROOT
BRANCH   1   8
ATOM      8  C1  UNL d   1       1.654   4.846  -3.795  0.00  0.00     0.053 C 
ATOM      9  C   UNL d   1       1.335   3.576  -3.022  0.00  0.00     0.018 C 
ENDBRANCH   1   8
TORSDOF 1
ENDMDL
