MODEL 1
REMARK minimizedAffinity 1.29095531
REMARK minimizedRMSD -1
REMARK  1 active torsions:
REMARK  status: ('A' for Active; 'I' for Inactive)
REMARK    1  A    between atoms: C1_2  and  C2_3 
ROOT
ATOM      1  C2  UNL d   1      -5.318   0.477   4.988  0.00  0.00    -0.073 A 
ATOM      2  C3  UNL d   1      -5.234   0.091   3.646  0.00  0.00    -0.002 A 
ATOM      3  C4  UNL d   1      -4.598   0.912   2.714  0.00  0.00     0.004 A 
ATOM      4  C5  UNL d   1      -4.034   2.123   3.116  0.00  0.00    -0.004 A 
ATOM      5  C6  UNL d   1      -4.098   2.521   4.455  0.00  0.00    -0.075 A 
ATOM      6  C7  UNL d   1      -3.498   3.822   4.903  0.00  0.00     0.076 C 
ATOM      7  C8  UNL d   1      -4.740   1.692   5.384  0.00  0.00     0.001 A 
ENDROOT
BRANCH   1   8
ATOM      8  C1  UNL d   1      -5.998  -0.410   5.999  0.00  0.00     0.053 C 
ATOM      9  C   UNL d   1      -5.999  -1.868   5.569  0.00  0.00     0.018 C 
ENDBRANCH   1   8
TORSDOF 1
ENDMDL
