MODEL 1
REMARK minimizedAffinity 4.05642986
REMARK minimizedRMSD -1
REMARK  1 active torsions:
REMARK  status: ('A' for Active; 'I' for Inactive)
REMARK    1  A    between atoms: C1_2  and  C2_3 
ROOT
ATOM      1  C2  UNL d   1       1.676   1.467  -1.104  0.00  0.00    -0.073 A 
ATOM      2  C3  UNL d   1       1.573   1.959   0.202  0.00  0.00    -0.002 A 
ATOM      3  C4  UNL d   1       2.481   1.553   1.182  0.00  0.00     0.004 A 
ATOM      4  C5  UNL d   1       3.503   0.660   0.865  0.00  0.00    -0.004 A 
ATOM      5  C6  UNL d   1       3.630   0.166  -0.438  0.00  0.00    -0.075 A 
ATOM      6  C7  UNL d   1       4.723  -0.798  -0.795  0.00  0.00     0.076 C 
ATOM      7  C8  UNL d   1       2.713   0.575  -1.415  0.00  0.00     0.001 A 
ENDROOT
BRANCH   1   8
ATOM      8  C1  UNL d   1       0.702   1.906  -2.167  0.00  0.00     0.053 C 
ATOM      9  C   UNL d   1       0.126   0.727  -2.934  0.00  0.00     0.018 C 
ENDBRANCH   1   8
TORSDOF 1
ENDMDL
