MODEL 1
REMARK minimizedAffinity 3.78113127
REMARK minimizedRMSD -1
REMARK  1 active torsions:
REMARK  status: ('A' for Active; 'I' for Inactive)
REMARK    1  A    between atoms: C1_2  and  C2_3 
ROOT
ATOM      1  C2  UNL d   1      -1.888  -4.667  -1.545  0.00  0.00    -0.073 A 
ATOM      2  C3  UNL d   1      -3.021  -3.869  -1.736  0.00  0.00    -0.002 A 
ATOM      3  C4  UNL d   1      -3.135  -2.639  -1.087  0.00  0.00     0.004 A 
ATOM      4  C5  UNL d   1      -2.116  -2.192  -0.246  0.00  0.00    -0.004 A 
ATOM      5  C6  UNL d   1      -0.970  -2.970  -0.052  0.00  0.00    -0.075 A 
ATOM      6  C7  UNL d   1       0.135  -2.505   0.851  0.00  0.00     0.076 C 
ATOM      7  C8  UNL d   1      -0.864  -4.205  -0.705  0.00  0.00     0.001 A 
ENDROOT
BRANCH   1   8
ATOM      8  C1  UNL d   1      -1.757  -5.993  -2.250  0.00  0.00     0.053 C 
ATOM      9  C   UNL d   1      -2.380  -5.965  -3.636  0.00  0.00     0.018 C 
ENDBRANCH   1   8
TORSDOF 1
ENDMDL
