MODEL 1
REMARK minimizedAffinity 8.2452631
REMARK minimizedRMSD -1
REMARK  1 active torsions:
REMARK  status: ('A' for Active; 'I' for Inactive)
REMARK    1  A    between atoms: C1_2  and  C2_3 
ROOT
ATOM      1  C2  UNL d   1       1.807   1.325  -0.149  0.00  0.00    -0.073 A 
ATOM      2  C3  UNL d   1       2.011  -0.054  -0.023  0.00  0.00    -0.002 A 
ATOM      3  C4  UNL d   1       1.451  -0.937  -0.947  0.00  0.00     0.004 A 
ATOM      4  C5  UNL d   1       0.688  -0.451  -2.009  0.00  0.00    -0.004 A 
ATOM      5  C6  UNL d   1       0.483   0.924  -2.158  0.00  0.00    -0.075 A 
ATOM      6  C7  UNL d   1      -0.337   1.463  -3.294  0.00  0.00     0.076 C 
ATOM      7  C8  UNL d   1       1.046   1.804  -1.225  0.00  0.00     0.001 A 
ENDROOT
BRANCH   1   8
ATOM      8  C1  UNL d   1       2.415   2.282   0.843  0.00  0.00     0.053 C 
ATOM      9  C   UNL d   1       1.563   3.528   1.029  0.00  0.00     0.018 C 
ENDBRANCH   1   8
TORSDOF 1
ENDMDL
