MODEL 1
REMARK minimizedAffinity 5.30452156
REMARK minimizedRMSD -1
REMARK  1 active torsions:
REMARK  status: ('A' for Active; 'I' for Inactive)
REMARK    1  A    between atoms: C1_2  and  C2_3 
ROOT
ATOM      1  C2  UNL d   1       2.215   0.481  -0.265  0.00  0.00    -0.073 A 
ATOM      2  C3  UNL d   1       2.861   1.644  -0.699  0.00  0.00    -0.002 A 
ATOM      3  C4  UNL d   1       2.792   2.814   0.059  0.00  0.00     0.004 A 
ATOM      4  C5  UNL d   1       2.085   2.831   1.261  0.00  0.00    -0.004 A 
ATOM      5  C6  UNL d   1       1.442   1.676   1.718  0.00  0.00    -0.075 A 
ATOM      6  C7  UNL d   1       0.675   1.678   3.007  0.00  0.00     0.076 C 
ATOM      7  C8  UNL d   1       1.514   0.506   0.949  0.00  0.00     0.001 A 
ENDROOT
BRANCH   1   8
ATOM      8  C1  UNL d   1       2.292  -0.786  -1.077  0.00  0.00     0.053 C 
ATOM      9  C   UNL d   1       1.143  -0.899  -2.066  0.00  0.00     0.018 C 
ENDBRANCH   1   8
TORSDOF 1
ENDMDL
