MODEL 1
REMARK minimizedAffinity 4.82127333
REMARK minimizedRMSD -1
REMARK  1 active torsions:
REMARK  status: ('A' for Active; 'I' for Inactive)
REMARK    1  A    between atoms: C1_2  and  C2_3 
ROOT
ATOM      1  C2  UNL d   1       2.211   1.246  -0.346  0.00  0.00    -0.073 A 
ATOM      2  C3  UNL d   1       2.170   2.540  -0.876  0.00  0.00    -0.002 A 
ATOM      3  C4  UNL d   1       1.639   3.592  -0.127  0.00  0.00     0.004 A 
ATOM      4  C5  UNL d   1       1.151   3.361   1.159  0.00  0.00    -0.004 A 
ATOM      5  C6  UNL d   1       1.194   2.077   1.710  0.00  0.00    -0.075 A 
ATOM      6  C7  UNL d   1       0.671   1.812   3.091  0.00  0.00     0.076 C 
ATOM      7  C8  UNL d   1       1.726   1.026   0.951  0.00  0.00     0.001 A 
ENDROOT
BRANCH   1   8
ATOM      8  C1  UNL d   1       2.790   0.109  -1.148  0.00  0.00     0.053 C 
ATOM      9  C   UNL d   1       1.774  -0.999  -1.381  0.00  0.00     0.018 C 
ENDBRANCH   1   8
TORSDOF 1
ENDMDL
