MODEL 1
REMARK minimizedAffinity 7.30893755
REMARK minimizedRMSD -1
REMARK  1 active torsions:
REMARK  status: ('A' for Active; 'I' for Inactive)
REMARK    1  A    between atoms: C1_2  and  C2_3 
ROOT
ATOM      1  C2  UNL d   1       2.307   1.249  -1.073  0.00  0.00    -0.073 A 
ATOM      2  C3  UNL d   1       1.872   2.210  -1.992  0.00  0.00    -0.002 A 
ATOM      3  C4  UNL d   1       0.885   1.894  -2.928  0.00  0.00     0.004 A 
ATOM      4  C5  UNL d   1       0.320   0.620  -2.949  0.00  0.00    -0.004 A 
ATOM      5  C6  UNL d   1       0.733  -0.351  -2.030  0.00  0.00    -0.075 A 
ATOM      6  C7  UNL d   1       0.137  -1.727  -2.041  0.00  0.00     0.076 C 
ATOM      7  C8  UNL d   1       1.726  -0.027  -1.096  0.00  0.00     0.001 A 
ENDROOT
BRANCH   1   8
ATOM      8  C1  UNL d   1       3.367   1.587  -0.057  0.00  0.00     0.053 C 
ATOM      9  C   UNL d   1       2.818   2.435   1.080  0.00  0.00     0.018 C 
ENDBRANCH   1   8
TORSDOF 1
ENDMDL
