MODEL 1
REMARK minimizedAffinity 11.7135839
REMARK minimizedRMSD -1
REMARK  1 active torsions:
REMARK  status: ('A' for Active; 'I' for Inactive)
REMARK    1  A    between atoms: C1_2  and  C2_3 
ROOT
ATOM      1  C2  UNL d   1      -3.205  -5.316  -3.242  0.00  0.00    -0.073 A 
ATOM      2  C3  UNL d   1      -4.418  -5.991  -3.416  0.00  0.00    -0.002 A 
ATOM      3  C4  UNL d   1      -5.627  -5.353  -3.135  0.00  0.00     0.004 A 
ATOM      4  C5  UNL d   1      -5.635  -4.033  -2.683  0.00  0.00    -0.004 A 
ATOM      5  C6  UNL d   1      -4.434  -3.338  -2.514  0.00  0.00    -0.075 A 
ATOM      6  C7  UNL d   1      -4.426  -1.919  -2.027  0.00  0.00     0.076 C 
ATOM      7  C8  UNL d   1      -3.224  -3.987  -2.796  0.00  0.00     0.001 A 
ENDROOT
BRANCH   1   8
ATOM      8  C1  UNL d   1      -1.898  -5.999  -3.550  0.00  0.00     0.053 C 
ATOM      9  C   UNL d   1      -1.067  -5.213  -4.552  0.00  0.00     0.018 C 
ENDBRANCH   1   8
TORSDOF 1
ENDMDL
