MODEL 1
REMARK minimizedAffinity 2.15081429
REMARK minimizedRMSD -1
REMARK  1 active torsions:
REMARK  status: ('A' for Active; 'I' for Inactive)
REMARK    1  A    between atoms: C1_2  and  C2_3 
ROOT
ATOM      1  C2  UNL d   1      -3.050  -4.818  -1.816  0.00  0.00    -0.073 A 
ATOM      2  C3  UNL d   1      -2.209  -5.442  -2.745  0.00  0.00    -0.002 A 
ATOM      3  C4  UNL d   1      -0.998  -6.000  -2.335  0.00  0.00     0.004 A 
ATOM      4  C5  UNL d   1      -0.618  -5.946  -0.993  0.00  0.00    -0.004 A 
ATOM      5  C6  UNL d   1      -1.451  -5.338  -0.049  0.00  0.00    -0.075 A 
ATOM      6  C7  UNL d   1      -1.056  -5.270   1.397  0.00  0.00     0.076 C 
ATOM      7  C8  UNL d   1      -2.664  -4.777  -0.469  0.00  0.00     0.001 A 
ENDROOT
BRANCH   1   8
ATOM      8  C1  UNL d   1      -4.362  -4.219  -2.253  0.00  0.00     0.053 C 
ATOM      9  C   UNL d   1      -5.245  -5.236  -2.960  0.00  0.00     0.018 C 
ENDBRANCH   1   8
TORSDOF 1
ENDMDL
