MODEL 1
REMARK minimizedAffinity -3.4469645
REMARK minimizedRMSD -1
REMARK  0 active torsions:
REMARK  status: ('A' for Active; 'I' for Inactive)
ROOT
ATOM      1  C   UNL d   1       2.695  -1.118   0.424  0.00  0.00     0.023 A 
ATOM      2  C1  UNL d   1       1.692  -2.011   0.046  0.00  0.00     0.003 A 
ATOM      3  C2  UNL d   1       0.385  -1.557  -0.142  0.00  0.00     0.048 A 
ATOM      4  C3  UNL d   1       0.087  -0.208   0.050  0.00  0.00     0.023 A 
ATOM      5  C4  UNL d   1       1.087   0.689   0.427  0.00  0.00     0.048 A 
ATOM      6  C5  UNL d   1       2.393   0.231   0.614  0.00  0.00     0.003 A 
ATOM      7  I   UNL d   1      -1.857   0.469  -0.229  0.00  0.00    -0.146 I 
ENDROOT
TORSDOF 0
ENDMDL
