MODEL 1
REMARK minimizedAffinity -1.26091957
REMARK minimizedRMSD -1
REMARK  0 active torsions:
REMARK  status: ('A' for Active; 'I' for Inactive)
ROOT
ATOM      1  C   UNL d   1       2.288  -1.525   0.001  0.00  0.00     0.023 A 
ATOM      2  C1  UNL d   1       1.250  -1.774  -0.897  0.00  0.00     0.003 A 
ATOM      3  C2  UNL d   1       0.018  -1.135  -0.738  0.00  0.00     0.048 A 
ATOM      4  C3  UNL d   1      -0.168  -0.247   0.321  0.00  0.00     0.023 A 
ATOM      5  C4  UNL d   1       0.868   0.006   1.222  0.00  0.00     0.048 A 
ATOM      6  C5  UNL d   1       2.097  -0.636   1.059  0.00  0.00     0.003 A 
ATOM      7  I   UNL d   1      -2.000   0.706   0.560  0.00  0.00    -0.146 I 
ENDROOT
TORSDOF 0
ENDMDL
