MODEL 1
REMARK minimizedAffinity 0.068392247
REMARK minimizedRMSD -1
REMARK  0 active torsions:
REMARK  status: ('A' for Active; 'I' for Inactive)
ROOT
ATOM      1  C   UNL d   1      -0.402  -1.430  -0.574  0.00  0.00     0.023 A 
ATOM      2  C1  UNL d   1      -0.386  -0.041  -0.704  0.00  0.00     0.003 A 
ATOM      3  C2  UNL d   1       0.828   0.649  -0.693  0.00  0.00     0.048 A 
ATOM      4  C3  UNL d   1       2.022  -0.056  -0.553  0.00  0.00     0.023 A 
ATOM      5  C4  UNL d   1       2.012  -1.446  -0.424  0.00  0.00     0.048 A 
ATOM      6  C5  UNL d   1       0.796  -2.131  -0.434  0.00  0.00     0.003 A 
ATOM      7  I   UNL d   1       3.830   0.969  -0.537  0.00  0.00    -0.146 I 
ENDROOT
TORSDOF 0
ENDMDL
