MODEL 1
REMARK minimizedAffinity -4.15189075
REMARK minimizedRMSD -1
REMARK  0 active torsions:
REMARK  status: ('A' for Active; 'I' for Inactive)
ROOT
ATOM      1  C   UNL d   1       3.557  -0.266   0.211  0.00  0.00     0.023 A 
ATOM      2  C1  UNL d   1       2.657  -1.318   0.037  0.00  0.00     0.003 A 
ATOM      3  C2  UNL d   1       1.300  -1.053  -0.155  0.00  0.00     0.048 A 
ATOM      4  C3  UNL d   1       0.849   0.266  -0.174  0.00  0.00     0.023 A 
ATOM      5  C4  UNL d   1       1.746   1.322  -0.001  0.00  0.00     0.048 A 
ATOM      6  C5  UNL d   1       3.102   1.052   0.192  0.00  0.00     0.003 A 
ATOM      7  I   UNL d   1      -1.171   0.664  -0.460  0.00  0.00    -0.146 I 
ENDROOT
TORSDOF 0
ENDMDL
