MODEL 1
REMARK minimizedAffinity -3.31822085
REMARK minimizedRMSD -1
REMARK  0 active torsions:
REMARK  status: ('A' for Active; 'I' for Inactive)
ROOT
ATOM      1  C   UNL d   1       2.857  -1.353   0.685  0.00  0.00     0.023 A 
ATOM      2  C1  UNL d   1       2.338  -0.426   1.589  0.00  0.00     0.003 A 
ATOM      3  C2  UNL d   1       1.147   0.243   1.299  0.00  0.00     0.048 A 
ATOM      4  C3  UNL d   1       0.479  -0.022   0.104  0.00  0.00     0.023 A 
ATOM      5  C4  UNL d   1       0.994  -0.950  -0.803  0.00  0.00     0.048 A 
ATOM      6  C5  UNL d   1       2.186  -1.615  -0.509  0.00  0.00     0.003 A 
ATOM      7  I   UNL d   1      -1.295   0.971  -0.329  0.00  0.00    -0.146 I 
ENDROOT
TORSDOF 0
ENDMDL
