MODEL 1
REMARK minimizedAffinity -2.49197769
REMARK minimizedRMSD -1
REMARK  0 active torsions:
REMARK  status: ('A' for Active; 'I' for Inactive)
ROOT
ATOM      1  C   UNL d   1       2.578  -1.413   0.418  0.00  0.00     0.023 A 
ATOM      2  C1  UNL d   1       1.476  -2.243   0.206  0.00  0.00     0.003 A 
ATOM      3  C2  UNL d   1       0.190  -1.701   0.170  0.00  0.00     0.048 A 
ATOM      4  C3  UNL d   1       0.012  -0.329   0.346  0.00  0.00     0.023 A 
ATOM      5  C4  UNL d   1       1.111   0.504   0.558  0.00  0.00     0.048 A 
ATOM      6  C5  UNL d   1       2.395  -0.042   0.594  0.00  0.00     0.003 A 
ATOM      7  I   UNL d   1      -1.902   0.479   0.293  0.00  0.00    -0.146 I 
ENDROOT
TORSDOF 0
ENDMDL
