MODEL 1
REMARK minimizedAffinity 13.885561
REMARK minimizedRMSD -1
REMARK  0 active torsions:
REMARK  status: ('A' for Active; 'I' for Inactive)
ROOT
ATOM      1  C   UNL d   1       1.553  -2.591   0.959  0.00  0.00     0.124 A 
ATOM      2  C1  UNL d   1       2.602  -1.718   1.209  0.00  0.00     0.062 A 
ATOM      3  C2  UNL d   1       3.873  -1.989   0.710  0.00  0.00     0.162 A 
ATOM      4  C3  UNL d   1       4.101  -3.138  -0.046  0.00  0.00    -0.034 A 
ATOM      5  C4  UNL d   1       3.041  -4.012  -0.293  0.00  0.00     0.162 A 
ATOM      6  C5  UNL d   1       1.773  -3.737   0.208  0.00  0.00     0.062 A 
ATOM      7  F   UNL d   1       0.761  -4.582  -0.035  0.00  0.00    -0.097 F 
ATOM      8  F1  UNL d   1       3.226  -5.127  -1.016  0.00  0.00    -0.096 F 
ATOM      9  I   UNL d   1       6.000  -3.547  -0.795  0.00  0.00    -0.060 I 
ATOM     10  F2  UNL d   1       4.868  -1.127   0.967  0.00  0.00    -0.096 F 
ATOM     11  F3  UNL d   1       2.392  -0.610   1.935  0.00  0.00    -0.097 F 
ATOM     12  F4  UNL d   1       0.332  -2.328   1.441  0.00  0.00    -0.092 F 
ENDROOT
TORSDOF 0
ENDMDL
