MODEL 1
REMARK minimizedAffinity 11.093997
REMARK minimizedRMSD -1
REMARK  0 active torsions:
REMARK  status: ('A' for Active; 'I' for Inactive)
ROOT
ATOM      1  C   UNL d   1      -3.326   0.406   1.653  0.00  0.00     0.124 A 
ATOM      2  C1  UNL d   1      -2.919  -0.096   0.424  0.00  0.00     0.062 A 
ATOM      3  C2  UNL d   1      -1.802  -0.922   0.340  0.00  0.00     0.162 A 
ATOM      4  C3  UNL d   1      -1.084  -1.254   1.489  0.00  0.00    -0.034 A 
ATOM      5  C4  UNL d   1      -1.499  -0.744   2.721  0.00  0.00     0.162 A 
ATOM      6  C5  UNL d   1      -2.615   0.081   2.800  0.00  0.00     0.062 A 
ATOM      7  F   UNL d   1      -3.007   0.565   3.988  0.00  0.00    -0.097 F 
ATOM      8  F1  UNL d   1      -0.831  -1.043   3.846  0.00  0.00    -0.096 F 
ATOM      9  I   UNL d   1       0.586  -2.489   1.368  0.00  0.00    -0.060 I 
ATOM     10  F2  UNL d   1      -1.432  -1.392  -0.860  0.00  0.00    -0.096 F 
ATOM     11  F3  UNL d   1      -3.603   0.217  -0.686  0.00  0.00    -0.097 F 
ATOM     12  F4  UNL d   1      -4.400   1.202   1.730  0.00  0.00    -0.092 F 
ENDROOT
TORSDOF 0
ENDMDL
