MODEL 1
REMARK minimizedAffinity 12.6905937
REMARK minimizedRMSD -1
REMARK  0 active torsions:
REMARK  status: ('A' for Active; 'I' for Inactive)
ROOT
ATOM      1  C   UNL d   1       2.407  -3.525   1.487  0.00  0.00     0.124 A 
ATOM      2  C1  UNL d   1       2.010  -2.247   1.118  0.00  0.00     0.062 A 
ATOM      3  C2  UNL d   1       2.958  -1.302   0.736  0.00  0.00     0.162 A 
ATOM      4  C3  UNL d   1       4.314  -1.633   0.721  0.00  0.00    -0.034 A 
ATOM      5  C4  UNL d   1       4.705  -2.919   1.094  0.00  0.00     0.162 A 
ATOM      6  C5  UNL d   1       3.753  -3.860   1.475  0.00  0.00     0.062 A 
ATOM      7  F   UNL d   1       4.138  -5.094   1.831  0.00  0.00    -0.097 F 
ATOM      8  F1  UNL d   1       6.000  -3.270   1.091  0.00  0.00    -0.096 F 
ATOM      9  I   UNL d   1       5.735  -0.223   0.151  0.00  0.00    -0.060 I 
ATOM     10  F2  UNL d   1       2.547  -0.075   0.384  0.00  0.00    -0.096 F 
ATOM     11  F3  UNL d   1       0.710  -1.921   1.129  0.00  0.00    -0.097 F 
ATOM     12  F4  UNL d   1       1.492  -4.431   1.854  0.00  0.00    -0.092 F 
ENDROOT
TORSDOF 0
ENDMDL
