MODEL 1
REMARK minimizedAffinity 16.572794
REMARK minimizedRMSD -1
REMARK  0 active torsions:
REMARK  status: ('A' for Active; 'I' for Inactive)
ROOT
ATOM      1  C   UNL d   1       1.809  -4.336   0.968  0.00  0.00     0.124 A 
ATOM      2  C1  UNL d   1       3.104  -4.707   0.632  0.00  0.00     0.062 A 
ATOM      3  C2  UNL d   1       4.095  -3.739   0.493  0.00  0.00     0.162 A 
ATOM      4  C3  UNL d   1       3.796  -2.392   0.692  0.00  0.00    -0.034 A 
ATOM      5  C4  UNL d   1       2.491  -2.027   1.029  0.00  0.00     0.162 A 
ATOM      6  C5  UNL d   1       1.504  -2.997   1.166  0.00  0.00     0.062 A 
ATOM      7  F   UNL d   1       0.254  -2.637   1.491  0.00  0.00    -0.097 F 
ATOM      8  F1  UNL d   1       2.169  -0.740   1.227  0.00  0.00    -0.096 F 
ATOM      9  I   UNL d   1       5.275  -0.942   0.485  0.00  0.00    -0.060 I 
ATOM     10  F2  UNL d   1       5.338  -4.126   0.167  0.00  0.00    -0.096 F 
ATOM     11  F3  UNL d   1       3.401  -6.000   0.439  0.00  0.00    -0.097 F 
ATOM     12  F4  UNL d   1       0.857  -5.269   1.100  0.00  0.00    -0.092 F 
ENDROOT
TORSDOF 0
ENDMDL
