MODEL 1
REMARK minimizedAffinity 15.6183472
REMARK minimizedRMSD -1
REMARK  0 active torsions:
REMARK  status: ('A' for Active; 'I' for Inactive)
ROOT
ATOM      1  C   UNL d   1      -3.494   1.185   3.054  0.00  0.00     0.124 A 
ATOM      2  C1  UNL d   1      -2.738   0.784   4.147  0.00  0.00     0.062 A 
ATOM      3  C2  UNL d   1      -1.734  -0.167   3.993  0.00  0.00     0.162 A 
ATOM      4  C3  UNL d   1      -1.479  -0.724   2.739  0.00  0.00    -0.034 A 
ATOM      5  C4  UNL d   1      -2.243  -0.316   1.645  0.00  0.00     0.162 A 
ATOM      6  C5  UNL d   1      -3.246   0.635   1.804  0.00  0.00     0.062 A 
ATOM      7  F   UNL d   1      -3.975   1.021   0.747  0.00  0.00    -0.097 F 
ATOM      8  F1  UNL d   1      -2.024  -0.831   0.426  0.00  0.00    -0.096 F 
ATOM      9  I   UNL d   1       0.022  -2.147   2.504  0.00  0.00    -0.060 I 
ATOM     10  F2  UNL d   1      -1.019  -0.536   5.066  0.00  0.00    -0.096 F 
ATOM     11  F3  UNL d   1      -2.976   1.314   5.356  0.00  0.00    -0.097 F 
ATOM     12  F4  UNL d   1      -4.460   2.100   3.206  0.00  0.00    -0.092 F 
ENDROOT
TORSDOF 0
ENDMDL
