MODEL 1
REMARK minimizedAffinity 14.2244387
REMARK minimizedRMSD -1
REMARK  0 active torsions:
REMARK  status: ('A' for Active; 'I' for Inactive)
ROOT
ATOM      1  C   UNL d   1      -1.376  -0.264   3.114  0.00  0.00     0.124 A 
ATOM      2  C1  UNL d   1      -0.109   0.286   2.977  0.00  0.00     0.062 A 
ATOM      3  C2  UNL d   1       0.937  -0.482   2.474  0.00  0.00     0.162 A 
ATOM      4  C3  UNL d   1       0.720  -1.809   2.102  0.00  0.00    -0.034 A 
ATOM      5  C4  UNL d   1      -0.557  -2.355   2.244  0.00  0.00     0.162 A 
ATOM      6  C5  UNL d   1      -1.599  -1.583   2.747  0.00  0.00     0.062 A 
ATOM      7  F   UNL d   1      -2.822  -2.116   2.879  0.00  0.00    -0.097 F 
ATOM      8  F1  UNL d   1      -0.800  -3.628   1.896  0.00  0.00    -0.096 F 
ATOM      9  I   UNL d   1       2.281  -2.962   1.350  0.00  0.00    -0.060 I 
ATOM     10  F2  UNL d   1       2.151   0.075   2.352  0.00  0.00    -0.096 F 
ATOM     11  F3  UNL d   1       0.110   1.561   3.331  0.00  0.00    -0.097 F 
ATOM     12  F4  UNL d   1      -2.380   0.478   3.599  0.00  0.00    -0.092 F 
ENDROOT
TORSDOF 0
ENDMDL
