MODEL 1
REMARK minimizedAffinity 15.0328941
REMARK minimizedRMSD -1
REMARK  0 active torsions:
REMARK  status: ('A' for Active; 'I' for Inactive)
ROOT
ATOM      1  C   UNL d   1      -0.275  -1.552   3.056  0.00  0.00     0.124 A 
ATOM      2  C1  UNL d   1      -0.310  -0.260   3.563  0.00  0.00     0.062 A 
ATOM      3  C2  UNL d   1      -1.489   0.477   3.520  0.00  0.00     0.162 A 
ATOM      4  C3  UNL d   1      -2.645  -0.076   2.969  0.00  0.00    -0.034 A 
ATOM      5  C4  UNL d   1      -2.603  -1.375   2.461  0.00  0.00     0.162 A 
ATOM      6  C5  UNL d   1      -1.421  -2.108   2.506  0.00  0.00     0.062 A 
ATOM      7  F   UNL d   1      -1.390  -3.356   2.016  0.00  0.00    -0.097 F 
ATOM      8  F1  UNL d   1      -3.696  -1.938   1.924  0.00  0.00    -0.096 F 
ATOM      9  I   UNL d   1      -4.411   1.024   2.904  0.00  0.00    -0.060 I 
ATOM     10  F2  UNL d   1      -1.493   1.723   4.017  0.00  0.00    -0.096 F 
ATOM     11  F3  UNL d   1       0.797   0.279   4.094  0.00  0.00    -0.097 F 
ATOM     12  F4  UNL d   1       0.861  -2.259   3.097  0.00  0.00    -0.092 F 
ENDROOT
TORSDOF 0
ENDMDL
