MODEL 1
REMARK minimizedAffinity 17.0360508
REMARK minimizedRMSD -1
REMARK  0 active torsions:
REMARK  status: ('A' for Active; 'I' for Inactive)
ROOT
ATOM      1  C   UNL d   1      -1.994   2.797  -2.893  0.00  0.00     0.124 A 
ATOM      2  C1  UNL d   1      -0.645   2.475  -2.852  0.00  0.00     0.062 A 
ATOM      3  C2  UNL d   1       0.281   3.247  -3.548  0.00  0.00     0.162 A 
ATOM      4  C3  UNL d   1      -0.140   4.349  -4.292  0.00  0.00    -0.034 A 
ATOM      5  C4  UNL d   1      -1.499   4.666  -4.330  0.00  0.00     0.162 A 
ATOM      6  C5  UNL d   1      -2.420   3.892  -3.632  0.00  0.00     0.062 A 
ATOM      7  F   UNL d   1      -3.724   4.205  -3.673  0.00  0.00    -0.097 F 
ATOM      8  F1  UNL d   1      -1.938   5.719  -5.035  0.00  0.00    -0.096 F 
ATOM      9  I   UNL d   1       1.240   5.506  -5.335  0.00  0.00    -0.060 I 
ATOM     10  F2  UNL d   1       1.578   2.913  -3.490  0.00  0.00    -0.096 F 
ATOM     11  F3  UNL d   1      -0.231   1.417  -2.139  0.00  0.00    -0.097 F 
ATOM     12  F4  UNL d   1      -2.883   2.052  -2.223  0.00  0.00    -0.092 F 
ENDROOT
TORSDOF 0
ENDMDL
