MODEL 1
REMARK minimizedAffinity 15.4726686
REMARK minimizedRMSD -1
REMARK  0 active torsions:
REMARK  status: ('A' for Active; 'I' for Inactive)
ROOT
ATOM      1  C   UNL d   1      -2.182  -0.475  -0.741  0.00  0.00     0.124 A 
ATOM      2  C1  UNL d   1      -2.151  -1.029   0.532  0.00  0.00     0.062 A 
ATOM      3  C2  UNL d   1      -1.030  -1.734   0.962  0.00  0.00     0.162 A 
ATOM      4  C3  UNL d   1       0.070  -1.888   0.119  0.00  0.00    -0.034 A 
ATOM      5  C4  UNL d   1       0.032  -1.329  -1.160  0.00  0.00     0.162 A 
ATOM      6  C5  UNL d   1      -1.091  -0.625  -1.585  0.00  0.00     0.062 A 
ATOM      7  F   UNL d   1      -1.118  -0.091  -2.815  0.00  0.00    -0.097 F 
ATOM      8  F1  UNL d   1       1.073  -1.458  -1.996  0.00  0.00    -0.096 F 
ATOM      9  I   UNL d   1       1.748  -2.940   0.758  0.00  0.00    -0.060 I 
ATOM     10  F2  UNL d   1      -1.028  -2.258   2.196  0.00  0.00    -0.096 F 
ATOM     11  F3  UNL d   1      -3.204  -0.886   1.349  0.00  0.00    -0.097 F 
ATOM     12  F4  UNL d   1      -3.262   0.201  -1.152  0.00  0.00    -0.092 F 
ENDROOT
TORSDOF 0
ENDMDL
