MODEL 1
REMARK minimizedAffinity 8.9460268
REMARK minimizedRMSD -1
REMARK  0 active torsions:
REMARK  status: ('A' for Active; 'I' for Inactive)
ROOT
ATOM      1  C   UNL d   1      -1.626  -0.549   2.552  0.00  0.00     0.124 A 
ATOM      2  C1  UNL d   1      -1.493  -0.734   1.182  0.00  0.00     0.062 A 
ATOM      3  C2  UNL d   1      -0.463  -1.524   0.680  0.00  0.00     0.162 A 
ATOM      4  C3  UNL d   1       0.441  -2.137   1.547  0.00  0.00    -0.034 A 
ATOM      5  C4  UNL d   1       0.301  -1.946   2.923  0.00  0.00     0.162 A 
ATOM      6  C5  UNL d   1      -0.729  -1.155   3.420  0.00  0.00     0.062 A 
ATOM      7  F   UNL d   1      -0.856  -0.977   4.743  0.00  0.00    -0.097 F 
ATOM      8  F1  UNL d   1       1.153  -2.520   3.785  0.00  0.00    -0.096 F 
ATOM      9  I   UNL d   1       1.982  -3.320   0.799  0.00  0.00    -0.060 I 
ATOM     10  F2  UNL d   1      -0.359  -1.686  -0.648  0.00  0.00    -0.096 F 
ATOM     11  F3  UNL d   1      -2.357  -0.149   0.341  0.00  0.00    -0.097 F 
ATOM     12  F4  UNL d   1      -2.617   0.213   3.033  0.00  0.00    -0.092 F 
ENDROOT
TORSDOF 0
ENDMDL
