MODEL 1
REMARK minimizedAffinity 19.1120548
REMARK minimizedRMSD -1
REMARK  0 active torsions:
REMARK  status: ('A' for Active; 'I' for Inactive)
ROOT
ATOM      1  C   UNL d   1       1.361  -3.136   1.675  0.00  0.00     0.124 A 
ATOM      2  C1  UNL d   1       2.670  -3.490   1.970  0.00  0.00     0.062 A 
ATOM      3  C2  UNL d   1       3.727  -2.711   1.507  0.00  0.00     0.162 A 
ATOM      4  C3  UNL d   1       3.478  -1.569   0.745  0.00  0.00    -0.034 A 
ATOM      5  C4  UNL d   1       2.159  -1.220   0.452  0.00  0.00     0.162 A 
ATOM      6  C5  UNL d   1       1.106  -2.002   0.917  0.00  0.00     0.062 A 
ATOM      7  F   UNL d   1      -0.158  -1.659   0.631  0.00  0.00    -0.097 F 
ATOM      8  F1  UNL d   1       1.884  -0.129  -0.278  0.00  0.00    -0.096 F 
ATOM      9  I   UNL d   1       5.055  -0.401   0.051  0.00  0.00    -0.060 I 
ATOM     10  F2  UNL d   1       4.982  -3.076   1.807  0.00  0.00    -0.096 F 
ATOM     11  F3  UNL d   1       2.919  -4.585   2.701  0.00  0.00    -0.097 F 
ATOM     12  F4  UNL d   1       0.346  -3.888   2.121  0.00  0.00    -0.092 F 
ENDROOT
TORSDOF 0
ENDMDL
