MODEL 1
REMARK minimizedAffinity 20.8228073
REMARK minimizedRMSD -1
REMARK  0 active torsions:
REMARK  status: ('A' for Active; 'I' for Inactive)
ROOT
ATOM      1  C   UNL d   1       0.254  -4.682   1.883  0.00  0.00     0.124 A 
ATOM      2  C1  UNL d   1       1.450  -4.193   1.376  0.00  0.00     0.062 A 
ATOM      3  C2  UNL d   1       1.697  -2.823   1.362  0.00  0.00     0.162 A 
ATOM      4  C3  UNL d   1       0.745  -1.932   1.857  0.00  0.00    -0.034 A 
ATOM      5  C4  UNL d   1      -0.456  -2.430   2.364  0.00  0.00     0.162 A 
ATOM      6  C5  UNL d   1      -0.698  -3.800   2.376  0.00  0.00     0.062 A 
ATOM      7  F   UNL d   1      -1.854  -4.270   2.866  0.00  0.00    -0.097 F 
ATOM      8  F1  UNL d   1      -1.392  -1.601   2.848  0.00  0.00    -0.096 F 
ATOM      9  I   UNL d   1       1.111   0.117   1.837  0.00  0.00    -0.060 I 
ATOM     10  F2  UNL d   1       2.862  -2.379   0.866  0.00  0.00    -0.096 F 
ATOM     11  F3  UNL d   1       2.371  -5.043   0.898  0.00  0.00    -0.097 F 
ATOM     12  F4  UNL d   1       0.019  -6.000   1.895  0.00  0.00    -0.092 F 
ENDROOT
TORSDOF 0
ENDMDL
