MODEL 1
REMARK minimizedAffinity -0.346542388
REMARK minimizedRMSD -1
REMARK  0 active torsions:
REMARK  status: ('A' for Active; 'I' for Inactive)
ROOT
ATOM      1  N1  IND d   1       0.941   1.166  -0.360  0.00  0.00    -0.196 N 
ATOM      2  C2  IND d   1      -0.368   1.489  -0.589  0.00  0.00     0.054 A 
ATOM      3  C3  IND d   1      -1.171   0.446  -0.282  0.00  0.00    -0.031 A 
ATOM      4  C4  IND d   1      -0.562  -1.850   0.710  0.00  0.00     0.051 A 
ATOM      5  C5  IND d   1       0.510  -2.623   1.059  0.00  0.00    -0.031 A 
ATOM      6  C6  IND d   1       1.807  -2.162   0.952  0.00  0.00     0.015 A 
ATOM      7  C7  IND d   1       2.080  -0.901   0.503  0.00  0.00    -0.016 A 
ATOM      8  C8  IND d   1       0.994  -0.116   0.141  0.00  0.00    -0.047 A 
ATOM      9  C9  IND d   1      -0.321  -0.594   0.207  0.00  0.00    -0.096 A 
ATOM     10  HN1 IND d   1       1.617   1.678  -0.504  0.00  0.00     0.298 HD
ENDROOT
TORSDOF 0
ENDMDL
