MODEL 1
REMARK minimizedAffinity -1.08198845
REMARK minimizedRMSD -1
REMARK  0 active torsions:
REMARK  status: ('A' for Active; 'I' for Inactive)
ROOT
ATOM      1  N1  IND d   1      -1.980   0.774   1.710  0.00  0.00    -0.196 N 
ATOM      2  C2  IND d   1      -2.129  -0.217   2.639  0.00  0.00     0.054 A 
ATOM      3  C3  IND d   1      -1.279  -1.236   2.380  0.00  0.00    -0.031 A 
ATOM      4  C4  IND d   1       0.515  -1.443   0.544  0.00  0.00     0.051 A 
ATOM      5  C5  IND d   1       1.001  -0.806  -0.563  0.00  0.00    -0.031 A 
ATOM      6  C6  IND d   1       0.510   0.416  -0.976  0.00  0.00     0.015 A 
ATOM      7  C7  IND d   1      -0.482   1.055  -0.288  0.00  0.00    -0.016 A 
ATOM      8  C8  IND d   1      -0.983   0.408   0.833  0.00  0.00    -0.047 A 
ATOM      9  C9  IND d   1      -0.518  -0.852   1.233  0.00  0.00    -0.096 A 
ATOM     10  HN1 IND d   1      -2.433   1.504   1.679  0.00  0.00     0.298 HD
ENDROOT
TORSDOF 0
ENDMDL
