MODEL 1
REMARK minimizedAffinity -4.12990713
REMARK minimizedRMSD -1
REMARK  0 active torsions:
REMARK  status: ('A' for Active; 'I' for Inactive)
ROOT
ATOM      1  N1  IND d   1      -0.746   2.853  -0.272  0.00  0.00    -0.196 N 
ATOM      2  C2  IND d   1      -0.013   3.920  -0.712  0.00  0.00     0.054 A 
ATOM      3  C3  IND d   1      -0.215   4.117  -2.034  0.00  0.00    -0.031 A 
ATOM      4  C4  IND d   1      -1.784   2.872  -3.651  0.00  0.00     0.051 A 
ATOM      5  C5  IND d   1      -2.630   1.801  -3.721  0.00  0.00    -0.031 A 
ATOM      6  C6  IND d   1      -2.899   1.011  -2.621  0.00  0.00     0.015 A 
ATOM      7  C7  IND d   1      -2.338   1.272  -1.403  0.00  0.00    -0.016 A 
ATOM      8  C8  IND d   1      -1.473   2.354  -1.331  0.00  0.00    -0.047 A 
ATOM      9  C9  IND d   1      -1.163   3.133  -2.453  0.00  0.00    -0.096 A 
ATOM     10  HN1 IND d   1      -0.752   2.545   0.531  0.00  0.00     0.298 HD
ENDROOT
TORSDOF 0
ENDMDL
