MODEL 1
REMARK minimizedAffinity 0.485359222
REMARK minimizedRMSD -1
REMARK  0 active torsions:
REMARK  status: ('A' for Active; 'I' for Inactive)
ROOT
ATOM      1  N1  IND d   1      -1.934  -0.922   1.834  0.00  0.00    -0.196 N 
ATOM      2  C2  IND d   1      -1.197  -2.056   1.635  0.00  0.00     0.054 A 
ATOM      3  C3  IND d   1      -0.347  -1.888   0.597  0.00  0.00    -0.031 A 
ATOM      4  C4  IND d   1       0.073   0.197  -0.853  0.00  0.00     0.051 A 
ATOM      5  C5  IND d   1      -0.385   1.466  -1.074  0.00  0.00    -0.031 A 
ATOM      6  C6  IND d   1      -1.402   2.015  -0.320  0.00  0.00     0.015 A 
ATOM      7  C7  IND d   1      -1.993   1.317   0.695  0.00  0.00    -0.016 A 
ATOM      8  C8  IND d   1      -1.535   0.027   0.918  0.00  0.00    -0.047 A 
ATOM      9  C9  IND d   1      -0.533  -0.552   0.129  0.00  0.00    -0.096 A 
ATOM     10  HN1 IND d   1      -2.544  -0.819   2.431  0.00  0.00     0.298 HD
ENDROOT
TORSDOF 0
ENDMDL
