MODEL 1
REMARK minimizedAffinity -3.35185981
REMARK minimizedRMSD -1
REMARK  0 active torsions:
REMARK  status: ('A' for Active; 'I' for Inactive)
ROOT
ATOM      1  N1  IND d   1      -3.287   1.936  -4.452  0.00  0.00    -0.196 N 
ATOM      2  C2  IND d   1      -3.203   1.026  -3.435  0.00  0.00     0.054 A 
ATOM      3  C3  IND d   1      -2.142   1.302  -2.645  0.00  0.00    -0.031 A 
ATOM      4  C4  IND d   1      -0.468   3.254  -2.775  0.00  0.00     0.051 A 
ATOM      5  C5  IND d   1      -0.117   4.322  -3.552  0.00  0.00    -0.031 A 
ATOM      6  C6  IND d   1      -0.820   4.657  -4.691  0.00  0.00     0.015 A 
ATOM      7  C7  IND d   1      -1.913   3.940  -5.091  0.00  0.00    -0.016 A 
ATOM      8  C8  IND d   1      -2.268   2.851  -4.307  0.00  0.00    -0.047 A 
ATOM      9  C9  IND d   1      -1.533   2.481  -3.174  0.00  0.00    -0.096 A 
ATOM     10  HN1 IND d   1      -3.877   1.936  -5.078  0.00  0.00     0.298 HD
ENDROOT
TORSDOF 0
ENDMDL
