MODEL 1
REMARK minimizedAffinity -4.93106794
REMARK minimizedRMSD -1
REMARK  0 active torsions:
REMARK  status: ('A' for Active; 'I' for Inactive)
ROOT
ATOM      1  N1  IND d   1      -0.344   1.524  -0.007  0.00  0.00    -0.196 N 
ATOM      2  C2  IND d   1       0.217   0.364  -0.463  0.00  0.00     0.054 A 
ATOM      3  C3  IND d   1       1.529   0.549  -0.732  0.00  0.00    -0.031 A 
ATOM      4  C4  IND d   1       2.986   2.646  -0.401  0.00  0.00     0.051 A 
ATOM      5  C5  IND d   1       2.912   3.964  -0.044  0.00  0.00    -0.031 A 
ATOM      6  C6  IND d   1       1.726   4.546   0.354  0.00  0.00     0.015 A 
ATOM      7  C7  IND d   1       0.567   3.827   0.421  0.00  0.00    -0.016 A 
ATOM      8  C8  IND d   1       0.636   2.491   0.053  0.00  0.00    -0.047 A 
ATOM      9  C9  IND d   1       1.828   1.905  -0.392  0.00  0.00    -0.096 A 
ATOM     10  HN1 IND d   1      -1.170   1.632   0.207  0.00  0.00     0.298 HD
ENDROOT
TORSDOF 0
ENDMDL
