MODEL 1
REMARK minimizedAffinity -2.95299029
REMARK minimizedRMSD -1
REMARK  0 active torsions:
REMARK  status: ('A' for Active; 'I' for Inactive)
ROOT
ATOM      1  N1  IND d   1       0.052   4.322  -3.012  0.00  0.00    -0.196 N 
ATOM      2  C2  IND d   1      -0.129   4.561  -4.346  0.00  0.00     0.054 A 
ATOM      3  C3  IND d   1      -1.009   3.678  -4.867  0.00  0.00    -0.031 A 
ATOM      4  C4  IND d   1      -2.351   1.821  -3.693  0.00  0.00     0.051 A 
ATOM      5  C5  IND d   1      -2.497   1.196  -2.486  0.00  0.00    -0.031 A 
ATOM      6  C6  IND d   1      -1.788   1.590  -1.370  0.00  0.00     0.015 A 
ATOM      7  C7  IND d   1      -0.912   2.637  -1.416  0.00  0.00    -0.016 A 
ATOM      8  C8  IND d   1      -0.756   3.270  -2.642  0.00  0.00    -0.047 A 
ATOM      9  C9  IND d   1      -1.441   2.846  -3.788  0.00  0.00    -0.096 A 
ATOM     10  HN1 IND d   1       0.582   4.756  -2.492  0.00  0.00     0.298 HD
ENDROOT
TORSDOF 0
ENDMDL
