MODEL 1
REMARK minimizedAffinity 7.52418137
REMARK minimizedRMSD -1
REMARK  0 active torsions:
REMARK  status: ('A' for Active; 'I' for Inactive)
ROOT
ATOM      1  N1  IND d   1       1.358   4.819   0.832  0.00  0.00    -0.196 N 
ATOM      2  C2  IND d   1       0.172   4.194   0.564  0.00  0.00     0.054 A 
ATOM      3  C3  IND d   1       0.393   2.982   0.007  0.00  0.00    -0.031 A 
ATOM      4  C4  IND d   1       2.621   1.780  -0.460  0.00  0.00     0.051 A 
ATOM      5  C5  IND d   1       3.975   1.966  -0.419  0.00  0.00    -0.031 A 
ATOM      6  C6  IND d   1       4.536   3.134   0.053  0.00  0.00     0.015 A 
ATOM      7  C7  IND d   1       3.762   4.161   0.515  0.00  0.00    -0.016 A 
ATOM      8  C8  IND d   1       2.387   3.979   0.468  0.00  0.00    -0.047 A 
ATOM      9  C9  IND d   1       1.811   2.812  -0.050  0.00  0.00    -0.096 A 
ATOM     10  HN1 IND d   1       1.446   5.604   1.170  0.00  0.00     0.298 HD
ENDROOT
TORSDOF 0
ENDMDL
