MODEL 1
REMARK minimizedAffinity 0.660989642
REMARK minimizedRMSD -1
REMARK  0 active torsions:
REMARK  status: ('A' for Active; 'I' for Inactive)
ROOT
ATOM      1  N1  IND d   1      -1.673   0.049  -0.883  0.00  0.00    -0.196 N 
ATOM      2  C2  IND d   1      -0.632   0.503  -0.122  0.00  0.00     0.054 A 
ATOM      3  C3  IND d   1      -0.183   1.686  -0.598  0.00  0.00    -0.031 A 
ATOM      4  C4  IND d   1      -1.073   3.107  -2.551  0.00  0.00     0.051 A 
ATOM      5  C5  IND d   1      -1.986   3.090  -3.568  0.00  0.00    -0.031 A 
ATOM      6  C6  IND d   1      -2.862   2.038  -3.743  0.00  0.00     0.015 A 
ATOM      7  C7  IND d   1      -2.864   0.965  -2.897  0.00  0.00    -0.016 A 
ATOM      8  C8  IND d   1      -1.933   0.976  -1.869  0.00  0.00    -0.047 A 
ATOM      9  C9  IND d   1      -1.013   2.021  -1.711  0.00  0.00    -0.096 A 
ATOM     10  HN1 IND d   1      -2.095  -0.691  -0.765  0.00  0.00     0.298 HD
ENDROOT
TORSDOF 0
ENDMDL
