MODEL 1
REMARK minimizedAffinity -2.90119982
REMARK minimizedRMSD -1
REMARK  0 active torsions:
REMARK  status: ('A' for Active; 'I' for Inactive)
ROOT
ATOM      1  N1  IND d   1      -0.049   0.745  -0.489  0.00  0.00    -0.196 N 
ATOM      2  C2  IND d   1       1.068   1.465  -0.812  0.00  0.00     0.054 A 
ATOM      3  C3  IND d   1       2.180   0.820  -0.394  0.00  0.00    -0.031 A 
ATOM      4  C4  IND d   1       2.408  -1.475   0.749  0.00  0.00     0.051 A 
ATOM      5  C5  IND d   1       1.666  -2.492   1.281  0.00  0.00    -0.031 A 
ATOM      6  C6  IND d   1       0.287  -2.483   1.247  0.00  0.00     0.015 A 
ATOM      7  C7  IND d   1      -0.405  -1.458   0.667  0.00  0.00    -0.016 A 
ATOM      8  C8  IND d   1       0.345  -0.420   0.132  0.00  0.00    -0.047 A 
ATOM      9  C9  IND d   1       1.744  -0.403   0.201  0.00  0.00    -0.096 A 
ATOM     10  HN1 IND d   1      -0.860   0.980  -0.647  0.00  0.00     0.298 HD
ENDROOT
TORSDOF 0
ENDMDL
