MODEL 1
REMARK minimizedAffinity -2.69244957
REMARK minimizedRMSD -1
REMARK  0 active torsions:
REMARK  status: ('A' for Active; 'I' for Inactive)
ROOT
ATOM      1  N1  IND d   1       0.677  -2.531   2.075  0.00  0.00    -0.196 N 
ATOM      2  C2  IND d   1       1.830  -2.811   1.396  0.00  0.00     0.054 A 
ATOM      3  C3  IND d   1       1.983  -1.959   0.357  0.00  0.00    -0.031 A 
ATOM      4  C4  IND d   1       0.516   0.034  -0.353  0.00  0.00     0.051 A 
ATOM      5  C5  IND d   1      -0.662   0.662  -0.061  0.00  0.00    -0.031 A 
ATOM      6  C6  IND d   1      -1.469   0.252   0.980  0.00  0.00     0.015 A 
ATOM      7  C7  IND d   1      -1.121  -0.800   1.780  0.00  0.00    -0.016 A 
ATOM      8  C8  IND d   1       0.071  -1.445   1.482  0.00  0.00    -0.047 A 
ATOM      9  C9  IND d   1       0.874  -1.060   0.400  0.00  0.00    -0.096 A 
ATOM     10  HN1 IND d   1       0.380  -2.961   2.758  0.00  0.00     0.298 HD
ENDROOT
TORSDOF 0
ENDMDL
