MODEL 1
REMARK minimizedAffinity -2.9196496
REMARK minimizedRMSD -1
REMARK  0 active torsions:
REMARK  status: ('A' for Active; 'I' for Inactive)
ROOT
ATOM      1  N1  IND d   1       0.853   1.170   0.006  0.00  0.00    -0.196 N 
ATOM      2  C2  IND d   1      -0.146   1.422  -0.893  0.00  0.00     0.054 A 
ATOM      3  C3  IND d   1      -0.761   0.271  -1.248  0.00  0.00    -0.031 A 
ATOM      4  C4  IND d   1      -0.360  -2.126  -0.400  0.00  0.00     0.051 A 
ATOM      5  C5  IND d   1       0.470  -2.862   0.398  0.00  0.00    -0.031 A 
ATOM      6  C6  IND d   1       1.489  -2.279   1.123  0.00  0.00     0.015 A 
ATOM      7  C7  IND d   1       1.710  -0.931   1.086  0.00  0.00    -0.016 A 
ATOM      8  C8  IND d   1       0.873  -0.182   0.270  0.00  0.00    -0.047 A 
ATOM      9  C9  IND d   1      -0.136  -0.773  -0.501  0.00  0.00    -0.096 A 
ATOM     10  HN1 IND d   1       1.379   1.757   0.348  0.00  0.00     0.298 HD
ENDROOT
TORSDOF 0
ENDMDL
