MODEL 1
REMARK minimizedAffinity -5.98956776
REMARK minimizedRMSD -1
REMARK  0 active torsions:
REMARK  status: ('A' for Active; 'I' for Inactive)
ROOT
ATOM      1  N1  IND d   1      -3.524   2.161  -4.348  0.00  0.00    -0.196 N 
ATOM      2  C2  IND d   1      -4.092   1.673  -3.204  0.00  0.00     0.054 A 
ATOM      3  C3  IND d   1      -3.366   2.041  -2.125  0.00  0.00    -0.031 A 
ATOM      4  C4  IND d   1      -1.268   3.527  -1.994  0.00  0.00     0.051 A 
ATOM      5  C5  IND d   1      -0.358   4.177  -2.780  0.00  0.00    -0.031 A 
ATOM      6  C6  IND d   1      -0.460   4.191  -4.156  0.00  0.00     0.015 A 
ATOM      7  C7  IND d   1      -1.488   3.561  -4.800  0.00  0.00    -0.016 A 
ATOM      8  C8  IND d   1      -2.410   2.895  -4.006  0.00  0.00    -0.047 A 
ATOM      9  C9  IND d   1      -2.288   2.842  -2.612  0.00  0.00    -0.096 A 
ATOM     10  HN1 IND d   1      -3.815   2.031  -5.147  0.00  0.00     0.298 HD
ENDROOT
TORSDOF 0
ENDMDL
