MODEL 1
REMARK minimizedAffinity -1.27909863
REMARK minimizedRMSD -1
REMARK  0 active torsions:
REMARK  status: ('A' for Active; 'I' for Inactive)
ROOT
ATOM      1  N1  IND d   1       1.087   0.871   0.205  0.00  0.00    -0.196 N 
ATOM      2  C2  IND d   1      -0.079   0.576  -0.444  0.00  0.00     0.054 A 
ATOM      3  C3  IND d   1      -0.409  -0.722  -0.253  0.00  0.00    -0.031 A 
ATOM      4  C4  IND d   1       0.766  -2.515   1.172  0.00  0.00     0.051 A 
ATOM      5  C5  IND d   1       1.888  -2.729   1.923  0.00  0.00    -0.031 A 
ATOM      6  C6  IND d   1       2.817  -1.734   2.147  0.00  0.00     0.015 A 
ATOM      7  C7  IND d   1       2.653  -0.478   1.634  0.00  0.00    -0.016 A 
ATOM      8  C8  IND d   1       1.519  -0.259   0.865  0.00  0.00    -0.047 A 
ATOM      9  C9  IND d   1       0.594  -1.276   0.600  0.00  0.00    -0.096 A 
ATOM     10  HN1 IND d   1       1.484   1.633   0.201  0.00  0.00     0.298 HD
ENDROOT
TORSDOF 0
ENDMDL
