MODEL 1
REMARK minimizedAffinity -4.35393143
REMARK minimizedRMSD -1
REMARK  0 active torsions:
REMARK  status: ('A' for Active; 'I' for Inactive)
ROOT
ATOM      1  N1  IND d   1      -0.639   0.738   0.375  0.00  0.00    -0.196 N 
ATOM      2  C2  IND d   1      -0.391  -0.605   0.322  0.00  0.00     0.054 A 
ATOM      3  C3  IND d   1       0.920  -0.831   0.082  0.00  0.00    -0.031 A 
ATOM      4  C4  IND d   1       2.854   0.851  -0.156  0.00  0.00     0.051 A 
ATOM      5  C5  IND d   1       3.115   2.191  -0.218  0.00  0.00    -0.031 A 
ATOM      6  C6  IND d   1       2.117   3.135  -0.080  0.00  0.00     0.015 A 
ATOM      7  C7  IND d   1       0.818   2.772   0.138  0.00  0.00    -0.016 A 
ATOM      8  C8  IND d   1       0.549   1.412   0.194  0.00  0.00    -0.047 A 
ATOM      9  C9  IND d   1       1.550   0.449   0.012  0.00  0.00    -0.096 A 
ATOM     10  HN1 IND d   1      -1.408   1.102   0.500  0.00  0.00     0.298 HD
ENDROOT
TORSDOF 0
ENDMDL
