MODEL 1
REMARK minimizedAffinity -4.81458998
REMARK minimizedRMSD -1
REMARK  0 active torsions:
REMARK  status: ('A' for Active; 'I' for Inactive)
ROOT
ATOM      1  N1  IND d   1      -0.352  -0.165  -0.027  0.00  0.00    -0.196 N 
ATOM      2  C2  IND d   1       0.601  -1.142  -0.103  0.00  0.00     0.054 A 
ATOM      3  C3  IND d   1       1.835  -0.592  -0.159  0.00  0.00    -0.031 A 
ATOM      4  C4  IND d   1       2.529   1.884  -0.036  0.00  0.00     0.051 A 
ATOM      5  C5  IND d   1       2.010   3.147   0.000  0.00  0.00    -0.031 A 
ATOM      6  C6  IND d   1       0.649   3.376   0.033  0.00  0.00     0.015 A 
ATOM      7  C7  IND d   1      -0.247   2.345   0.042  0.00  0.00    -0.016 A 
ATOM      8  C8  IND d   1       0.277   1.060  -0.002  0.00  0.00    -0.047 A 
ATOM      9  C9  IND d   1       1.655   0.823  -0.079  0.00  0.00    -0.096 A 
ATOM     10  HN1 IND d   1      -1.202  -0.294   0.001  0.00  0.00     0.298 HD
ENDROOT
TORSDOF 0
ENDMDL
