MODEL 1
REMARK minimizedAffinity -4.52282238
REMARK minimizedRMSD -1
REMARK  1 active torsions:
REMARK  status: ('A' for Active; 'I' for Inactive)
REMARK    1  A    between atoms: C1_2  and  C2_3 
ROOT
ATOM      1  C2  UNL d   1       0.424  -0.472  -0.479  0.00  0.00    -0.081 A 
ATOM      2  C3  UNL d   1      -0.581   0.416  -0.880  0.00  0.00     0.006 A 
ATOM      3  C4  UNL d   1      -1.075   1.375   0.008  0.00  0.00     0.002 A 
ATOM      4  C5  UNL d   1      -0.567   1.467   1.308  0.00  0.00    -0.080 A 
ATOM      5  C6  UNL d   1      -1.067   2.511   2.261  0.00  0.00     0.076 C 
ATOM      6  C7  UNL d   1       0.425   0.568   1.715  0.00  0.00     0.002 A 
ATOM      7  C8  UNL d   1       0.918  -0.391   0.828  0.00  0.00     0.006 A 
ENDROOT
BRANCH   1   8
ATOM      8  C1  UNL d   1       1.004  -1.464  -1.454  0.00  0.00     0.054 C 
ATOM      9  C   UNL d   1       0.253  -2.788  -1.409  0.00  0.00     0.018 C 
ENDBRANCH   1   8
TORSDOF 1
ENDMDL
