MODEL 1
REMARK minimizedAffinity -5.8140316
REMARK minimizedRMSD -1
REMARK  1 active torsions:
REMARK  status: ('A' for Active; 'I' for Inactive)
REMARK    1  A    between atoms: C1_2  and  C2_3 
ROOT
ATOM      1  C2  UNL d   1       0.194  -0.781  -0.965  0.00  0.00    -0.081 A 
ATOM      2  C3  UNL d   1       0.360  -0.781   0.425  0.00  0.00     0.006 A 
ATOM      3  C4  UNL d   1      -0.162   0.258   1.200  0.00  0.00     0.002 A 
ATOM      4  C5  UNL d   1      -0.864   1.308   0.599  0.00  0.00    -0.080 A 
ATOM      5  C6  UNL d   1      -1.455   2.414   1.422  0.00  0.00     0.076 C 
ATOM      6  C7  UNL d   1      -1.014   1.317  -0.792  0.00  0.00     0.002 A 
ATOM      7  C8  UNL d   1      -0.493   0.279  -1.567  0.00  0.00     0.006 A 
ENDROOT
BRANCH   1   8
ATOM      8  C1  UNL d   1       0.699  -1.933  -1.797  0.00  0.00     0.054 C 
ATOM      9  C   UNL d   1      -0.450  -2.710  -2.422  0.00  0.00     0.018 C 
ENDBRANCH   1   8
TORSDOF 1
ENDMDL
