MODEL 1
REMARK minimizedAffinity 4.66796494
REMARK minimizedRMSD -1
REMARK  1 active torsions:
REMARK  status: ('A' for Active; 'I' for Inactive)
REMARK    1  A    between atoms: C1_2  and  C2_3 
ROOT
ATOM      1  C2  UNL d   1      -2.304   2.605  -1.188  0.00  0.00    -0.081 A 
ATOM      2  C3  UNL d   1      -2.287   1.223  -1.411  0.00  0.00     0.006 A 
ATOM      3  C4  UNL d   1      -1.114   0.489  -1.217  0.00  0.00     0.002 A 
ATOM      4  C5  UNL d   1       0.057   1.122  -0.790  0.00  0.00    -0.080 A 
ATOM      5  C6  UNL d   1       1.315   0.341  -0.549  0.00  0.00     0.076 C 
ATOM      6  C7  UNL d   1       0.045   2.506  -0.584  0.00  0.00     0.002 A 
ATOM      7  C8  UNL d   1      -1.127   3.241  -0.778  0.00  0.00     0.006 A 
ENDROOT
BRANCH   1   8
ATOM      8  C1  UNL d   1      -3.583   3.389  -1.333  0.00  0.00     0.054 C 
ATOM      9  C   UNL d   1      -3.752   3.914  -2.752  0.00  0.00     0.018 C 
ENDBRANCH   1   8
TORSDOF 1
ENDMDL
