MODEL 1
REMARK minimizedAffinity 5.15791178
REMARK minimizedRMSD -1
REMARK  1 active torsions:
REMARK  status: ('A' for Active; 'I' for Inactive)
REMARK    1  A    between atoms: C1_2  and  C2_3 
ROOT
ATOM      1  C2  UNL d   1       2.520  -1.201  -0.543  0.00  0.00    -0.081 A 
ATOM      2  C3  UNL d   1       2.483  -2.587  -0.738  0.00  0.00     0.006 A 
ATOM      3  C4  UNL d   1       3.555  -3.246  -1.343  0.00  0.00     0.002 A 
ATOM      4  C5  UNL d   1       4.685  -2.533  -1.756  0.00  0.00    -0.080 A 
ATOM      5  C6  UNL d   1       5.856  -3.232  -2.380  0.00  0.00     0.076 C 
ATOM      6  C7  UNL d   1       4.715  -1.145  -1.578  0.00  0.00     0.002 A 
ATOM      7  C8  UNL d   1       3.643  -0.486  -0.974  0.00  0.00     0.006 A 
ENDROOT
BRANCH   1   8
ATOM      8  C1  UNL d   1       1.393  -0.496   0.168  0.00  0.00     0.054 C 
ATOM      9  C   UNL d   1       0.743   0.550  -0.727  0.00  0.00     0.018 C 
ENDBRANCH   1   8
TORSDOF 1
ENDMDL
