MODEL 1
REMARK minimizedAffinity 15.519742
REMARK minimizedRMSD -1
REMARK  0 active torsions:
REMARK  status: ('A' for Active; 'I' for Inactive)
ROOT
ATOM      1  C2' OXE d   1       0.828   3.368  -1.788  0.00  0.00     0.078 C 
ATOM      2  C1' OXE d   1      -1.517   3.320  -3.330  0.00  0.00     0.078 C 
ATOM      3  C1  OXE d   1      -1.457   4.284  -2.171  0.00  0.00    -0.078 A 
ATOM      4  C2  OXE d   1      -0.324   4.267  -1.394  0.00  0.00    -0.078 A 
ATOM      5  C3  OXE d   1      -0.194   5.174  -0.345  0.00  0.00     0.003 A 
ATOM      6  C4  OXE d   1      -1.268   5.995   0.018  0.00  0.00    -0.002 A 
ATOM      7  C5  OXE d   1      -2.446   6.000  -0.736  0.00  0.00    -0.002 A 
ATOM      8  C6  OXE d   1      -2.540   5.182  -1.857  0.00  0.00     0.003 A 
ENDROOT
TORSDOF 0
ENDMDL
