MODEL 1
REMARK minimizedAffinity 22.4037037
REMARK minimizedRMSD -1
REMARK  0 active torsions:
REMARK  status: ('A' for Active; 'I' for Inactive)
ROOT
ATOM      1  C2' OXE d   1      -1.859   2.690  -3.594  0.00  0.00     0.078 C 
ATOM      2  C1' OXE d   1       0.377   2.626  -1.898  0.00  0.00     0.078 C 
ATOM      3  C1  OXE d   1       0.201   3.834  -2.784  0.00  0.00    -0.078 A 
ATOM      4  C2  OXE d   1      -0.871   3.836  -3.644  0.00  0.00    -0.078 A 
ATOM      5  C3  OXE d   1      -1.111   4.949  -4.444  0.00  0.00     0.003 A 
ATOM      6  C4  OXE d   1      -0.186   6.000  -4.492  0.00  0.00    -0.002 A 
ATOM      7  C5  OXE d   1       0.933   6.000  -3.653  0.00  0.00    -0.002 A 
ATOM      8  C6  OXE d   1       1.118   4.947  -2.764  0.00  0.00     0.003 A 
ENDROOT
TORSDOF 0
ENDMDL
