MODEL 1
REMARK minimizedAffinity 10.0228128
REMARK minimizedRMSD -1
REMARK  0 active torsions:
REMARK  status: ('A' for Active; 'I' for Inactive)
ROOT
ATOM      1  C2' OXE d   1      -0.887   1.770   0.756  0.00  0.00     0.078 C 
ATOM      2  C1' OXE d   1       0.722  -0.052   2.159  0.00  0.00     0.078 C 
ATOM      3  C1  OXE d   1      -0.751  -0.022   2.481  0.00  0.00    -0.078 A 
ATOM      4  C2  OXE d   1      -1.523   0.905   1.823  0.00  0.00    -0.078 A 
ATOM      5  C3  OXE d   1      -2.897   0.938   2.042  0.00  0.00     0.003 A 
ATOM      6  C4  OXE d   1      -3.475   0.142   3.038  0.00  0.00    -0.002 A 
ATOM      7  C5  OXE d   1      -2.700  -0.781   3.748  0.00  0.00    -0.002 A 
ATOM      8  C6  OXE d   1      -1.347  -0.905   3.452  0.00  0.00     0.003 A 
ENDROOT
TORSDOF 0
ENDMDL
