MODEL 1
REMARK minimizedAffinity 21.2316437
REMARK minimizedRMSD -1
REMARK  0 active torsions:
REMARK  status: ('A' for Active; 'I' for Inactive)
ROOT
ATOM      1  C2' OXE d   1      -2.134   4.722  -0.525  0.00  0.00     0.078 C 
ATOM      2  C1' OXE d   1      -4.172   5.398  -2.334  0.00  0.00     0.078 C 
ATOM      3  C1  OXE d   1      -4.472   5.513  -0.861  0.00  0.00    -0.078 A 
ATOM      4  C2  OXE d   1      -3.485   5.136   0.017  0.00  0.00    -0.078 A 
ATOM      5  C3  OXE d   1      -3.691   5.274   1.387  0.00  0.00     0.003 A 
ATOM      6  C4  OXE d   1      -4.947   5.649   1.881  0.00  0.00    -0.002 A 
ATOM      7  C5  OXE d   1      -5.979   5.999   1.004  0.00  0.00    -0.002 A 
ATOM      8  C6  OXE d   1      -5.745   5.978  -0.367  0.00  0.00     0.003 A 
ENDROOT
TORSDOF 0
ENDMDL
