MODEL 1
REMARK minimizedAffinity 21.1363449
REMARK minimizedRMSD -1
REMARK  0 active torsions:
REMARK  status: ('A' for Active; 'I' for Inactive)
ROOT
ATOM      1  C2' OXE d   1      -4.178   5.212  -2.290  0.00  0.00     0.078 C 
ATOM      2  C1' OXE d   1      -2.653   3.723  -0.462  0.00  0.00     0.078 C 
ATOM      3  C1  OXE d   1      -3.832   4.498   0.072  0.00  0.00    -0.078 A 
ATOM      4  C2  OXE d   1      -4.544   5.261  -0.822  0.00  0.00    -0.078 A 
ATOM      5  C3  OXE d   1      -5.674   5.952  -0.392  0.00  0.00     0.003 A 
ATOM      6  C4  OXE d   1      -6.000   6.000   0.969  0.00  0.00    -0.002 A 
ATOM      7  C5  OXE d   1      -5.264   5.261   1.902  0.00  0.00    -0.002 A 
ATOM      8  C6  OXE d   1      -4.205   4.473   1.464  0.00  0.00     0.003 A 
ENDROOT
TORSDOF 0
ENDMDL
