MODEL 1
REMARK minimizedAffinity 8.28770733
REMARK minimizedRMSD -1
REMARK  0 active torsions:
REMARK  status: ('A' for Active; 'I' for Inactive)
ROOT
ATOM      1  C2' OXE d   1       0.399  -2.623  -2.588  0.00  0.00     0.078 C 
ATOM      2  C1' OXE d   1       2.681  -4.257  -2.537  0.00  0.00     0.078 C 
ATOM      3  C1  OXE d   1       2.452  -3.407  -3.762  0.00  0.00    -0.078 A 
ATOM      4  C2  OXE d   1       1.308  -2.646  -3.798  0.00  0.00    -0.078 A 
ATOM      5  C3  OXE d   1       1.076  -1.802  -4.880  0.00  0.00     0.003 A 
ATOM      6  C4  OXE d   1       1.917  -1.836  -6.000  0.00  0.00    -0.002 A 
ATOM      7  C5  OXE d   1       3.066  -2.635  -6.000  0.00  0.00    -0.002 A 
ATOM      8  C6  OXE d   1       3.370  -3.392  -4.874  0.00  0.00     0.003 A 
ENDROOT
TORSDOF 0
ENDMDL
