MODEL 1
REMARK minimizedAffinity 18.8492088
REMARK minimizedRMSD -1
REMARK  0 active torsions:
REMARK  status: ('A' for Active; 'I' for Inactive)
ROOT
ATOM      1  C2' OXE d   1      -4.772   5.184  -1.273  0.00  0.00     0.078 C 
ATOM      2  C1' OXE d   1      -2.347   5.185   0.142  0.00  0.00     0.078 C 
ATOM      3  C1  OXE d   1      -3.613   5.458   0.915  0.00  0.00    -0.078 A 
ATOM      4  C2  OXE d   1      -4.790   5.502   0.207  0.00  0.00    -0.078 A 
ATOM      5  C3  OXE d   1      -5.993   5.697   0.879  0.00  0.00     0.003 A 
ATOM      6  C4  OXE d   1      -6.000   6.000   2.246  0.00  0.00    -0.002 A 
ATOM      7  C5  OXE d   1      -4.808   6.000   2.979  0.00  0.00    -0.002 A 
ATOM      8  C6  OXE d   1      -3.614   5.689   2.339  0.00  0.00     0.003 A 
ENDROOT
TORSDOF 0
ENDMDL
