MODEL 1
REMARK minimizedAffinity 16.3730373
REMARK minimizedRMSD -1
REMARK  0 active torsions:
REMARK  status: ('A' for Active; 'I' for Inactive)
ROOT
ATOM      1  C2' OXE d   1       4.939  -5.120   1.948  0.00  0.00     0.078 C 
ATOM      2  C1' OXE d   1       5.996  -2.549   1.557  0.00  0.00     0.078 C 
ATOM      3  C1  OXE d   1       4.496  -2.700   1.554  0.00  0.00    -0.078 A 
ATOM      4  C2  OXE d   1       3.988  -3.969   1.700  0.00  0.00    -0.078 A 
ATOM      5  C3  OXE d   1       2.610  -4.157   1.760  0.00  0.00     0.003 A 
ATOM      6  C4  OXE d   1       1.738  -3.089   1.520  0.00  0.00    -0.002 A 
ATOM      7  C5  OXE d   1       2.235  -1.795   1.330  0.00  0.00    -0.002 A 
ATOM      8  C6  OXE d   1       3.607  -1.577   1.386  0.00  0.00     0.003 A 
ENDROOT
TORSDOF 0
ENDMDL
