MODEL 1
REMARK minimizedAffinity 21.2079144
REMARK minimizedRMSD -1
REMARK  0 active torsions:
REMARK  status: ('A' for Active; 'I' for Inactive)
ROOT
ATOM      1  C2' OXE d   1      -2.988   5.184  -2.130  0.00  0.00     0.078 C 
ATOM      2  C1' OXE d   1      -5.794   5.148  -2.187  0.00  0.00     0.078 C 
ATOM      3  C1  OXE d   1      -5.121   5.467  -0.876  0.00  0.00    -0.078 A 
ATOM      4  C2  OXE d   1      -3.748   5.436  -0.846  0.00  0.00    -0.078 A 
ATOM      5  C3  OXE d   1      -3.076   5.776   0.325  0.00  0.00     0.003 A 
ATOM      6  C4  OXE d   1      -3.786   5.998   1.511  0.00  0.00    -0.002 A 
ATOM      7  C5  OXE d   1      -5.185   5.995   1.512  0.00  0.00    -0.002 A 
ATOM      8  C6  OXE d   1      -5.867   5.773   0.320  0.00  0.00     0.003 A 
ENDROOT
TORSDOF 0
ENDMDL
