MODEL 1
REMARK minimizedAffinity 9.40364838
REMARK minimizedRMSD -1
REMARK  0 active torsions:
REMARK  status: ('A' for Active; 'I' for Inactive)
ROOT
ATOM      1  C2' OXE d   1      -1.125   2.623   0.906  0.00  0.00     0.078 C 
ATOM      2  C1' OXE d   1      -2.075   5.254   1.139  0.00  0.00     0.078 C 
ATOM      3  C1  OXE d   1      -1.029   4.974   0.088  0.00  0.00    -0.078 A 
ATOM      4  C2  OXE d   1      -0.537   3.693   0.012  0.00  0.00    -0.078 A 
ATOM      5  C3  OXE d   1       0.389   3.368  -0.975  0.00  0.00     0.003 A 
ATOM      6  C4  OXE d   1       0.935   4.366  -1.791  0.00  0.00    -0.002 A 
ATOM      7  C5  OXE d   1       0.476   5.685  -1.703  0.00  0.00    -0.002 A 
ATOM      8  C6  OXE d   1      -0.534   5.996  -0.800  0.00  0.00     0.003 A 
ENDROOT
TORSDOF 0
ENDMDL
