MODEL 1
REMARK minimizedAffinity 18.0143375
REMARK minimizedRMSD -1
REMARK  0 active torsions:
REMARK  status: ('A' for Active; 'I' for Inactive)
ROOT
ATOM      1  C2' OXE d   1      -2.372   2.821  -3.456  0.00  0.00     0.078 C 
ATOM      2  C1' OXE d   1      -1.664   5.515  -3.803  0.00  0.00     0.078 C 
ATOM      3  C1  OXE d   1      -1.038   4.765  -2.653  0.00  0.00    -0.078 A 
ATOM      4  C2  OXE d   1      -1.426   3.461  -2.463  0.00  0.00    -0.078 A 
ATOM      5  C3  OXE d   1      -0.839   2.708  -1.451  0.00  0.00     0.003 A 
ATOM      6  C4  OXE d   1       0.028   3.310  -0.530  0.00  0.00    -0.002 A 
ATOM      7  C5  OXE d   1       0.405   4.649  -0.682  0.00  0.00    -0.002 A 
ATOM      8  C6  OXE d   1      -0.085   5.377  -1.761  0.00  0.00     0.003 A 
ENDROOT
TORSDOF 0
ENDMDL
