MODEL 1
REMARK minimizedAffinity 10.5219965
REMARK minimizedRMSD -1
REMARK  0 active torsions:
REMARK  status: ('A' for Active; 'I' for Inactive)
ROOT
ATOM      1  C2' OXE d   1       0.875   5.228  -1.827  0.00  0.00     0.078 C 
ATOM      2  C1' OXE d   1      -1.372   3.897  -2.856  0.00  0.00     0.078 C 
ATOM      3  C1  OXE d   1      -0.923   3.544  -1.460  0.00  0.00    -0.078 A 
ATOM      4  C2  OXE d   1       0.205   4.166  -0.982  0.00  0.00    -0.078 A 
ATOM      5  C3  OXE d   1       0.630   3.917   0.320  0.00  0.00     0.003 A 
ATOM      6  C4  OXE d   1       0.011   2.926   1.091  0.00  0.00    -0.002 A 
ATOM      7  C5  OXE d   1      -1.116   2.252   0.608  0.00  0.00    -0.002 A 
ATOM      8  C6  OXE d   1      -1.620   2.578  -0.646  0.00  0.00     0.003 A 
ENDROOT
TORSDOF 0
ENDMDL
