MODEL 1
REMARK minimizedAffinity 5.53730249
REMARK minimizedRMSD -1
REMARK  0 active torsions:
REMARK  status: ('A' for Active; 'I' for Inactive)
ROOT
ATOM      1  C2' OXE d   1      -0.048   5.574  -1.314  0.00  0.00     0.078 C 
ATOM      2  C1' OXE d   1      -0.850   3.358  -2.839  0.00  0.00     0.078 C 
ATOM      3  C1  OXE d   1      -0.641   3.155  -1.359  0.00  0.00    -0.078 A 
ATOM      4  C2  OXE d   1      -0.203   4.233  -0.629  0.00  0.00    -0.078 A 
ATOM      5  C3  OXE d   1      -0.047   4.114   0.749  0.00  0.00     0.003 A 
ATOM      6  C4  OXE d   1      -0.183   2.868   1.373  0.00  0.00    -0.002 A 
ATOM      7  C5  OXE d   1      -0.589   1.748   0.641  0.00  0.00    -0.002 A 
ATOM      8  C6  OXE d   1      -0.863   1.883  -0.716  0.00  0.00     0.003 A 
ENDROOT
TORSDOF 0
ENDMDL
