MODEL 1
REMARK minimizedAffinity -0.605671525
REMARK minimizedRMSD -1
REMARK  0 active torsions:
REMARK  status: ('A' for Active; 'I' for Inactive)
ROOT
ATOM      1  C2' OXE d   1      -0.297   0.201   1.249  0.00  0.00     0.078 C 
ATOM      2  C1' OXE d   1      -2.518   1.416   2.461  0.00  0.00     0.078 C 
ATOM      3  C1  OXE d   1      -1.699   2.244   1.503  0.00  0.00    -0.078 A 
ATOM      4  C2  OXE d   1      -0.587   1.656   0.950  0.00  0.00    -0.078 A 
ATOM      5  C3  OXE d   1       0.172   2.357   0.017  0.00  0.00     0.003 A 
ATOM      6  C4  OXE d   1      -0.098   3.705  -0.246  0.00  0.00    -0.002 A 
ATOM      7  C5  OXE d   1      -1.203   4.336   0.337  0.00  0.00    -0.002 A 
ATOM      8  C6  OXE d   1      -2.036   3.608   1.179  0.00  0.00     0.003 A 
ENDROOT
TORSDOF 0
ENDMDL
