MODEL 1
REMARK minimizedAffinity 8.93117428
REMARK minimizedRMSD -1
REMARK  0 active torsions:
REMARK  status: ('A' for Active; 'I' for Inactive)
ROOT
ATOM      1  C2' OXE d   1      -0.656   1.746  -0.045  0.00  0.00     0.078 C 
ATOM      2  C1' OXE d   1      -1.753   2.483  -2.522  0.00  0.00     0.078 C 
ATOM      3  C1  OXE d   1      -0.901   3.497  -1.800  0.00  0.00    -0.078 A 
ATOM      4  C2  OXE d   1      -0.407   3.144  -0.567  0.00  0.00    -0.078 A 
ATOM      5  C3  OXE d   1       0.430   4.022   0.117  0.00  0.00     0.003 A 
ATOM      6  C4  OXE d   1       0.647   5.317  -0.369  0.00  0.00    -0.002 A 
ATOM      7  C5  OXE d   1       0.121   5.710  -1.604  0.00  0.00    -0.002 A 
ATOM      8  C6  OXE d   1      -0.618   4.799  -2.350  0.00  0.00     0.003 A 
ENDROOT
TORSDOF 0
ENDMDL
