MODEL 1
REMARK minimizedAffinity 3.13469625
REMARK minimizedRMSD -1
REMARK  0 active torsions:
REMARK  status: ('A' for Active; 'I' for Inactive)
ROOT
ATOM      1  C2' OXE d   1      -0.859   2.138   0.316  0.00  0.00     0.078 C 
ATOM      2  C1' OXE d   1      -1.370   2.864  -2.347  0.00  0.00     0.078 C 
ATOM      3  C1  OXE d   1      -0.593   3.833  -1.490  0.00  0.00    -0.078 A 
ATOM      4  C2  OXE d   1      -0.389   3.490  -0.175  0.00  0.00    -0.078 A 
ATOM      5  C3  OXE d   1       0.368   4.322   0.644  0.00  0.00     0.003 A 
ATOM      6  C4  OXE d   1       0.791   5.576   0.185  0.00  0.00    -0.002 A 
ATOM      7  C5  OXE d   1       0.559   5.962  -1.140  0.00  0.00    -0.002 A 
ATOM      8  C6  OXE d   1      -0.094   5.086  -2.000  0.00  0.00     0.003 A 
ENDROOT
TORSDOF 0
ENDMDL
