MODEL 1
REMARK minimizedAffinity 4.22951365
REMARK minimizedRMSD -1
REMARK  0 active torsions:
REMARK  status: ('A' for Active; 'I' for Inactive)
ROOT
ATOM      1  C2' OXE d   1       1.054   4.794   0.826  0.00  0.00     0.078 C 
ATOM      2  C1' OXE d   1       0.014   2.233   0.332  0.00  0.00     0.078 C 
ATOM      3  C1  OXE d   1      -0.201   3.295  -0.718  0.00  0.00    -0.078 A 
ATOM      4  C2  OXE d   1       0.271   4.557  -0.447  0.00  0.00    -0.078 A 
ATOM      5  C3  OXE d   1       0.147   5.559  -1.405  0.00  0.00     0.003 A 
ATOM      6  C4  OXE d   1      -0.587   5.334  -2.576  0.00  0.00    -0.002 A 
ATOM      7  C5  OXE d   1      -1.110   4.067  -2.853  0.00  0.00    -0.002 A 
ATOM      8  C6  OXE d   1      -0.890   3.027  -1.957  0.00  0.00     0.003 A 
ENDROOT
TORSDOF 0
ENDMDL
