MODEL 1
REMARK minimizedAffinity 9.66249657
REMARK minimizedRMSD -1
REMARK  0 active torsions:
REMARK  status: ('A' for Active; 'I' for Inactive)
ROOT
ATOM      1  C2' OXE d   1      -0.328   1.820  -0.126  0.00  0.00     0.078 C 
ATOM      2  C1' OXE d   1      -1.415   2.516  -2.619  0.00  0.00     0.078 C 
ATOM      3  C1  OXE d   1      -0.836   3.621  -1.771  0.00  0.00    -0.078 A 
ATOM      4  C2  OXE d   1      -0.348   3.278  -0.533  0.00  0.00    -0.078 A 
ATOM      5  C3  OXE d   1       0.247   4.249   0.267  0.00  0.00     0.003 A 
ATOM      6  C4  OXE d   1       0.215   5.596  -0.112  0.00  0.00    -0.002 A 
ATOM      7  C5  OXE d   1      -0.313   5.973  -1.352  0.00  0.00    -0.002 A 
ATOM      8  C6  OXE d   1      -0.803   4.994  -2.209  0.00  0.00     0.003 A 
ENDROOT
TORSDOF 0
ENDMDL
