MODEL 1
REMARK minimizedAffinity 6.81771708
REMARK minimizedRMSD -1
REMARK  0 active torsions:
REMARK  status: ('A' for Active; 'I' for Inactive)
ROOT
ATOM      1  C2' OXE d   1      -0.515   2.730  -2.729  0.00  0.00     0.078 C 
ATOM      2  C1' OXE d   1      -0.885   1.095  -0.477  0.00  0.00     0.078 C 
ATOM      3  C1  OXE d   1      -0.415   2.509  -0.250  0.00  0.00    -0.078 A 
ATOM      4  C2  OXE d   1      -0.191   3.288  -1.360  0.00  0.00    -0.078 A 
ATOM      5  C3  OXE d   1       0.191   4.617  -1.204  0.00  0.00     0.003 A 
ATOM      6  C4  OXE d   1       0.498   5.122   0.066  0.00  0.00    -0.002 A 
ATOM      7  C5  OXE d   1       0.316   4.334   1.207  0.00  0.00    -0.002 A 
ATOM      8  C6  OXE d   1      -0.180   3.042   1.070  0.00  0.00     0.003 A 
ENDROOT
TORSDOF 0
ENDMDL
