MODEL 1
REMARK minimizedAffinity -4.51856518
REMARK minimizedRMSD -1
REMARK  1 active torsions:
REMARK  status: ('A' for Active; 'I' for Inactive)
REMARK    1  A    between atoms: C1_2  and  C2_3 
ROOT
ATOM      1  C2  UNL d   1       0.285  -0.498  -0.010  0.00  0.00    -0.073 A 
ATOM      2  C3  UNL d   1      -0.388   0.263  -0.973  0.00  0.00    -0.002 A 
ATOM      3  C4  UNL d   1      -0.257   1.652  -0.992  0.00  0.00     0.004 A 
ATOM      4  C5  UNL d   1       0.551   2.294  -0.053  0.00  0.00    -0.004 A 
ATOM      5  C6  UNL d   1       1.241   1.550   0.910  0.00  0.00    -0.075 A 
ATOM      6  C7  UNL d   1       2.112   2.225   1.927  0.00  0.00     0.076 C 
ATOM      7  C8  UNL d   1       1.102   0.156   0.923  0.00  0.00     0.001 A 
ENDROOT
BRANCH   1   8
ATOM      8  C1  UNL d   1       0.152  -1.999   0.009  0.00  0.00     0.053 C 
ATOM      9  C   UNL d   1      -1.249  -2.442   0.400  0.00  0.00     0.018 C 
ENDBRANCH   1   8
TORSDOF 1
ENDMDL
