MODEL 1
REMARK minimizedAffinity -4.0447855
REMARK minimizedRMSD -1
REMARK  1 active torsions:
REMARK  status: ('A' for Active; 'I' for Inactive)
REMARK    1  A    between atoms: C1_2  and  C2_3 
ROOT
ATOM      1  C2  UNL d   1       1.170   0.681   0.231  0.00  0.00    -0.073 A 
ATOM      2  C3  UNL d   1      -0.110   1.178  -0.041  0.00  0.00    -0.002 A 
ATOM      3  C4  UNL d   1      -1.222   0.339   0.034  0.00  0.00     0.004 A 
ATOM      4  C5  UNL d   1      -1.068  -1.002   0.387  0.00  0.00    -0.004 A 
ATOM      5  C6  UNL d   1       0.202  -1.514   0.673  0.00  0.00    -0.075 A 
ATOM      6  C7  UNL d   1       0.385  -2.955   1.052  0.00  0.00     0.076 C 
ATOM      7  C8  UNL d   1       1.314  -0.666   0.593  0.00  0.00     0.001 A 
ENDROOT
BRANCH   1   8
ATOM      8  C1  UNL d   1       2.374   1.585   0.157  0.00  0.00     0.053 C 
ATOM      9  C   UNL d   1       2.233   2.796   1.066  0.00  0.00     0.018 C 
ENDBRANCH   1   8
TORSDOF 1
ENDMDL
