MODEL 1
REMARK minimizedAffinity -5.47593927
REMARK minimizedRMSD -1
REMARK  1 active torsions:
REMARK  status: ('A' for Active; 'I' for Inactive)
REMARK    1  A    between atoms: C1_2  and  C2_3 
ROOT
ATOM      1  C2  UNL d   1       0.300  -1.266   0.402  0.00  0.00    -0.073 A 
ATOM      2  C3  UNL d   1       0.790  -0.264  -0.443  0.00  0.00    -0.002 A 
ATOM      3  C4  UNL d   1       0.137   0.967  -0.529  0.00  0.00     0.004 A 
ATOM      4  C5  UNL d   1      -1.006   1.210   0.233  0.00  0.00    -0.004 A 
ATOM      5  C6  UNL d   1      -1.504   0.225   1.091  0.00  0.00    -0.075 A 
ATOM      6  C7  UNL d   1      -2.734   0.470   1.915  0.00  0.00     0.076 C 
ATOM      7  C8  UNL d   1      -0.845  -1.009   1.170  0.00  0.00     0.001 A 
ENDROOT
BRANCH   1   8
ATOM      8  C1  UNL d   1       1.005  -2.595   0.503  0.00  0.00     0.053 C 
ATOM      9  C   UNL d   1       0.036  -3.734   0.776  0.00  0.00     0.018 C 
ENDBRANCH   1   8
TORSDOF 1
ENDMDL
