MODEL 1
REMARK minimizedAffinity -3.72439384
REMARK minimizedRMSD -1
REMARK  1 active torsions:
REMARK  status: ('A' for Active; 'I' for Inactive)
REMARK    1  A    between atoms: C1_2  and  C2_3 
ROOT
ATOM      1  C2  UNL d   1       0.253   0.257   0.306  0.00  0.00    -0.073 A 
ATOM      2  C3  UNL d   1      -0.338   0.538   1.543  0.00  0.00    -0.002 A 
ATOM      3  C4  UNL d   1      -0.940  -0.479   2.285  0.00  0.00     0.004 A 
ATOM      4  C5  UNL d   1      -0.953  -1.787   1.802  0.00  0.00    -0.004 A 
ATOM      5  C6  UNL d   1      -0.358  -2.091   0.573  0.00  0.00    -0.075 A 
ATOM      6  C7  UNL d   1      -0.364  -3.493   0.038  0.00  0.00     0.076 C 
ATOM      7  C8  UNL d   1       0.243  -1.063  -0.167  0.00  0.00     0.001 A 
ENDROOT
BRANCH   1   8
ATOM      8  C1  UNL d   1       0.910   1.350  -0.495  0.00  0.00     0.053 C 
ATOM      9  C   UNL d   1       1.138   2.605   0.332  0.00  0.00     0.018 C 
ENDBRANCH   1   8
TORSDOF 1
ENDMDL
