MODEL 1
REMARK minimizedAffinity -2.99482894
REMARK minimizedRMSD -1
REMARK  1 active torsions:
REMARK  status: ('A' for Active; 'I' for Inactive)
REMARK    1  A    between atoms: C1_2  and  C2_3 
ROOT
ATOM      1  C2  UNL d   1       0.428   1.983   0.129  0.00  0.00    -0.073 A 
ATOM      2  C3  UNL d   1       0.217   1.367   1.367  0.00  0.00    -0.002 A 
ATOM      3  C4  UNL d   1      -0.084   0.006   1.435  0.00  0.00     0.004 A 
ATOM      4  C5  UNL d   1      -0.170  -0.753   0.269  0.00  0.00    -0.004 A 
ATOM      5  C6  UNL d   1       0.050  -0.158  -0.978  0.00  0.00    -0.075 A 
ATOM      6  C7  UNL d   1      -0.040  -0.961  -2.243  0.00  0.00     0.076 C 
ATOM      7  C8  UNL d   1       0.349   1.210  -1.038  0.00  0.00     0.001 A 
ENDROOT
BRANCH   1   8
ATOM      8  C1  UNL d   1       0.760   3.451   0.051  0.00  0.00     0.053 C 
ATOM      9  C   UNL d   1       2.260   3.699   0.074  0.00  0.00     0.018 C 
ENDBRANCH   1   8
TORSDOF 1
ENDMDL
