MODEL 1
REMARK minimizedAffinity -3.4227066
REMARK minimizedRMSD -1
REMARK  1 active torsions:
REMARK  status: ('A' for Active; 'I' for Inactive)
REMARK    1  A    between atoms: C1_2  and  C2_3 
ROOT
ATOM      1  C2  UNL d   1       0.873   1.787   0.090  0.00  0.00    -0.073 A 
ATOM      2  C3  UNL d   1       2.160   2.179  -0.295  0.00  0.00    -0.002 A 
ATOM      3  C4  UNL d   1       2.695   3.385   0.159  0.00  0.00     0.004 A 
ATOM      4  C5  UNL d   1       1.953   4.208   1.006  0.00  0.00    -0.004 A 
ATOM      5  C6  UNL d   1       0.670   3.829   1.411  0.00  0.00    -0.075 A 
ATOM      6  C7  UNL d   1      -0.143   4.704   2.320  0.00  0.00     0.076 C 
ATOM      7  C8  UNL d   1       0.138   2.617   0.949  0.00  0.00     0.001 A 
ENDROOT
BRANCH   1   8
ATOM      8  C1  UNL d   1       0.293   0.483  -0.392  0.00  0.00     0.053 C 
ATOM      9  C   UNL d   1      -0.141  -0.408   0.761  0.00  0.00     0.018 C 
ENDBRANCH   1   8
TORSDOF 1
ENDMDL
