MODEL 1
REMARK minimizedAffinity -3.81733227
REMARK minimizedRMSD -1
REMARK  1 active torsions:
REMARK  status: ('A' for Active; 'I' for Inactive)
REMARK    1  A    between atoms: C1_2  and  C2_3 
ROOT
ATOM      1  C2  UNL d   1       0.043  -0.160   0.684  0.00  0.00    -0.073 A 
ATOM      2  C3  UNL d   1      -0.556   0.182  -0.533  0.00  0.00    -0.002 A 
ATOM      3  C4  UNL d   1      -0.370   1.454  -1.077  0.00  0.00     0.004 A 
ATOM      4  C5  UNL d   1       0.421   2.392  -0.415  0.00  0.00    -0.004 A 
ATOM      5  C6  UNL d   1       1.038   2.065   0.797  0.00  0.00    -0.075 A 
ATOM      6  C7  UNL d   1       1.891   3.064   1.523  0.00  0.00     0.076 C 
ATOM      7  C8  UNL d   1       0.844   0.787   1.338  0.00  0.00     0.001 A 
ENDROOT
BRANCH   1   8
ATOM      8  C1  UNL d   1      -0.150  -1.534   1.273  0.00  0.00     0.053 C 
ATOM      9  C   UNL d   1      -0.793  -2.493   0.284  0.00  0.00     0.018 C 
ENDBRANCH   1   8
TORSDOF 1
ENDMDL
