MODEL 1
REMARK minimizedAffinity -2.01810956
REMARK minimizedRMSD -1
REMARK  1 active torsions:
REMARK  status: ('A' for Active; 'I' for Inactive)
REMARK    1  A    between atoms: C1_2  and  C2_3 
ROOT
ATOM      1  C2  UNL d   1       0.331   0.685  -0.100  0.00  0.00    -0.073 A 
ATOM      2  C3  UNL d   1      -0.016  -0.208   0.921  0.00  0.00    -0.002 A 
ATOM      3  C4  UNL d   1      -0.061  -1.581   0.671  0.00  0.00     0.004 A 
ATOM      4  C5  UNL d   1       0.246  -2.074  -0.598  0.00  0.00    -0.004 A 
ATOM      5  C6  UNL d   1       0.605  -1.198  -1.627  0.00  0.00    -0.075 A 
ATOM      6  C7  UNL d   1       0.936  -1.712  -2.997  0.00  0.00     0.076 C 
ATOM      7  C8  UNL d   1       0.646   0.179  -1.369  0.00  0.00     0.001 A 
ENDROOT
BRANCH   1   8
ATOM      8  C1  UNL d   1       0.387   2.167   0.167  0.00  0.00     0.053 C 
ATOM      9  C   UNL d   1       1.798   2.635   0.485  0.00  0.00     0.018 C 
ENDBRANCH   1   8
TORSDOF 1
ENDMDL
