MODEL 1
REMARK minimizedAffinity -1.81104612
REMARK minimizedRMSD -1
REMARK  1 active torsions:
REMARK  status: ('A' for Active; 'I' for Inactive)
REMARK    1  A    between atoms: C1_2  and  C2_3 
ROOT
ATOM      1  C2  UNL d   1       0.133   1.462   0.009  0.00  0.00    -0.073 A 
ATOM      2  C3  UNL d   1       0.110   0.914  -1.278  0.00  0.00    -0.002 A 
ATOM      3  C4  UNL d   1      -0.105  -0.453  -1.458  0.00  0.00     0.004 A 
ATOM      4  C5  UNL d   1      -0.305  -1.283  -0.355  0.00  0.00    -0.004 A 
ATOM      5  C6  UNL d   1      -0.297  -0.752   0.938  0.00  0.00    -0.075 A 
ATOM      6  C7  UNL d   1      -0.508  -1.632   2.135  0.00  0.00     0.076 C 
ATOM      7  C8  UNL d   1      -0.078   0.621   1.111  0.00  0.00     0.001 A 
ENDROOT
BRANCH   1   8
ATOM      8  C1  UNL d   1       0.358   2.939   0.208  0.00  0.00     0.053 C 
ATOM      9  C   UNL d   1       1.828   3.312   0.094  0.00  0.00     0.018 C 
ENDBRANCH   1   8
TORSDOF 1
ENDMDL
