MODEL 1
REMARK minimizedAffinity -0.289736986
REMARK minimizedRMSD -1
REMARK  1 active torsions:
REMARK  status: ('A' for Active; 'I' for Inactive)
REMARK    1  A    between atoms: C1_2  and  C2_3 
ROOT
ATOM      1  C2  UNL d   1      -0.599  -2.540  -0.525  0.00  0.00    -0.073 A 
ATOM      2  C3  UNL d   1      -0.869  -2.886   0.804  0.00  0.00    -0.002 A 
ATOM      3  C4  UNL d   1      -0.801  -1.922   1.811  0.00  0.00     0.004 A 
ATOM      4  C5  UNL d   1      -0.469  -0.604   1.500  0.00  0.00    -0.004 A 
ATOM      5  C6  UNL d   1      -0.207  -0.236   0.176  0.00  0.00    -0.075 A 
ATOM      6  C7  UNL d   1       0.154   1.177  -0.175  0.00  0.00     0.076 C 
ATOM      7  C8  UNL d   1      -0.275  -1.210  -0.830  0.00  0.00     0.001 A 
ENDROOT
BRANCH   1   8
ATOM      8  C1  UNL d   1      -0.678  -3.575  -1.617  0.00  0.00     0.053 C 
ATOM      9  C   UNL d   1      -0.311  -3.000  -2.976  0.00  0.00     0.018 C 
ENDBRANCH   1   8
TORSDOF 1
ENDMDL
