MODEL 1
REMARK minimizedAffinity -4.09090185
REMARK minimizedRMSD -1
REMARK  1 active torsions:
REMARK  status: ('A' for Active; 'I' for Inactive)
REMARK    1  A    between atoms: C1_2  and  C2_3 
ROOT
ATOM      1  C2  UNL d   1       1.036  -0.262   0.684  0.00  0.00    -0.073 A 
ATOM      2  C3  UNL d   1       0.382   0.049  -0.514  0.00  0.00    -0.002 A 
ATOM      3  C4  UNL d   1       0.412   1.351  -1.016  0.00  0.00     0.004 A 
ATOM      4  C5  UNL d   1       1.101   2.352  -0.331  0.00  0.00    -0.004 A 
ATOM      5  C6  UNL d   1       1.771   2.058   0.861  0.00  0.00    -0.075 A 
ATOM      6  C7  UNL d   1       2.515   3.124   1.610  0.00  0.00     0.076 C 
ATOM      7  C8  UNL d   1       1.734   0.749   1.360  0.00  0.00     0.001 A 
ENDROOT
BRANCH   1   8
ATOM      8  C1  UNL d   1       1.012  -1.667   1.227  0.00  0.00     0.053 C 
ATOM      9  C   UNL d   1      -0.004  -2.539   0.506  0.00  0.00     0.018 C 
ENDBRANCH   1   8
TORSDOF 1
ENDMDL
