MODEL 1
REMARK minimizedAffinity -3.29348207
REMARK minimizedRMSD -1
REMARK  0 active torsions:
REMARK  status: ('A' for Active; 'I' for Inactive)
ROOT
ATOM      1  C1  BNZ d   1       1.579  -2.134  -0.159  0.00  0.00     0.000 A 
ATOM      2  C2  BNZ d   1       0.404  -1.577   0.271  0.00  0.00     0.000 A 
ATOM      3  C3  BNZ d   1       0.225  -0.222   0.255  0.00  0.00     0.000 A 
ATOM      4  C4  BNZ d   1       1.233   0.576  -0.152  0.00  0.00     0.000 A 
ATOM      5  C5  BNZ d   1       2.427   0.030  -0.579  0.00  0.00     0.000 A 
ATOM      6  C6  BNZ d   1       2.590  -1.336  -0.598  0.00  0.00     0.000 A 
ENDROOT
TORSDOF 0
ENDMDL
