MODEL 1
REMARK minimizedAffinity -4.04928637
REMARK minimizedRMSD -1
REMARK  0 active torsions:
REMARK  status: ('A' for Active; 'I' for Inactive)
ROOT
ATOM      1  C1  BNZ d   1       1.564  -2.425  -0.136  0.00  0.00     0.000 A 
ATOM      2  C2  BNZ d   1       0.479  -1.837   0.457  0.00  0.00     0.000 A 
ATOM      3  C3  BNZ d   1       0.430  -0.484   0.642  0.00  0.00     0.000 A 
ATOM      4  C4  BNZ d   1       1.482   0.274   0.272  0.00  0.00     0.000 A 
ATOM      5  C5  BNZ d   1       2.588  -0.305  -0.319  0.00  0.00     0.000 A 
ATOM      6  C6  BNZ d   1       2.617  -1.663  -0.539  0.00  0.00     0.000 A 
ENDROOT
TORSDOF 0
ENDMDL
