MODEL 1
REMARK minimizedAffinity -0.613731265
REMARK minimizedRMSD -1
REMARK  0 active torsions:
REMARK  status: ('A' for Active; 'I' for Inactive)
ROOT
ATOM      1  C1  BNZ d   1       1.344  -1.234  -1.102  0.00  0.00     0.000 A 
ATOM      2  C2  BNZ d   1       2.441  -1.617  -0.378  0.00  0.00     0.000 A 
ATOM      3  C3  BNZ d   1       2.572  -1.261   0.935  0.00  0.00     0.000 A 
ATOM      4  C4  BNZ d   1       1.627  -0.490   1.511  0.00  0.00     0.000 A 
ATOM      5  C5  BNZ d   1       0.519  -0.088   0.791  0.00  0.00     0.000 A 
ATOM      6  C6  BNZ d   1       0.372  -0.480  -0.520  0.00  0.00     0.000 A 
ENDROOT
TORSDOF 0
ENDMDL
