MODEL 1
REMARK minimizedAffinity -3.49566841
REMARK minimizedRMSD -1
REMARK  0 active torsions:
REMARK  status: ('A' for Active; 'I' for Inactive)
ROOT
ATOM      1  C1  BNZ d   1       0.625  -0.725  -0.480  0.00  0.00     0.000 A 
ATOM      2  C2  BNZ d   1       1.830  -1.329  -0.725  0.00  0.00     0.000 A 
ATOM      3  C3  BNZ d   1       2.812  -1.342   0.225  0.00  0.00     0.000 A 
ATOM      4  C4  BNZ d   1       2.605  -0.716   1.402  0.00  0.00     0.000 A 
ATOM      5  C5  BNZ d   1       1.400  -0.094   1.660  0.00  0.00     0.000 A 
ATOM      6  C6  BNZ d   1       0.399  -0.117   0.716  0.00  0.00     0.000 A 
ENDROOT
TORSDOF 0
ENDMDL
