MODEL 1
REMARK minimizedAffinity -5.26214314
REMARK minimizedRMSD -1
REMARK  0 active torsions:
REMARK  status: ('A' for Active; 'I' for Inactive)
ROOT
ATOM      1  C1  BNZ d   1       2.597  -0.333   1.182  0.00  0.00     0.000 A 
ATOM      2  C2  BNZ d   1       3.006  -1.303   0.306  0.00  0.00     0.000 A 
ATOM      3  C3  BNZ d   1       2.131  -1.851  -0.590  0.00  0.00     0.000 A 
ATOM      4  C4  BNZ d   1       0.841  -1.459  -0.581  0.00  0.00     0.000 A 
ATOM      5  C5  BNZ d   1       0.411  -0.489   0.303  0.00  0.00     0.000 A 
ATOM      6  C6  BNZ d   1       1.303   0.089   1.176  0.00  0.00     0.000 A 
ENDROOT
TORSDOF 0
ENDMDL
