MODEL 1
REMARK minimizedAffinity -3.73958254
REMARK minimizedRMSD -1
REMARK  0 active torsions:
REMARK  status: ('A' for Active; 'I' for Inactive)
ROOT
ATOM      1  C1  BNZ d   1       1.106  -1.261  -0.637  0.00  0.00     0.000 A 
ATOM      2  C2  BNZ d   1       2.424  -1.631  -0.615  0.00  0.00     0.000 A 
ATOM      3  C3  BNZ d   1       3.346  -0.896   0.075  0.00  0.00     0.000 A 
ATOM      4  C4  BNZ d   1       2.957   0.229   0.709  0.00  0.00     0.000 A 
ATOM      5  C5  BNZ d   1       1.633   0.621   0.688  0.00  0.00     0.000 A 
ATOM      6  C6  BNZ d   1       0.701  -0.143   0.025  0.00  0.00     0.000 A 
ENDROOT
TORSDOF 0
ENDMDL
