MODEL 1
REMARK minimizedAffinity -5.01209831
REMARK minimizedRMSD -1
REMARK  0 active torsions:
REMARK  status: ('A' for Active; 'I' for Inactive)
ROOT
ATOM      1  C1  BNZ d   1       2.146   0.207   0.497  0.00  0.00     0.000 A 
ATOM      2  C2  BNZ d   1       2.688  -1.048   0.422  0.00  0.00     0.000 A 
ATOM      3  C3  BNZ d   1       2.051  -2.046  -0.263  0.00  0.00     0.000 A 
ATOM      4  C4  BNZ d   1       0.857  -1.798  -0.837  0.00  0.00     0.000 A 
ATOM      5  C5  BNZ d   1       0.292  -0.540  -0.762  0.00  0.00     0.000 A 
ATOM      6  C6  BNZ d   1       0.954   0.472  -0.105  0.00  0.00     0.000 A 
ENDROOT
TORSDOF 0
ENDMDL
