MODEL 1
REMARK minimizedAffinity 1.18325663
REMARK minimizedRMSD -1
REMARK  0 active torsions:
REMARK  status: ('A' for Active; 'I' for Inactive)
ROOT
ATOM      1  C1  BNZ d   1       0.691   1.865   0.155  0.00  0.00     0.000 A 
ATOM      2  C2  BNZ d   1       1.831   1.123   0.316  0.00  0.00     0.000 A 
ATOM      3  C3  BNZ d   1       1.819  -0.229   0.119  0.00  0.00     0.000 A 
ATOM      4  C4  BNZ d   1       0.661  -0.843  -0.199  0.00  0.00     0.000 A 
ATOM      5  C5  BNZ d   1      -0.498  -0.110  -0.356  0.00  0.00     0.000 A 
ATOM      6  C6  BNZ d   1      -0.475   1.256  -0.195  0.00  0.00     0.000 A 
ENDROOT
TORSDOF 0
ENDMDL
