MODEL 1
REMARK minimizedAffinity -3.89572954
REMARK minimizedRMSD -1
REMARK  0 active torsions:
REMARK  status: ('A' for Active; 'I' for Inactive)
ROOT
ATOM      1  C1  BNZ d   1       3.286  -1.331   1.029  0.00  0.00     0.000 A 
ATOM      2  C2  BNZ d   1       2.002  -0.900   1.229  0.00  0.00     0.000 A 
ATOM      3  C3  BNZ d   1       1.503   0.162   0.527  0.00  0.00     0.000 A 
ATOM      4  C4  BNZ d   1       2.301   0.816  -0.342  0.00  0.00     0.000 A 
ATOM      5  C5  BNZ d   1       3.601   0.399  -0.547  0.00  0.00     0.000 A 
ATOM      6  C6  BNZ d   1       4.087  -0.695   0.132  0.00  0.00     0.000 A 
ENDROOT
TORSDOF 0
ENDMDL
