MODEL 1
REMARK minimizedAffinity -2.13543248
REMARK minimizedRMSD -1
REMARK  0 active torsions:
REMARK  status: ('A' for Active; 'I' for Inactive)
ROOT
ATOM      1  C1  BNZ d   1       0.422   1.992   0.145  0.00  0.00     0.000 A 
ATOM      2  C2  BNZ d   1      -0.868   1.558   0.292  0.00  0.00     0.000 A 
ATOM      3  C3  BNZ d   1      -1.140   0.239   0.525  0.00  0.00     0.000 A 
ATOM      4  C4  BNZ d   1      -0.126  -0.649   0.570  0.00  0.00     0.000 A 
ATOM      5  C5  BNZ d   1       1.179  -0.228   0.414  0.00  0.00     0.000 A 
ATOM      6  C6  BNZ d   1       1.452   1.106   0.218  0.00  0.00     0.000 A 
ENDROOT
TORSDOF 0
ENDMDL
