MODEL 1
REMARK minimizedAffinity -1.96981525
REMARK minimizedRMSD -1
REMARK  0 active torsions:
REMARK  status: ('A' for Active; 'I' for Inactive)
ROOT
ATOM      1  C   UNL d   1       0.029  -0.100   0.212  0.00  0.00     0.078 C 
ATOM      2  C1  UNL d   1       0.317   1.328   0.571  0.00  0.00    -0.077 A 
ATOM      3  C2  UNL d   1      -0.041   2.373  -0.289  0.00  0.00    -0.001 A 
ATOM      4  C3  UNL d   1       0.242   3.697   0.054  0.00  0.00     0.003 A 
ATOM      5  C4  UNL d   1       0.884   3.986   1.256  0.00  0.00    -0.005 A 
ATOM      6  C5  UNL d   1       1.246   2.952   2.117  0.00  0.00     0.003 A 
ATOM      7  C6  UNL d   1       0.964   1.628   1.776  0.00  0.00    -0.001 A 
ENDROOT
TORSDOF 0
ENDMDL
