MODEL 1
REMARK minimizedAffinity 3.39951825
REMARK minimizedRMSD -1
REMARK  0 active torsions:
REMARK  status: ('A' for Active; 'I' for Inactive)
ROOT
ATOM      1  C   UNL d   1       0.246  -0.417   4.345  0.00  0.00     0.078 C 
ATOM      2  C1  UNL d   1       0.135   0.558   3.211  0.00  0.00    -0.077 A 
ATOM      3  C2  UNL d   1       1.238   0.845   2.397  0.00  0.00    -0.001 A 
ATOM      4  C3  UNL d   1       1.123   1.761   1.350  0.00  0.00     0.003 A 
ATOM      5  C4  UNL d   1      -0.092   2.399   1.109  0.00  0.00    -0.005 A 
ATOM      6  C5  UNL d   1      -1.194   2.121   1.915  0.00  0.00     0.003 A 
ATOM      7  C6  UNL d   1      -1.082   1.205   2.962  0.00  0.00    -0.001 A 
ENDROOT
TORSDOF 0
ENDMDL
