MODEL 1
REMARK minimizedAffinity 0.683838487
REMARK minimizedRMSD -1
REMARK  0 active torsions:
REMARK  status: ('A' for Active; 'I' for Inactive)
ROOT
ATOM      1  C   UNL d   1      -4.162  -0.475   2.096  0.00  0.00     0.078 C 
ATOM      2  C1  UNL d   1      -4.801  -0.565   3.450  0.00  0.00    -0.077 A 
ATOM      3  C2  UNL d   1      -5.418   0.549   4.032  0.00  0.00    -0.001 A 
ATOM      4  C3  UNL d   1      -6.000   0.453   5.297  0.00  0.00     0.003 A 
ATOM      5  C4  UNL d   1      -5.969  -0.754   5.992  0.00  0.00    -0.005 A 
ATOM      6  C5  UNL d   1      -5.354  -1.867   5.422  0.00  0.00     0.003 A 
ATOM      7  C6  UNL d   1      -4.772  -1.774   4.157  0.00  0.00    -0.001 A 
ENDROOT
TORSDOF 0
ENDMDL
