MODEL 1
REMARK minimizedAffinity 3.06763124
REMARK minimizedRMSD -1
REMARK  0 active torsions:
REMARK  status: ('A' for Active; 'I' for Inactive)
ROOT
ATOM      1  C   UNL d   1      -0.784   2.001   2.034  0.00  0.00     0.078 C 
ATOM      2  C1  UNL d   1       0.041   0.774   2.283  0.00  0.00    -0.077 A 
ATOM      3  C2  UNL d   1      -0.079   0.054   3.478  0.00  0.00    -0.001 A 
ATOM      4  C3  UNL d   1       0.702  -1.081   3.701  0.00  0.00     0.003 A 
ATOM      5  C4  UNL d   1       1.611  -1.505   2.733  0.00  0.00    -0.005 A 
ATOM      6  C5  UNL d   1       1.740  -0.794   1.542  0.00  0.00     0.003 A 
ATOM      7  C6  UNL d   1       0.959   0.341   1.318  0.00  0.00    -0.001 A 
ENDROOT
TORSDOF 0
ENDMDL
