MODEL 1
REMARK minimizedAffinity -1.69332528
REMARK minimizedRMSD -1
REMARK  0 active torsions:
REMARK  status: ('A' for Active; 'I' for Inactive)
ROOT
ATOM      1  C   UNL d   1       0.412   3.725   0.172  0.00  0.00     0.078 C 
ATOM      2  C1  UNL d   1       0.587   2.366   0.782  0.00  0.00    -0.077 A 
ATOM      3  C2  UNL d   1       0.779   2.213   2.161  0.00  0.00    -0.001 A 
ATOM      4  C3  UNL d   1       0.950   0.943   2.713  0.00  0.00     0.003 A 
ATOM      5  C4  UNL d   1       0.933  -0.184   1.895  0.00  0.00    -0.005 A 
ATOM      6  C5  UNL d   1       0.745  -0.042   0.521  0.00  0.00     0.003 A 
ATOM      7  C6  UNL d   1       0.574   1.227  -0.033  0.00  0.00    -0.001 A 
ENDROOT
TORSDOF 0
ENDMDL
