MODEL 1
REMARK minimizedAffinity -4.80213547
REMARK minimizedRMSD -1
REMARK  2 active torsions:
REMARK  status: ('A' for Active; 'I' for Inactive)
REMARK    1  A    between atoms: C2'_3  and  C1'_4 
REMARK    2  A    between atoms: C1'_4  and  C1_5 
ROOT
ATOM      1  C1  I4B d   1      -0.335   1.051   0.261  0.00  0.00    -0.075 A 
ATOM      2  C2  I4B d   1       0.370   0.027   0.842  0.00  0.00     0.003 A 
ATOM      3  C3  I4B d   1      -0.242  -0.795   1.820  0.00  0.00     0.002 A 
ATOM      4  C4  I4B d   1      -1.535  -0.527   2.219  0.00  0.00    -0.004 A 
ATOM      5  C5  I4B d   1      -2.256   0.497   1.612  0.00  0.00     0.002 A 
ATOM      6  C6  I4B d   1      -1.656   1.284   0.618  0.00  0.00     0.003 A 
ENDROOT
BRANCH   1   7
ATOM      7  C1' I4B d   1       0.353   1.920  -0.744  0.00  0.00     0.060 C 
BRANCH   7   8
ATOM      8  C2' I4B d   1       1.136   2.975   0.010  0.00  0.00    -0.013 C 
ATOM      9  C4' I4B d   1       2.433   3.293  -0.687  0.00  0.00     0.013 C 
ATOM     10  C3' I4B d   1       0.273   4.196   0.129  0.00  0.00     0.013 C 
ENDBRANCH   7   8
ENDBRANCH   1   7
TORSDOF 2
ENDMDL
