MODEL 1
REMARK minimizedAffinity -4.6660614
REMARK minimizedRMSD -1
REMARK  2 active torsions:
REMARK  status: ('A' for Active; 'I' for Inactive)
REMARK    1  A    between atoms: C2'_3  and  C1'_4 
REMARK    2  A    between atoms: C1'_4  and  C1_5 
ROOT
ATOM      1  C1  I4B d   1      -0.591  -1.380  -0.842  0.00  0.00    -0.075 A 
ATOM      2  C2  I4B d   1      -0.159  -1.263  -2.140  0.00  0.00     0.003 A 
ATOM      3  C3  I4B d   1       0.117  -2.420  -2.907  0.00  0.00     0.002 A 
ATOM      4  C4  I4B d   1      -0.002  -3.666  -2.324  0.00  0.00    -0.004 A 
ATOM      5  C5  I4B d   1      -0.462  -3.784  -1.016  0.00  0.00     0.002 A 
ATOM      6  C6  I4B d   1      -0.770  -2.634  -0.274  0.00  0.00     0.003 A 
ENDROOT
BRANCH   1   7
ATOM      7  C1' I4B d   1      -0.843  -0.136  -0.051  0.00  0.00     0.060 C 
BRANCH   7   8
ATOM      8  C2' I4B d   1       0.431   0.685  -0.054  0.00  0.00    -0.013 C 
ATOM      9  C4' I4B d   1       0.131   2.158   0.020  0.00  0.00     0.013 C 
ATOM     10  C3' I4B d   1       1.269   0.244   1.109  0.00  0.00     0.013 C 
ENDBRANCH   7   8
ENDBRANCH   1   7
TORSDOF 2
ENDMDL
