MODEL 1
REMARK minimizedAffinity 1.49997056
REMARK minimizedRMSD -1
REMARK  2 active torsions:
REMARK  status: ('A' for Active; 'I' for Inactive)
REMARK    1  A    between atoms: C2'_3  and  C1'_4 
REMARK    2  A    between atoms: C1'_4  and  C1_5 
ROOT
ATOM      1  C1  I4B d   1      -0.690   0.471   0.325  0.00  0.00    -0.075 A 
ATOM      2  C2  I4B d   1      -0.083  -0.576   0.970  0.00  0.00     0.003 A 
ATOM      3  C3  I4B d   1      -0.752  -1.251   2.020  0.00  0.00     0.002 A 
ATOM      4  C4  I4B d   1      -1.998  -0.815   2.423  0.00  0.00    -0.004 A 
ATOM      5  C5  I4B d   1      -2.622   0.233   1.752  0.00  0.00     0.002 A 
ATOM      6  C6  I4B d   1      -1.969   0.872   0.688  0.00  0.00     0.003 A 
ENDROOT
BRANCH   1   7
ATOM      7  C1' I4B d   1       0.059   1.183  -0.758  0.00  0.00     0.060 C 
BRANCH   7   8
ATOM      8  C2' I4B d   1       1.106   0.233  -1.302  0.00  0.00    -0.013 C 
ATOM      9  C4' I4B d   1       0.799  -0.162  -2.723  0.00  0.00     0.013 C 
ATOM     10  C3' I4B d   1       2.440   0.911  -1.205  0.00  0.00     0.013 C 
ENDBRANCH   7   8
ENDBRANCH   1   7
TORSDOF 2
ENDMDL
