MODEL 1
REMARK minimizedAffinity -1.02405334
REMARK minimizedRMSD -1
REMARK  2 active torsions:
REMARK  status: ('A' for Active; 'I' for Inactive)
REMARK    1  A    between atoms: C2'_3  and  C1'_4 
REMARK    2  A    between atoms: C1'_4  and  C1_5 
ROOT
ATOM      1  C1  I4B d   1      -0.135  -0.323   0.333  0.00  0.00    -0.075 A 
ATOM      2  C2  I4B d   1      -0.698  -0.665   1.537  0.00  0.00     0.003 A 
ATOM      3  C3  I4B d   1      -1.454  -1.856   1.658  0.00  0.00     0.002 A 
ATOM      4  C4  I4B d   1      -1.664  -2.643   0.544  0.00  0.00    -0.004 A 
ATOM      5  C5  I4B d   1      -1.074  -2.307  -0.670  0.00  0.00     0.002 A 
ATOM      6  C6  I4B d   1      -0.294  -1.146  -0.774  0.00  0.00     0.003 A 
ENDROOT
BRANCH   1   7
ATOM      7  C1' I4B d   1       0.631   0.958   0.233  0.00  0.00     0.060 C 
BRANCH   7   8
ATOM      8  C2' I4B d   1      -0.365   2.100   0.257  0.00  0.00    -0.013 C 
ATOM      9  C4' I4B d   1       0.329   3.424   0.440  0.00  0.00     0.013 C 
ATOM     10  C3' I4B d   1      -1.138   2.066  -1.027  0.00  0.00     0.013 C 
ENDBRANCH   7   8
ENDBRANCH   1   7
TORSDOF 2
ENDMDL
