MODEL 1
REMARK minimizedAffinity -4.01161957
REMARK minimizedRMSD -1
REMARK  2 active torsions:
REMARK  status: ('A' for Active; 'I' for Inactive)
REMARK    1  A    between atoms: C2'_3  and  C1'_4 
REMARK    2  A    between atoms: C1'_4  and  C1_5 
ROOT
ATOM      1  C1  I4B d   1       0.719   2.176  -0.395  0.00  0.00    -0.075 A 
ATOM      2  C2  I4B d   1       0.219   3.070   0.518  0.00  0.00     0.003 A 
ATOM      3  C3  I4B d   1       1.031   4.123   1.004  0.00  0.00     0.002 A 
ATOM      4  C4  I4B d   1       2.345   4.214   0.591  0.00  0.00    -0.004 A 
ATOM      5  C5  I4B d   1       2.843   3.321  -0.353  0.00  0.00     0.002 A 
ATOM      6  C6  I4B d   1       2.022   2.302  -0.859  0.00  0.00     0.003 A 
ENDROOT
BRANCH   1   7
ATOM      7  C1' I4B d   1      -0.156   1.057  -0.863  0.00  0.00     0.060 C 
BRANCH   7   8
ATOM      8  C2' I4B d   1       0.359  -0.227  -0.245  0.00  0.00    -0.013 C 
ATOM      9  C4' I4B d   1      -0.382  -0.559   1.023  0.00  0.00     0.013 C 
ATOM     10  C3' I4B d   1       0.211  -1.321  -1.261  0.00  0.00     0.013 C 
ENDBRANCH   7   8
ENDBRANCH   1   7
TORSDOF 2
ENDMDL
