MODEL 1
REMARK minimizedAffinity -2.14357567
REMARK minimizedRMSD -1
REMARK  2 active torsions:
REMARK  status: ('A' for Active; 'I' for Inactive)
REMARK    1  A    between atoms: C2'_3  and  C1'_4 
REMARK    2  A    between atoms: C1'_4  and  C1_5 
ROOT
ATOM      1  C1  I4B d   1      -0.562   0.372  -0.528  0.00  0.00    -0.075 A 
ATOM      2  C2  I4B d   1       0.562   0.929   0.029  0.00  0.00     0.003 A 
ATOM      3  C3  I4B d   1       1.779   0.953  -0.694  0.00  0.00     0.002 A 
ATOM      4  C4  I4B d   1       1.840   0.367  -1.942  0.00  0.00    -0.004 A 
ATOM      5  C5  I4B d   1       0.694  -0.178  -2.514  0.00  0.00     0.002 A 
ATOM      6  C6  I4B d   1      -0.518  -0.165  -1.808  0.00  0.00     0.003 A 
ENDROOT
BRANCH   1   7
ATOM      7  C1' I4B d   1      -1.822   0.334   0.277  0.00  0.00     0.060 C 
BRANCH   7   8
ATOM      8  C2' I4B d   1      -1.503  -0.300   1.616  0.00  0.00    -0.013 C 
ATOM      9  C4' I4B d   1      -2.454   0.172   2.683  0.00  0.00     0.013 C 
ATOM     10  C3' I4B d   1      -1.570  -1.789   1.450  0.00  0.00     0.013 C 
ENDBRANCH   7   8
ENDBRANCH   1   7
TORSDOF 2
ENDMDL
