MODEL 1
REMARK minimizedAffinity -2.58629727
REMARK minimizedRMSD -1
REMARK  2 active torsions:
REMARK  status: ('A' for Active; 'I' for Inactive)
REMARK    1  A    between atoms: C2'_3  and  C1'_4 
REMARK    2  A    between atoms: C1'_4  and  C1_5 
ROOT
ATOM      1  C1  I4B d   1      -0.067   0.616   0.245  0.00  0.00    -0.075 A 
ATOM      2  C2  I4B d   1      -0.520  -0.331  -0.640  0.00  0.00     0.003 A 
ATOM      3  C3  I4B d   1      -1.058  -1.551  -0.164  0.00  0.00     0.002 A 
ATOM      4  C4  I4B d   1      -1.077  -1.803   1.193  0.00  0.00    -0.004 A 
ATOM      5  C5  I4B d   1      -0.638  -0.832   2.089  0.00  0.00     0.002 A 
ATOM      6  C6  I4B d   1      -0.141   0.390   1.613  0.00  0.00     0.003 A 
ENDROOT
BRANCH   1   7
ATOM      7  C1' I4B d   1       0.526   1.879  -0.293  0.00  0.00     0.060 C 
BRANCH   7   8
ATOM      8  C2' I4B d   1       1.378   2.496   0.797  0.00  0.00    -0.013 C 
ATOM      9  C4' I4B d   1       2.798   2.692   0.334  0.00  0.00     0.013 C 
ATOM     10  C3' I4B d   1       0.753   3.801   1.191  0.00  0.00     0.013 C 
ENDBRANCH   7   8
ENDBRANCH   1   7
TORSDOF 2
ENDMDL
