MODEL 1
REMARK minimizedAffinity -3.80353761
REMARK minimizedRMSD -1
REMARK  2 active torsions:
REMARK  status: ('A' for Active; 'I' for Inactive)
REMARK    1  A    between atoms: C2'_3  and  C1'_4 
REMARK    2  A    between atoms: C1'_4  and  C1_5 
ROOT
ATOM      1  C1  I4B d   1      -0.205   0.040  -0.814  0.00  0.00    -0.075 A 
ATOM      2  C2  I4B d   1      -0.674  -0.242   0.446  0.00  0.00     0.003 A 
ATOM      3  C3  I4B d   1      -1.010  -1.571   0.800  0.00  0.00     0.002 A 
ATOM      4  C4  I4B d   1      -0.911  -2.572  -0.144  0.00  0.00    -0.004 A 
ATOM      5  C5  I4B d   1      -0.414  -2.289  -1.413  0.00  0.00     0.002 A 
ATOM      6  C6  I4B d   1      -0.047  -0.977  -1.746  0.00  0.00     0.003 A 
ENDROOT
BRANCH   1   7
ATOM      7  C1' I4B d   1       0.110   1.459  -1.165  0.00  0.00     0.060 C 
BRANCH   7   8
ATOM      8  C2' I4B d   1       0.885   2.064  -0.012  0.00  0.00    -0.013 C 
ATOM      9  C4' I4B d   1       2.265   2.486  -0.445  0.00  0.00     0.013 C 
ATOM     10  C3' I4B d   1       0.102   3.231   0.511  0.00  0.00     0.013 C 
ENDBRANCH   7   8
ENDBRANCH   1   7
TORSDOF 2
ENDMDL
