MODEL 1
REMARK minimizedAffinity -1.20520651
REMARK minimizedRMSD -1
REMARK  2 active torsions:
REMARK  status: ('A' for Active; 'I' for Inactive)
REMARK    1  A    between atoms: C2'_3  and  C1'_4 
REMARK    2  A    between atoms: C1'_4  and  C1_5 
ROOT
ATOM      1  C1  I4B d   1       0.623   1.167   0.405  0.00  0.00    -0.075 A 
ATOM      2  C2  I4B d   1       0.865   0.308   1.448  0.00  0.00     0.003 A 
ATOM      3  C3  I4B d   1      -0.163  -0.540   1.926  0.00  0.00     0.002 A 
ATOM      4  C4  I4B d   1      -1.423  -0.461   1.370  0.00  0.00    -0.004 A 
ATOM      5  C5  I4B d   1      -1.661   0.394   0.298  0.00  0.00     0.002 A 
ATOM      6  C6  I4B d   1      -0.628   1.205  -0.196  0.00  0.00     0.003 A 
ENDROOT
BRANCH   1   7
ATOM      7  C1' I4B d   1       1.722   2.073  -0.053  0.00  0.00     0.060 C 
BRANCH   7   8
ATOM      8  C2' I4B d   1       1.503   3.431   0.583  0.00  0.00    -0.013 C 
ATOM      9  C4' I4B d   1       0.037   3.760   0.675  0.00  0.00     0.013 C 
ATOM     10  C3' I4B d   1       2.142   3.415   1.940  0.00  0.00     0.013 C 
ENDBRANCH   7   8
ENDBRANCH   1   7
TORSDOF 2
ENDMDL
