MODEL 1
REMARK minimizedAffinity 5.48154593
REMARK minimizedRMSD -1
REMARK  2 active torsions:
REMARK  status: ('A' for Active; 'I' for Inactive)
REMARK    1  A    between atoms: C2'_3  and  C1'_4 
REMARK    2  A    between atoms: C1'_4  and  C1_5 
ROOT
ATOM      1  C1  I4B d   1       0.193   0.249  -0.389  0.00  0.00    -0.075 A 
ATOM      2  C2  I4B d   1      -0.574  -0.091  -1.476  0.00  0.00     0.003 A 
ATOM      3  C3  I4B d   1       0.041  -0.549  -2.666  0.00  0.00     0.002 A 
ATOM      4  C4  I4B d   1       1.417  -0.604  -2.743  0.00  0.00    -0.004 A 
ATOM      5  C5  I4B d   1       2.192  -0.280  -1.633  0.00  0.00     0.002 A 
ATOM      6  C6  I4B d   1       1.576   0.137  -0.444  0.00  0.00     0.003 A 
ENDROOT
BRANCH   1   7
ATOM      7  C1' I4B d   1      -0.487   0.761   0.841  0.00  0.00     0.060 C 
BRANCH   7   8
ATOM      8  C2' I4B d   1      -1.490  -0.283   1.289  0.00  0.00    -0.013 C 
ATOM      9  C4' I4B d   1      -0.827  -1.362   2.104  0.00  0.00     0.013 C 
ATOM     10  C3' I4B d   1      -2.560   0.412   2.078  0.00  0.00     0.013 C 
ENDBRANCH   7   8
ENDBRANCH   1   7
TORSDOF 2
ENDMDL
