MODEL 1
REMARK minimizedAffinity -5.31592226
REMARK minimizedRMSD -1
REMARK  2 active torsions:
REMARK  status: ('A' for Active; 'I' for Inactive)
REMARK    1  A    between atoms: C2'_3  and  C1'_4 
REMARK    2  A    between atoms: C1'_4  and  C1_5 
ROOT
ATOM      1  C1  I4B d   1       0.048   0.895   0.068  0.00  0.00    -0.075 A 
ATOM      2  C2  I4B d   1      -1.264   0.601   0.342  0.00  0.00     0.003 A 
ATOM      3  C3  I4B d   1      -1.610  -0.644   0.919  0.00  0.00     0.002 A 
ATOM      4  C4  I4B d   1      -0.625  -1.580   1.158  0.00  0.00    -0.004 A 
ATOM      5  C5  I4B d   1       0.708  -1.272   0.901  0.00  0.00     0.002 A 
ATOM      6  C6  I4B d   1       1.048  -0.022   0.364  0.00  0.00     0.003 A 
ENDROOT
BRANCH   1   7
ATOM      7  C1' I4B d   1       0.375   2.207  -0.572  0.00  0.00     0.060 C 
BRANCH   7   8
ATOM      8  C2' I4B d   1       1.075   3.068   0.459  0.00  0.00    -0.013 C 
ATOM      9  C4' I4B d   1       2.346   3.656  -0.094  0.00  0.00     0.013 C 
ATOM     10  C3' I4B d   1       0.122   4.144   0.887  0.00  0.00     0.013 C 
ENDBRANCH   7   8
ENDBRANCH   1   7
TORSDOF 2
ENDMDL
