MODEL 1
REMARK minimizedAffinity -5.94814587
REMARK minimizedRMSD -1
REMARK  2 active torsions:
REMARK  status: ('A' for Active; 'I' for Inactive)
REMARK    1  A    between atoms: C2'_3  and  C1'_4 
REMARK    2  A    between atoms: C1'_4  and  C1_5 
ROOT
ATOM      1  C1  I4B d   1       0.295   0.378  -0.097  0.00  0.00    -0.075 A 
ATOM      2  C2  I4B d   1      -0.760   0.207   0.764  0.00  0.00     0.003 A 
ATOM      3  C3  I4B d   1      -1.063  -1.078   1.275  0.00  0.00     0.002 A 
ATOM      4  C4  I4B d   1      -0.320  -2.166   0.862  0.00  0.00    -0.004 A 
ATOM      5  C5  I4B d   1       0.764  -1.987   0.007  0.00  0.00     0.002 A 
ATOM      6  C6  I4B d   1       1.082  -0.706  -0.466  0.00  0.00     0.003 A 
ENDROOT
BRANCH   1   7
ATOM      7  C1' I4B d   1       0.566   1.744  -0.643  0.00  0.00     0.060 C 
BRANCH   7   8
ATOM      8  C2' I4B d   1       1.486   2.460   0.325  0.00  0.00    -0.013 C 
ATOM      9  C4' I4B d   1       2.845   2.689  -0.282  0.00  0.00     0.013 C 
ATOM     10  C3' I4B d   1       0.837   3.757   0.705  0.00  0.00     0.013 C 
ENDBRANCH   7   8
ENDBRANCH   1   7
TORSDOF 2
ENDMDL
