MODEL 1
REMARK minimizedAffinity -0.636929095
REMARK minimizedRMSD -1
REMARK  1 active torsions:
REMARK  status: ('A' for Active; 'I' for Inactive)
REMARK    1  A    between atoms: N_2  and  C1_3 
ROOT
ATOM      1  C1  UNL d   1      -5.764  -5.237  -3.458  0.00  0.00     0.143 A 
ATOM      2  C2  UNL d   1      -5.864  -3.848  -3.586  0.00  0.00    -0.057 A 
ATOM      3  C3  UNL d   1      -5.995  -3.242  -4.842  0.00  0.00     0.033 A 
ATOM      4  C4  UNL d   1      -5.999  -4.017  -5.997  0.00  0.00    -0.042 A 
ATOM      5  C5  UNL d   1      -5.876  -5.398  -5.895  0.00  0.00     0.033 A 
ATOM      6  C6  UNL d   1      -5.752  -5.997  -4.638  0.00  0.00    -0.057 A 
ENDROOT
BRANCH   1   7
ATOM      7  N   UNL d   1      -5.532  -5.892  -2.245  0.00  0.00    -0.732 N 
ATOM      8  C   UNL d   1      -4.219  -5.875  -1.638  0.00  0.00     0.284 C 
ATOM      9  H3  UNL d   1      -6.297  -5.769  -1.586  0.00  0.00     0.395 HD
ENDBRANCH   1   7
TORSDOF 1
ENDMDL
