MODEL 1
REMARK minimizedAffinity 8.50598907
REMARK minimizedRMSD -1
REMARK  1 active torsions:
REMARK  status: ('A' for Active; 'I' for Inactive)
REMARK    1  A    between atoms: N_2  and  C1_3 
ROOT
ATOM      1  C1  UNL d   1      -4.634  -5.744  -2.902  0.00  0.00     0.143 A 
ATOM      2  C2  UNL d   1      -3.324  -5.981  -3.330  0.00  0.00    -0.057 A 
ATOM      3  C3  UNL d   1      -2.256  -6.000  -2.425  0.00  0.00     0.033 A 
ATOM      4  C4  UNL d   1      -2.476  -5.751  -1.075  0.00  0.00    -0.042 A 
ATOM      5  C5  UNL d   1      -3.767  -5.488  -0.630  0.00  0.00     0.033 A 
ATOM      6  C6  UNL d   1      -4.830  -5.478  -1.537  0.00  0.00    -0.057 A 
ENDROOT
BRANCH   1   7
ATOM      7  N   UNL d   1      -5.724  -5.615  -3.766  0.00  0.00    -0.732 N 
ATOM      8  C   UNL d   1      -5.611  -5.999  -5.157  0.00  0.00     0.284 C 
ATOM      9  H3  UNL d   1      -6.601  -5.889  -3.329  0.00  0.00     0.395 HD
ENDBRANCH   1   7
TORSDOF 1
ENDMDL
