MODEL 1
REMARK minimizedAffinity -1.214203
REMARK minimizedRMSD -1
REMARK  1 active torsions:
REMARK  status: ('A' for Active; 'I' for Inactive)
REMARK    1  A    between atoms: N_2  and  C1_3 
ROOT
ATOM      1  C1  UNL d   1      -5.412  -5.227  -3.624  0.00  0.00     0.143 A 
ATOM      2  C2  UNL d   1      -5.354  -3.830  -3.656  0.00  0.00    -0.057 A 
ATOM      3  C3  UNL d   1      -5.639  -3.118  -4.828  0.00  0.00     0.033 A 
ATOM      4  C4  UNL d   1      -5.960  -3.795  -6.000  0.00  0.00    -0.042 A 
ATOM      5  C5  UNL d   1      -5.999  -5.184  -5.998  0.00  0.00     0.033 A 
ATOM      6  C6  UNL d   1      -5.720  -5.890  -4.823  0.00  0.00    -0.057 A 
ENDROOT
BRANCH   1   7
ATOM      7  N   UNL d   1      -5.044  -5.996  -2.517  0.00  0.00    -0.732 N 
ATOM      8  C   UNL d   1      -3.677  -5.997  -2.043  0.00  0.00     0.284 C 
ATOM      9  H3  UNL d   1      -5.741  -5.969  -1.777  0.00  0.00     0.395 HD
ENDBRANCH   1   7
TORSDOF 1
ENDMDL
