MODEL 1
REMARK minimizedAffinity -0.309162676
REMARK minimizedRMSD -1
REMARK  1 active torsions:
REMARK  status: ('A' for Active; 'I' for Inactive)
REMARK    1  A    between atoms: N_2  and  C1_3 
ROOT
ATOM      1  C1  UNL d   1      -5.297  -5.290  -3.579  0.00  0.00     0.143 A 
ATOM      2  C2  UNL d   1      -5.636  -3.933  -3.589  0.00  0.00    -0.057 A 
ATOM      3  C3  UNL d   1      -5.997  -3.284  -4.776  0.00  0.00     0.033 A 
ATOM      4  C4  UNL d   1      -5.996  -3.977  -5.983  0.00  0.00    -0.042 A 
ATOM      5  C5  UNL d   1      -5.637  -5.320  -6.000  0.00  0.00     0.033 A 
ATOM      6  C6  UNL d   1      -5.285  -5.964  -4.810  0.00  0.00    -0.057 A 
ENDROOT
BRANCH   1   7
ATOM      7  N   UNL d   1      -4.835  -5.968  -2.448  0.00  0.00    -0.732 N 
ATOM      8  C   UNL d   1      -5.313  -5.613  -1.129  0.00  0.00     0.284 C 
ATOM      9  H3  UNL d   1      -4.749  -6.970  -2.603  0.00  0.00     0.395 HD
ENDBRANCH   1   7
TORSDOF 1
ENDMDL
