MODEL 1
REMARK minimizedAffinity 3.33339238
REMARK minimizedRMSD -1
REMARK  1 active torsions:
REMARK  status: ('A' for Active; 'I' for Inactive)
REMARK    1  A    between atoms: N_2  and  C1_3 
ROOT
ATOM      1  C1  UNL d   1      -5.312  -1.418   2.249  0.00  0.00     0.143 A 
ATOM      2  C2  UNL d   1      -5.832  -0.830   3.407  0.00  0.00    -0.057 A 
ATOM      3  C3  UNL d   1      -5.059   0.033   4.194  0.00  0.00     0.033 A 
ATOM      4  C4  UNL d   1      -3.738   0.302   3.850  0.00  0.00    -0.042 A 
ATOM      5  C5  UNL d   1      -3.193  -0.291   2.717  0.00  0.00     0.033 A 
ATOM      6  C6  UNL d   1      -3.971  -1.147   1.932  0.00  0.00    -0.057 A 
ENDROOT
BRANCH   1   7
ATOM      7  N   UNL d   1      -5.997  -2.361   1.480  0.00  0.00    -0.732 N 
ATOM      8  C   UNL d   1      -5.364  -3.607   1.105  0.00  0.00     0.284 C 
ATOM      9  H3  UNL d   1      -6.971  -2.458   1.761  0.00  0.00     0.395 HD
ENDBRANCH   1   7
TORSDOF 1
ENDMDL
