MODEL 1
REMARK minimizedAffinity 4.29335451
REMARK minimizedRMSD -1
REMARK  1 active torsions:
REMARK  status: ('A' for Active; 'I' for Inactive)
REMARK    1  A    between atoms: N_2  and  C1_3 
ROOT
ATOM      1  C1  UNL d   1      -4.713  -5.110  -2.813  0.00  0.00     0.143 A 
ATOM      2  C2  UNL d   1      -4.742  -3.749  -3.134  0.00  0.00    -0.057 A 
ATOM      3  C3  UNL d   1      -5.390  -3.287  -4.285  0.00  0.00     0.033 A 
ATOM      4  C4  UNL d   1      -6.000  -4.186  -5.155  0.00  0.00    -0.042 A 
ATOM      5  C5  UNL d   1      -5.963  -5.546  -4.870  0.00  0.00     0.033 A 
ATOM      6  C6  UNL d   1      -5.319  -6.000  -3.715  0.00  0.00    -0.057 A 
ENDROOT
BRANCH   1   7
ATOM      7  N   UNL d   1      -4.001  -5.641  -1.735  0.00  0.00    -0.732 N 
ATOM      8  C   UNL d   1      -2.603  -5.989  -1.876  0.00  0.00     0.284 C 
ATOM      9  H3  UNL d   1      -4.229  -5.183  -0.856  0.00  0.00     0.395 HD
ENDBRANCH   1   7
TORSDOF 1
ENDMDL
