MODEL 1
REMARK minimizedAffinity 7.87418032
REMARK minimizedRMSD -1
REMARK  1 active torsions:
REMARK  status: ('A' for Active; 'I' for Inactive)
REMARK    1  A    between atoms: N_2  and  C1_3 
ROOT
ATOM      1  C1  UNL d   1      -3.408   0.024   2.590  0.00  0.00     0.143 A 
ATOM      2  C2  UNL d   1      -4.162  -0.932   1.901  0.00  0.00    -0.057 A 
ATOM      3  C3  UNL d   1      -5.450  -1.283   2.322  0.00  0.00     0.033 A 
ATOM      4  C4  UNL d   1      -5.998  -0.703   3.462  0.00  0.00    -0.042 A 
ATOM      5  C5  UNL d   1      -5.257   0.232   4.177  0.00  0.00     0.033 A 
ATOM      6  C6  UNL d   1      -3.974   0.583   3.747  0.00  0.00    -0.057 A 
ENDROOT
BRANCH   1   7
ATOM      7  N   UNL d   1      -2.085   0.344   2.278  0.00  0.00    -0.732 N 
ATOM      8  C   UNL d   1      -1.740   1.660   1.786  0.00  0.00     0.284 C 
ATOM      9  H3  UNL d   1      -1.424  -0.033   2.954  0.00  0.00     0.395 HD
ENDBRANCH   1   7
TORSDOF 1
ENDMDL
