MODEL 1
REMARK minimizedAffinity 0.66444695
REMARK minimizedRMSD -1
REMARK  1 active torsions:
REMARK  status: ('A' for Active; 'I' for Inactive)
REMARK    1  A    between atoms: N_2  and  C1_3 
ROOT
ATOM      1  C1  UNL d   1      -5.260  -4.206  -3.623  0.00  0.00     0.143 A 
ATOM      2  C2  UNL d   1      -5.837  -5.130  -2.744  0.00  0.00    -0.057 A 
ATOM      3  C3  UNL d   1      -5.047  -5.994  -1.977  0.00  0.00     0.033 A 
ATOM      4  C4  UNL d   1      -3.661  -5.970  -2.098  0.00  0.00    -0.042 A 
ATOM      5  C5  UNL d   1      -3.067  -5.078  -2.984  0.00  0.00     0.033 A 
ATOM      6  C6  UNL d   1      -3.862  -4.212  -3.742  0.00  0.00    -0.057 A 
ENDROOT
BRANCH   1   7
ATOM      7  N   UNL d   1      -5.996  -3.389  -4.485  0.00  0.00    -0.732 N 
ATOM      8  C   UNL d   1      -5.996  -3.634  -5.912  0.00  0.00     0.284 C 
ATOM      9  H3  UNL d   1      -6.907  -3.144  -4.105  0.00  0.00     0.395 HD
ENDBRANCH   1   7
TORSDOF 1
ENDMDL
