MODEL 1
REMARK minimizedAffinity 3.73883724
REMARK minimizedRMSD -1
REMARK  1 active torsions:
REMARK  status: ('A' for Active; 'I' for Inactive)
REMARK    1  A    between atoms: N_2  and  C1_3 
ROOT
ATOM      1  C1  UNL d   1      -4.075  -0.000   2.237  0.00  0.00     0.143 A 
ATOM      2  C2  UNL d   1      -4.104  -0.023   3.635  0.00  0.00    -0.057 A 
ATOM      3  C3  UNL d   1      -5.042  -0.796   4.330  0.00  0.00     0.033 A 
ATOM      4  C4  UNL d   1      -5.990  -1.540   3.635  0.00  0.00    -0.042 A 
ATOM      5  C5  UNL d   1      -5.996  -1.513   2.245  0.00  0.00     0.033 A 
ATOM      6  C6  UNL d   1      -5.052  -0.745   1.557  0.00  0.00    -0.057 A 
ENDROOT
BRANCH   1   7
ATOM      7  N   UNL d   1      -3.231   0.824   1.489  0.00  0.00    -0.732 N 
ATOM      8  C   UNL d   1      -1.796   0.640   1.529  0.00  0.00     0.284 C 
ATOM      9  H3  UNL d   1      -3.599   1.019   0.561  0.00  0.00     0.395 HD
ENDBRANCH   1   7
TORSDOF 1
ENDMDL
