MODEL 1
REMARK minimizedAffinity 4.66442156
REMARK minimizedRMSD -1
REMARK  1 active torsions:
REMARK  status: ('A' for Active; 'I' for Inactive)
REMARK    1  A    between atoms: N_2  and  C1_3 
ROOT
ATOM      1  C1  UNL d   1      -4.950  -5.272  -3.787  0.00  0.00     0.143 A 
ATOM      2  C2  UNL d   1      -5.473  -5.947  -4.895  0.00  0.00    -0.057 A 
ATOM      3  C3  UNL d   1      -5.980  -5.249  -5.998  0.00  0.00     0.033 A 
ATOM      4  C4  UNL d   1      -6.000  -3.858  -5.999  0.00  0.00    -0.042 A 
ATOM      5  C5  UNL d   1      -5.508  -3.167  -4.898  0.00  0.00     0.033 A 
ATOM      6  C6  UNL d   1      -4.997  -3.869  -3.803  0.00  0.00    -0.057 A 
ENDROOT
BRANCH   1   7
ATOM      7  N   UNL d   1      -4.523  -5.909  -2.619  0.00  0.00    -0.732 N 
ATOM      8  C   UNL d   1      -3.204  -5.654  -2.082  0.00  0.00     0.284 C 
ATOM      9  H3  UNL d   1      -5.255  -5.962  -1.915  0.00  0.00     0.395 HD
ENDBRANCH   1   7
TORSDOF 1
ENDMDL
