MODEL 1
REMARK minimizedAffinity 3.59799695
REMARK minimizedRMSD -1
REMARK  1 active torsions:
REMARK  status: ('A' for Active; 'I' for Inactive)
REMARK    1  A    between atoms: N_2  and  C1_3 
ROOT
ATOM      1  C1  UNL d   1      -5.231  -5.212  -3.443  0.00  0.00     0.143 A 
ATOM      2  C2  UNL d   1      -5.629  -5.850  -4.623  0.00  0.00    -0.057 A 
ATOM      3  C3  UNL d   1      -5.995  -5.116  -5.758  0.00  0.00     0.033 A 
ATOM      4  C4  UNL d   1      -5.997  -3.726  -5.723  0.00  0.00    -0.042 A 
ATOM      5  C5  UNL d   1      -5.630  -3.070  -4.553  0.00  0.00     0.033 A 
ATOM      6  C6  UNL d   1      -5.259  -3.809  -3.426  0.00  0.00    -0.057 A 
ENDROOT
BRANCH   1   7
ATOM      7  N   UNL d   1      -4.950  -5.885  -2.252  0.00  0.00    -0.732 N 
ATOM      8  C   UNL d   1      -3.590  -5.999  -1.772  0.00  0.00     0.284 C 
ATOM      9  H3  UNL d   1      -5.633  -5.686  -1.523  0.00  0.00     0.395 HD
ENDBRANCH   1   7
TORSDOF 1
ENDMDL
