MODEL 1
REMARK minimizedAffinity 5.19031382
REMARK minimizedRMSD -1
REMARK  1 active torsions:
REMARK  status: ('A' for Active; 'I' for Inactive)
REMARK    1  A    between atoms: C1_2  and  C2_3 
ROOT
ATOM      1  C2  UNL d   1       3.453   2.471  -5.712  0.00  0.00    -0.081 A 
ATOM      2  C3  UNL d   1       2.904   3.756  -5.623  0.00  0.00     0.006 A 
ATOM      3  C4  UNL d   1       3.725   4.884  -5.701  0.00  0.00     0.002 A 
ATOM      4  C5  UNL d   1       5.107   4.745  -5.876  0.00  0.00    -0.080 A 
ATOM      5  C6  UNL d   1       5.995   5.948  -5.991  0.00  0.00     0.076 C 
ATOM      6  C7  UNL d   1       5.657   3.461  -5.946  0.00  0.00     0.002 A 
ATOM      7  C8  UNL d   1       4.837   2.333  -5.868  0.00  0.00     0.006 A 
ENDROOT
BRANCH   1   8
ATOM      8  C1  UNL d   1       2.563   1.255  -5.694  0.00  0.00     0.054 C 
ATOM      9  C   UNL d   1       3.380  -0.029  -5.684  0.00  0.00     0.018 C 
ENDBRANCH   1   8
TORSDOF 1
ENDMDL
