MODEL 1
REMARK minimizedAffinity 1.37116921
REMARK minimizedRMSD -1
REMARK  1 active torsions:
REMARK  status: ('A' for Active; 'I' for Inactive)
REMARK    1  A    between atoms: C1_2  and  C2_3 
ROOT
ATOM      1  C2  UNL d   1       3.552   3.134  -5.246  0.00  0.00    -0.081 A 
ATOM      2  C3  UNL d   1       2.354   2.442  -5.032  0.00  0.00     0.006 A 
ATOM      3  C4  UNL d   1       1.125   3.066  -5.261  0.00  0.00     0.002 A 
ATOM      4  C5  UNL d   1       1.074   4.388  -5.715  0.00  0.00    -0.080 A 
ATOM      5  C6  UNL d   1      -0.238   5.060  -5.993  0.00  0.00     0.076 C 
ATOM      6  C7  UNL d   1       2.271   5.085  -5.912  0.00  0.00     0.002 A 
ATOM      7  C8  UNL d   1       3.500   4.462  -5.683  0.00  0.00     0.006 A 
ENDROOT
BRANCH   1   8
ATOM      8  C1  UNL d   1       4.879   2.444  -5.062  0.00  0.00     0.054 C 
ATOM      9  C   UNL d   1       5.977   3.133  -5.861  0.00  0.00     0.018 C 
ENDBRANCH   1   8
TORSDOF 1
ENDMDL
