MODEL 1
REMARK minimizedAffinity -0.473865926
REMARK minimizedRMSD -1
REMARK  1 active torsions:
REMARK  status: ('A' for Active; 'I' for Inactive)
REMARK    1  A    between atoms: C1_2  and  C2_3 
ROOT
ATOM      1  C2  UNL d   1       3.548   3.658  -5.717  0.00  0.00    -0.081 A 
ATOM      2  C3  UNL d   1       3.616   5.052  -5.827  0.00  0.00     0.006 A 
ATOM      3  C4  UNL d   1       2.448   5.812  -5.931  0.00  0.00     0.002 A 
ATOM      4  C5  UNL d   1       1.194   5.193  -5.919  0.00  0.00    -0.080 A 
ATOM      5  C6  UNL d   1      -0.067   5.999  -6.000  0.00  0.00     0.076 C 
ATOM      6  C7  UNL d   1       1.127   3.798  -5.827  0.00  0.00     0.002 A 
ATOM      7  C8  UNL d   1       2.293   3.038  -5.724  0.00  0.00     0.006 A 
ENDROOT
BRANCH   1   8
ATOM      8  C1  UNL d   1       4.802   2.841  -5.540  0.00  0.00     0.054 C 
ATOM      9  C   UNL d   1       4.503   1.507  -4.870  0.00  0.00     0.018 C 
ENDBRANCH   1   8
TORSDOF 1
ENDMDL
