MODEL 1
REMARK minimizedAffinity 2.30576229
REMARK minimizedRMSD -1
REMARK  1 active torsions:
REMARK  status: ('A' for Active; 'I' for Inactive)
REMARK    1  A    between atoms: C1_2  and  C2_3 
ROOT
ATOM      1  C2  UNL d   1       3.719   3.251  -5.740  0.00  0.00    -0.081 A 
ATOM      2  C3  UNL d   1       2.416   2.771  -5.923  0.00  0.00     0.006 A 
ATOM      3  C4  UNL d   1       1.338   3.656  -5.991  0.00  0.00     0.002 A 
ATOM      4  C5  UNL d   1       1.545   5.036  -5.885  0.00  0.00    -0.080 A 
ATOM      5  C6  UNL d   1       0.400   5.999  -5.987  0.00  0.00     0.076 C 
ATOM      6  C7  UNL d   1       2.844   5.515  -5.685  0.00  0.00     0.002 A 
ATOM      7  C8  UNL d   1       3.922   4.630  -5.616  0.00  0.00     0.006 A 
ENDROOT
BRANCH   1   8
ATOM      8  C1  UNL d   1       4.891   2.303  -5.731  0.00  0.00     0.054 C 
ATOM      9  C   UNL d   1       4.611   1.085  -4.862  0.00  0.00     0.018 C 
ENDBRANCH   1   8
TORSDOF 1
ENDMDL
