MODEL 1
REMARK minimizedAffinity 3.28190684
REMARK minimizedRMSD -1
REMARK  1 active torsions:
REMARK  status: ('A' for Active; 'I' for Inactive)
REMARK    1  A    between atoms: C1_2  and  C2_3 
ROOT
ATOM      1  C2  UNL d   1       3.542   3.538  -5.529  0.00  0.00    -0.081 A 
ATOM      2  C3  UNL d   1       3.639   4.882  -5.908  0.00  0.00     0.006 A 
ATOM      3  C4  UNL d   1       2.495   5.678  -5.998  0.00  0.00     0.002 A 
ATOM      4  C5  UNL d   1       1.235   5.146  -5.703  0.00  0.00    -0.080 A 
ATOM      5  C6  UNL d   1       0.002   5.997  -5.767  0.00  0.00     0.076 C 
ATOM      6  C7  UNL d   1       1.135   3.798  -5.341  0.00  0.00     0.002 A 
ATOM      7  C8  UNL d   1       2.279   3.002  -5.252  0.00  0.00     0.006 A 
ENDROOT
BRANCH   1   8
ATOM      8  C1  UNL d   1       4.781   2.695  -5.368  0.00  0.00     0.054 C 
ATOM      9  C   UNL d   1       4.508   1.470  -4.508  0.00  0.00     0.018 C 
ENDBRANCH   1   8
TORSDOF 1
ENDMDL
