MODEL 1
REMARK minimizedAffinity 2.98809981
REMARK minimizedRMSD -1
REMARK  1 active torsions:
REMARK  status: ('A' for Active; 'I' for Inactive)
REMARK    1  A    between atoms: C1_2  and  C2_3 
ROOT
ATOM      1  C2  UNL d   1       4.070   3.426  -5.941  0.00  0.00    -0.081 A 
ATOM      2  C3  UNL d   1       2.855   2.732  -5.993  0.00  0.00     0.006 A 
ATOM      3  C4  UNL d   1       1.643   3.427  -6.000  0.00  0.00     0.002 A 
ATOM      4  C5  UNL d   1       1.626   4.825  -5.962  0.00  0.00    -0.080 A 
ATOM      5  C6  UNL d   1       0.332   5.584  -5.999  0.00  0.00     0.076 C 
ATOM      6  C7  UNL d   1       2.839   5.518  -5.892  0.00  0.00     0.002 A 
ATOM      7  C8  UNL d   1       4.051   4.824  -5.885  0.00  0.00     0.006 A 
ENDROOT
BRANCH   1   8
ATOM      8  C1  UNL d   1       5.380   2.682  -5.999  0.00  0.00     0.054 C 
ATOM      9  C   UNL d   1       5.205   1.222  -5.606  0.00  0.00     0.018 C 
ENDBRANCH   1   8
TORSDOF 1
ENDMDL
