MODEL 1
REMARK minimizedAffinity 6.01219845
REMARK minimizedRMSD -1
REMARK  1 active torsions:
REMARK  status: ('A' for Active; 'I' for Inactive)
REMARK    1  A    between atoms: C1_2  and  C2_3 
ROOT
ATOM      1  C2  UNL d   1       1.886  -0.336   0.537  0.00  0.00    -0.081 A 
ATOM      2  C3  UNL d   1       1.357   0.835  -0.019  0.00  0.00     0.006 A 
ATOM      3  C4  UNL d   1       2.025   2.053   0.126  0.00  0.00     0.002 A 
ATOM      4  C5  UNL d   1       3.236   2.119   0.823  0.00  0.00    -0.080 A 
ATOM      5  C6  UNL d   1       3.979   3.415   0.960  0.00  0.00     0.076 C 
ATOM      6  C7  UNL d   1       3.756   0.952   1.394  0.00  0.00     0.002 A 
ATOM      7  C8  UNL d   1       3.088  -0.266   1.249  0.00  0.00     0.006 A 
ENDROOT
BRANCH   1   8
ATOM      8  C1  UNL d   1       1.200  -1.662   0.327  0.00  0.00     0.054 C 
ATOM      9  C   UNL d   1       0.066  -1.863   1.322  0.00  0.00     0.018 C 
ENDBRANCH   1   8
TORSDOF 1
ENDMDL
