MODEL 1
REMARK minimizedAffinity 3.57406974
REMARK minimizedRMSD -1
REMARK  1 active torsions:
REMARK  status: ('A' for Active; 'I' for Inactive)
REMARK    1  A    between atoms: C1_2  and  C2_3 
ROOT
ATOM      1  C2  UNL d   1       2.906   0.883   1.786  0.00  0.00    -0.081 A 
ATOM      2  C3  UNL d   1       2.603   2.189   1.382  0.00  0.00     0.006 A 
ATOM      3  C4  UNL d   1       1.364   2.756   1.689  0.00  0.00     0.002 A 
ATOM      4  C5  UNL d   1       0.411   2.030   2.412  0.00  0.00    -0.080 A 
ATOM      5  C6  UNL d   1      -0.912   2.638   2.774  0.00  0.00     0.076 C 
ATOM      6  C7  UNL d   1       0.706   0.719   2.800  0.00  0.00     0.002 A 
ATOM      7  C8  UNL d   1       1.945   0.152   2.493  0.00  0.00     0.006 A 
ENDROOT
BRANCH   1   8
ATOM      8  C1  UNL d   1       4.266   0.292   1.513  0.00  0.00     0.054 C 
ATOM      9  C   UNL d   1       5.377   1.226   1.971  0.00  0.00     0.018 C 
ENDBRANCH   1   8
TORSDOF 1
ENDMDL
