MODEL 1
REMARK minimizedAffinity 7.66858482
REMARK minimizedRMSD -1
REMARK  1 active torsions:
REMARK  status: ('A' for Active; 'I' for Inactive)
REMARK    1  A    between atoms: C1_2  and  C2_3 
ROOT
ATOM      1  C2  UNL d   1      -2.262   4.340   0.648  0.00  0.00    -0.081 A 
ATOM      2  C3  UNL d   1      -0.920   4.110   0.320  0.00  0.00     0.006 A 
ATOM      3  C4  UNL d   1      -0.103   3.357   1.167  0.00  0.00     0.002 A 
ATOM      4  C5  UNL d   1      -0.616   2.815   2.350  0.00  0.00    -0.080 A 
ATOM      5  C6  UNL d   1       0.242   1.980   3.253  0.00  0.00     0.076 C 
ATOM      6  C7  UNL d   1      -1.951   3.060   2.687  0.00  0.00     0.002 A 
ATOM      7  C8  UNL d   1      -2.769   3.813   1.841  0.00  0.00     0.006 A 
ENDROOT
BRANCH   1   8
ATOM      8  C1  UNL d   1      -3.162   5.097  -0.295  0.00  0.00     0.054 C 
ATOM      9  C   UNL d   1      -2.360   5.996  -1.224  0.00  0.00     0.018 C 
ENDBRANCH   1   8
TORSDOF 1
ENDMDL
