MODEL 1
REMARK minimizedAffinity 13.9595575
REMARK minimizedRMSD -1
REMARK  1 active torsions:
REMARK  status: ('A' for Active; 'I' for Inactive)
REMARK    1  A    between atoms: C1_2  and  C2_3 
ROOT
ATOM      1  C2  UNL d   1      -1.864  -2.364  -3.126  0.00  0.00    -0.081 A 
ATOM      2  C3  UNL d   1      -1.969  -1.385  -2.131  0.00  0.00     0.006 A 
ATOM      3  C4  UNL d   1      -1.270  -1.518  -0.929  0.00  0.00     0.002 A 
ATOM      4  C5  UNL d   1      -0.447  -2.628  -0.706  0.00  0.00    -0.080 A 
ATOM      5  C6  UNL d   1       0.333  -2.768   0.568  0.00  0.00     0.076 C 
ATOM      6  C7  UNL d   1      -0.356  -3.615  -1.693  0.00  0.00     0.002 A 
ATOM      7  C8  UNL d   1      -1.055  -3.482  -2.894  0.00  0.00     0.006 A 
ENDROOT
BRANCH   1   8
ATOM      8  C1  UNL d   1      -2.566  -2.191  -4.449  0.00  0.00     0.054 C 
ATOM      9  C   UNL d   1      -1.575  -1.905  -5.568  0.00  0.00     0.018 C 
ENDBRANCH   1   8
TORSDOF 1
ENDMDL
