MODEL 1
REMARK minimizedAffinity 0.3235901
REMARK minimizedRMSD -1
REMARK  1 active torsions:
REMARK  status: ('A' for Active; 'I' for Inactive)
REMARK    1  A    between atoms: C1_2  and  C2_3 
ROOT
ATOM      1  C2  UNL d   1      -0.408  -0.877   0.956  0.00  0.00    -0.081 A 
ATOM      2  C3  UNL d   1      -0.085   0.320   1.605  0.00  0.00     0.006 A 
ATOM      3  C4  UNL d   1       1.248   0.647   1.866  0.00  0.00     0.002 A 
ATOM      4  C5  UNL d   1       2.279  -0.214   1.475  0.00  0.00    -0.080 A 
ATOM      5  C6  UNL d   1       3.716   0.139   1.722  0.00  0.00     0.076 C 
ATOM      6  C7  UNL d   1       1.955  -1.418   0.842  0.00  0.00     0.002 A 
ATOM      7  C8  UNL d   1       0.623  -1.746   0.581  0.00  0.00     0.006 A 
ENDROOT
BRANCH   1   8
ATOM      8  C1  UNL d   1      -1.840  -1.202   0.615  0.00  0.00     0.054 C 
ATOM      9  C   UNL d   1      -2.073  -1.170  -0.889  0.00  0.00     0.018 C 
ENDBRANCH   1   8
TORSDOF 1
ENDMDL
