MODEL 1
REMARK minimizedAffinity -3.71482491
REMARK minimizedRMSD -1
REMARK  1 active torsions:
REMARK  status: ('A' for Active; 'I' for Inactive)
REMARK    1  A    between atoms: C1_2  and  C2_3 
ROOT
ATOM      1  C2  UNL d   1      -0.708   0.849   0.174  0.00  0.00    -0.076 A 
ATOM      2  C3  UNL d   1      -0.207   1.700  -0.827  0.00  0.00     0.004 A 
ATOM      3  C4  UNL d   1       0.954   1.377  -1.528  0.00  0.00    -0.003 A 
ATOM      4  C5  UNL d   1       1.632   0.198  -1.241  0.00  0.00     0.000 A 
ATOM      5  C6  UNL d   1       1.140  -0.666  -0.263  0.00  0.00     0.000 A 
ATOM      6  C7  UNL d   1      -0.038  -0.364   0.442  0.00  0.00    -0.073 A 
ATOM      7  C8  UNL d   1      -0.521  -1.329   1.489  0.00  0.00     0.078 C 
ENDROOT
BRANCH   1   8
ATOM      8  C1  UNL d   1      -1.956   1.265   0.919  0.00  0.00     0.053 C 
ATOM      9  C   UNL d   1      -1.646   2.098   2.153  0.00  0.00     0.018 C 
ENDBRANCH   1   8
TORSDOF 1
ENDMDL
