MODEL 1
REMARK minimizedAffinity -3.52476287
REMARK minimizedRMSD -1
REMARK  1 active torsions:
REMARK  status: ('A' for Active; 'I' for Inactive)
REMARK    1  A    between atoms: C1_2  and  C2_3 
ROOT
ATOM      1  C2  UNL d   1       0.529  -0.209  -0.336  0.00  0.00    -0.076 A 
ATOM      2  C3  UNL d   1       0.447  -0.983   0.835  0.00  0.00     0.004 A 
ATOM      3  C4  UNL d   1      -0.382  -0.605   1.889  0.00  0.00    -0.003 A 
ATOM      4  C5  UNL d   1      -1.143   0.555   1.790  0.00  0.00     0.000 A 
ATOM      5  C6  UNL d   1      -1.087   1.326   0.630  0.00  0.00     0.000 A 
ATOM      6  C7  UNL d   1      -0.269   0.950  -0.449  0.00  0.00    -0.073 A 
ATOM      7  C8  UNL d   1      -0.243   1.822  -1.674  0.00  0.00     0.078 C 
ENDROOT
BRANCH   1   8
ATOM      8  C1  UNL d   1       1.466  -0.655  -1.435  0.00  0.00     0.053 C 
ATOM      9  C   UNL d   1       1.407  -2.155  -1.678  0.00  0.00     0.018 C 
ENDBRANCH   1   8
TORSDOF 1
ENDMDL
