MODEL 1
REMARK minimizedAffinity -5.71773052
REMARK minimizedRMSD -1
REMARK  1 active torsions:
REMARK  status: ('A' for Active; 'I' for Inactive)
REMARK    1  A    between atoms: C1_2  and  C2_3 
ROOT
ATOM      1  C2  UNL d   1      -0.420  -0.001   0.031  0.00  0.00    -0.076 A 
ATOM      2  C3  UNL d   1      -1.191   0.989  -0.603  0.00  0.00     0.004 A 
ATOM      3  C4  UNL d   1      -2.061   1.798   0.126  0.00  0.00    -0.003 A 
ATOM      4  C5  UNL d   1      -2.174   1.631   1.501  0.00  0.00     0.000 A 
ATOM      5  C6  UNL d   1      -1.404   0.666   2.150  0.00  0.00     0.000 A 
ATOM      6  C7  UNL d   1      -0.510  -0.147   1.432  0.00  0.00    -0.073 A 
ATOM      7  C8  UNL d   1       0.292  -1.176   2.181  0.00  0.00     0.078 C 
ENDROOT
BRANCH   1   8
ATOM      8  C1  UNL d   1       0.486  -0.866  -0.815  0.00  0.00     0.053 C 
ATOM      9  C   UNL d   1      -0.289  -1.767  -1.765  0.00  0.00     0.018 C 
ENDBRANCH   1   8
TORSDOF 1
ENDMDL
