MODEL 1
REMARK minimizedAffinity -3.65857983
REMARK minimizedRMSD -1
REMARK  1 active torsions:
REMARK  status: ('A' for Active; 'I' for Inactive)
REMARK    1  A    between atoms: C1_2  and  C2_3 
ROOT
ATOM      1  C2  UNL d   1       0.181   0.097  -0.150  0.00  0.00    -0.076 A 
ATOM      2  C3  UNL d   1      -0.343   1.175  -0.885  0.00  0.00     0.004 A 
ATOM      3  C4  UNL d   1      -1.296   2.027  -0.329  0.00  0.00    -0.003 A 
ATOM      4  C5  UNL d   1      -1.741   1.814   0.971  0.00  0.00     0.000 A 
ATOM      5  C6  UNL d   1      -1.220   0.760   1.721  0.00  0.00     0.000 A 
ATOM      6  C7  UNL d   1      -0.246  -0.098   1.181  0.00  0.00    -0.073 A 
ATOM      7  C8  UNL d   1       0.277  -1.222   2.032  0.00  0.00     0.078 C 
ENDROOT
BRANCH   1   8
ATOM      8  C1  UNL d   1       1.192  -0.809  -0.815  0.00  0.00     0.053 C 
ATOM      9  C   UNL d   1       0.547  -2.014  -1.480  0.00  0.00     0.018 C 
ENDBRANCH   1   8
TORSDOF 1
ENDMDL
