MODEL 1
REMARK minimizedAffinity -5.6295681
REMARK minimizedRMSD -1
REMARK  1 active torsions:
REMARK  status: ('A' for Active; 'I' for Inactive)
REMARK    1  A    between atoms: C1_2  and  C2_3 
ROOT
ATOM      1  C2  UNL d   1      -0.076   0.519   0.041  0.00  0.00    -0.076 A 
ATOM      2  C3  UNL d   1      -0.480   1.653  -0.684  0.00  0.00     0.004 A 
ATOM      3  C4  UNL d   1      -1.533   2.452  -0.240  0.00  0.00    -0.003 A 
ATOM      4  C5  UNL d   1      -2.198   2.129   0.938  0.00  0.00     0.000 A 
ATOM      5  C6  UNL d   1      -1.798   1.018   1.680  0.00  0.00     0.000 A 
ATOM      6  C7  UNL d   1      -0.729   0.212   1.254  0.00  0.00    -0.073 A 
ATOM      7  C8  UNL d   1      -0.344  -0.978   2.091  0.00  0.00     0.078 C 
ENDROOT
BRANCH   1   8
ATOM      8  C1  UNL d   1       1.054  -0.325  -0.504  0.00  0.00     0.053 C 
ATOM      9  C   UNL d   1       0.566  -1.410  -1.451  0.00  0.00     0.018 C 
ENDBRANCH   1   8
TORSDOF 1
ENDMDL
