MODEL 1
REMARK minimizedAffinity -2.72877192
REMARK minimizedRMSD -1
REMARK  1 active torsions:
REMARK  status: ('A' for Active; 'I' for Inactive)
REMARK    1  A    between atoms: C1_2  and  C2_3 
ROOT
ATOM      1  C2  UNL d   1       0.273   0.155  -0.068  0.00  0.00    -0.076 A 
ATOM      2  C3  UNL d   1      -0.281  -0.658   0.936  0.00  0.00     0.004 A 
ATOM      3  C4  UNL d   1      -1.282  -0.177   1.778  0.00  0.00    -0.003 A 
ATOM      4  C5  UNL d   1      -1.745   1.125   1.630  0.00  0.00     0.000 A 
ATOM      5  C6  UNL d   1      -1.220   1.941   0.628  0.00  0.00     0.000 A 
ATOM      6  C7  UNL d   1      -0.222   1.466  -0.240  0.00  0.00    -0.073 A 
ATOM      7  C8  UNL d   1       0.313   2.390  -1.299  0.00  0.00     0.078 C 
ENDROOT
BRANCH   1   8
ATOM      8  C1  UNL d   1       1.375  -0.412  -0.934  0.00  0.00     0.053 C 
ATOM      9  C   UNL d   1       1.022  -1.777  -1.506  0.00  0.00     0.018 C 
ENDBRANCH   1   8
TORSDOF 1
ENDMDL
