MODEL 1
REMARK minimizedAffinity -4.19751835
REMARK minimizedRMSD -1
REMARK  1 active torsions:
REMARK  status: ('A' for Active; 'I' for Inactive)
REMARK    1  A    between atoms: C1_2  and  C2_3 
ROOT
ATOM      1  C2  UNL d   1       0.027  -0.688   0.196  0.00  0.00    -0.076 A 
ATOM      2  C3  UNL d   1      -0.367   0.381  -0.628  0.00  0.00     0.004 A 
ATOM      3  C4  UNL d   1      -1.111   1.444  -0.117  0.00  0.00    -0.003 A 
ATOM      4  C5  UNL d   1      -1.473   1.454   1.226  0.00  0.00     0.000 A 
ATOM      5  C6  UNL d   1      -1.076   0.410   2.061  0.00  0.00     0.000 A 
ATOM      6  C7  UNL d   1      -0.311  -0.660   1.565  0.00  0.00    -0.073 A 
ATOM      7  C8  UNL d   1       0.084  -1.762   2.509  0.00  0.00     0.078 C 
ENDROOT
BRANCH   1   8
ATOM      8  C1  UNL d   1       0.810  -1.826  -0.420  0.00  0.00     0.053 C 
ATOM      9  C   UNL d   1       0.393  -2.110  -1.855  0.00  0.00     0.018 C 
ENDBRANCH   1   8
TORSDOF 1
ENDMDL
