MODEL 1
REMARK minimizedAffinity -4.83912563
REMARK minimizedRMSD -1
REMARK  1 active torsions:
REMARK  status: ('A' for Active; 'I' for Inactive)
REMARK    1  A    between atoms: C1_2  and  C2_3 
ROOT
ATOM      1  C2  UNL d   1       0.030  -0.234   0.136  0.00  0.00    -0.076 A 
ATOM      2  C3  UNL d   1      -0.511   0.738  -0.723  0.00  0.00     0.004 A 
ATOM      3  C4  UNL d   1      -1.389   1.710  -0.245  0.00  0.00    -0.003 A 
ATOM      4  C5  UNL d   1      -1.738   1.725   1.101  0.00  0.00     0.000 A 
ATOM      5  C6  UNL d   1      -1.197   0.779   1.971  0.00  0.00     0.000 A 
ATOM      6  C7  UNL d   1      -0.299  -0.197   1.508  0.00  0.00    -0.073 A 
ATOM      7  C8  UNL d   1       0.249  -1.197   2.489  0.00  0.00     0.078 C 
ENDROOT
BRANCH   1   8
ATOM      8  C1  UNL d   1       0.954  -1.280  -0.445  0.00  0.00     0.053 C 
ATOM      9  C   UNL d   1       0.267  -2.154  -1.483  0.00  0.00     0.018 C 
ENDBRANCH   1   8
TORSDOF 1
ENDMDL
