MODEL 1
REMARK minimizedAffinity -5.69259024
REMARK minimizedRMSD -1
REMARK  1 active torsions:
REMARK  status: ('A' for Active; 'I' for Inactive)
REMARK    1  A    between atoms: C1_2  and  C2_3 
ROOT
ATOM      1  C2  UNL d   1       0.019   0.187   0.270  0.00  0.00    -0.076 A 
ATOM      2  C3  UNL d   1      -0.553   1.209  -0.506  0.00  0.00     0.004 A 
ATOM      3  C4  UNL d   1      -1.522   2.058   0.027  0.00  0.00    -0.003 A 
ATOM      4  C5  UNL d   1      -1.933   1.899   1.346  0.00  0.00     0.000 A 
ATOM      5  C6  UNL d   1      -1.363   0.901   2.136  0.00  0.00     0.000 A 
ATOM      6  C7  UNL d   1      -0.374   0.047   1.619  0.00  0.00    -0.073 A 
ATOM      7  C8  UNL d   1       0.203  -1.015   2.514  0.00  0.00     0.078 C 
ENDROOT
BRANCH   1   8
ATOM      8  C1  UNL d   1       1.046  -0.720  -0.370  0.00  0.00     0.053 C 
ATOM      9  C   UNL d   1       0.493  -1.467  -1.574  0.00  0.00     0.018 C 
ENDBRANCH   1   8
TORSDOF 1
ENDMDL
