MODEL 1
REMARK minimizedAffinity -2.77234483
REMARK minimizedRMSD -1
REMARK  1 active torsions:
REMARK  status: ('A' for Active; 'I' for Inactive)
REMARK    1  A    between atoms: C1_2  and  C2_3 
ROOT
ATOM      1  C2  UNL d   1       0.109   0.089  -0.086  0.00  0.00    -0.076 A 
ATOM      2  C3  UNL d   1      -0.736   0.948  -0.810  0.00  0.00     0.004 A 
ATOM      3  C4  UNL d   1      -1.725   1.691  -0.167  0.00  0.00    -0.003 A 
ATOM      4  C5  UNL d   1      -1.885   1.587   1.210  0.00  0.00     0.000 A 
ATOM      5  C6  UNL d   1      -1.043   0.753   1.947  0.00  0.00     0.000 A 
ATOM      6  C7  UNL d   1      -0.031   0.010   1.316  0.00  0.00    -0.073 A 
ATOM      7  C8  UNL d   1       0.844  -0.878   2.159  0.00  0.00     0.078 C 
ENDROOT
BRANCH   1   8
ATOM      8  C1  UNL d   1       1.146  -0.712  -0.840  0.00  0.00     0.053 C 
ATOM      9  C   UNL d   1       0.531  -1.839  -1.656  0.00  0.00     0.018 C 
ENDBRANCH   1   8
TORSDOF 1
ENDMDL
