MODEL 1
REMARK minimizedAffinity -4.61173296
REMARK minimizedRMSD -1
REMARK  1 active torsions:
REMARK  status: ('A' for Active; 'I' for Inactive)
REMARK    1  A    between atoms: C1_2  and  C2_3 
ROOT
ATOM      1  C2  UNL d   1       0.074  -0.342  -0.055  0.00  0.00    -0.076 A 
ATOM      2  C3  UNL d   1      -0.302   0.742  -0.867  0.00  0.00     0.004 A 
ATOM      3  C4  UNL d   1      -1.153   1.737  -0.387  0.00  0.00    -0.003 A 
ATOM      4  C5  UNL d   1      -1.641   1.664   0.913  0.00  0.00     0.000 A 
ATOM      5  C6  UNL d   1      -1.263   0.605   1.738  0.00  0.00     0.000 A 
ATOM      6  C7  UNL d   1      -0.394  -0.398   1.275  0.00  0.00    -0.073 A 
ATOM      7  C8  UNL d   1      -0.025  -1.520   2.206  0.00  0.00     0.078 C 
ENDROOT
BRANCH   1   8
ATOM      8  C1  UNL d   1       0.978  -1.404  -0.639  0.00  0.00     0.053 C 
ATOM      9  C   UNL d   1       0.236  -2.354  -1.566  0.00  0.00     0.018 C 
ENDBRANCH   1   8
TORSDOF 1
ENDMDL
