MODEL 1
REMARK minimizedAffinity -4.12281847
REMARK minimizedRMSD -1
REMARK  1 active torsions:
REMARK  status: ('A' for Active; 'I' for Inactive)
REMARK    1  A    between atoms: C1_2  and  C2_3 
ROOT
ATOM      1  C2  UNL d   1       0.286  -0.361  -0.239  0.00  0.00    -0.076 A 
ATOM      2  C3  UNL d   1      -0.079   0.652  -1.142  0.00  0.00     0.004 A 
ATOM      3  C4  UNL d   1      -0.947   1.674  -0.761  0.00  0.00    -0.003 A 
ATOM      4  C5  UNL d   1      -1.464   1.699   0.530  0.00  0.00     0.000 A 
ATOM      5  C6  UNL d   1      -1.098   0.712   1.444  0.00  0.00     0.000 A 
ATOM      6  C7  UNL d   1      -0.211  -0.316   1.081  0.00  0.00    -0.073 A 
ATOM      7  C8  UNL d   1       0.144  -1.359   2.105  0.00  0.00     0.078 C 
ENDROOT
BRANCH   1   8
ATOM      8  C1  UNL d   1       1.209  -1.459  -0.717  0.00  0.00     0.053 C 
ATOM      9  C   UNL d   1       0.499  -2.476  -1.597  0.00  0.00     0.018 C 
ENDBRANCH   1   8
TORSDOF 1
ENDMDL
