MODEL 1
REMARK minimizedAffinity 2.26065803
REMARK minimizedRMSD -1
REMARK  0 active torsions:
REMARK  status: ('A' for Active; 'I' for Inactive)
ROOT
ATOM      1  C   UNL d   1      -2.821  -2.190   1.867  0.00  0.00     0.023 A 
ATOM      2  C1  UNL d   1      -2.552  -3.015   0.775  0.00  0.00     0.003 A 
ATOM      3  C2  UNL d   1      -1.771  -2.544  -0.282  0.00  0.00     0.048 A 
ATOM      4  C3  UNL d   1      -1.262  -1.247  -0.241  0.00  0.00     0.023 A 
ATOM      5  C4  UNL d   1      -1.528  -0.417   0.849  0.00  0.00     0.048 A 
ATOM      6  C5  UNL d   1      -2.309  -0.892   1.904  0.00  0.00     0.003 A 
ATOM      7  I   UNL d   1      -0.100  -0.543  -1.815  0.00  0.00    -0.146 I 
ENDROOT
TORSDOF 0
ENDMDL
