MODEL 1
REMARK minimizedAffinity 9.2427845
REMARK minimizedRMSD -1
REMARK  0 active torsions:
REMARK  status: ('A' for Active; 'I' for Inactive)
ROOT
ATOM      1  C   UNL d   1       5.664  -2.799   5.991  0.00  0.00     0.023 A 
ATOM      2  C1  UNL d   1       4.583  -3.679   5.955  0.00  0.00     0.003 A 
ATOM      3  C2  UNL d   1       3.814  -3.796   4.795  0.00  0.00     0.048 A 
ATOM      4  C3  UNL d   1       4.133  -3.030   3.675  0.00  0.00     0.023 A 
ATOM      5  C4  UNL d   1       5.214  -2.148   3.706  0.00  0.00     0.048 A 
ATOM      6  C5  UNL d   1       5.980  -2.034   4.868  0.00  0.00     0.003 A 
ATOM      7  I   UNL d   1       2.990  -3.202   1.947  0.00  0.00    -0.146 I 
ENDROOT
TORSDOF 0
ENDMDL
