MODEL 1
REMARK minimizedAffinity -3.53126621
REMARK minimizedRMSD -1
REMARK  0 active torsions:
REMARK  status: ('A' for Active; 'I' for Inactive)
ROOT
ATOM      1  C   UNL d   1      -0.918  -3.037   0.500  0.00  0.00     0.023 A 
ATOM      2  C1  UNL d   1       0.185  -2.683  -0.277  0.00  0.00     0.003 A 
ATOM      3  C2  UNL d   1       0.509  -1.337  -0.459  0.00  0.00     0.048 A 
ATOM      4  C3  UNL d   1      -0.274  -0.350   0.139  0.00  0.00     0.023 A 
ATOM      5  C4  UNL d   1      -1.378  -0.700   0.918  0.00  0.00     0.048 A 
ATOM      6  C5  UNL d   1      -1.698  -2.047   1.097  0.00  0.00     0.003 A 
ATOM      7  I   UNL d   1       0.206   1.654  -0.130  0.00  0.00    -0.146 I 
ENDROOT
TORSDOF 0
ENDMDL
