MODEL 1
REMARK minimizedAffinity -1.29834759
REMARK minimizedRMSD -1
REMARK  0 active torsions:
REMARK  status: ('A' for Active; 'I' for Inactive)
ROOT
ATOM      1  C   UNL d   1       0.007  -3.197   0.849  0.00  0.00     0.023 A 
ATOM      2  C1  UNL d   1       1.106  -2.715   0.136  0.00  0.00     0.003 A 
ATOM      3  C2  UNL d   1       1.122  -1.393  -0.314  0.00  0.00     0.048 A 
ATOM      4  C3  UNL d   1       0.038  -0.558  -0.048  0.00  0.00     0.023 A 
ATOM      5  C4  UNL d   1      -1.063  -1.036   0.665  0.00  0.00     0.048 A 
ATOM      6  C5  UNL d   1      -1.076  -2.358   1.113  0.00  0.00     0.003 A 
ATOM      7  I   UNL d   1       0.060   1.409  -0.717  0.00  0.00    -0.146 I 
ENDROOT
TORSDOF 0
ENDMDL
