MODEL 1
REMARK minimizedAffinity -2.96413112
REMARK minimizedRMSD -1
REMARK  0 active torsions:
REMARK  status: ('A' for Active; 'I' for Inactive)
ROOT
ATOM      1  C   UNL d   1      -1.045  -0.667   1.205  0.00  0.00     0.023 A 
ATOM      2  C1  UNL d   1      -1.171  -1.862   0.497  0.00  0.00     0.003 A 
ATOM      3  C2  UNL d   1      -0.693  -1.954  -0.812  0.00  0.00     0.048 A 
ATOM      4  C3  UNL d   1      -0.089  -0.847  -1.406  0.00  0.00     0.023 A 
ATOM      5  C4  UNL d   1       0.041   0.351  -0.702  0.00  0.00     0.048 A 
ATOM      6  C5  UNL d   1      -0.439   0.438   0.607  0.00  0.00     0.003 A 
ATOM      7  I   UNL d   1       0.624  -0.981  -3.354  0.00  0.00    -0.146 I 
ENDROOT
TORSDOF 0
ENDMDL
