MODEL 1
REMARK minimizedAffinity -4.05041838
REMARK minimizedRMSD -1
REMARK  0 active torsions:
REMARK  status: ('A' for Active; 'I' for Inactive)
ROOT
ATOM      1  C   UNL d   1       0.041  -3.085   0.146  0.00  0.00     0.023 A 
ATOM      2  C1  UNL d   1      -0.613  -2.427   1.188  0.00  0.00     0.003 A 
ATOM      3  C2  UNL d   1      -0.732  -1.036   1.171  0.00  0.00     0.048 A 
ATOM      4  C3  UNL d   1      -0.195  -0.309   0.109  0.00  0.00     0.023 A 
ATOM      5  C4  UNL d   1       0.460  -0.963  -0.936  0.00  0.00     0.048 A 
ATOM      6  C5  UNL d   1       0.577  -2.354  -0.914  0.00  0.00     0.003 A 
ATOM      7  I   UNL d   1      -0.370   1.762   0.082  0.00  0.00    -0.146 I 
ENDROOT
TORSDOF 0
ENDMDL
