MODEL 1
REMARK minimizedAffinity -4.65181303
REMARK minimizedRMSD -1
REMARK  0 active torsions:
REMARK  status: ('A' for Active; 'I' for Inactive)
ROOT
ATOM      1  C   UNL d   1      -0.547  -2.937   0.321  0.00  0.00     0.023 A 
ATOM      2  C1  UNL d   1       0.713  -2.517  -0.103  0.00  0.00     0.003 A 
ATOM      3  C2  UNL d   1       1.056  -1.164  -0.045  0.00  0.00     0.048 A 
ATOM      4  C3  UNL d   1       0.134  -0.238   0.440  0.00  0.00     0.023 A 
ATOM      5  C4  UNL d   1      -1.129  -0.654   0.867  0.00  0.00     0.048 A 
ATOM      6  C5  UNL d   1      -1.467  -2.007   0.806  0.00  0.00     0.003 A 
ATOM      7  I   UNL d   1       0.642   1.776   0.528  0.00  0.00    -0.146 I 
ENDROOT
TORSDOF 0
ENDMDL
