MODEL 1
REMARK minimizedAffinity -4.66009712
REMARK minimizedRMSD -1
REMARK  0 active torsions:
REMARK  status: ('A' for Active; 'I' for Inactive)
ROOT
ATOM      1  C   UNL d   1       1.074  -1.878  -1.264  0.00  0.00     0.023 A 
ATOM      2  C1  UNL d   1       0.617  -2.678  -0.218  0.00  0.00     0.003 A 
ATOM      3  C2  UNL d   1      -0.265  -2.155   0.730  0.00  0.00     0.048 A 
ATOM      4  C3  UNL d   1      -0.686  -0.830   0.625  0.00  0.00     0.023 A 
ATOM      5  C4  UNL d   1      -0.232  -0.025  -0.421  0.00  0.00     0.048 A 
ATOM      6  C5  UNL d   1       0.651  -0.552  -1.366  0.00  0.00     0.003 A 
ATOM      7  I   UNL d   1      -1.999  -0.048   2.034  0.00  0.00    -0.146 I 
ENDROOT
TORSDOF 0
ENDMDL
