MODEL 1
REMARK minimizedAffinity -5.244802
REMARK minimizedRMSD -1
REMARK  0 active torsions:
REMARK  status: ('A' for Active; 'I' for Inactive)
ROOT
ATOM      1  C   UNL d   1      -0.289  -3.547   1.153  0.00  0.00     0.023 A 
ATOM      2  C1  UNL d   1       0.328  -3.131  -0.026  0.00  0.00     0.003 A 
ATOM      3  C2  UNL d   1       0.310  -1.783  -0.388  0.00  0.00     0.048 A 
ATOM      4  C3  UNL d   1      -0.326  -0.855   0.436  0.00  0.00     0.023 A 
ATOM      5  C4  UNL d   1      -0.944  -1.266   1.618  0.00  0.00     0.048 A 
ATOM      6  C5  UNL d   1      -0.925  -2.616   1.975  0.00  0.00     0.003 A 
ATOM      7  I   UNL d   1      -0.354   1.153  -0.099  0.00  0.00    -0.146 I 
ENDROOT
TORSDOF 0
ENDMDL
