MODEL 1
REMARK minimizedAffinity -2.45008111
REMARK minimizedRMSD -1
REMARK  0 active torsions:
REMARK  status: ('A' for Active; 'I' for Inactive)
ROOT
ATOM      1  C   UNL d   1      -0.811  -3.098   0.698  0.00  0.00     0.023 A 
ATOM      2  C1  UNL d   1      -1.729  -2.074   0.935  0.00  0.00     0.003 A 
ATOM      3  C2  UNL d   1      -1.330  -0.740   0.835  0.00  0.00     0.048 A 
ATOM      4  C3  UNL d   1      -0.012  -0.436   0.497  0.00  0.00     0.023 A 
ATOM      5  C4  UNL d   1       0.910  -1.456   0.259  0.00  0.00     0.048 A 
ATOM      6  C5  UNL d   1       0.507  -2.789   0.360  0.00  0.00     0.003 A 
ATOM      7  I   UNL d   1       0.584   1.550   0.348  0.00  0.00    -0.146 I 
ENDROOT
TORSDOF 0
ENDMDL
