MODEL 1
REMARK minimizedAffinity -4.11322641
REMARK minimizedRMSD -1
REMARK  0 active torsions:
REMARK  status: ('A' for Active; 'I' for Inactive)
ROOT
ATOM      1  C   UNL d   1      -1.107  -3.479   0.126  0.00  0.00     0.023 A 
ATOM      2  C1  UNL d   1      -1.292  -2.708   1.274  0.00  0.00     0.003 A 
ATOM      3  C2  UNL d   1      -0.970  -1.349   1.264  0.00  0.00     0.048 A 
ATOM      4  C3  UNL d   1      -0.463  -0.768   0.102  0.00  0.00     0.023 A 
ATOM      5  C4  UNL d   1      -0.277  -1.535  -1.049  0.00  0.00     0.048 A 
ATOM      6  C5  UNL d   1      -0.600  -2.893  -1.034  0.00  0.00     0.003 A 
ATOM      7  I   UNL d   1       0.018   1.254   0.084  0.00  0.00    -0.146 I 
ENDROOT
TORSDOF 0
ENDMDL
