MODEL 1
REMARK minimizedAffinity -3.40488434
REMARK minimizedRMSD -1
REMARK  0 active torsions:
REMARK  status: ('A' for Active; 'I' for Inactive)
ROOT
ATOM      1  C   UNL d   1       0.012  -3.103   0.749  0.00  0.00     0.023 A 
ATOM      2  C1  UNL d   1      -1.093  -2.252   0.733  0.00  0.00     0.003 A 
ATOM      3  C2  UNL d   1      -0.924  -0.891   0.472  0.00  0.00     0.048 A 
ATOM      4  C3  UNL d   1       0.353  -0.387   0.226  0.00  0.00     0.023 A 
ATOM      5  C4  UNL d   1       1.461  -1.235   0.240  0.00  0.00     0.048 A 
ATOM      6  C5  UNL d   1       1.288  -2.595   0.503  0.00  0.00     0.003 A 
ATOM      7  I   UNL d   1       0.607   1.639  -0.164  0.00  0.00    -0.146 I 
ENDROOT
TORSDOF 0
ENDMDL
