MODEL 1
REMARK minimizedAffinity -4.5548892
REMARK minimizedRMSD -1
REMARK  0 active torsions:
REMARK  status: ('A' for Active; 'I' for Inactive)
ROOT
ATOM      1  C   UNL d   1       0.245   2.822  -1.012  0.00  0.00     0.023 A 
ATOM      2  C1  UNL d   1      -0.139   1.823  -1.906  0.00  0.00     0.003 A 
ATOM      3  C2  UNL d   1      -0.338   0.517  -1.453  0.00  0.00     0.048 A 
ATOM      4  C3  UNL d   1      -0.151   0.218  -0.104  0.00  0.00     0.023 A 
ATOM      5  C4  UNL d   1       0.232   1.214   0.794  0.00  0.00     0.048 A 
ATOM      6  C5  UNL d   1       0.431   2.518   0.337  0.00  0.00     0.003 A 
ATOM      7  I   UNL d   1      -0.446  -1.725   0.573  0.00  0.00    -0.146 I 
ENDROOT
TORSDOF 0
ENDMDL
