MODEL 1
REMARK minimizedAffinity -3.51238799
REMARK minimizedRMSD -1
REMARK  0 active torsions:
REMARK  status: ('A' for Active; 'I' for Inactive)
ROOT
ATOM      1  C   UNL d   1      -1.057  -2.684   0.910  0.00  0.00     0.023 A 
ATOM      2  C1  UNL d   1      -1.883  -1.571   1.071  0.00  0.00     0.003 A 
ATOM      3  C2  UNL d   1      -1.353  -0.284   0.960  0.00  0.00     0.048 A 
ATOM      4  C3  UNL d   1       0.004  -0.117   0.687  0.00  0.00     0.023 A 
ATOM      5  C4  UNL d   1       0.835  -1.227   0.524  0.00  0.00     0.048 A 
ATOM      6  C5  UNL d   1       0.301  -2.512   0.637  0.00  0.00     0.003 A 
ATOM      7  I   UNL d   1       0.796   1.798   0.522  0.00  0.00    -0.146 I 
ENDROOT
TORSDOF 0
ENDMDL
