MODEL 1
REMARK minimizedAffinity -4.78710747
REMARK minimizedRMSD -1
REMARK  0 active torsions:
REMARK  status: ('A' for Active; 'I' for Inactive)
ROOT
ATOM      1  C   UNL d   1      -0.566  -3.201   0.329  0.00  0.00     0.023 A 
ATOM      2  C1  UNL d   1       0.140  -2.755  -0.788  0.00  0.00     0.003 A 
ATOM      3  C2  UNL d   1       0.360  -1.390  -0.978  0.00  0.00     0.048 A 
ATOM      4  C3  UNL d   1      -0.129  -0.475  -0.046  0.00  0.00     0.023 A 
ATOM      5  C4  UNL d   1      -0.835  -0.916   1.075  0.00  0.00     0.048 A 
ATOM      6  C5  UNL d   1      -1.053  -2.283   1.259  0.00  0.00     0.003 A 
ATOM      7  I   UNL d   1       0.197   1.559  -0.325  0.00  0.00    -0.146 I 
ENDROOT
TORSDOF 0
ENDMDL
