MODEL 1
REMARK minimizedAffinity -2.89912462
REMARK minimizedRMSD -1
REMARK  0 active torsions:
REMARK  status: ('A' for Active; 'I' for Inactive)
ROOT
ATOM      1  C   UNL d   1      -0.808  -2.995   1.348  0.00  0.00     0.023 A 
ATOM      2  C1  UNL d   1       0.326  -2.864   0.546  0.00  0.00     0.003 A 
ATOM      3  C2  UNL d   1       0.608  -1.644  -0.072  0.00  0.00     0.048 A 
ATOM      4  C3  UNL d   1      -0.247  -0.559   0.116  0.00  0.00     0.023 A 
ATOM      5  C4  UNL d   1      -1.383  -0.685   0.918  0.00  0.00     0.048 A 
ATOM      6  C5  UNL d   1      -1.662  -1.907   1.533  0.00  0.00     0.003 A 
ATOM      7  I   UNL d   1       0.171   1.257  -0.803  0.00  0.00    -0.146 I 
ENDROOT
TORSDOF 0
ENDMDL
