MODEL 1
REMARK minimizedAffinity -4.84693766
REMARK minimizedRMSD -1
REMARK  0 active torsions:
REMARK  status: ('A' for Active; 'I' for Inactive)
ROOT
ATOM      1  C   UNL d   1      -0.915  -1.389   1.519  0.00  0.00     0.023 A 
ATOM      2  C1  UNL d   1      -0.749  -2.687   1.034  0.00  0.00     0.003 A 
ATOM      3  C2  UNL d   1      -0.229  -2.894  -0.245  0.00  0.00     0.048 A 
ATOM      4  C3  UNL d   1       0.125  -1.800  -1.034  0.00  0.00     0.023 A 
ATOM      5  C4  UNL d   1      -0.039  -0.500  -0.553  0.00  0.00     0.048 A 
ATOM      6  C5  UNL d   1      -0.561  -0.297   0.726  0.00  0.00     0.003 A 
ATOM      7  I   UNL d   1       0.900  -2.107  -2.938  0.00  0.00    -0.146 I 
ENDROOT
TORSDOF 0
ENDMDL
