MODEL 1
REMARK minimizedAffinity 13.3016005
REMARK minimizedRMSD -1
REMARK  0 active torsions:
REMARK  status: ('A' for Active; 'I' for Inactive)
ROOT
ATOM      1  C2' OXE d   1       4.856  -3.516   2.374  0.00  0.00     0.078 C 
ATOM      2  C1' OXE d   1       2.621  -1.857   2.008  0.00  0.00     0.078 C 
ATOM      3  C1  OXE d   1       3.797  -1.296   2.768  0.00  0.00    -0.078 A 
ATOM      4  C2  OXE d   1       4.867  -2.130   2.983  0.00  0.00    -0.078 A 
ATOM      5  C3  OXE d   1       6.000  -1.646   3.631  0.00  0.00     0.003 A 
ATOM      6  C4  OXE d   1       5.998  -0.367   4.199  0.00  0.00    -0.002 A 
ATOM      7  C5  OXE d   1       4.903   0.486   4.027  0.00  0.00    -0.002 A 
ATOM      8  C6  OXE d   1       3.814   0.053   3.279  0.00  0.00     0.003 A 
ENDROOT
TORSDOF 0
ENDMDL
