MODEL 1
REMARK minimizedAffinity 0.975942254
REMARK minimizedRMSD -1
REMARK  0 active torsions:
REMARK  status: ('A' for Active; 'I' for Inactive)
ROOT
ATOM      1  C2' OXE d   1      -1.007   0.412   0.816  0.00  0.00     0.078 C 
ATOM      2  C1' OXE d   1      -2.127  -2.129   0.403  0.00  0.00     0.078 C 
ATOM      3  C1  OXE d   1      -2.167  -1.148  -0.742  0.00  0.00    -0.078 A 
ATOM      4  C2  OXE d   1      -1.659   0.109  -0.516  0.00  0.00    -0.078 A 
ATOM      5  C3  OXE d   1      -1.621   1.034  -1.554  0.00  0.00     0.003 A 
ATOM      6  C4  OXE d   1      -2.235   0.749  -2.780  0.00  0.00    -0.002 A 
ATOM      7  C5  OXE d   1      -2.794  -0.511  -3.018  0.00  0.00    -0.002 A 
ATOM      8  C6  OXE d   1      -2.731  -1.483  -2.026  0.00  0.00     0.003 A 
ENDROOT
TORSDOF 0
ENDMDL
