MODEL 1
REMARK minimizedAffinity 10.7302732
REMARK minimizedRMSD -1
REMARK  0 active torsions:
REMARK  status: ('A' for Active; 'I' for Inactive)
ROOT
ATOM      1  C2' OXE d   1      -5.973   0.546   2.652  0.00  0.00     0.078 C 
ATOM      2  C1' OXE d   1      -5.719  -2.115   1.792  0.00  0.00     0.078 C 
ATOM      3  C1  OXE d   1      -5.793  -1.859   3.277  0.00  0.00    -0.078 A 
ATOM      4  C2  OXE d   1      -5.871  -0.551   3.690  0.00  0.00    -0.078 A 
ATOM      5  C3  OXE d   1      -5.997  -0.263   5.046  0.00  0.00     0.003 A 
ATOM      6  C4  OXE d   1      -5.891  -1.282   6.000  0.00  0.00    -0.002 A 
ATOM      7  C5  OXE d   1      -5.772  -2.618   5.602  0.00  0.00    -0.002 A 
ATOM      8  C6  OXE d   1      -5.764  -2.926   4.246  0.00  0.00     0.003 A 
ENDROOT
TORSDOF 0
ENDMDL
