MODEL 1
REMARK minimizedAffinity -0.781336486
REMARK minimizedRMSD -1
REMARK  0 active torsions:
REMARK  status: ('A' for Active; 'I' for Inactive)
ROOT
ATOM      1  C2' OXE d   1       4.913  -5.004   4.879  0.00  0.00     0.078 C 
ATOM      2  C1' OXE d   1       4.894  -4.124   2.213  0.00  0.00     0.078 C 
ATOM      3  C1  OXE d   1       5.301  -3.135   3.277  0.00  0.00    -0.078 A 
ATOM      4  C2  OXE d   1       5.263  -3.561   4.583  0.00  0.00    -0.078 A 
ATOM      5  C3  OXE d   1       5.680  -2.706   5.599  0.00  0.00     0.003 A 
ATOM      6  C4  OXE d   1       5.993  -1.371   5.319  0.00  0.00    -0.002 A 
ATOM      7  C5  OXE d   1       6.000  -0.906   3.999  0.00  0.00    -0.002 A 
ATOM      8  C6  OXE d   1       5.699  -1.785   2.965  0.00  0.00     0.003 A 
ENDROOT
TORSDOF 0
ENDMDL
