MODEL 1
REMARK minimizedAffinity 7.74122143
REMARK minimizedRMSD -1
REMARK  0 active torsions:
REMARK  status: ('A' for Active; 'I' for Inactive)
ROOT
ATOM      1  C2' OXE d   1       2.055   2.412  -2.745  0.00  0.00     0.078 C 
ATOM      2  C1' OXE d   1       2.290   1.284  -0.185  0.00  0.00     0.078 C 
ATOM      3  C1  OXE d   1       2.655   0.424  -1.368  0.00  0.00    -0.078 A 
ATOM      4  C2  OXE d   1       2.493   0.968  -2.620  0.00  0.00    -0.078 A 
ATOM      5  C3  OXE d   1       2.867   0.237  -3.744  0.00  0.00     0.003 A 
ATOM      6  C4  OXE d   1       3.261  -1.101  -3.620  0.00  0.00    -0.002 A 
ATOM      7  C5  OXE d   1       3.396  -1.687  -2.357  0.00  0.00    -0.002 A 
ATOM      8  C6  OXE d   1       3.138  -0.927  -1.222  0.00  0.00     0.003 A 
ENDROOT
TORSDOF 0
ENDMDL
