MODEL 1
REMARK minimizedAffinity -0.0280336477
REMARK minimizedRMSD -1
REMARK  0 active torsions:
REMARK  status: ('A' for Active; 'I' for Inactive)
ROOT
ATOM      1  C2' OXE d   1       5.243  -4.262   5.991  0.00  0.00     0.078 C 
ATOM      2  C1' OXE d   1       5.169  -4.202   3.186  0.00  0.00     0.078 C 
ATOM      3  C1  OXE d   1       5.463  -2.911   3.910  0.00  0.00    -0.078 A 
ATOM      4  C2  OXE d   1       5.451  -2.940   5.283  0.00  0.00    -0.078 A 
ATOM      5  C3  OXE d   1       5.770  -1.790   6.000  0.00  0.00     0.003 A 
ATOM      6  C4  OXE d   1       5.951  -0.570   5.338  0.00  0.00    -0.002 A 
ATOM      7  C5  OXE d   1       5.928  -0.510   3.940  0.00  0.00    -0.002 A 
ATOM      8  C6  OXE d   1       5.727  -1.678   3.212  0.00  0.00     0.003 A 
ENDROOT
TORSDOF 0
ENDMDL
