MODEL 1
REMARK minimizedAffinity 8.28360748
REMARK minimizedRMSD -1
REMARK  0 active torsions:
REMARK  status: ('A' for Active; 'I' for Inactive)
ROOT
ATOM      1  C2' OXE d   1       0.101  -2.161   2.246  0.00  0.00     0.078 C 
ATOM      2  C1' OXE d   1      -1.492  -2.411  -0.052  0.00  0.00     0.078 C 
ATOM      3  C1  OXE d   1      -0.644  -1.171   0.085  0.00  0.00    -0.078 A 
ATOM      4  C2  OXE d   1       0.097  -1.035   1.234  0.00  0.00    -0.078 A 
ATOM      5  C3  OXE d   1       0.938   0.063   1.386  0.00  0.00     0.003 A 
ATOM      6  C4  OXE d   1       0.920   1.105   0.451  0.00  0.00    -0.002 A 
ATOM      7  C5  OXE d   1       0.143   1.005  -0.708  0.00  0.00    -0.002 A 
ATOM      8  C6  OXE d   1      -0.611  -0.143  -0.926  0.00  0.00     0.003 A 
ENDROOT
TORSDOF 0
ENDMDL
