MODEL 1
REMARK minimizedAffinity 2.51380539
REMARK minimizedRMSD -1
REMARK  0 active torsions:
REMARK  status: ('A' for Active; 'I' for Inactive)
ROOT
ATOM      1  C2' OXE d   1       4.092  -0.631  -4.694  0.00  0.00     0.078 C 
ATOM      2  C1' OXE d   1       3.923   2.018  -5.606  0.00  0.00     0.078 C 
ATOM      3  C1  OXE d   1       3.195   1.664  -4.333  0.00  0.00    -0.078 A 
ATOM      4  C2  OXE d   1       3.245   0.355  -3.920  0.00  0.00    -0.078 A 
ATOM      5  C3  OXE d   1       2.636  -0.014  -2.723  0.00  0.00     0.003 A 
ATOM      6  C4  OXE d   1       1.846   0.902  -2.018  0.00  0.00    -0.002 A 
ATOM      7  C5  OXE d   1       1.749   2.231  -2.444  0.00  0.00    -0.002 A 
ATOM      8  C6  OXE d   1       2.451   2.638  -3.573  0.00  0.00     0.003 A 
ENDROOT
TORSDOF 0
ENDMDL
