MODEL 1
REMARK minimizedAffinity 3.01912713
REMARK minimizedRMSD -1
REMARK  0 active torsions:
REMARK  status: ('A' for Active; 'I' for Inactive)
ROOT
ATOM      1  C2' OXE d   1       2.413   1.257   2.418  0.00  0.00     0.078 C 
ATOM      2  C1' OXE d   1       0.486   2.965   3.535  0.00  0.00     0.078 C 
ATOM      3  C1  OXE d   1       0.013   1.906   2.571  0.00  0.00    -0.078 A 
ATOM      4  C2  OXE d   1       0.969   1.105   1.994  0.00  0.00    -0.078 A 
ATOM      5  C3  OXE d   1       0.581   0.077   1.139  0.00  0.00     0.003 A 
ATOM      6  C4  OXE d   1      -0.756  -0.051   0.744  0.00  0.00    -0.002 A 
ATOM      7  C5  OXE d   1      -1.740   0.780   1.290  0.00  0.00    -0.002 A 
ATOM      8  C6  OXE d   1      -1.379   1.734   2.235  0.00  0.00     0.003 A 
ENDROOT
TORSDOF 0
ENDMDL
