MODEL 1
REMARK minimizedAffinity 2.49054623
REMARK minimizedRMSD -1
REMARK  0 active torsions:
REMARK  status: ('A' for Active; 'I' for Inactive)
ROOT
ATOM      1  C2' OXE d   1      -3.502  -1.416  -3.394  0.00  0.00     0.078 C 
ATOM      2  C1' OXE d   1      -1.859   0.742  -4.120  0.00  0.00     0.078 C 
ATOM      3  C1  OXE d   1      -1.437  -0.099  -2.941  0.00  0.00    -0.078 A 
ATOM      4  C2  OXE d   1      -2.271  -1.123  -2.564  0.00  0.00    -0.078 A 
ATOM      5  C3  OXE d   1      -1.901  -1.963  -1.517  0.00  0.00     0.003 A 
ATOM      6  C4  OXE d   1      -0.766  -1.680  -0.748  0.00  0.00    -0.002 A 
ATOM      7  C5  OXE d   1       0.076  -0.617  -1.091  0.00  0.00    -0.002 A 
ATOM      8  C6  OXE d   1      -0.222   0.156  -2.208  0.00  0.00     0.003 A 
ENDROOT
TORSDOF 0
ENDMDL
