MODEL 1
REMARK minimizedAffinity -1.04295504
REMARK minimizedRMSD -1
REMARK  0 active torsions:
REMARK  status: ('A' for Active; 'I' for Inactive)
ROOT
ATOM      1  C2' OXE d   1       4.967  -3.705   3.401  0.00  0.00     0.078 C 
ATOM      2  C1' OXE d   1       5.777  -2.809   5.935  0.00  0.00     0.078 C 
ATOM      3  C1  OXE d   1       5.698  -1.794   4.822  0.00  0.00    -0.078 A 
ATOM      4  C2  OXE d   1       5.346  -2.250   3.574  0.00  0.00    -0.078 A 
ATOM      5  C3  OXE d   1       5.206  -1.346   2.525  0.00  0.00     0.003 A 
ATOM      6  C4  OXE d   1       5.569  -0.004   2.691  0.00  0.00    -0.002 A 
ATOM      7  C5  OXE d   1       5.968   0.473   3.944  0.00  0.00    -0.002 A 
ATOM      8  C6  OXE d   1       5.997  -0.398   5.027  0.00  0.00     0.003 A 
ENDROOT
TORSDOF 0
ENDMDL
