MODEL 1
REMARK minimizedAffinity 5.87134886
REMARK minimizedRMSD -1
REMARK  0 active torsions:
REMARK  status: ('A' for Active; 'I' for Inactive)
ROOT
ATOM      1  C2' OXE d   1      -5.999   2.099   5.310  0.00  0.00     0.078 C 
ATOM      2  C1' OXE d   1      -6.000   3.422   2.834  0.00  0.00     0.078 C 
ATOM      3  C1  OXE d   1      -5.760   1.933   2.836  0.00  0.00    -0.078 A 
ATOM      4  C2  OXE d   1      -5.715   1.301   4.055  0.00  0.00    -0.078 A 
ATOM      5  C3  OXE d   1      -5.552  -0.080   4.110  0.00  0.00     0.003 A 
ATOM      6  C4  OXE d   1      -5.280  -0.808   2.946  0.00  0.00    -0.002 A 
ATOM      7  C5  OXE d   1      -5.281  -0.178   1.697  0.00  0.00    -0.002 A 
ATOM      8  C6  OXE d   1      -5.562   1.182   1.621  0.00  0.00     0.003 A 
ENDROOT
TORSDOF 0
ENDMDL
