MODEL 1
REMARK minimizedAffinity 0.273061514
REMARK minimizedRMSD -1
REMARK  0 active torsions:
REMARK  status: ('A' for Active; 'I' for Inactive)
ROOT
ATOM      1  C2' OXE d   1       2.055   1.517   0.302  0.00  0.00     0.078 C 
ATOM      2  C1' OXE d   1       2.865  -0.403   2.182  0.00  0.00     0.078 C 
ATOM      3  C1  OXE d   1       1.387  -0.141   2.037  0.00  0.00    -0.078 A 
ATOM      4  C2  OXE d   1       1.002   0.834   1.148  0.00  0.00    -0.078 A 
ATOM      5  C3  OXE d   1      -0.352   1.077   0.935  0.00  0.00     0.003 A 
ATOM      6  C4  OXE d   1      -1.318   0.447   1.728  0.00  0.00    -0.002 A 
ATOM      7  C5  OXE d   1      -0.945  -0.520   2.668  0.00  0.00    -0.002 A 
ATOM      8  C6  OXE d   1       0.397  -0.855   2.804  0.00  0.00     0.003 A 
ENDROOT
TORSDOF 0
ENDMDL
