MODEL 1
REMARK minimizedAffinity 6.93755293
REMARK minimizedRMSD -1
REMARK  0 active torsions:
REMARK  status: ('A' for Active; 'I' for Inactive)
ROOT
ATOM      1  C2' OXE d   1      -1.861   1.117   0.847  0.00  0.00     0.078 C 
ATOM      2  C1' OXE d   1      -2.789  -1.532   0.865  0.00  0.00     0.078 C 
ATOM      3  C1  OXE d   1      -3.694  -0.466   1.429  0.00  0.00    -0.078 A 
ATOM      4  C2  OXE d   1      -3.213   0.821   1.459  0.00  0.00    -0.078 A 
ATOM      5  C3  OXE d   1      -4.029   1.851   1.918  0.00  0.00     0.003 A 
ATOM      6  C4  OXE d   1      -5.274   1.567   2.491  0.00  0.00    -0.002 A 
ATOM      7  C5  OXE d   1      -5.767   0.258   2.507  0.00  0.00    -0.002 A 
ATOM      8  C6  OXE d   1      -5.009  -0.762   1.942  0.00  0.00     0.003 A 
ENDROOT
TORSDOF 0
ENDMDL
