MODEL 1
REMARK minimizedAffinity 7.94984818
REMARK minimizedRMSD -1
REMARK  0 active torsions:
REMARK  status: ('A' for Active; 'I' for Inactive)
ROOT
ATOM      1  C2' OXE d   1       4.541   1.207  -5.059  0.00  0.00     0.078 C 
ATOM      2  C1' OXE d   1       4.343  -1.510  -5.734  0.00  0.00     0.078 C 
ATOM      3  C1  OXE d   1       3.894  -1.093  -4.356  0.00  0.00    -0.078 A 
ATOM      4  C2  OXE d   1       4.038   0.231  -4.017  0.00  0.00    -0.078 A 
ATOM      5  C3  OXE d   1       3.589   0.678  -2.778  0.00  0.00     0.003 A 
ATOM      6  C4  OXE d   1       3.135  -0.233  -1.817  0.00  0.00    -0.002 A 
ATOM      7  C5  OXE d   1       3.017  -1.592  -2.127  0.00  0.00    -0.002 A 
ATOM      8  C6  OXE d   1       3.352  -2.031  -3.404  0.00  0.00     0.003 A 
ENDROOT
TORSDOF 0
ENDMDL
