MODEL 1
REMARK minimizedAffinity 9.86922932
REMARK minimizedRMSD -1
REMARK  0 active torsions:
REMARK  status: ('A' for Active; 'I' for Inactive)
ROOT
ATOM      1  C2' OXE d   1      -1.778   3.802   3.574  0.00  0.00     0.078 C 
ATOM      2  C1' OXE d   1       0.754   2.727   3.014  0.00  0.00     0.078 C 
ATOM      3  C1  OXE d   1      -0.441   2.100   2.340  0.00  0.00    -0.078 A 
ATOM      4  C2  OXE d   1      -1.680   2.602   2.657  0.00  0.00    -0.078 A 
ATOM      5  C3  OXE d   1      -2.811   2.096   2.022  0.00  0.00     0.003 A 
ATOM      6  C4  OXE d   1      -2.714   0.980   1.182  0.00  0.00    -0.002 A 
ATOM      7  C5  OXE d   1      -1.465   0.428   0.878  0.00  0.00    -0.002 A 
ATOM      8  C6  OXE d   1      -0.317   1.002   1.414  0.00  0.00     0.003 A 
ENDROOT
TORSDOF 0
ENDMDL
