MODEL 1
REMARK minimizedAffinity 7.5162673
REMARK minimizedRMSD -1
REMARK  1 active torsions:
REMARK  status: ('A' for Active; 'I' for Inactive)
REMARK    1  A    between atoms: N_2  and  C1_3 
ROOT
ATOM      1  C1  UNL d   1       3.640  -2.314   2.988  0.00  0.00     0.143 A 
ATOM      2  C2  UNL d   1       2.597  -2.656   3.855  0.00  0.00    -0.057 A 
ATOM      3  C3  UNL d   1       1.276  -2.276   3.587  0.00  0.00     0.033 A 
ATOM      4  C4  UNL d   1       0.979  -1.520   2.458  0.00  0.00    -0.042 A 
ATOM      5  C5  UNL d   1       2.003  -1.147   1.595  0.00  0.00     0.033 A 
ATOM      6  C6  UNL d   1       3.319  -1.536   1.865  0.00  0.00    -0.057 A 
ENDROOT
BRANCH   1   7
ATOM      7  N   UNL d   1       4.987  -2.578   3.249  0.00  0.00    -0.732 N 
ATOM      8  C   UNL d   1       6.000  -2.292   2.256  0.00  0.00     0.284 C 
ATOM      9  H3  UNL d   1       5.254  -2.330   4.199  0.00  0.00     0.395 HD
ENDBRANCH   1   7
TORSDOF 1
ENDMDL
