MODEL 1
REMARK minimizedAffinity 8.78637695
REMARK minimizedRMSD -1
REMARK  1 active torsions:
REMARK  status: ('A' for Active; 'I' for Inactive)
REMARK    1  A    between atoms: N_2  and  C1_3 
ROOT
ATOM      1  C1  UNL d   1       4.809   5.693  -3.900  0.00  0.00     0.143 A 
ATOM      2  C2  UNL d   1       5.864   5.990  -3.031  0.00  0.00    -0.057 A 
ATOM      3  C3  UNL d   1       5.683   5.991  -1.643  0.00  0.00     0.033 A 
ATOM      4  C4  UNL d   1       4.431   5.722  -1.099  0.00  0.00    -0.042 A 
ATOM      5  C5  UNL d   1       3.362   5.448  -1.944  0.00  0.00     0.033 A 
ATOM      6  C6  UNL d   1       3.551   5.443  -3.330  0.00  0.00    -0.057 A 
ENDROOT
BRANCH   1   7
ATOM      7  N   UNL d   1       4.902   5.773  -5.292  0.00  0.00    -0.732 N 
ATOM      8  C   UNL d   1       5.967   5.096  -6.000  0.00  0.00     0.284 C 
ATOM      9  H3  UNL d   1       3.994   5.707  -5.746  0.00  0.00     0.395 HD
ENDBRANCH   1   7
TORSDOF 1
ENDMDL
