MODEL 1
REMARK minimizedAffinity 6.73176479
REMARK minimizedRMSD -1
REMARK  1 active torsions:
REMARK  status: ('A' for Active; 'I' for Inactive)
REMARK    1  A    between atoms: N_2  and  C1_3 
ROOT
ATOM      1  C1  UNL d   1       1.032  -1.029   3.562  0.00  0.00     0.143 A 
ATOM      2  C2  UNL d   1       1.387   0.235   3.078  0.00  0.00    -0.057 A 
ATOM      3  C3  UNL d   1       1.726   0.430   1.734  0.00  0.00     0.033 A 
ATOM      4  C4  UNL d   1       1.746  -0.646   0.853  0.00  0.00    -0.042 A 
ATOM      5  C5  UNL d   1       1.421  -1.916   1.316  0.00  0.00     0.033 A 
ATOM      6  C6  UNL d   1       1.076  -2.103   2.659  0.00  0.00    -0.057 A 
ENDROOT
BRANCH   1   7
ATOM      7  N   UNL d   1       0.780  -1.304   4.908  0.00  0.00    -0.732 N 
ATOM      8  C   UNL d   1       1.224  -0.395   5.942  0.00  0.00     0.284 C 
ATOM      9  H3  UNL d   1      -0.152  -1.683   5.059  0.00  0.00     0.395 HD
ENDBRANCH   1   7
TORSDOF 1
ENDMDL
