MODEL 1
REMARK minimizedAffinity 1.68474162
REMARK minimizedRMSD -1
REMARK  1 active torsions:
REMARK  status: ('A' for Active; 'I' for Inactive)
REMARK    1  A    between atoms: N_2  and  C1_3 
ROOT
ATOM      1  C1  UNL d   1       0.736  -1.695   3.058  0.00  0.00     0.143 A 
ATOM      2  C2  UNL d   1       0.767  -0.300   2.964  0.00  0.00    -0.057 A 
ATOM      3  C3  UNL d   1       1.290   0.340   1.834  0.00  0.00     0.033 A 
ATOM      4  C4  UNL d   1       1.819  -0.407   0.786  0.00  0.00    -0.042 A 
ATOM      5  C5  UNL d   1       1.821  -1.795   0.869  0.00  0.00     0.033 A 
ATOM      6  C6  UNL d   1       1.292  -2.428   1.998  0.00  0.00    -0.057 A 
ENDROOT
BRANCH   1   7
ATOM      7  N   UNL d   1       0.320  -2.389   4.197  0.00  0.00    -0.732 N 
ATOM      8  C   UNL d   1       1.265  -3.157   4.979  0.00  0.00     0.284 C 
ATOM      9  H3  UNL d   1      -0.346  -1.858   4.754  0.00  0.00     0.395 HD
ENDBRANCH   1   7
TORSDOF 1
ENDMDL
