MODEL 1
REMARK minimizedAffinity 4.91574049
REMARK minimizedRMSD -1
REMARK  1 active torsions:
REMARK  status: ('A' for Active; 'I' for Inactive)
REMARK    1  A    between atoms: N_2  and  C1_3 
ROOT
ATOM      1  C1  UNL d   1       1.124  -1.126   3.801  0.00  0.00     0.143 A 
ATOM      2  C2  UNL d   1       0.775  -0.043   2.987  0.00  0.00    -0.057 A 
ATOM      3  C3  UNL d   1       1.141  -0.002   1.636  0.00  0.00     0.033 A 
ATOM      4  C4  UNL d   1       1.890  -1.034   1.081  0.00  0.00    -0.042 A 
ATOM      5  C5  UNL d   1       2.269  -2.109   1.877  0.00  0.00     0.033 A 
ATOM      6  C6  UNL d   1       1.895  -2.147   3.223  0.00  0.00    -0.057 A 
ENDROOT
BRANCH   1   7
ATOM      7  N   UNL d   1       0.874  -1.180   5.174  0.00  0.00    -0.732 N 
ATOM      8  C   UNL d   1       1.493  -2.197   5.997  0.00  0.00     0.284 C 
ATOM      9  H3  UNL d   1       0.853  -0.256   5.601  0.00  0.00     0.395 HD
ENDBRANCH   1   7
TORSDOF 1
ENDMDL
