MODEL 1
REMARK minimizedAffinity 5.94510984
REMARK minimizedRMSD -1
REMARK  1 active torsions:
REMARK  status: ('A' for Active; 'I' for Inactive)
REMARK    1  A    between atoms: N_2  and  C1_3 
ROOT
ATOM      1  C1  UNL d   1      -4.524  -3.414  -4.143  0.00  0.00     0.143 A 
ATOM      2  C2  UNL d   1      -3.869  -4.598  -3.787  0.00  0.00    -0.057 A 
ATOM      3  C3  UNL d   1      -4.029  -5.769  -4.537  0.00  0.00     0.033 A 
ATOM      4  C4  UNL d   1      -4.873  -5.785  -5.643  0.00  0.00    -0.042 A 
ATOM      5  C5  UNL d   1      -5.553  -4.626  -6.000  0.00  0.00     0.033 A 
ATOM      6  C6  UNL d   1      -5.384  -3.457  -5.251  0.00  0.00    -0.057 A 
ENDROOT
BRANCH   1   7
ATOM      7  N   UNL d   1      -4.482  -2.243  -3.381  0.00  0.00    -0.732 N 
ATOM      8  C   UNL d   1      -5.501  -1.972  -2.390  0.00  0.00     0.284 C 
ATOM      9  H3  UNL d   1      -3.539  -2.007  -3.083  0.00  0.00     0.395 HD
ENDBRANCH   1   7
TORSDOF 1
ENDMDL
