MODEL 1
REMARK minimizedAffinity 2.43380594
REMARK minimizedRMSD -1
REMARK  1 active torsions:
REMARK  status: ('A' for Active; 'I' for Inactive)
REMARK    1  A    between atoms: N_2  and  C1_3 
ROOT
ATOM      1  C1  UNL d   1       1.372  -1.883   4.600  0.00  0.00     0.143 A 
ATOM      2  C2  UNL d   1       2.261  -2.689   3.880  0.00  0.00    -0.057 A 
ATOM      3  C3  UNL d   1       2.671  -2.341   2.588  0.00  0.00     0.033 A 
ATOM      4  C4  UNL d   1       2.175  -1.193   1.979  0.00  0.00    -0.042 A 
ATOM      5  C5  UNL d   1       1.271  -0.391   2.666  0.00  0.00     0.033 A 
ATOM      6  C6  UNL d   1       0.870  -0.740   3.959  0.00  0.00    -0.057 A 
ENDROOT
BRANCH   1   7
ATOM      7  N   UNL d   1       0.850  -2.225   5.850  0.00  0.00    -0.732 N 
ATOM      8  C   UNL d   1      -0.046  -3.353   5.992  0.00  0.00     0.284 C 
ATOM      9  H3  UNL d   1       1.540  -2.147   6.594  0.00  0.00     0.395 HD
ENDBRANCH   1   7
TORSDOF 1
ENDMDL
