MODEL 1
REMARK minimizedAffinity 17.4560452
REMARK minimizedRMSD -1
REMARK  0 active torsions:
REMARK  status: ('A' for Active; 'I' for Inactive)
ROOT
ATOM      1  C   UNL d   1       1.397  -4.363  -2.152  0.00  0.00     0.077 C 
ATOM      2  C1  UNL d   1       2.740  -4.940  -2.487  0.00  0.00    -0.074 A 
ATOM      3  C2  UNL d   1       3.095  -5.212  -3.812  0.00  0.00    -0.005 A 
ATOM      4  C3  UNL d   1       4.352  -5.739  -4.110  0.00  0.00     0.006 A 
ATOM      5  C4  UNL d   1       5.264  -6.000  -3.086  0.00  0.00    -0.005 A 
ATOM      6  C5  UNL d   1       4.927  -5.734  -1.756  0.00  0.00    -0.074 A 
ATOM      7  C6  UNL d   1       5.900  -5.999  -0.645  0.00  0.00     0.077 C 
ATOM      8  C7  UNL d   1       3.665  -5.197  -1.466  0.00  0.00    -0.001 A 
ENDROOT
TORSDOF 0
ENDMDL
