MODEL 1
REMARK minimizedAffinity 4.36799335
REMARK minimizedRMSD -1
REMARK  0 active torsions:
REMARK  status: ('A' for Active; 'I' for Inactive)
ROOT
ATOM      1  C   UNL d   1       0.751   1.013   3.169  0.00  0.00     0.077 C 
ATOM      2  C1  UNL d   1       0.105   1.864   2.116  0.00  0.00    -0.074 A 
ATOM      3  C2  UNL d   1      -1.214   2.305   2.257  0.00  0.00    -0.005 A 
ATOM      4  C3  UNL d   1      -1.798   3.104   1.274  0.00  0.00     0.006 A 
ATOM      5  C4  UNL d   1      -1.070   3.469   0.141  0.00  0.00    -0.005 A 
ATOM      6  C5  UNL d   1       0.251   3.038  -0.017  0.00  0.00    -0.074 A 
ATOM      7  C6  UNL d   1       1.052   3.430  -1.224  0.00  0.00     0.077 C 
ATOM      8  C7  UNL d   1       0.833   2.242   0.979  0.00  0.00    -0.001 A 
ENDROOT
TORSDOF 0
ENDMDL
