MODEL 1
REMARK minimizedAffinity 8.47847748
REMARK minimizedRMSD -1
REMARK  0 active torsions:
REMARK  status: ('A' for Active; 'I' for Inactive)
ROOT
ATOM      1  C   UNL d   1       0.671  -4.456  -1.877  0.00  0.00     0.077 C 
ATOM      2  C1  UNL d   1       2.067  -4.836  -2.273  0.00  0.00    -0.074 A 
ATOM      3  C2  UNL d   1       2.473  -4.791  -3.610  0.00  0.00    -0.005 A 
ATOM      4  C3  UNL d   1       3.777  -5.139  -3.962  0.00  0.00     0.006 A 
ATOM      5  C4  UNL d   1       4.687  -5.535  -2.981  0.00  0.00    -0.005 A 
ATOM      6  C5  UNL d   1       4.299  -5.586  -1.638  0.00  0.00    -0.074 A 
ATOM      7  C6  UNL d   1       5.268  -6.000  -0.570  0.00  0.00     0.077 C 
ATOM      8  C7  UNL d   1       2.989  -5.228  -1.292  0.00  0.00    -0.001 A 
ENDROOT
TORSDOF 0
ENDMDL
