MODEL 1
REMARK minimizedAffinity 4.04906321
REMARK minimizedRMSD -1
REMARK  0 active torsions:
REMARK  status: ('A' for Active; 'I' for Inactive)
ROOT
ATOM      1  C   UNL d   1      -0.380   2.370   0.313  0.00  0.00     0.077 C 
ATOM      2  C1  UNL d   1      -0.380   3.640  -0.486  0.00  0.00    -0.074 A 
ATOM      3  C2  UNL d   1       0.813   4.319  -0.755  0.00  0.00    -0.005 A 
ATOM      4  C3  UNL d   1       0.798   5.493  -1.508  0.00  0.00     0.006 A 
ATOM      5  C4  UNL d   1      -0.406   6.000  -1.997  0.00  0.00    -0.005 A 
ATOM      6  C5  UNL d   1      -1.609   5.334  -1.738  0.00  0.00    -0.074 A 
ATOM      7  C6  UNL d   1      -2.911   5.860  -2.264  0.00  0.00     0.077 C 
ATOM      8  C7  UNL d   1      -1.585   4.151  -0.987  0.00  0.00    -0.001 A 
ENDROOT
TORSDOF 0
ENDMDL
