MODEL 1
REMARK minimizedAffinity 5.9183836
REMARK minimizedRMSD -1
REMARK  0 active torsions:
REMARK  status: ('A' for Active; 'I' for Inactive)
ROOT
ATOM      1  C   UNL d   1       1.377   5.722  -0.723  0.00  0.00     0.077 C 
ATOM      2  C1  UNL d   1       0.698   4.414  -0.446  0.00  0.00    -0.074 A 
ATOM      3  C2  UNL d   1      -0.641   4.370  -0.044  0.00  0.00    -0.005 A 
ATOM      4  C3  UNL d   1      -1.261   3.145   0.200  0.00  0.00     0.006 A 
ATOM      5  C4  UNL d   1      -0.551   1.954   0.046  0.00  0.00    -0.005 A 
ATOM      6  C5  UNL d   1       0.789   1.978  -0.355  0.00  0.00    -0.074 A 
ATOM      7  C6  UNL d   1       1.564   0.707  -0.535  0.00  0.00     0.077 C 
ATOM      8  C7  UNL d   1       1.403   3.213  -0.606  0.00  0.00    -0.001 A 
ENDROOT
TORSDOF 0
ENDMDL
