MODEL 1
REMARK minimizedAffinity 7.48216152
REMARK minimizedRMSD -1
REMARK  0 active torsions:
REMARK  status: ('A' for Active; 'I' for Inactive)
ROOT
ATOM      1  C   UNL d   1       1.050   0.913   1.488  0.00  0.00     0.077 C 
ATOM      2  C1  UNL d   1       0.302   1.983   0.750  0.00  0.00    -0.074 A 
ATOM      3  C2  UNL d   1      -1.089   2.087   0.849  0.00  0.00    -0.005 A 
ATOM      4  C3  UNL d   1      -1.770   3.094   0.165  0.00  0.00     0.006 A 
ATOM      5  C4  UNL d   1      -1.068   4.005  -0.626  0.00  0.00    -0.005 A 
ATOM      6  C5  UNL d   1       0.323   3.917  -0.737  0.00  0.00    -0.074 A 
ATOM      7  C6  UNL d   1       1.094   4.894  -1.574  0.00  0.00     0.077 C 
ATOM      8  C7  UNL d   1       1.001   2.907  -0.040  0.00  0.00    -0.001 A 
ENDROOT
TORSDOF 0
ENDMDL
