MODEL 1
REMARK minimizedAffinity 3.15686917
REMARK minimizedRMSD -1
REMARK  2 active torsions:
REMARK  status: ('A' for Active; 'I' for Inactive)
REMARK    1  A    between atoms: C2'_3  and  C1'_4 
REMARK    2  A    between atoms: C1'_4  and  C1_5 
ROOT
ATOM      1  C1  I4B d   1       0.080   0.650  -0.284  0.00  0.00    -0.075 A 
ATOM      2  C2  I4B d   1       0.160  -0.704  -0.074  0.00  0.00     0.003 A 
ATOM      3  C3  I4B d   1       0.069  -1.228   1.238  0.00  0.00     0.002 A 
ATOM      4  C4  I4B d   1      -0.051  -0.365   2.308  0.00  0.00    -0.004 A 
ATOM      5  C5  I4B d   1      -0.155   1.006   2.091  0.00  0.00     0.002 A 
ATOM      6  C6  I4B d   1      -0.102   1.517   0.786  0.00  0.00     0.003 A 
ENDROOT
BRANCH   1   7
ATOM      7  C1' I4B d   1       0.213   1.172  -1.680  0.00  0.00     0.060 C 
BRANCH   7   8
ATOM      8  C2' I4B d   1      -0.720   2.357  -1.826  0.00  0.00    -0.013 C 
ATOM      9  C4' I4B d   1      -0.118   3.420  -2.705  0.00  0.00     0.013 C 
ATOM     10  C3' I4B d   1      -2.017   1.857  -2.391  0.00  0.00     0.013 C 
ENDBRANCH   7   8
ENDBRANCH   1   7
TORSDOF 2
ENDMDL
