MODEL 1
REMARK minimizedAffinity -4.40808725
REMARK minimizedRMSD -1
REMARK  2 active torsions:
REMARK  status: ('A' for Active; 'I' for Inactive)
REMARK    1  A    between atoms: C2'_3  and  C1'_4 
REMARK    2  A    between atoms: C1'_4  and  C1_5 
ROOT
ATOM      1  C1  I4B d   1      -0.518   0.295   0.796  0.00  0.00    -0.075 A 
ATOM      2  C2  I4B d   1      -1.075  -0.714   1.542  0.00  0.00     0.003 A 
ATOM      3  C3  I4B d   1      -0.299  -1.394   2.511  0.00  0.00     0.002 A 
ATOM      4  C4  I4B d   1       1.033  -1.070   2.666  0.00  0.00    -0.004 A 
ATOM      5  C5  I4B d   1       1.589  -0.031   1.925  0.00  0.00     0.002 A 
ATOM      6  C6  I4B d   1       0.806   0.665   0.992  0.00  0.00     0.003 A 
ENDROOT
BRANCH   1   7
ATOM      7  C1' I4B d   1      -1.357   0.971  -0.243  0.00  0.00     0.060 C 
BRANCH   7   8
ATOM      8  C2' I4B d   1      -0.550   1.038  -1.523  0.00  0.00    -0.013 C 
ATOM      9  C4' I4B d   1      -0.151  -0.338  -1.989  0.00  0.00     0.013 C 
ATOM     10  C3' I4B d   1      -1.379   1.741  -2.557  0.00  0.00     0.013 C 
ENDBRANCH   7   8
ENDBRANCH   1   7
TORSDOF 2
ENDMDL
