MODEL 1
REMARK minimizedAffinity -1.60080457
REMARK minimizedRMSD -1
REMARK  2 active torsions:
REMARK  status: ('A' for Active; 'I' for Inactive)
REMARK    1  A    between atoms: C2'_3  and  C1'_4 
REMARK    2  A    between atoms: C1'_4  and  C1_5 
ROOT
ATOM      1  C1  I4B d   1      -0.648   0.355  -1.048  0.00  0.00    -0.075 A 
ATOM      2  C2  I4B d   1      -1.090   0.792   0.176  0.00  0.00     0.003 A 
ATOM      3  C3  I4B d   1      -0.699   0.117   1.358  0.00  0.00     0.002 A 
ATOM      4  C4  I4B d   1       0.087  -1.013   1.267  0.00  0.00    -0.004 A 
ATOM      5  C5  I4B d   1       0.552  -1.442   0.027  0.00  0.00     0.002 A 
ATOM      6  C6  I4B d   1       0.193  -0.747  -1.137  0.00  0.00     0.003 A 
ENDROOT
BRANCH   1   7
ATOM      7  C1' I4B d   1      -1.107   1.072  -2.278  0.00  0.00     0.060 C 
BRANCH   7   8
ATOM      8  C2' I4B d   1      -0.605   2.499  -2.200  0.00  0.00    -0.013 C 
ATOM      9  C4' I4B d   1       0.370   2.795  -3.309  0.00  0.00     0.013 C 
ATOM     10  C3' I4B d   1      -1.793   3.412  -2.267  0.00  0.00     0.013 C 
ENDBRANCH   7   8
ENDBRANCH   1   7
TORSDOF 2
ENDMDL
