MODEL 1
REMARK minimizedAffinity -3.72370362
REMARK minimizedRMSD -1
REMARK  2 active torsions:
REMARK  status: ('A' for Active; 'I' for Inactive)
REMARK    1  A    between atoms: C2'_3  and  C1'_4 
REMARK    2  A    between atoms: C1'_4  and  C1_5 
ROOT
ATOM      1  C1  I4B d   1       1.366  -0.335   0.872  0.00  0.00    -0.075 A 
ATOM      2  C2  I4B d   1       1.998  -1.368   0.225  0.00  0.00     0.003 A 
ATOM      3  C3  I4B d   1       2.625  -2.397   0.969  0.00  0.00     0.002 A 
ATOM      4  C4  I4B d   1       2.640  -2.327   2.347  0.00  0.00    -0.004 A 
ATOM      5  C5  I4B d   1       1.980  -1.291   3.001  0.00  0.00     0.002 A 
ATOM      6  C6  I4B d   1       1.328  -0.295   2.260  0.00  0.00     0.003 A 
ENDROOT
BRANCH   1   7
ATOM      7  C1' I4B d   1       0.743   0.752   0.056  0.00  0.00     0.060 C 
BRANCH   7   8
ATOM      8  C2' I4B d   1      -0.486   0.181  -0.622  0.00  0.00    -0.013 C 
ATOM      9  C4' I4B d   1      -1.468  -0.351   0.388  0.00  0.00     0.013 C 
ATOM     10  C3' I4B d   1      -1.101   1.264  -1.457  0.00  0.00     0.013 C 
ENDBRANCH   7   8
ENDBRANCH   1   7
TORSDOF 2
ENDMDL
