MODEL 1
REMARK minimizedAffinity -3.40120602
REMARK minimizedRMSD -1
REMARK  2 active torsions:
REMARK  status: ('A' for Active; 'I' for Inactive)
REMARK    1  A    between atoms: C2'_3  and  C1'_4 
REMARK    2  A    between atoms: C1'_4  and  C1_5 
ROOT
ATOM      1  C1  I4B d   1      -0.300   0.681  -0.644  0.00  0.00    -0.075 A 
ATOM      2  C2  I4B d   1      -0.061   1.628   0.321  0.00  0.00     0.003 A 
ATOM      3  C3  I4B d   1      -0.236   1.311   1.689  0.00  0.00     0.002 A 
ATOM      4  C4  I4B d   1      -0.698   0.060   2.044  0.00  0.00    -0.004 A 
ATOM      5  C5  I4B d   1      -0.918  -0.906   1.066  0.00  0.00     0.002 A 
ATOM      6  C6  I4B d   1      -0.707  -0.598  -0.286  0.00  0.00     0.003 A 
ENDROOT
BRANCH   1   7
ATOM      7  C1' I4B d   1      -0.137   1.059  -2.082  0.00  0.00     0.060 C 
BRANCH   7   8
ATOM      8  C2' I4B d   1      -0.938   2.322  -2.326  0.00  0.00    -0.013 C 
ATOM      9  C4' I4B d   1      -0.298   3.177  -3.388  0.00  0.00     0.013 C 
ATOM     10  C3' I4B d   1      -2.328   1.919  -2.721  0.00  0.00     0.013 C 
ENDBRANCH   7   8
ENDBRANCH   1   7
TORSDOF 2
ENDMDL
