MODEL 1
REMARK minimizedAffinity -2.74467015
REMARK minimizedRMSD -1
REMARK  2 active torsions:
REMARK  status: ('A' for Active; 'I' for Inactive)
REMARK    1  A    between atoms: C2'_3  and  C1'_4 
REMARK    2  A    between atoms: C1'_4  and  C1_5 
ROOT
ATOM      1  C1  I4B d   1       0.158  -0.169  -0.292  0.00  0.00    -0.075 A 
ATOM      2  C2  I4B d   1      -0.890  -0.374   0.570  0.00  0.00     0.003 A 
ATOM      3  C3  I4B d   1      -0.645  -0.692   1.928  0.00  0.00     0.002 A 
ATOM      4  C4  I4B d   1       0.655  -0.845   2.366  0.00  0.00    -0.004 A 
ATOM      5  C5  I4B d   1       1.717  -0.614   1.496  0.00  0.00     0.002 A 
ATOM      6  C6  I4B d   1       1.467  -0.261   0.161  0.00  0.00     0.003 A 
ENDROOT
BRANCH   1   7
ATOM      7  C1' I4B d   1      -0.137   0.134  -1.727  0.00  0.00     0.060 C 
BRANCH   7   8
ATOM      8  C2' I4B d   1      -0.644   1.560  -1.809  0.00  0.00    -0.013 C 
ATOM      9  C4' I4B d   1       0.374   2.463  -2.454  0.00  0.00     0.013 C 
ATOM     10  C3' I4B d   1      -1.928   1.551  -2.583  0.00  0.00     0.013 C 
ENDBRANCH   7   8
ENDBRANCH   1   7
TORSDOF 2
ENDMDL
