MODEL 1
REMARK minimizedAffinity -3.32746577
REMARK minimizedRMSD -1
REMARK  0 active torsions:
REMARK  status: ('A' for Active; 'I' for Inactive)
ROOT
ATOM      1  C   UNL d   1       1.256   2.738  -3.602  0.00  0.00    -0.002 A 
ATOM      2  C1  UNL d   1       2.440   2.288  -3.036  0.00  0.00     0.010 A 
ATOM      3  C2  UNL d   1       2.421   1.459  -1.912  0.00  0.00     0.041 A 
ATOM      4  C3  UNL d   1       1.179   1.085  -1.362  0.00  0.00    -0.075 A 
ATOM      5  S   UNL d   1       0.911   0.078   0.011  0.00  0.00     0.015 SA
ATOM      6  C4  UNL d   1      -0.782   0.221  -0.121  0.00  0.00     0.022 A 
ATOM      7  C5  UNL d   1      -1.151   1.014  -1.182  0.00  0.00     0.026 A 
ATOM      8  C6  UNL d   1      -0.027   1.525  -1.915  0.00  0.00    -0.082 A 
ATOM      9  C7  UNL d   1       0.026   2.365  -3.053  0.00  0.00     0.045 A 
ENDROOT
TORSDOF 0
ENDMDL
