MODEL 1
REMARK minimizedAffinity -2.57984304
REMARK minimizedRMSD -1
REMARK  0 active torsions:
REMARK  status: ('A' for Active; 'I' for Inactive)
ROOT
ATOM      1  C   UNL d   1      -0.838  -2.535   0.932  0.00  0.00    -0.002 A 
ATOM      2  C1  UNL d   1      -1.949  -1.704   0.933  0.00  0.00     0.010 A 
ATOM      3  C2  UNL d   1      -1.866  -0.406   0.424  0.00  0.00     0.041 A 
ATOM      4  C3  UNL d   1      -0.635   0.046  -0.092  0.00  0.00    -0.075 A 
ATOM      5  S   UNL d   1      -0.298   1.596  -0.768  0.00  0.00     0.015 SA
ATOM      6  C4  UNL d   1       1.329   1.191  -1.074  0.00  0.00     0.022 A 
ATOM      7  C5  UNL d   1       1.625  -0.092  -0.676  0.00  0.00     0.026 A 
ATOM      8  C6  UNL d   1       0.497  -0.773  -0.104  0.00  0.00    -0.082 A 
ATOM      9  C7  UNL d   1       0.381  -2.083   0.420  0.00  0.00     0.045 A 
ENDROOT
TORSDOF 0
ENDMDL
