MODEL 1
REMARK minimizedAffinity 1.85474265
REMARK minimizedRMSD -1
REMARK  0 active torsions:
REMARK  status: ('A' for Active; 'I' for Inactive)
ROOT
ATOM      1  C   UNL d   1       1.593   0.227  -1.428  0.00  0.00    -0.002 A 
ATOM      2  C1  UNL d   1       0.722   1.282  -1.195  0.00  0.00     0.010 A 
ATOM      3  C2  UNL d   1      -0.319   1.153  -0.273  0.00  0.00     0.041 A 
ATOM      4  C3  UNL d   1      -0.471  -0.065   0.418  0.00  0.00    -0.075 A 
ATOM      5  S   UNL d   1      -1.672  -0.452   1.592  0.00  0.00     0.015 SA
ATOM      6  C4  UNL d   1      -1.057  -2.026   1.813  0.00  0.00     0.022 A 
ATOM      7  C5  UNL d   1       0.038  -2.268   1.018  0.00  0.00     0.026 A 
ATOM      8  C6  UNL d   1       0.394  -1.142   0.201  0.00  0.00    -0.082 A 
ATOM      9  C7  UNL d   1       1.440  -0.980  -0.740  0.00  0.00     0.045 A 
ENDROOT
TORSDOF 0
ENDMDL
