MODEL 1
REMARK minimizedAffinity -1.55282831
REMARK minimizedRMSD -1
REMARK  0 active torsions:
REMARK  status: ('A' for Active; 'I' for Inactive)
ROOT
ATOM      1  C   UNL d   1      -0.746  -2.846   0.996  0.00  0.00    -0.002 A 
ATOM      2  C1  UNL d   1      -2.002  -2.255   0.966  0.00  0.00     0.010 A 
ATOM      3  C2  UNL d   1      -2.162  -0.952   0.491  0.00  0.00     0.041 A 
ATOM      4  C3  UNL d   1      -1.029  -0.247   0.040  0.00  0.00    -0.075 A 
ATOM      5  S   UNL d   1      -0.986   1.360  -0.585  0.00  0.00     0.015 SA
ATOM      6  C4  UNL d   1       0.700   1.299  -0.829  0.00  0.00     0.022 A 
ATOM      7  C5  UNL d   1       1.233   0.090  -0.447  0.00  0.00     0.026 A 
ATOM      8  C6  UNL d   1       0.245  -0.821   0.059  0.00  0.00    -0.082 A 
ATOM      9  C7  UNL d   1       0.375  -2.143   0.547  0.00  0.00     0.045 A 
ENDROOT
TORSDOF 0
ENDMDL
