MODEL 1
REMARK minimizedAffinity -2.23581624
REMARK minimizedRMSD -1
REMARK  0 active torsions:
REMARK  status: ('A' for Active; 'I' for Inactive)
ROOT
ATOM      1  C   UNL d   1      -2.490  -1.492   0.505  0.00  0.00    -0.002 A 
ATOM      2  C1  UNL d   1      -1.718  -2.312   1.317  0.00  0.00     0.010 A 
ATOM      3  C2  UNL d   1      -0.351  -2.073   1.472  0.00  0.00     0.041 A 
ATOM      4  C3  UNL d   1       0.232  -0.986   0.793  0.00  0.00    -0.075 A 
ATOM      5  S   UNL d   1       1.886  -0.501   0.834  0.00  0.00     0.015 SA
ATOM      6  C4  UNL d   1       1.607   0.806  -0.224  0.00  0.00     0.022 A 
ATOM      7  C5  UNL d   1       0.290   0.885  -0.609  0.00  0.00     0.026 A 
ATOM      8  C6  UNL d   1      -0.525  -0.146  -0.029  0.00  0.00    -0.082 A 
ATOM      9  C7  UNL d   1      -1.908  -0.414  -0.167  0.00  0.00     0.045 A 
ENDROOT
TORSDOF 0
ENDMDL
