MODEL 1
REMARK minimizedAffinity -2.59229136
REMARK minimizedRMSD -1
REMARK  0 active torsions:
REMARK  status: ('A' for Active; 'I' for Inactive)
ROOT
ATOM      1  C   UNL d   1      -2.741  -1.354   0.931  0.00  0.00    -0.002 A 
ATOM      2  C1  UNL d   1      -1.870  -2.421   1.109  0.00  0.00     0.010 A 
ATOM      3  C2  UNL d   1      -0.513  -2.287   0.808  0.00  0.00     0.041 A 
ATOM      4  C3  UNL d   1      -0.041  -1.051   0.324  0.00  0.00    -0.075 A 
ATOM      5  S   UNL d   1       1.580  -0.656  -0.110  0.00  0.00     0.015 SA
ATOM      6  C4  UNL d   1       1.156   0.938  -0.540  0.00  0.00     0.022 A 
ATOM      7  C5  UNL d   1      -0.186   1.179  -0.363  0.00  0.00     0.026 A 
ATOM      8  C6  UNL d   1      -0.898   0.037   0.138  0.00  0.00    -0.082 A 
ATOM      9  C7  UNL d   1      -2.268  -0.130   0.451  0.00  0.00     0.045 A 
ENDROOT
TORSDOF 0
ENDMDL
