MODEL 1
REMARK minimizedAffinity -2.24081707
REMARK minimizedRMSD -1
REMARK  0 active torsions:
REMARK  status: ('A' for Active; 'I' for Inactive)
ROOT
ATOM      1  C   UNL d   1      -1.814  -2.528   0.777  0.00  0.00    -0.002 A 
ATOM      2  C1  UNL d   1      -1.425  -1.978   1.991  0.00  0.00     0.010 A 
ATOM      3  C2  UNL d   1      -0.634  -0.829   2.029  0.00  0.00     0.041 A 
ATOM      4  C3  UNL d   1      -0.238  -0.234   0.815  0.00  0.00    -0.075 A 
ATOM      5  S   UNL d   1       0.731   1.179   0.617  0.00  0.00     0.015 SA
ATOM      6  C4  UNL d   1       0.651   1.087  -1.083  0.00  0.00     0.022 A 
ATOM      7  C5  UNL d   1      -0.093   0.011  -1.507  0.00  0.00     0.026 A 
ATOM      8  C6  UNL d   1      -0.618  -0.768  -0.420  0.00  0.00    -0.082 A 
ATOM      9  C7  UNL d   1      -1.419  -1.934  -0.425  0.00  0.00     0.045 A 
ENDROOT
TORSDOF 0
ENDMDL
