MODEL 1
REMARK minimizedAffinity -5.47020149
REMARK minimizedRMSD -1
REMARK  0 active torsions:
REMARK  status: ('A' for Active; 'I' for Inactive)
ROOT
ATOM      1  C   UNL d   1      -1.110   2.325   1.454  0.00  0.00     0.078 C 
ATOM      2  C1  UNL d   1      -0.999   1.413   0.269  0.00  0.00    -0.077 A 
ATOM      3  C2  UNL d   1      -1.028   0.022   0.424  0.00  0.00    -0.001 A 
ATOM      4  C3  UNL d   1      -0.915  -0.815  -0.687  0.00  0.00     0.003 A 
ATOM      5  C4  UNL d   1      -0.770  -0.271  -1.961  0.00  0.00    -0.005 A 
ATOM      6  C5  UNL d   1      -0.738   1.112  -2.126  0.00  0.00     0.003 A 
ATOM      7  C6  UNL d   1      -0.851   1.951  -1.016  0.00  0.00    -0.001 A 
ENDROOT
TORSDOF 0
ENDMDL
