MODEL 1
REMARK minimizedAffinity -4.74019051
REMARK minimizedRMSD -1
REMARK  0 active torsions:
REMARK  status: ('A' for Active; 'I' for Inactive)
ROOT
ATOM      1  C   UNL d   1       0.141  -0.503  -0.663  0.00  0.00     0.078 C 
ATOM      2  C1  UNL d   1      -0.196   0.922  -0.338  0.00  0.00    -0.077 A 
ATOM      3  C2  UNL d   1      -0.311   1.350   0.990  0.00  0.00    -0.001 A 
ATOM      4  C3  UNL d   1      -0.634   2.677   1.279  0.00  0.00     0.003 A 
ATOM      5  C4  UNL d   1      -0.846   3.586   0.244  0.00  0.00    -0.005 A 
ATOM      6  C5  UNL d   1      -0.736   3.169  -1.080  0.00  0.00     0.003 A 
ATOM      7  C6  UNL d   1      -0.413   1.842  -1.371  0.00  0.00    -0.001 A 
ENDROOT
TORSDOF 0
ENDMDL
