MODEL 1
REMARK minimizedAffinity -5.36765337
REMARK minimizedRMSD -1
REMARK  0 active torsions:
REMARK  status: ('A' for Active; 'I' for Inactive)
ROOT
ATOM      1  C   UNL d   1      -0.735   2.989  -1.926  0.00  0.00     0.078 C 
ATOM      2  C1  UNL d   1      -0.749   2.567  -0.488  0.00  0.00    -0.077 A 
ATOM      3  C2  UNL d   1      -1.062   3.478   0.528  0.00  0.00    -0.001 A 
ATOM      4  C3  UNL d   1      -1.062   3.074   1.864  0.00  0.00     0.003 A 
ATOM      5  C4  UNL d   1      -0.747   1.757   2.196  0.00  0.00    -0.005 A 
ATOM      6  C5  UNL d   1      -0.432   0.844   1.192  0.00  0.00     0.003 A 
ATOM      7  C6  UNL d   1      -0.432   1.247  -0.144  0.00  0.00    -0.001 A 
ENDROOT
TORSDOF 0
ENDMDL
