MODEL 1
REMARK minimizedAffinity -3.26293778
REMARK minimizedRMSD -1
REMARK  0 active torsions:
REMARK  status: ('A' for Active; 'I' for Inactive)
ROOT
ATOM      1  C   UNL d   1       0.488   1.900   2.159  0.00  0.00     0.078 C 
ATOM      2  C1  UNL d   1       0.435   1.570   0.697  0.00  0.00    -0.077 A 
ATOM      3  C2  UNL d   1       0.177   2.562  -0.257  0.00  0.00    -0.001 A 
ATOM      4  C3  UNL d   1       0.120   2.239  -1.614  0.00  0.00     0.003 A 
ATOM      5  C4  UNL d   1       0.320   0.924  -2.029  0.00  0.00    -0.005 A 
ATOM      6  C5  UNL d   1       0.576  -0.070  -1.087  0.00  0.00     0.003 A 
ATOM      7  C6  UNL d   1       0.633   0.251   0.270  0.00  0.00    -0.001 A 
ENDROOT
TORSDOF 0
ENDMDL
