MODEL 1
REMARK minimizedAffinity -5.56219769
REMARK minimizedRMSD -1
REMARK  0 active torsions:
REMARK  status: ('A' for Active; 'I' for Inactive)
ROOT
ATOM      1  C   UNL d   1       0.514  -0.903  -0.533  0.00  0.00     0.078 C 
ATOM      2  C1  UNL d   1       0.115   0.140   0.468  0.00  0.00    -0.077 A 
ATOM      3  C2  UNL d   1       0.700   0.180   1.739  0.00  0.00    -0.001 A 
ATOM      4  C3  UNL d   1       0.312   1.151   2.664  0.00  0.00     0.003 A 
ATOM      5  C4  UNL d   1      -0.664   2.087   2.328  0.00  0.00    -0.005 A 
ATOM      6  C5  UNL d   1      -1.253   2.053   1.066  0.00  0.00     0.003 A 
ATOM      7  C6  UNL d   1      -0.866   1.083   0.140  0.00  0.00    -0.001 A 
ENDROOT
TORSDOF 0
ENDMDL
