MODEL 1
REMARK minimizedAffinity 1.64662528
REMARK minimizedRMSD -1
REMARK  0 active torsions:
REMARK  status: ('A' for Active; 'I' for Inactive)
ROOT
ATOM      1  C   UNL d   1       1.234  -0.724   0.057  0.00  0.00     0.078 C 
ATOM      2  C1  UNL d   1       1.115  -0.305   1.492  0.00  0.00    -0.077 A 
ATOM      3  C2  UNL d   1       1.400  -1.200   2.531  0.00  0.00    -0.001 A 
ATOM      4  C3  UNL d   1       1.276  -0.800   3.862  0.00  0.00     0.003 A 
ATOM      5  C4  UNL d   1       0.867   0.497   4.167  0.00  0.00    -0.005 A 
ATOM      6  C5  UNL d   1       0.579   1.394   3.141  0.00  0.00     0.003 A 
ATOM      7  C6  UNL d   1       0.702   0.995   1.809  0.00  0.00    -0.001 A 
ENDROOT
TORSDOF 0
ENDMDL
