MODEL 1
REMARK minimizedAffinity -2.98906159
REMARK minimizedRMSD -1
REMARK  0 active torsions:
REMARK  status: ('A' for Active; 'I' for Inactive)
ROOT
ATOM      1  C   UNL d   1      -3.114   1.480  -0.855  0.00  0.00     0.078 C 
ATOM      2  C1  UNL d   1      -1.790   0.887  -0.476  0.00  0.00    -0.077 A 
ATOM      3  C2  UNL d   1      -1.462   0.656   0.866  0.00  0.00    -0.001 A 
ATOM      4  C3  UNL d   1      -0.222   0.112   1.205  0.00  0.00     0.003 A 
ATOM      5  C4  UNL d   1       0.700  -0.203   0.210  0.00  0.00    -0.005 A 
ATOM      6  C5  UNL d   1       0.383   0.026  -1.128  0.00  0.00     0.003 A 
ATOM      7  C6  UNL d   1      -0.856   0.569  -1.469  0.00  0.00    -0.001 A 
ENDROOT
TORSDOF 0
ENDMDL
