MODEL 1
REMARK minimizedAffinity -4.01654911
REMARK minimizedRMSD -1
REMARK  0 active torsions:
REMARK  status: ('A' for Active; 'I' for Inactive)
ROOT
ATOM      1  C   UNL d   1       1.751  -0.761   3.602  0.00  0.00     0.078 C 
ATOM      2  C1  UNL d   1       1.246   0.221   2.588  0.00  0.00    -0.077 A 
ATOM      3  C2  UNL d   1       0.818   1.498   2.971  0.00  0.00    -0.001 A 
ATOM      4  C3  UNL d   1       0.341   2.399   2.018  0.00  0.00     0.003 A 
ATOM      5  C4  UNL d   1       0.287   2.032   0.674  0.00  0.00    -0.005 A 
ATOM      6  C5  UNL d   1       0.709   0.763   0.284  0.00  0.00     0.003 A 
ATOM      7  C6  UNL d   1       1.186  -0.139   1.236  0.00  0.00    -0.001 A 
ENDROOT
TORSDOF 0
ENDMDL
