MODEL 1
REMARK minimizedAffinity -4.31675863
REMARK minimizedRMSD -1
REMARK  1 active torsions:
REMARK  status: ('A' for Active; 'I' for Inactive)
REMARK    1  A    between atoms: C3_4  and  O_7 
ROOT
ATOM      1  C   UNL d   1      -1.335   2.838   1.571  0.00  0.00    -0.033 A 
ATOM      2  C1  UNL d   1      -2.001   2.181   0.535  0.00  0.00     0.039 A 
ATOM      3  C2  UNL d   1      -1.437   1.045  -0.050  0.00  0.00    -0.080 A 
ATOM      4  C3  UNL d   1      -0.210   0.577   0.410  0.00  0.00     0.150 A 
ATOM      5  C4  UNL d   1       0.458   1.224   1.445  0.00  0.00    -0.007 A 
ATOM      6  C5  UNL d   1      -0.106   2.359   2.028  0.00  0.00     0.039 A 
ENDROOT
BRANCH   4   7
ATOM      7  O   UNL d   1       0.382  -0.525  -0.133  0.00  0.00    -0.526 OA
ATOM      8  H5  UNL d   1      -0.179  -0.850  -0.856  0.00  0.00     0.418 HD
ENDBRANCH   4   7
TORSDOF 1
ENDMDL
