MODEL 1
REMARK minimizedAffinity 6.38692045
REMARK minimizedRMSD -1
REMARK  1 active torsions:
REMARK  status: ('A' for Active; 'I' for Inactive)
REMARK    1  A    between atoms: C3_4  and  O_7 
ROOT
ATOM      1  C   UNL d   1      -1.252   2.672   2.007  0.00  0.00    -0.033 A 
ATOM      2  C1  UNL d   1      -0.131   1.857   1.837  0.00  0.00     0.039 A 
ATOM      3  C2  UNL d   1       0.237   1.432   0.559  0.00  0.00    -0.080 A 
ATOM      4  C3  UNL d   1      -0.522   1.828  -0.539  0.00  0.00     0.150 A 
ATOM      5  C4  UNL d   1      -1.638   2.643  -0.377  0.00  0.00    -0.007 A 
ATOM      6  C5  UNL d   1      -2.005   3.066   0.900  0.00  0.00     0.039 A 
ENDROOT
BRANCH   4   7
ATOM      7  O   UNL d   1      -0.205   1.434  -1.805  0.00  0.00    -0.526 OA
ATOM      8  H5  UNL d   1       0.572   0.852  -1.760  0.00  0.00     0.418 HD
ENDBRANCH   4   7
TORSDOF 1
ENDMDL
