MODEL 1
REMARK minimizedAffinity -4.51887274
REMARK minimizedRMSD -1
REMARK  1 active torsions:
REMARK  status: ('A' for Active; 'I' for Inactive)
REMARK    1  A    between atoms: C3_4  and  O_7 
ROOT
ATOM      1  C   UNL d   1       0.666  -0.075  -0.788  0.00  0.00    -0.033 A 
ATOM      2  C1  UNL d   1       0.813  -0.293   0.583  0.00  0.00     0.039 A 
ATOM      3  C2  UNL d   1       0.102   0.489   1.496  0.00  0.00    -0.080 A 
ATOM      4  C3  UNL d   1      -0.752   1.483   1.026  0.00  0.00     0.150 A 
ATOM      5  C4  UNL d   1      -0.905   1.703  -0.339  0.00  0.00    -0.007 A 
ATOM      6  C5  UNL d   1      -0.194   0.922  -1.249  0.00  0.00     0.039 A 
ENDROOT
BRANCH   4   7
ATOM      7  O   UNL d   1      -1.463   2.274   1.878  0.00  0.00    -0.526 OA
ATOM      8  H5  UNL d   1      -1.235   2.027   2.790  0.00  0.00     0.418 HD
ENDBRANCH   4   7
TORSDOF 1
ENDMDL
