MODEL 1
REMARK minimizedAffinity -4.25036287
REMARK minimizedRMSD -1
REMARK  1 active torsions:
REMARK  status: ('A' for Active; 'I' for Inactive)
REMARK    1  A    between atoms: C3_4  and  O_7 
ROOT
ATOM      1  C   UNL d   1       0.333   0.754  -1.833  0.00  0.00    -0.033 A 
ATOM      2  C1  UNL d   1       0.543  -0.192  -0.828  0.00  0.00     0.039 A 
ATOM      3  C2  UNL d   1       0.261   0.126   0.502  0.00  0.00    -0.080 A 
ATOM      4  C3  UNL d   1      -0.230   1.392   0.813  0.00  0.00     0.150 A 
ATOM      5  C4  UNL d   1      -0.444   2.337  -0.184  0.00  0.00    -0.007 A 
ATOM      6  C5  UNL d   1      -0.162   2.018  -1.512  0.00  0.00     0.039 A 
ENDROOT
BRANCH   4   7
ATOM      7  O   UNL d   1      -0.515   1.750   2.097  0.00  0.00    -0.526 OA
ATOM      8  H5  UNL d   1      -0.290   1.006   2.681  0.00  0.00     0.418 HD
ENDBRANCH   4   7
TORSDOF 1
ENDMDL
