MODEL 1
REMARK minimizedAffinity -5.14382553
REMARK minimizedRMSD -1
REMARK  1 active torsions:
REMARK  status: ('A' for Active; 'I' for Inactive)
REMARK    1  A    between atoms: C3_4  and  O_7 
ROOT
ATOM      1  C   UNL d   1       0.506  -0.532  -0.216  0.00  0.00    -0.033 A 
ATOM      2  C1  UNL d   1      -0.445   0.281  -0.836  0.00  0.00     0.039 A 
ATOM      3  C2  UNL d   1      -1.120   1.256  -0.100  0.00  0.00    -0.080 A 
ATOM      4  C3  UNL d   1      -0.834   1.410   1.254  0.00  0.00     0.150 A 
ATOM      5  C4  UNL d   1       0.115   0.607   1.878  0.00  0.00    -0.007 A 
ATOM      6  C5  UNL d   1       0.787  -0.367   1.141  0.00  0.00     0.039 A 
ENDROOT
BRANCH   4   7
ATOM      7  O   UNL d   1      -1.471   2.346   2.015  0.00  0.00    -0.526 OA
ATOM      8  H5  UNL d   1      -2.119   2.806   1.457  0.00  0.00     0.418 HD
ENDBRANCH   4   7
TORSDOF 1
ENDMDL
