MODEL 1
REMARK minimizedAffinity -4.26357985
REMARK minimizedRMSD -1
REMARK  1 active torsions:
REMARK  status: ('A' for Active; 'I' for Inactive)
REMARK    1  A    between atoms: C3_4  and  O_7 
ROOT
ATOM      1  C   UNL d   1      -0.136   2.061   2.200  0.00  0.00    -0.033 A 
ATOM      2  C1  UNL d   1      -0.830   1.189   1.359  0.00  0.00     0.039 A 
ATOM      3  C2  UNL d   1      -1.225   1.608   0.088  0.00  0.00    -0.080 A 
ATOM      4  C3  UNL d   1      -0.919   2.900  -0.332  0.00  0.00     0.150 A 
ATOM      5  C4  UNL d   1      -0.224   3.773   0.498  0.00  0.00    -0.007 A 
ATOM      6  C5  UNL d   1       0.169   3.353   1.769  0.00  0.00     0.039 A 
ENDROOT
BRANCH   4   7
ATOM      7  O   UNL d   1      -1.287   3.355  -1.563  0.00  0.00    -0.526 OA
ATOM      8  H5  UNL d   1      -1.785   2.653  -2.014  0.00  0.00     0.418 HD
ENDBRANCH   4   7
TORSDOF 1
ENDMDL
