MODEL 1
REMARK minimizedAffinity -4.73992825
REMARK minimizedRMSD -1
REMARK  1 active torsions:
REMARK  status: ('A' for Active; 'I' for Inactive)
REMARK    1  A    between atoms: C3_4  and  O_7 
ROOT
ATOM      1  C   UNL d   1      -1.174   3.164   1.192  0.00  0.00    -0.033 A 
ATOM      2  C1  UNL d   1      -1.107   3.159  -0.203  0.00  0.00     0.039 A 
ATOM      3  C2  UNL d   1      -0.593   2.049  -0.875  0.00  0.00    -0.080 A 
ATOM      4  C3  UNL d   1      -0.149   0.951  -0.142  0.00  0.00     0.150 A 
ATOM      5  C4  UNL d   1      -0.216   0.948   1.247  0.00  0.00    -0.007 A 
ATOM      6  C5  UNL d   1      -0.730   2.058   1.917  0.00  0.00     0.039 A 
ENDROOT
BRANCH   4   7
ATOM      7  O   UNL d   1       0.365  -0.153  -0.754  0.00  0.00    -0.526 OA
ATOM      8  H5  UNL d   1       0.376   0.003  -1.713  0.00  0.00     0.418 HD
ENDBRANCH   4   7
TORSDOF 1
ENDMDL
