MODEL 1
REMARK minimizedAffinity 1.34569478
REMARK minimizedRMSD -1
REMARK  0 active torsions:
REMARK  status: ('A' for Active; 'I' for Inactive)
ROOT
ATOM      1  C1  DEN d   1      -2.293   0.868   2.756  0.00  0.00     0.130 A 
ATOM      2  C2  DEN d   1      -2.578   2.282   2.528  0.00  0.00    -0.031 A 
ATOM      3  C3  DEN d   1      -1.572   2.803   1.581  0.00  0.00     0.027 A 
ATOM      4  C4  DEN d   1       0.385   1.563   0.447  0.00  0.00     0.027 A 
ATOM      5  C5  DEN d   1       1.036   0.354   0.340  0.00  0.00    -0.003 A 
ATOM      6  C6  DEN d   1       0.647  -0.750   1.050  0.00  0.00     0.001 A 
ATOM      7  C7  DEN d   1      -0.451  -0.680   1.866  0.00  0.00     0.017 A 
ATOM      8  C8  DEN d   1      -1.108   0.537   1.986  0.00  0.00    -0.094 A 
ATOM      9  C9  DEN d   1      -0.706   1.639   1.250  0.00  0.00    -0.072 A 
ENDROOT
TORSDOF 0
ENDMDL
