MODEL 1
REMARK minimizedAffinity 0.45888412
REMARK minimizedRMSD -1
REMARK  0 active torsions:
REMARK  status: ('A' for Active; 'I' for Inactive)
ROOT
ATOM      1  C1  DEN d   1       1.421   1.921   0.819  0.00  0.00     0.130 A 
ATOM      2  C2  DEN d   1       2.316   0.774   0.948  0.00  0.00    -0.031 A 
ATOM      3  C3  DEN d   1       1.519  -0.377   1.418  0.00  0.00     0.027 A 
ATOM      4  C4  DEN d   1      -1.002  -0.495   1.949  0.00  0.00     0.027 A 
ATOM      5  C5  DEN d   1      -2.174   0.228   2.001  0.00  0.00    -0.003 A 
ATOM      6  C6  DEN d   1      -2.222   1.563   1.697  0.00  0.00     0.001 A 
ATOM      7  C7  DEN d   1      -1.086   2.207   1.285  0.00  0.00     0.017 A 
ATOM      8  C8  DEN d   1       0.101   1.486   1.237  0.00  0.00    -0.094 A 
ATOM      9  C9  DEN d   1       0.127   0.135   1.536  0.00  0.00    -0.072 A 
ENDROOT
TORSDOF 0
ENDMDL
