MODEL 1
REMARK minimizedAffinity 6.07990074
REMARK minimizedRMSD -1
REMARK  0 active torsions:
REMARK  status: ('A' for Active; 'I' for Inactive)
ROOT
ATOM      1  C1  DEN d   1      -2.744   1.142   2.030  0.00  0.00     0.130 A 
ATOM      2  C2  DEN d   1      -2.748   2.597   1.915  0.00  0.00    -0.031 A 
ATOM      3  C3  DEN d   1      -1.412   3.022   1.450  0.00  0.00     0.027 A 
ATOM      4  C4  DEN d   1       0.648   1.574   0.893  0.00  0.00     0.027 A 
ATOM      5  C5  DEN d   1       1.137   0.287   0.849  0.00  0.00    -0.003 A 
ATOM      6  C6  DEN d   1       0.383  -0.794   1.224  0.00  0.00     0.001 A 
ATOM      7  C7  DEN d   1      -0.916  -0.611   1.618  0.00  0.00     0.017 A 
ATOM      8  C8  DEN d   1      -1.413   0.684   1.673  0.00  0.00    -0.094 A 
ATOM      9  C9  DEN d   1      -0.640   1.762   1.277  0.00  0.00    -0.072 A 
ENDROOT
TORSDOF 0
ENDMDL
