MODEL 1
REMARK minimizedAffinity -0.187284693
REMARK minimizedRMSD -1
REMARK  0 active torsions:
REMARK  status: ('A' for Active; 'I' for Inactive)
ROOT
ATOM      1  C1  DEN d   1       0.582  -0.805   0.755  0.00  0.00     0.130 A 
ATOM      2  C2  DEN d   1       1.603   0.168   0.375  0.00  0.00    -0.031 A 
ATOM      3  C3  DEN d   1       1.091   1.516   0.696  0.00  0.00     0.027 A 
ATOM      4  C4  DEN d   1      -1.168   2.186   1.744  0.00  0.00     0.027 A 
ATOM      5  C5  DEN d   1      -2.367   1.710   2.226  0.00  0.00    -0.003 A 
ATOM      6  C6  DEN d   1      -2.679   0.376   2.220  0.00  0.00     0.001 A 
ATOM      7  C7  DEN d   1      -1.761  -0.533   1.763  0.00  0.00     0.017 A 
ATOM      8  C8  DEN d   1      -0.553  -0.060   1.269  0.00  0.00    -0.094 A 
ATOM      9  C9  DEN d   1      -0.252   1.291   1.295  0.00  0.00    -0.072 A 
ENDROOT
TORSDOF 0
ENDMDL
