MODEL 1
REMARK minimizedAffinity 0.215814367
REMARK minimizedRMSD -1
REMARK  0 active torsions:
REMARK  status: ('A' for Active; 'I' for Inactive)
ROOT
ATOM      1  C1  DEN d   1      -2.080   1.196   1.955  0.00  0.00     0.130 A 
ATOM      2  C2  DEN d   1      -2.238   2.622   1.685  0.00  0.00    -0.031 A 
ATOM      3  C3  DEN d   1      -0.999   3.106   1.045  0.00  0.00     0.027 A 
ATOM      4  C4  DEN d   1       1.137   1.790   0.442  0.00  0.00     0.027 A 
ATOM      5  C5  DEN d   1       1.744   0.555   0.488  0.00  0.00    -0.003 A 
ATOM      6  C6  DEN d   1       1.139  -0.536   1.052  0.00  0.00     0.001 A 
ATOM      7  C7  DEN d   1      -0.132  -0.424   1.552  0.00  0.00     0.017 A 
ATOM      8  C8  DEN d   1      -0.748   0.819   1.517  0.00  0.00    -0.094 A 
ATOM      9  C9  DEN d   1      -0.124   1.908   0.932  0.00  0.00    -0.072 A 
ENDROOT
TORSDOF 0
ENDMDL
