MODEL 1
REMARK minimizedAffinity 3.26747227
REMARK minimizedRMSD -1
REMARK  0 active torsions:
REMARK  status: ('A' for Active; 'I' for Inactive)
ROOT
ATOM      1  C1  DEN d   1      -0.249   2.378   1.016  0.00  0.00     0.130 A 
ATOM      2  C2  DEN d   1       1.181   2.088   1.059  0.00  0.00    -0.031 A 
ATOM      3  C3  DEN d   1       1.347   0.647   1.337  0.00  0.00     0.027 A 
ATOM      4  C4  DEN d   1      -0.463  -1.155   1.698  0.00  0.00     0.027 A 
ATOM      5  C5  DEN d   1      -1.819  -1.385   1.766  0.00  0.00    -0.003 A 
ATOM      6  C6  DEN d   1      -2.739  -0.380   1.625  0.00  0.00     0.001 A 
ATOM      7  C7  DEN d   1      -2.315   0.896   1.362  0.00  0.00     0.017 A 
ATOM      8  C8  DEN d   1      -0.949   1.138   1.299  0.00  0.00    -0.094 A 
ATOM      9  C9  DEN d   1      -0.035   0.106   1.433  0.00  0.00    -0.072 A 
ENDROOT
TORSDOF 0
ENDMDL
