MODEL 1
REMARK minimizedAffinity 2.59124494
REMARK minimizedRMSD -1
REMARK  0 active torsions:
REMARK  status: ('A' for Active; 'I' for Inactive)
ROOT
ATOM      1  C1  DEN d   1      -0.439   2.450   1.678  0.00  0.00     0.130 A 
ATOM      2  C2  DEN d   1       0.588   1.594   1.090  0.00  0.00    -0.031 A 
ATOM      3  C3  DEN d   1       0.140   0.193   1.214  0.00  0.00     0.027 A 
ATOM      4  C4  DEN d   1      -2.036  -0.730   2.248  0.00  0.00     0.027 A 
ATOM      5  C5  DEN d   1      -3.209  -0.389   2.883  0.00  0.00    -0.003 A 
ATOM      6  C6  DEN d   1      -3.524   0.908   3.189  0.00  0.00     0.001 A 
ATOM      7  C7  DEN d   1      -2.675   1.918   2.820  0.00  0.00     0.017 A 
ATOM      8  C8  DEN d   1      -1.486   1.581   2.185  0.00  0.00    -0.094 A 
ATOM      9  C9  DEN d   1      -1.192   0.265   1.873  0.00  0.00    -0.072 A 
ENDROOT
TORSDOF 0
ENDMDL
