MODEL 1
REMARK minimizedAffinity 0.942378044
REMARK minimizedRMSD -1
REMARK  0 active torsions:
REMARK  status: ('A' for Active; 'I' for Inactive)
ROOT
ATOM      1  C1  DEN d   1      -1.186   2.856   1.992  0.00  0.00     0.130 A 
ATOM      2  C2  DEN d   1      -2.441   2.526   2.662  0.00  0.00    -0.031 A 
ATOM      3  C3  DEN d   1      -2.596   1.058   2.641  0.00  0.00     0.027 A 
ATOM      4  C4  DEN d   1      -1.022  -0.727   1.646  0.00  0.00     0.027 A 
ATOM      5  C5  DEN d   1       0.158  -0.929   0.966  0.00  0.00    -0.003 A 
ATOM      6  C6  DEN d   1       0.950   0.110   0.553  0.00  0.00     0.001 A 
ATOM      7  C7  DEN d   1       0.594   1.397   0.857  0.00  0.00     0.017 A 
ATOM      8  C8  DEN d   1      -0.599   1.609   1.536  0.00  0.00    -0.094 A 
ATOM      9  C9  DEN d   1      -1.380   0.545   1.955  0.00  0.00    -0.072 A 
ENDROOT
TORSDOF 0
ENDMDL
