MODEL 1
REMARK minimizedAffinity -1.09302104
REMARK minimizedRMSD -1
REMARK  0 active torsions:
REMARK  status: ('A' for Active; 'I' for Inactive)
ROOT
ATOM      1  C1  DEN d   1       1.642   1.638   0.733  0.00  0.00     0.130 A 
ATOM      2  C2  DEN d   1       2.390   0.418   0.440  0.00  0.00    -0.031 A 
ATOM      3  C3  DEN d   1       1.497  -0.734   0.682  0.00  0.00     0.027 A 
ATOM      4  C4  DEN d   1      -0.958  -0.746   1.472  0.00  0.00     0.027 A 
ATOM      5  C5  DEN d   1      -2.016   0.046   1.859  0.00  0.00    -0.003 A 
ATOM      6  C6  DEN d   1      -1.920   1.410   1.931  0.00  0.00     0.001 A 
ATOM      7  C7  DEN d   1      -0.753   2.028   1.566  0.00  0.00     0.017 A 
ATOM      8  C8  DEN d   1       0.321   1.236   1.182  0.00  0.00    -0.094 A 
ATOM      9  C9  DEN d   1       0.200  -0.141   1.104  0.00  0.00    -0.072 A 
ENDROOT
TORSDOF 0
ENDMDL
