MODEL 1
REMARK minimizedAffinity -2.452039
REMARK minimizedRMSD -1
REMARK  0 active torsions:
REMARK  status: ('A' for Active; 'I' for Inactive)
ROOT
ATOM      1  C1  DEN d   1      -2.701   0.654   2.481  0.00  0.00     0.130 A 
ATOM      2  C2  DEN d   1      -2.151  -0.694   2.592  0.00  0.00    -0.031 A 
ATOM      3  C3  DEN d   1      -0.758  -0.660   2.102  0.00  0.00     0.027 A 
ATOM      4  C4  DEN d   1       0.594   1.339   1.192  0.00  0.00     0.027 A 
ATOM      5  C5  DEN d   1       0.548   2.684   0.897  0.00  0.00    -0.003 A 
ATOM      6  C6  DEN d   1      -0.585   3.432   1.075  0.00  0.00     0.001 A 
ATOM      7  C7  DEN d   1      -1.706   2.851   1.605  0.00  0.00     0.017 A 
ATOM      8  C8  DEN d   1      -1.670   1.494   1.899  0.00  0.00    -0.094 A 
ATOM      9  C9  DEN d   1      -0.511   0.757   1.723  0.00  0.00    -0.072 A 
ENDROOT
TORSDOF 0
ENDMDL
