MODEL 1
REMARK minimizedAffinity 9.46266842
REMARK minimizedRMSD -1
REMARK  0 active torsions:
REMARK  status: ('A' for Active; 'I' for Inactive)
ROOT
ATOM      1  C1  DEN d   1      -3.316  -4.240  -1.385  0.00  0.00     0.130 A 
ATOM      2  C2  DEN d   1      -3.162  -3.904   0.027  0.00  0.00    -0.031 A 
ATOM      3  C3  DEN d   1      -3.103  -2.433   0.142  0.00  0.00     0.027 A 
ATOM      4  C4  DEN d   1      -3.241  -0.653  -1.719  0.00  0.00     0.027 A 
ATOM      5  C5  DEN d   1      -3.362  -0.456  -3.077  0.00  0.00    -0.003 A 
ATOM      6  C6  DEN d   1      -3.442  -1.498  -3.962  0.00  0.00     0.001 A 
ATOM      7  C7  DEN d   1      -3.447  -2.786  -3.495  0.00  0.00     0.017 A 
ATOM      8  C8  DEN d   1      -3.317  -2.993  -2.128  0.00  0.00    -0.094 A 
ATOM      9  C9  DEN d   1      -3.250  -1.926  -1.248  0.00  0.00    -0.072 A 
ENDROOT
TORSDOF 0
ENDMDL
