MODEL 1
REMARK minimizedAffinity -0.838941813
REMARK minimizedRMSD -1
REMARK  0 active torsions:
REMARK  status: ('A' for Active; 'I' for Inactive)
ROOT
ATOM      1  C1  DEN d   1       0.755   1.557   0.910  0.00  0.00     0.130 A 
ATOM      2  C2  DEN d   1       0.767   3.002   0.701  0.00  0.00    -0.031 A 
ATOM      3  C3  DEN d   1      -0.504   3.548   1.216  0.00  0.00     0.027 A 
ATOM      4  C4  DEN d   1      -2.478   2.303   2.315  0.00  0.00     0.027 A 
ATOM      5  C5  DEN d   1      -2.954   1.068   2.697  0.00  0.00    -0.003 A 
ATOM      6  C6  DEN d   1      -2.247  -0.085   2.481  0.00  0.00     0.001 A 
ATOM      7  C7  DEN d   1      -1.004  -0.022   1.907  0.00  0.00     0.017 A 
ATOM      8  C8  DEN d   1      -0.522   1.219   1.512  0.00  0.00    -0.094 A 
ATOM      9  C9  DEN d   1      -1.246   2.374   1.750  0.00  0.00    -0.072 A 
ENDROOT
TORSDOF 0
ENDMDL
