MODEL 1
REMARK minimizedAffinity 8.79551983
REMARK minimizedRMSD -1
REMARK  0 active torsions:
REMARK  status: ('A' for Active; 'I' for Inactive)
ROOT
ATOM      1  C1  DEN d   1      -0.030   1.440   0.717  0.00  0.00     0.130 A 
ATOM      2  C2  DEN d   1      -0.036   2.882   0.492  0.00  0.00    -0.031 A 
ATOM      3  C3  DEN d   1      -1.127   3.466   1.298  0.00  0.00     0.027 A 
ATOM      4  C4  DEN d   1      -2.794   2.282   2.871  0.00  0.00     0.027 A 
ATOM      5  C5  DEN d   1      -3.188   1.063   3.377  0.00  0.00    -0.003 A 
ATOM      6  C6  DEN d   1      -2.584  -0.110   3.009  0.00  0.00     0.001 A 
ATOM      7  C7  DEN d   1      -1.522  -0.084   2.143  0.00  0.00     0.017 A 
ATOM      8  C8  DEN d   1      -1.124   1.140   1.623  0.00  0.00    -0.094 A 
ATOM      9  C9  DEN d   1      -1.740   2.316   2.017  0.00  0.00    -0.072 A 
ENDROOT
TORSDOF 0
ENDMDL
