MODEL 1
REMARK minimizedAffinity -1.22084939
REMARK minimizedRMSD -1
REMARK  0 active torsions:
REMARK  status: ('A' for Active; 'I' for Inactive)
ROOT
ATOM      1  C   UNL d   1      -0.529  -1.950  -0.086  0.00  0.00     0.124 A 
ATOM      2  C1  UNL d   1      -0.822  -1.415   1.160  0.00  0.00     0.062 A 
ATOM      3  C2  UNL d   1      -0.551  -0.076   1.429  0.00  0.00     0.162 A 
ATOM      4  C3  UNL d   1       0.016   0.738   0.448  0.00  0.00    -0.034 A 
ATOM      5  C4  UNL d   1       0.309   0.192  -0.804  0.00  0.00     0.162 A 
ATOM      6  C5  UNL d   1       0.036  -1.147  -1.067  0.00  0.00     0.062 A 
ATOM      7  F   UNL d   1       0.320  -1.662  -2.272  0.00  0.00    -0.097 F 
ATOM      8  F1  UNL d   1       0.854   0.946  -1.770  0.00  0.00    -0.096 F 
ATOM      9  I   UNL d   1       0.423   2.740   0.845  0.00  0.00    -0.060 I 
ATOM     10  F2  UNL d   1      -0.844   0.414   2.642  0.00  0.00    -0.096 F 
ATOM     11  F3  UNL d   1      -1.367  -2.189   2.109  0.00  0.00    -0.097 F 
ATOM     12  F4  UNL d   1      -0.790  -3.239  -0.342  0.00  0.00    -0.092 F 
ENDROOT
TORSDOF 0
ENDMDL
