MODEL 1
REMARK minimizedAffinity -1.5986917
REMARK minimizedRMSD -1
REMARK  0 active torsions:
REMARK  status: ('A' for Active; 'I' for Inactive)
ROOT
ATOM      1  C   UNL d   1      -0.495   1.217  -0.178  0.00  0.00     0.124 A 
ATOM      2  C1  UNL d   1       0.155   0.588  -1.231  0.00  0.00     0.062 A 
ATOM      3  C2  UNL d   1       0.446  -0.772  -1.163  0.00  0.00     0.162 A 
ATOM      4  C3  UNL d   1       0.085  -1.513  -0.037  0.00  0.00    -0.034 A 
ATOM      5  C4  UNL d   1      -0.568  -0.873   1.018  0.00  0.00     0.162 A 
ATOM      6  C5  UNL d   1      -0.856   0.486   0.945  0.00  0.00     0.062 A 
ATOM      7  F   UNL d   1      -1.485   1.091   1.963  0.00  0.00    -0.097 F 
ATOM      8  F1  UNL d   1      -0.930  -1.556   2.115  0.00  0.00    -0.096 F 
ATOM      9  I   UNL d   1       0.517  -3.546   0.069  0.00  0.00    -0.060 I 
ATOM     10  F2  UNL d   1       1.075  -1.353  -2.195  0.00  0.00    -0.096 F 
ATOM     11  F3  UNL d   1       0.506   1.292  -2.317  0.00  0.00    -0.097 F 
ATOM     12  F4  UNL d   1      -0.772   2.525  -0.246  0.00  0.00    -0.092 F 
ENDROOT
TORSDOF 0
ENDMDL
