MODEL 1
REMARK minimizedAffinity -3.44580865
REMARK minimizedRMSD -1
REMARK  0 active torsions:
REMARK  status: ('A' for Active; 'I' for Inactive)
ROOT
ATOM      1  C   UNL d   1       0.290  -1.997  -0.468  0.00  0.00     0.124 A 
ATOM      2  C1  UNL d   1       0.111  -1.588   0.847  0.00  0.00     0.062 A 
ATOM      3  C2  UNL d   1       0.232  -0.243   1.184  0.00  0.00     0.162 A 
ATOM      4  C3  UNL d   1       0.532   0.704   0.205  0.00  0.00    -0.034 A 
ATOM      5  C4  UNL d   1       0.712   0.286  -1.114  0.00  0.00     0.162 A 
ATOM      6  C5  UNL d   1       0.590  -1.060  -1.447  0.00  0.00     0.062 A 
ATOM      7  F   UNL d   1       0.764  -1.453  -2.717  0.00  0.00    -0.097 F 
ATOM      8  F1  UNL d   1       1.001   1.170  -2.081  0.00  0.00    -0.096 F 
ATOM      9  I   UNL d   1       0.713   2.716   0.706  0.00  0.00    -0.060 I 
ATOM     10  F2  UNL d   1       0.053   0.123   2.462  0.00  0.00    -0.096 F 
ATOM     11  F3  UNL d   1      -0.178  -2.491   1.794  0.00  0.00    -0.097 F 
ATOM     12  F4  UNL d   1       0.175  -3.291  -0.790  0.00  0.00    -0.092 F 
ENDROOT
TORSDOF 0
ENDMDL
