MODEL 1
REMARK minimizedAffinity -2.07791519
REMARK minimizedRMSD -1
REMARK  0 active torsions:
REMARK  status: ('A' for Active; 'I' for Inactive)
ROOT
ATOM      1  C   UNL d   1      -0.255  -2.213   0.141  0.00  0.00     0.124 A 
ATOM      2  C1  UNL d   1      -0.962  -1.543   1.129  0.00  0.00     0.062 A 
ATOM      3  C2  UNL d   1      -0.839  -0.163   1.265  0.00  0.00     0.162 A 
ATOM      4  C3  UNL d   1      -0.006   0.557   0.409  0.00  0.00    -0.034 A 
ATOM      5  C4  UNL d   1       0.702  -0.124  -0.583  0.00  0.00     0.162 A 
ATOM      6  C5  UNL d   1       0.576  -1.503  -0.714  0.00  0.00     0.062 A 
ATOM      7  F   UNL d   1       1.261  -2.148  -1.670  0.00  0.00    -0.097 F 
ATOM      8  F1  UNL d   1       1.512   0.537  -1.423  0.00  0.00    -0.096 F 
ATOM      9  I   UNL d   1       0.180   2.620   0.608  0.00  0.00    -0.060 I 
ATOM     10  F2  UNL d   1      -1.535   0.458   2.229  0.00  0.00    -0.096 F 
ATOM     11  F3  UNL d   1      -1.765  -2.226   1.957  0.00  0.00    -0.097 F 
ATOM     12  F4  UNL d   1      -0.374  -3.541   0.013  0.00  0.00    -0.092 F 
ENDROOT
TORSDOF 0
ENDMDL
