MODEL 1
REMARK minimizedAffinity -1.4826746
REMARK minimizedRMSD -1
REMARK  0 active torsions:
REMARK  status: ('A' for Active; 'I' for Inactive)
ROOT
ATOM      1  C   UNL d   1      -0.062  -1.767  -0.129  0.00  0.00     0.124 A 
ATOM      2  C1  UNL d   1       0.554  -0.990  -1.100  0.00  0.00     0.062 A 
ATOM      3  C2  UNL d   1       0.510   0.399  -1.016  0.00  0.00     0.162 A 
ATOM      4  C3  UNL d   1      -0.151   1.020   0.044  0.00  0.00    -0.034 A 
ATOM      5  C4  UNL d   1      -0.769   0.231   1.016  0.00  0.00     0.162 A 
ATOM      6  C5  UNL d   1      -0.723  -1.157   0.928  0.00  0.00     0.062 A 
ATOM      7  F   UNL d   1      -1.319  -1.906   1.867  0.00  0.00    -0.097 F 
ATOM      8  F1  UNL d   1      -1.413   0.795   2.049  0.00  0.00    -0.096 F 
ATOM      9  I   UNL d   1      -0.218   3.096   0.173  0.00  0.00    -0.060 I 
ATOM     10  F2  UNL d   1       1.115   1.125  -1.968  0.00  0.00    -0.096 F 
ATOM     11  F3  UNL d   1       1.192  -1.577  -2.122  0.00  0.00    -0.097 F 
ATOM     12  F4  UNL d   1      -0.020  -3.103  -0.213  0.00  0.00    -0.092 F 
ENDROOT
TORSDOF 0
ENDMDL
