MODEL 1
REMARK minimizedAffinity -3.85949397
REMARK minimizedRMSD -1
REMARK  0 active torsions:
REMARK  status: ('A' for Active; 'I' for Inactive)
ROOT
ATOM      1  C   UNL d   1      -0.475  -2.774   0.204  0.00  0.00     0.124 A 
ATOM      2  C1  UNL d   1      -1.292  -1.888   0.893  0.00  0.00     0.062 A 
ATOM      3  C2  UNL d   1      -1.041  -0.520   0.840  0.00  0.00     0.162 A 
ATOM      4  C3  UNL d   1       0.031  -0.029   0.095  0.00  0.00    -0.034 A 
ATOM      5  C4  UNL d   1       0.848  -0.926  -0.594  0.00  0.00     0.162 A 
ATOM      6  C5  UNL d   1       0.594  -2.293  -0.539  0.00  0.00     0.062 A 
ATOM      7  F   UNL d   1       1.384  -3.148  -1.204  0.00  0.00    -0.097 F 
ATOM      8  F1  UNL d   1       1.887  -0.488  -1.320  0.00  0.00    -0.096 F 
ATOM      9  I   UNL d   1       0.409   2.016   0.014  0.00  0.00    -0.060 I 
ATOM     10  F2  UNL d   1      -1.847   0.313   1.515  0.00  0.00    -0.096 F 
ATOM     11  F3  UNL d   1      -2.325  -2.351   1.612  0.00  0.00    -0.097 F 
ATOM     12  F4  UNL d   1      -0.718  -4.090   0.257  0.00  0.00    -0.092 F 
ENDROOT
TORSDOF 0
ENDMDL
