MODEL 1
REMARK minimizedAffinity -0.901894271
REMARK minimizedRMSD -1
REMARK  0 active torsions:
REMARK  status: ('A' for Active; 'I' for Inactive)
ROOT
ATOM      1  C   UNL d   1       0.238  -2.567  -0.623  0.00  0.00     0.124 A 
ATOM      2  C1  UNL d   1       0.609  -1.727  -1.664  0.00  0.00     0.062 A 
ATOM      3  C2  UNL d   1       0.237  -0.386  -1.648  0.00  0.00     0.162 A 
ATOM      4  C3  UNL d   1      -0.511   0.124  -0.586  0.00  0.00    -0.034 A 
ATOM      5  C4  UNL d   1      -0.881  -0.727   0.457  0.00  0.00     0.162 A 
ATOM      6  C5  UNL d   1      -0.506  -2.066   0.436  0.00  0.00     0.062 A 
ATOM      7  F   UNL d   1      -0.865  -2.876   1.442  0.00  0.00    -0.097 F 
ATOM      8  F1  UNL d   1      -1.599  -0.269   1.493  0.00  0.00    -0.096 F 
ATOM      9  I   UNL d   1      -1.069   2.129  -0.558  0.00  0.00    -0.060 I 
ATOM     10  F2  UNL d   1       0.609   0.403  -2.667  0.00  0.00    -0.096 F 
ATOM     11  F3  UNL d   1       1.327  -2.208  -2.689  0.00  0.00    -0.097 F 
ATOM     12  F4  UNL d   1       0.597  -3.857  -0.642  0.00  0.00    -0.092 F 
ENDROOT
TORSDOF 0
ENDMDL
