MODEL 1
REMARK minimizedAffinity -3.52340126
REMARK minimizedRMSD -1
REMARK  0 active torsions:
REMARK  status: ('A' for Active; 'I' for Inactive)
ROOT
ATOM      1  C   UNL d   1       0.157  -1.991  -0.131  0.00  0.00     0.124 A 
ATOM      2  C1  UNL d   1       0.183  -1.011  -1.114  0.00  0.00     0.062 A 
ATOM      3  C2  UNL d   1       0.322   0.329  -0.763  0.00  0.00     0.162 A 
ATOM      4  C3  UNL d   1       0.437   0.697   0.577  0.00  0.00    -0.034 A 
ATOM      5  C4  UNL d   1       0.408  -0.294   1.560  0.00  0.00     0.162 A 
ATOM      6  C5  UNL d   1       0.270  -1.631   1.205  0.00  0.00     0.062 A 
ATOM      7  F   UNL d   1       0.244  -2.576   2.156  0.00  0.00    -0.097 F 
ATOM      8  F1  UNL d   1       0.516   0.026   2.859  0.00  0.00    -0.096 F 
ATOM      9  I   UNL d   1       0.644   2.699   1.106  0.00  0.00    -0.060 I 
ATOM     10  F2  UNL d   1       0.344   1.254  -1.734  0.00  0.00    -0.096 F 
ATOM     11  F3  UNL d   1       0.073  -1.356  -2.405  0.00  0.00    -0.097 F 
ATOM     12  F4  UNL d   1       0.022  -3.279  -0.471  0.00  0.00    -0.092 F 
ENDROOT
TORSDOF 0
ENDMDL
