MODEL 1
REMARK minimizedAffinity 1.44958723
REMARK minimizedRMSD -1
REMARK  0 active torsions:
REMARK  status: ('A' for Active; 'I' for Inactive)
ROOT
ATOM      1  C   UNL d   1      -0.432  -1.852  -0.406  0.00  0.00     0.124 A 
ATOM      2  C1  UNL d   1      -0.784  -1.337   0.834  0.00  0.00     0.062 A 
ATOM      3  C2  UNL d   1      -0.635   0.022   1.096  0.00  0.00     0.162 A 
ATOM      4  C3  UNL d   1      -0.133   0.877   0.115  0.00  0.00    -0.034 A 
ATOM      5  C4  UNL d   1       0.219   0.352  -1.130  0.00  0.00     0.162 A 
ATOM      6  C5  UNL d   1       0.069  -1.007  -1.387  0.00  0.00     0.062 A 
ATOM      7  F   UNL d   1       0.409  -1.502  -2.586  0.00  0.00    -0.097 F 
ATOM      8  F1  UNL d   1       0.705   1.145  -2.096  0.00  0.00    -0.096 F 
ATOM      9  I   UNL d   1       0.091   2.909   0.502  0.00  0.00    -0.060 I 
ATOM     10  F2  UNL d   1      -0.982   0.491   2.303  0.00  0.00    -0.096 F 
ATOM     11  F3  UNL d   1      -1.267  -2.151   1.783  0.00  0.00    -0.097 F 
ATOM     12  F4  UNL d   1      -0.575  -3.160  -0.655  0.00  0.00    -0.092 F 
ENDROOT
TORSDOF 0
ENDMDL
