MODEL 1
REMARK minimizedAffinity -2.05155087
REMARK minimizedRMSD -1
REMARK  0 active torsions:
REMARK  status: ('A' for Active; 'I' for Inactive)
ROOT
ATOM      1  C   UNL d   1      -0.557  -3.268  -0.450  0.00  0.00     0.124 A 
ATOM      2  C1  UNL d   1      -1.178  -2.409   0.446  0.00  0.00     0.062 A 
ATOM      3  C2  UNL d   1      -0.853  -1.056   0.459  0.00  0.00     0.162 A 
ATOM      4  C3  UNL d   1       0.099  -0.552  -0.428  0.00  0.00    -0.034 A 
ATOM      5  C4  UNL d   1       0.721  -1.423  -1.325  0.00  0.00     0.162 A 
ATOM      6  C5  UNL d   1       0.392  -2.774  -1.334  0.00  0.00     0.062 A 
ATOM      7  F   UNL d   1       0.994  -3.602  -2.200  0.00  0.00    -0.097 F 
ATOM      8  F1  UNL d   1       1.640  -0.972  -2.191  0.00  0.00    -0.096 F 
ATOM      9  I   UNL d   1       0.588   1.470  -0.411  0.00  0.00    -0.060 I 
ATOM     10  F2  UNL d   1      -1.470  -0.249   1.335  0.00  0.00    -0.096 F 
ATOM     11  F3  UNL d   1      -2.095  -2.884   1.302  0.00  0.00    -0.097 F 
ATOM     12  F4  UNL d   1      -0.871  -4.570  -0.460  0.00  0.00    -0.092 F 
ENDROOT
TORSDOF 0
ENDMDL
