MODEL 1
REMARK minimizedAffinity -1.17392731
REMARK minimizedRMSD -1
REMARK  0 active torsions:
REMARK  status: ('A' for Active; 'I' for Inactive)
ROOT
ATOM      1  C   UNL d   1      -0.429  -2.351   0.130  0.00  0.00     0.124 A 
ATOM      2  C1  UNL d   1       0.500  -1.664  -0.640  0.00  0.00     0.062 A 
ATOM      3  C2  UNL d   1       0.703  -0.302  -0.441  0.00  0.00     0.162 A 
ATOM      4  C3  UNL d   1      -0.023   0.384   0.532  0.00  0.00    -0.034 A 
ATOM      5  C4  UNL d   1      -0.956  -0.313   1.302  0.00  0.00     0.162 A 
ATOM      6  C5  UNL d   1      -1.156  -1.675   1.100  0.00  0.00     0.062 A 
ATOM      7  F   UNL d   1      -2.053  -2.336   1.845  0.00  0.00    -0.097 F 
ATOM      8  F1  UNL d   1      -1.671   0.315   2.247  0.00  0.00    -0.096 F 
ATOM      9  I   UNL d   1       0.278   2.421   0.832  0.00  0.00    -0.060 I 
ATOM     10  F2  UNL d   1       1.607   0.336  -1.200  0.00  0.00    -0.096 F 
ATOM     11  F3  UNL d   1       1.203  -2.315  -1.578  0.00  0.00    -0.097 F 
ATOM     12  F4  UNL d   1      -0.623  -3.661  -0.063  0.00  0.00    -0.092 F 
ENDROOT
TORSDOF 0
ENDMDL
