MODEL 1
REMARK minimizedAffinity 2.85265303
REMARK minimizedRMSD -1
REMARK  0 active torsions:
REMARK  status: ('A' for Active; 'I' for Inactive)
ROOT
ATOM      1  C   UNL d   1      -0.691  -2.023  -0.383  0.00  0.00     0.124 A 
ATOM      2  C1  UNL d   1      -0.971  -1.586   0.905  0.00  0.00     0.062 A 
ATOM      3  C2  UNL d   1      -0.761  -0.255   1.253  0.00  0.00     0.162 A 
ATOM      4  C3  UNL d   1      -0.269   0.649   0.312  0.00  0.00    -0.034 A 
ATOM      5  C4  UNL d   1       0.011   0.202  -0.981  0.00  0.00     0.162 A 
ATOM      6  C5  UNL d   1      -0.201  -1.129  -1.324  0.00  0.00     0.062 A 
ATOM      7  F   UNL d   1       0.070  -1.550  -2.568  0.00  0.00    -0.097 F 
ATOM      8  F1  UNL d   1       0.485   1.045  -1.910  0.00  0.00    -0.096 F 
ATOM      9  I   UNL d   1       0.047   2.641   0.828  0.00  0.00    -0.060 I 
ATOM     10  F2  UNL d   1      -1.039   0.140   2.504  0.00  0.00    -0.096 F 
ATOM     11  F3  UNL d   1      -1.444  -2.448   1.816  0.00  0.00    -0.097 F 
ATOM     12  F4  UNL d   1      -0.894  -3.305  -0.715  0.00  0.00    -0.092 F 
ENDROOT
TORSDOF 0
ENDMDL
