MODEL 1
REMARK minimizedAffinity -2.97747946
REMARK minimizedRMSD -1
REMARK  0 active torsions:
REMARK  status: ('A' for Active; 'I' for Inactive)
ROOT
ATOM      1  C   UNL d   1       0.497  -2.264  -0.804  0.00  0.00     0.124 A 
ATOM      2  C1  UNL d   1       0.530  -1.309  -1.811  0.00  0.00     0.062 A 
ATOM      3  C2  UNL d   1       0.465   0.045  -1.496  0.00  0.00     0.162 A 
ATOM      4  C3  UNL d   1       0.368   0.453  -0.165  0.00  0.00    -0.034 A 
ATOM      5  C4  UNL d   1       0.335  -0.512   0.842  0.00  0.00     0.162 A 
ATOM      6  C5  UNL d   1       0.400  -1.864   0.522  0.00  0.00     0.062 A 
ATOM      7  F   UNL d   1       0.369  -2.785   1.496  0.00  0.00    -0.097 F 
ATOM      8  F1  UNL d   1       0.242  -0.154   2.132  0.00  0.00    -0.096 F 
ATOM      9  I   UNL d   1       0.271   2.477   0.311  0.00  0.00    -0.060 I 
ATOM     10  F2  UNL d   1       0.499   0.945  -2.490  0.00  0.00    -0.096 F 
ATOM     11  F3  UNL d   1       0.623  -1.693  -3.093  0.00  0.00    -0.097 F 
ATOM     12  F4  UNL d   1       0.559  -3.566  -1.111  0.00  0.00    -0.092 F 
ENDROOT
TORSDOF 0
ENDMDL
