MODEL 1
REMARK minimizedAffinity -0.533934832
REMARK minimizedRMSD -1
REMARK  0 active torsions:
REMARK  status: ('A' for Active; 'I' for Inactive)
ROOT
ATOM      1  C   UNL d   1      -0.859  -3.088  -0.065  0.00  0.00     0.124 A 
ATOM      2  C1  UNL d   1      -1.669  -2.226   0.661  0.00  0.00     0.062 A 
ATOM      3  C2  UNL d   1      -1.406  -0.859   0.671  0.00  0.00     0.162 A 
ATOM      4  C3  UNL d   1      -0.328  -0.345  -0.050  0.00  0.00    -0.034 A 
ATOM      5  C4  UNL d   1       0.483  -1.218  -0.777  0.00  0.00     0.162 A 
ATOM      6  C5  UNL d   1       0.216  -2.583  -0.784  0.00  0.00     0.062 A 
ATOM      7  F   UNL d   1       1.000  -3.414  -1.486  0.00  0.00    -0.097 F 
ATOM      8  F1  UNL d   1       1.528  -0.757  -1.481  0.00  0.00    -0.096 F 
ATOM      9  I   UNL d   1       0.068   1.698  -0.038  0.00  0.00    -0.060 I 
ATOM     10  F2  UNL d   1      -2.206  -0.050   1.381  0.00  0.00    -0.096 F 
ATOM     11  F3  UNL d   1      -2.708  -2.711   1.357  0.00  0.00    -0.097 F 
ATOM     12  F4  UNL d   1      -1.114  -4.402  -0.072  0.00  0.00    -0.092 F 
ENDROOT
TORSDOF 0
ENDMDL
