MODEL 1
REMARK minimizedAffinity -3.15710902
REMARK minimizedRMSD -1
REMARK  0 active torsions:
REMARK  status: ('A' for Active; 'I' for Inactive)
ROOT
ATOM      1  C   UNL d   1      -0.592  -2.676   0.329  0.00  0.00     0.124 A 
ATOM      2  C1  UNL d   1       0.426  -2.092  -0.413  0.00  0.00     0.062 A 
ATOM      3  C2  UNL d   1       0.655  -0.722  -0.331  0.00  0.00     0.162 A 
ATOM      4  C3  UNL d   1      -0.135   0.075   0.497  0.00  0.00    -0.034 A 
ATOM      5  C4  UNL d   1      -1.157  -0.519   1.240  0.00  0.00     0.162 A 
ATOM      6  C5  UNL d   1      -1.382  -1.889   1.155  0.00  0.00     0.062 A 
ATOM      7  F   UNL d   1      -2.365  -2.451   1.873  0.00  0.00    -0.097 F 
ATOM      8  F1  UNL d   1      -1.935   0.218   2.047  0.00  0.00    -0.096 F 
ATOM      9  I   UNL d   1       0.204   2.125   0.623  0.00  0.00    -0.060 I 
ATOM     10  F2  UNL d   1       1.645  -0.185  -1.060  0.00  0.00    -0.096 F 
ATOM     11  F3  UNL d   1       1.190  -2.851  -1.212  0.00  0.00    -0.097 F 
ATOM     12  F4  UNL d   1      -0.810  -3.995   0.248  0.00  0.00    -0.092 F 
ENDROOT
TORSDOF 0
ENDMDL
