MODEL 1
REMARK minimizedAffinity 6.93198204
REMARK minimizedRMSD -1
REMARK  0 active torsions:
REMARK  status: ('A' for Active; 'I' for Inactive)
ROOT
ATOM      1  C   UNL d   1       2.164   3.389   1.749  0.00  0.00     0.124 A 
ATOM      2  C1  UNL d   1       2.413   4.234   0.677  0.00  0.00     0.062 A 
ATOM      3  C2  UNL d   1       1.400   4.530  -0.231  0.00  0.00     0.162 A 
ATOM      4  C3  UNL d   1       0.127   3.982  -0.068  0.00  0.00    -0.034 A 
ATOM      5  C4  UNL d   1      -0.115   3.133   1.012  0.00  0.00     0.162 A 
ATOM      6  C5  UNL d   1       0.901   2.839   1.916  0.00  0.00     0.062 A 
ATOM      7  F   UNL d   1       0.658   2.023   2.952  0.00  0.00    -0.097 F 
ATOM      8  F1  UNL d   1      -1.327   2.589   1.198  0.00  0.00    -0.096 F 
ATOM      9  I   UNL d   1      -1.390   4.424  -1.423  0.00  0.00    -0.060 I 
ATOM     10  F2  UNL d   1       1.669   5.350  -1.258  0.00  0.00    -0.096 F 
ATOM     11  F3  UNL d   1       3.633   4.765   0.513  0.00  0.00    -0.097 F 
ATOM     12  F4  UNL d   1       3.141   3.104   2.620  0.00  0.00    -0.092 F 
ENDROOT
TORSDOF 0
ENDMDL
