MODEL 1
REMARK minimizedAffinity 8.53414631
REMARK minimizedRMSD -1
REMARK  0 active torsions:
REMARK  status: ('A' for Active; 'I' for Inactive)
ROOT
ATOM      1  C   UNL d   1      -0.161  -1.899  -0.712  0.00  0.00     0.124 A 
ATOM      2  C1  UNL d   1      -0.107  -3.205  -1.181  0.00  0.00     0.062 A 
ATOM      3  C2  UNL d   1       1.101  -3.896  -1.188  0.00  0.00     0.162 A 
ATOM      4  C3  UNL d   1       2.265  -3.284  -0.725  0.00  0.00    -0.034 A 
ATOM      5  C4  UNL d   1       2.203  -1.971  -0.256  0.00  0.00     0.162 A 
ATOM      6  C5  UNL d   1       0.994  -1.284  -0.251  0.00  0.00     0.062 A 
ATOM      7  F   UNL d   1       0.943  -0.022   0.202  0.00  0.00    -0.097 F 
ATOM      8  F1  UNL d   1       3.304  -1.352   0.197  0.00  0.00    -0.096 F 
ATOM      9  I   UNL d   1       4.073  -4.315  -0.734  0.00  0.00    -0.060 I 
ATOM     10  F2  UNL d   1       1.123  -5.157  -1.646  0.00  0.00    -0.096 F 
ATOM     11  F3  UNL d   1      -1.221  -3.802  -1.628  0.00  0.00    -0.097 F 
ATOM     12  F4  UNL d   1      -1.325  -1.236  -0.707  0.00  0.00    -0.092 F 
ENDROOT
TORSDOF 0
ENDMDL
