MODEL 1
REMARK minimizedAffinity 18.4201012
REMARK minimizedRMSD -1
REMARK  0 active torsions:
REMARK  status: ('A' for Active; 'I' for Inactive)
ROOT
ATOM      1  C   UNL d   1      -0.315   4.118   0.421  0.00  0.00     0.124 A 
ATOM      2  C1  UNL d   1      -0.472   3.672  -0.884  0.00  0.00     0.062 A 
ATOM      3  C2  UNL d   1      -0.323   2.321  -1.185  0.00  0.00     0.162 A 
ATOM      4  C3  UNL d   1      -0.017   1.405  -0.178  0.00  0.00    -0.034 A 
ATOM      5  C4  UNL d   1       0.140   1.862   1.132  0.00  0.00     0.162 A 
ATOM      6  C5  UNL d   1      -0.009   3.213   1.427  0.00  0.00     0.062 A 
ATOM      7  F   UNL d   1       0.143   3.642   2.689  0.00  0.00    -0.097 F 
ATOM      8  F1  UNL d   1       0.435   1.008   2.124  0.00  0.00    -0.096 F 
ATOM      9  I   UNL d   1       0.206  -0.615  -0.624  0.00  0.00    -0.060 I 
ATOM     10  F2  UNL d   1      -0.480   1.918  -2.455  0.00  0.00    -0.096 F 
ATOM     11  F3  UNL d   1      -0.766   4.545  -1.859  0.00  0.00    -0.097 F 
ATOM     12  F4  UNL d   1      -0.457   5.418   0.707  0.00  0.00    -0.092 F 
ENDROOT
TORSDOF 0
ENDMDL
