MODEL 1
REMARK minimizedAffinity 20.6082878
REMARK minimizedRMSD -1
REMARK  0 active torsions:
REMARK  status: ('A' for Active; 'I' for Inactive)
ROOT
ATOM      1  C   UNL d   1      -0.860   4.668  -0.736  0.00  0.00     0.124 A 
ATOM      2  C1  UNL d   1      -1.870   5.153  -1.556  0.00  0.00     0.062 A 
ATOM      3  C2  UNL d   1      -1.588   5.534  -2.864  0.00  0.00     0.162 A 
ATOM      4  C3  UNL d   1      -0.289   5.431  -3.362  0.00  0.00    -0.034 A 
ATOM      5  C4  UNL d   1       0.722   4.943  -2.532  0.00  0.00     0.162 A 
ATOM      6  C5  UNL d   1       0.434   4.563  -1.225  0.00  0.00     0.062 A 
ATOM      7  F   UNL d   1       1.411   4.095  -0.435  0.00  0.00    -0.097 F 
ATOM      8  F1  UNL d   1       1.981   4.830  -2.979  0.00  0.00    -0.096 F 
ATOM      9  I   UNL d   1       0.138   6.000  -5.318  0.00  0.00    -0.060 I 
ATOM     10  F2  UNL d   1      -2.583   6.000  -3.633  0.00  0.00    -0.096 F 
ATOM     11  F3  UNL d   1      -3.122   5.256  -1.085  0.00  0.00    -0.097 F 
ATOM     12  F4  UNL d   1      -1.135   4.303   0.523  0.00  0.00    -0.092 F 
ENDROOT
TORSDOF 0
ENDMDL
