MODEL 1
REMARK minimizedAffinity 12.0141964
REMARK minimizedRMSD -1
REMARK  0 active torsions:
REMARK  status: ('A' for Active; 'I' for Inactive)
ROOT
ATOM      1  C   UNL d   1       0.541   2.348   3.091  0.00  0.00     0.124 A 
ATOM      2  C1  UNL d   1      -0.494   1.761   2.375  0.00  0.00     0.062 A 
ATOM      3  C2  UNL d   1      -0.720   2.120   1.050  0.00  0.00     0.162 A 
ATOM      4  C3  UNL d   1       0.091   3.070   0.430  0.00  0.00    -0.034 A 
ATOM      5  C4  UNL d   1       1.129   3.657   1.156  0.00  0.00     0.162 A 
ATOM      6  C5  UNL d   1       1.351   3.295   2.481  0.00  0.00     0.062 A 
ATOM      7  F   UNL d   1       2.351   3.863   3.170  0.00  0.00    -0.097 F 
ATOM      8  F1  UNL d   1       1.928   4.574   0.591  0.00  0.00    -0.096 F 
ATOM      9  I   UNL d   1      -0.244   3.609  -1.552  0.00  0.00    -0.060 I 
ATOM     10  F2  UNL d   1      -1.727   1.536   0.383  0.00  0.00    -0.096 F 
ATOM     11  F3  UNL d   1      -1.279   0.846   2.963  0.00  0.00    -0.097 F 
ATOM     12  F4  UNL d   1       0.755   2.002   4.366  0.00  0.00    -0.092 F 
ENDROOT
TORSDOF 0
ENDMDL
