MODEL 1
REMARK minimizedAffinity 17.2401428
REMARK minimizedRMSD -1
REMARK  0 active torsions:
REMARK  status: ('A' for Active; 'I' for Inactive)
ROOT
ATOM      1  C   UNL d   1      -5.130   0.651  -4.205  0.00  0.00     0.124 A 
ATOM      2  C1  UNL d   1      -5.570   0.580  -2.891  0.00  0.00     0.062 A 
ATOM      3  C2  UNL d   1      -5.566   1.717  -2.088  0.00  0.00     0.162 A 
ATOM      4  C3  UNL d   1      -5.121   2.937  -2.598  0.00  0.00    -0.034 A 
ATOM      5  C4  UNL d   1      -4.678   3.001  -3.921  0.00  0.00     0.162 A 
ATOM      6  C5  UNL d   1      -4.684   1.861  -4.719  0.00  0.00     0.062 A 
ATOM      7  F   UNL d   1      -4.259   1.932  -5.988  0.00  0.00    -0.097 F 
ATOM      8  F1  UNL d   1      -4.244   4.157  -4.443  0.00  0.00    -0.096 F 
ATOM      9  I   UNL d   1      -5.113   4.639  -1.401  0.00  0.00    -0.060 I 
ATOM     10  F2  UNL d   1      -5.997   1.619  -0.822  0.00  0.00    -0.096 F 
ATOM     11  F3  UNL d   1      -6.000  -0.588  -2.392  0.00  0.00    -0.097 F 
ATOM     12  F4  UNL d   1      -5.134  -0.445  -4.975  0.00  0.00    -0.092 F 
ENDROOT
TORSDOF 0
ENDMDL
