MODEL 1
REMARK minimizedAffinity 16.8708172
REMARK minimizedRMSD -1
REMARK  0 active torsions:
REMARK  status: ('A' for Active; 'I' for Inactive)
ROOT
ATOM      1  C   UNL d   1      -0.848  -3.927  -3.759  0.00  0.00     0.124 A 
ATOM      2  C1  UNL d   1      -0.683  -4.293  -2.431  0.00  0.00     0.062 A 
ATOM      3  C2  UNL d   1       0.504  -4.885  -2.010  0.00  0.00     0.162 A 
ATOM      4  C3  UNL d   1       1.537  -5.114  -2.919  0.00  0.00    -0.034 A 
ATOM      5  C4  UNL d   1       1.363  -4.744  -4.254  0.00  0.00     0.162 A 
ATOM      6  C5  UNL d   1       0.174  -4.153  -4.669  0.00  0.00     0.062 A 
ATOM      7  F   UNL d   1       0.017  -3.800  -5.954  0.00  0.00    -0.097 F 
ATOM      8  F1  UNL d   1       2.336  -4.950  -5.155  0.00  0.00    -0.096 F 
ATOM      9  I   UNL d   1       3.314  -5.999  -2.295  0.00  0.00    -0.060 I 
ATOM     10  F2  UNL d   1       0.637  -5.229  -0.720  0.00  0.00    -0.096 F 
ATOM     11  F3  UNL d   1      -1.670  -4.077  -1.549  0.00  0.00    -0.097 F 
ATOM     12  F4  UNL d   1      -1.992  -3.359  -4.161  0.00  0.00    -0.092 F 
ENDROOT
TORSDOF 0
ENDMDL
