MODEL 1
REMARK minimizedAffinity 9.44551086
REMARK minimizedRMSD -1
REMARK  0 active torsions:
REMARK  status: ('A' for Active; 'I' for Inactive)
ROOT
ATOM      1  C1  DEN d   1      -0.447   5.003  -2.755  0.00  0.00     0.130 A 
ATOM      2  C2  DEN d   1      -1.505   6.000  -2.621  0.00  0.00    -0.031 A 
ATOM      3  C3  DEN d   1      -1.957   5.999  -1.216  0.00  0.00     0.027 A 
ATOM      4  C4  DEN d   1      -1.123   4.563   0.757  0.00  0.00     0.027 A 
ATOM      5  C5  DEN d   1      -0.245   3.568   1.129  0.00  0.00    -0.003 A 
ATOM      6  C6  DEN d   1       0.595   2.963   0.233  0.00  0.00     0.001 A 
ATOM      7  C7  DEN d   1       0.609   3.379  -1.072  0.00  0.00     0.017 A 
ATOM      8  C8  DEN d   1      -0.278   4.376  -1.457  0.00  0.00    -0.094 A 
ATOM      9  C9  DEN d   1      -1.111   4.984  -0.533  0.00  0.00    -0.072 A 
ENDROOT
TORSDOF 0
ENDMDL
