MODEL 1
REMARK minimizedAffinity 1.11741281
REMARK minimizedRMSD -1
REMARK  0 active torsions:
REMARK  status: ('A' for Active; 'I' for Inactive)
ROOT
ATOM      1  C1  DEN d   1      -1.652   1.719  -2.445  0.00  0.00     0.130 A 
ATOM      2  C2  DEN d   1      -1.296   0.487  -1.746  0.00  0.00    -0.031 A 
ATOM      3  C3  DEN d   1      -0.448   0.846  -0.591  0.00  0.00     0.027 A 
ATOM      4  C4  DEN d   1       0.341   3.177   0.180  0.00  0.00     0.027 A 
ATOM      5  C5  DEN d   1       0.304   4.525  -0.102  0.00  0.00    -0.003 A 
ATOM      6  C6  DEN d   1      -0.354   5.025  -1.194  0.00  0.00     0.001 A 
ATOM      7  C7  DEN d   1      -1.039   4.175  -2.021  0.00  0.00     0.017 A 
ATOM      8  C8  DEN d   1      -1.001   2.814  -1.748  0.00  0.00    -0.094 A 
ATOM      9  C9  DEN d   1      -0.341   2.329  -0.631  0.00  0.00    -0.072 A 
ENDROOT
TORSDOF 0
ENDMDL
