MODEL 1
REMARK minimizedAffinity 13.0329933
REMARK minimizedRMSD -1
REMARK  0 active torsions:
REMARK  status: ('A' for Active; 'I' for Inactive)
ROOT
ATOM      1  C1  DEN d   1      -5.970   1.991  -5.686  0.00  0.00     0.130 A 
ATOM      2  C2  DEN d   1      -4.885   1.015  -5.662  0.00  0.00    -0.031 A 
ATOM      3  C3  DEN d   1      -3.607   1.750  -5.754  0.00  0.00     0.027 A 
ATOM      4  C4  DEN d   1      -3.207   4.292  -5.925  0.00  0.00     0.027 A 
ATOM      5  C5  DEN d   1      -3.821   5.523  -5.994  0.00  0.00    -0.003 A 
ATOM      6  C6  DEN d   1      -5.184   5.660  -5.998  0.00  0.00     0.001 A 
ATOM      7  C7  DEN d   1      -5.978   4.549  -5.888  0.00  0.00     0.017 A 
ATOM      8  C8  DEN d   1      -5.366   3.304  -5.826  0.00  0.00    -0.094 A 
ATOM      9  C9  DEN d   1      -3.987   3.187  -5.811  0.00  0.00    -0.072 A 
ENDROOT
TORSDOF 0
ENDMDL
