MODEL 1
REMARK minimizedAffinity 14.0922318
REMARK minimizedRMSD -1
REMARK  0 active torsions:
REMARK  status: ('A' for Active; 'I' for Inactive)
ROOT
ATOM      1  C1  DEN d   1       3.725  -1.536  -0.864  0.00  0.00     0.130 A 
ATOM      2  C2  DEN d   1       4.485  -2.770  -0.690  0.00  0.00    -0.031 A 
ATOM      3  C3  DEN d   1       3.543  -3.903  -0.783  0.00  0.00     0.027 A 
ATOM      4  C4  DEN d   1       0.995  -3.866  -1.181  0.00  0.00     0.027 A 
ATOM      5  C5  DEN d   1      -0.099  -3.052  -1.375  0.00  0.00    -0.003 A 
ATOM      6  C6  DEN d   1      -0.001  -1.686  -1.379  0.00  0.00     0.001 A 
ATOM      7  C7  DEN d   1       1.225  -1.093  -1.229  0.00  0.00     0.017 A 
ATOM      8  C8  DEN d   1       2.331  -1.907  -1.025  0.00  0.00    -0.094 A 
ATOM      9  C9  DEN d   1       2.213  -3.286  -1.037  0.00  0.00    -0.072 A 
ENDROOT
TORSDOF 0
ENDMDL
