MODEL 1
REMARK minimizedAffinity 4.82877207
REMARK minimizedRMSD -1
REMARK  0 active torsions:
REMARK  status: ('A' for Active; 'I' for Inactive)
ROOT
ATOM      1  C1  DEN d   1      -0.683   4.009  -0.174  0.00  0.00     0.130 A 
ATOM      2  C2  DEN d   1       0.691   3.848   0.296  0.00  0.00    -0.031 A 
ATOM      3  C3  DEN d   1       1.590   4.454  -0.706  0.00  0.00     0.027 A 
ATOM      4  C4  DEN d   1       0.993   5.625  -2.925  0.00  0.00     0.027 A 
ATOM      5  C5  DEN d   1      -0.041   5.994  -3.757  0.00  0.00    -0.003 A 
ATOM      6  C6  DEN d   1      -1.348   5.699  -3.472  0.00  0.00     0.001 A 
ATOM      7  C7  DEN d   1      -1.659   5.055  -2.304  0.00  0.00     0.017 A 
ATOM      8  C8  DEN d   1      -0.622   4.674  -1.463  0.00  0.00    -0.094 A 
ATOM      9  C9  DEN d   1       0.692   4.992  -1.763  0.00  0.00    -0.072 A 
ENDROOT
TORSDOF 0
ENDMDL
