MODEL 1
REMARK minimizedAffinity 3.89915943
REMARK minimizedRMSD -1
REMARK  0 active torsions:
REMARK  status: ('A' for Active; 'I' for Inactive)
ROOT
ATOM      1  C1  DEN d   1       0.291  -1.170  -1.059  0.00  0.00     0.130 A 
ATOM      2  C2  DEN d   1       1.343  -1.541  -0.117  0.00  0.00    -0.031 A 
ATOM      3  C3  DEN d   1       1.540  -3.002  -0.205  0.00  0.00     0.027 A 
ATOM      4  C4  DEN d   1       0.329  -4.715  -1.706  0.00  0.00     0.027 A 
ATOM      5  C5  DEN d   1      -0.648  -4.876  -2.663  0.00  0.00    -0.003 A 
ATOM      6  C6  DEN d   1      -1.398  -3.827  -3.124  0.00  0.00     0.001 A 
ATOM      7  C7  DEN d   1      -1.152  -2.561  -2.661  0.00  0.00     0.017 A 
ATOM      8  C8  DEN d   1      -0.173  -2.392  -1.690  0.00  0.00    -0.094 A 
ATOM      9  C9  DEN d   1       0.583  -3.463  -1.246  0.00  0.00    -0.072 A 
ENDROOT
TORSDOF 0
ENDMDL
