MODEL 1
REMARK minimizedAffinity 16.7511845
REMARK minimizedRMSD -1
REMARK  0 active torsions:
REMARK  status: ('A' for Active; 'I' for Inactive)
ROOT
ATOM      1  C1  DEN d   1      -0.531   2.899  -0.180  0.00  0.00     0.130 A 
ATOM      2  C2  DEN d   1      -0.142   4.007  -1.049  0.00  0.00    -0.031 A 
ATOM      3  C3  DEN d   1       0.787   4.873  -0.296  0.00  0.00     0.027 A 
ATOM      4  C4  DEN d   1       1.659   4.606   2.117  0.00  0.00     0.027 A 
ATOM      5  C5  DEN d   1       1.600   3.828   3.252  0.00  0.00    -0.003 A 
ATOM      6  C6  DEN d   1       0.808   2.714   3.334  0.00  0.00     0.001 A 
ATOM      7  C7  DEN d   1       0.075   2.321   2.245  0.00  0.00     0.017 A 
ATOM      8  C8  DEN d   1       0.123   3.104   1.099  0.00  0.00    -0.094 A 
ATOM      9  C9  DEN d   1       0.941   4.220   1.032  0.00  0.00    -0.072 A 
ENDROOT
TORSDOF 0
ENDMDL
