MODEL 1
REMARK minimizedAffinity 9.50540924
REMARK minimizedRMSD -1
REMARK  0 active torsions:
REMARK  status: ('A' for Active; 'I' for Inactive)
ROOT
ATOM      1  C1  DEN d   1       3.120  -4.696  -2.523  0.00  0.00     0.130 A 
ATOM      2  C2  DEN d   1       3.761  -5.999  -2.676  0.00  0.00    -0.031 A 
ATOM      3  C3  DEN d   1       5.008  -5.991  -1.885  0.00  0.00     0.027 A 
ATOM      4  C4  DEN d   1       6.000  -4.099  -0.440  0.00  0.00     0.027 A 
ATOM      5  C5  DEN d   1       5.821  -2.802  -0.011  0.00  0.00    -0.003 A 
ATOM      6  C6  DEN d   1       4.755  -2.041  -0.413  0.00  0.00     0.001 A 
ATOM      7  C7  DEN d   1       3.803  -2.585  -1.234  0.00  0.00     0.017 A 
ATOM      8  C8  DEN d   1       3.981  -3.890  -1.677  0.00  0.00    -0.094 A 
ATOM      9  C9  DEN d   1       5.058  -4.647  -1.249  0.00  0.00    -0.072 A 
ENDROOT
TORSDOF 0
ENDMDL
