MODEL 1
REMARK minimizedAffinity 3.25301886
REMARK minimizedRMSD -1
REMARK  0 active torsions:
REMARK  status: ('A' for Active; 'I' for Inactive)
ROOT
ATOM      1  C1  DEN d   1      -0.191   3.520   1.822  0.00  0.00     0.130 A 
ATOM      2  C2  DEN d   1      -0.064   2.089   1.558  0.00  0.00    -0.031 A 
ATOM      3  C3  DEN d   1      -0.205   1.879   0.103  0.00  0.00     0.027 A 
ATOM      4  C4  DEN d   1      -0.601   3.622  -1.757  0.00  0.00     0.027 A 
ATOM      5  C5  DEN d   1      -0.788   4.961  -2.019  0.00  0.00    -0.003 A 
ATOM      6  C6  DEN d   1      -0.823   5.902  -1.024  0.00  0.00     0.001 A 
ATOM      7  C7  DEN d   1      -0.624   5.522   0.277  0.00  0.00     0.017 A 
ATOM      8  C8  DEN d   1      -0.441   4.173   0.550  0.00  0.00    -0.094 A 
ATOM      9  C9  DEN d   1      -0.397   3.238  -0.471  0.00  0.00    -0.072 A 
ENDROOT
TORSDOF 0
ENDMDL
