MODEL 1
REMARK minimizedAffinity -2.02412653
REMARK minimizedRMSD -1
REMARK  0 active torsions:
REMARK  status: ('A' for Active; 'I' for Inactive)
ROOT
ATOM      1  C1  BNZ d   1      -2.679   1.278  -1.967  0.00  0.00     0.000 A 
ATOM      2  C2  BNZ d   1      -2.996   2.126  -2.995  0.00  0.00     0.000 A 
ATOM      3  C3  BNZ d   1      -2.844   1.736  -4.296  0.00  0.00     0.000 A 
ATOM      4  C4  BNZ d   1      -2.338   0.516  -4.567  0.00  0.00     0.000 A 
ATOM      5  C5  BNZ d   1      -2.005  -0.347  -3.542  0.00  0.00     0.000 A 
ATOM      6  C6  BNZ d   1      -2.196   0.034  -2.234  0.00  0.00     0.000 A 
ENDROOT
TORSDOF 0
ENDMDL
