MODEL 1
REMARK minimizedAffinity -3.45114207
REMARK minimizedRMSD -1
REMARK  0 active torsions:
REMARK  status: ('A' for Active; 'I' for Inactive)
ROOT
ATOM      1  C1  BNZ d   1      -3.632   2.491  -2.468  0.00  0.00     0.000 A 
ATOM      2  C2  BNZ d   1      -3.648   2.877  -3.782  0.00  0.00     0.000 A 
ATOM      3  C3  BNZ d   1      -4.828   3.155  -4.415  0.00  0.00     0.000 A 
ATOM      4  C4  BNZ d   1      -5.990   3.008  -3.746  0.00  0.00     0.000 A 
ATOM      5  C5  BNZ d   1      -5.990   2.610  -2.424  0.00  0.00     0.000 A 
ATOM      6  C6  BNZ d   1      -4.799   2.369  -1.779  0.00  0.00     0.000 A 
ENDROOT
TORSDOF 0
ENDMDL
