MODEL 1
REMARK minimizedAffinity 2.55878758
REMARK minimizedRMSD -1
REMARK  0 active torsions:
REMARK  status: ('A' for Active; 'I' for Inactive)
ROOT
ATOM      1  C1  BNZ d   1      -1.116  -3.646  -1.879  0.00  0.00     0.000 A 
ATOM      2  C2  BNZ d   1      -0.796  -4.923  -1.501  0.00  0.00     0.000 A 
ATOM      3  C3  BNZ d   1       0.354  -5.180  -0.809  0.00  0.00     0.000 A 
ATOM      4  C4  BNZ d   1       1.201  -4.169  -0.532  0.00  0.00     0.000 A 
ATOM      5  C5  BNZ d   1       0.897  -2.877  -0.914  0.00  0.00     0.000 A 
ATOM      6  C6  BNZ d   1      -0.280  -2.616  -1.577  0.00  0.00     0.000 A 
ENDROOT
TORSDOF 0
ENDMDL
