MODEL 1
REMARK minimizedAffinity -1.38934481
REMARK minimizedRMSD -1
REMARK  0 active torsions:
REMARK  status: ('A' for Active; 'I' for Inactive)
ROOT
ATOM      1  C1  BNZ d   1      -3.218   1.378  -6.000  0.00  0.00     0.000 A 
ATOM      2  C2  BNZ d   1      -3.837   2.599  -5.996  0.00  0.00     0.000 A 
ATOM      3  C3  BNZ d   1      -5.201   2.693  -5.969  0.00  0.00     0.000 A 
ATOM      4  C4  BNZ d   1      -5.943   1.567  -5.986  0.00  0.00     0.000 A 
ATOM      5  C5  BNZ d   1      -5.334   0.329  -6.000  0.00  0.00     0.000 A 
ATOM      6  C6  BNZ d   1      -3.961   0.238  -5.988  0.00  0.00     0.000 A 
ENDROOT
TORSDOF 0
ENDMDL
