MODEL 1
REMARK minimizedAffinity 2.98243523
REMARK minimizedRMSD -1
REMARK  0 active torsions:
REMARK  status: ('A' for Active; 'I' for Inactive)
ROOT
ATOM      1  C1  BNZ d   1      -0.466   3.389   0.396  0.00  0.00     0.000 A 
ATOM      2  C2  BNZ d   1      -0.555   2.899  -0.880  0.00  0.00     0.000 A 
ATOM      3  C3  BNZ d   1       0.226   1.853  -1.284  0.00  0.00     0.000 A 
ATOM      4  C4  BNZ d   1       1.122   1.324  -0.426  0.00  0.00     0.000 A 
ATOM      5  C5  BNZ d   1       1.230   1.812   0.861  0.00  0.00     0.000 A 
ATOM      6  C6  BNZ d   1       0.414   2.840   1.276  0.00  0.00     0.000 A 
ENDROOT
TORSDOF 0
ENDMDL
