MODEL 1
REMARK minimizedAffinity -4.10067701
REMARK minimizedRMSD -1
REMARK  0 active torsions:
REMARK  status: ('A' for Active; 'I' for Inactive)
ROOT
ATOM      1  C1  BNZ d   1      -4.037   0.405  -5.902  0.00  0.00     0.000 A 
ATOM      2  C2  BNZ d   1      -5.308   0.079  -5.511  0.00  0.00     0.000 A 
ATOM      3  C3  BNZ d   1      -5.999   0.877  -4.642  0.00  0.00     0.000 A 
ATOM      4  C4  BNZ d   1      -5.404   1.975  -4.134  0.00  0.00     0.000 A 
ATOM      5  C5  BNZ d   1      -4.120   2.312  -4.511  0.00  0.00     0.000 A 
ATOM      6  C6  BNZ d   1      -3.442   1.528  -5.416  0.00  0.00     0.000 A 
ENDROOT
TORSDOF 0
ENDMDL
