MODEL 1
REMARK minimizedAffinity 2.06011605
REMARK minimizedRMSD -1
REMARK  0 active torsions:
REMARK  status: ('A' for Active; 'I' for Inactive)
ROOT
ATOM      1  C1  BNZ d   1      -0.841   3.248   0.120  0.00  0.00     0.000 A 
ATOM      2  C2  BNZ d   1      -0.375   4.137  -0.812  0.00  0.00     0.000 A 
ATOM      3  C3  BNZ d   1       0.932   4.536  -0.806  0.00  0.00     0.000 A 
ATOM      4  C4  BNZ d   1       1.761   4.077   0.153  0.00  0.00     0.000 A 
ATOM      5  C5  BNZ d   1       1.304   3.187   1.105  0.00  0.00     0.000 A 
ATOM      6  C6  BNZ d   1      -0.003   2.758   1.073  0.00  0.00     0.000 A 
ENDROOT
TORSDOF 0
ENDMDL
