MODEL 1
REMARK minimizedAffinity 3.66938663
REMARK minimizedRMSD -1
REMARK  0 active torsions:
REMARK  status: ('A' for Active; 'I' for Inactive)
ROOT
ATOM      1  C1  BNZ d   1       1.417  -4.560  -0.457  0.00  0.00     0.000 A 
ATOM      2  C2  BNZ d   1       0.855  -3.339  -0.721  0.00  0.00     0.000 A 
ATOM      3  C3  BNZ d   1      -0.402  -3.247  -1.251  0.00  0.00     0.000 A 
ATOM      4  C4  BNZ d   1      -1.079  -4.374  -1.552  0.00  0.00     0.000 A 
ATOM      5  C5  BNZ d   1      -0.522  -5.612  -1.300  0.00  0.00     0.000 A 
ATOM      6  C6  BNZ d   1       0.727  -5.701  -0.731  0.00  0.00     0.000 A 
ENDROOT
TORSDOF 0
ENDMDL
