MODEL 1
REMARK minimizedAffinity 2.27306724
REMARK minimizedRMSD -1
REMARK  0 active torsions:
REMARK  status: ('A' for Active; 'I' for Inactive)
ROOT
ATOM      1  C1  BNZ d   1       1.205   5.068  -1.007  0.00  0.00     0.000 A 
ATOM      2  C2  BNZ d   1       1.404   3.717  -0.905  0.00  0.00     0.000 A 
ATOM      3  C3  BNZ d   1       0.347   2.863  -0.756  0.00  0.00     0.000 A 
ATOM      4  C4  BNZ d   1      -0.902   3.363  -0.669  0.00  0.00     0.000 A 
ATOM      5  C5  BNZ d   1      -1.118   4.724  -0.761  0.00  0.00     0.000 A 
ATOM      6  C6  BNZ d   1      -0.055   5.577  -0.950  0.00  0.00     0.000 A 
ENDROOT
TORSDOF 0
ENDMDL
