MODEL 1
REMARK minimizedAffinity 3.97395158
REMARK minimizedRMSD -1
REMARK  1 active torsions:
REMARK  status: ('A' for Active; 'I' for Inactive)
REMARK    1  A    between atoms: C1_2  and  C2_3 
ROOT
ATOM      1  C2  UNL d   1      -4.344   0.971  -4.879  0.00  0.00    -0.081 A 
ATOM      2  C3  UNL d   1      -3.748   0.399  -3.748  0.00  0.00     0.006 A 
ATOM      3  C4  UNL d   1      -3.331   1.203  -2.684  0.00  0.00     0.002 A 
ATOM      4  C5  UNL d   1      -3.510   2.589  -2.730  0.00  0.00    -0.080 A 
ATOM      5  C6  UNL d   1      -3.095   3.460  -1.581  0.00  0.00     0.076 C 
ATOM      6  C7  UNL d   1      -4.090   3.163  -3.867  0.00  0.00     0.002 A 
ATOM      7  C8  UNL d   1      -4.506   2.360  -4.931  0.00  0.00     0.006 A 
ENDROOT
BRANCH   1   8
ATOM      8  C1  UNL d   1      -4.853   0.101  -6.000  0.00  0.00     0.054 C 
ATOM      9  C   UNL d   1      -4.464  -1.355  -5.790  0.00  0.00     0.018 C 
ENDBRANCH   1   8
TORSDOF 1
ENDMDL
