MODEL 1
REMARK minimizedAffinity 0.123086691
REMARK minimizedRMSD -1
REMARK  1 active torsions:
REMARK  status: ('A' for Active; 'I' for Inactive)
REMARK    1  A    between atoms: C1_2  and  C2_3 
ROOT
ATOM      1  C2  UNL d   1       3.891  -5.873  -4.507  0.00  0.00    -0.081 A 
ATOM      2  C3  UNL d   1       4.705  -5.997  -3.375  0.00  0.00     0.006 A 
ATOM      3  C4  UNL d   1       4.150  -5.940  -2.094  0.00  0.00     0.002 A 
ATOM      4  C5  UNL d   1       2.772  -5.766  -1.924  0.00  0.00    -0.080 A 
ATOM      5  C6  UNL d   1       2.160  -5.734  -0.556  0.00  0.00     0.076 C 
ATOM      6  C7  UNL d   1       1.961  -5.626  -3.055  0.00  0.00     0.002 A 
ATOM      7  C8  UNL d   1       2.515  -5.682  -4.336  0.00  0.00     0.006 A 
ENDROOT
BRANCH   1   8
ATOM      8  C1  UNL d   1       4.477  -5.999  -5.890  0.00  0.00     0.054 C 
ATOM      9  C   UNL d   1       5.998  -5.995  -5.848  0.00  0.00     0.018 C 
ENDBRANCH   1   8
TORSDOF 1
ENDMDL
