MODEL 1
REMARK minimizedAffinity 8.05034637
REMARK minimizedRMSD -1
REMARK  1 active torsions:
REMARK  status: ('A' for Active; 'I' for Inactive)
REMARK    1  A    between atoms: C1_2  and  C2_3 
ROOT
ATOM      1  C2  UNL d   1       1.994  -1.081   2.296  0.00  0.00    -0.081 A 
ATOM      2  C3  UNL d   1       2.416   0.148   2.816  0.00  0.00     0.006 A 
ATOM      3  C4  UNL d   1       2.511   1.271   1.990  0.00  0.00     0.002 A 
ATOM      4  C5  UNL d   1       2.177   1.186   0.634  0.00  0.00    -0.080 A 
ATOM      5  C6  UNL d   1       2.245   2.391  -0.256  0.00  0.00     0.076 C 
ATOM      6  C7  UNL d   1       1.771  -0.047   0.111  0.00  0.00     0.002 A 
ATOM      7  C8  UNL d   1       1.677  -1.170   0.936  0.00  0.00     0.006 A 
ENDROOT
BRANCH   1   8
ATOM      8  C1  UNL d   1       1.829  -2.279   3.197  0.00  0.00     0.054 C 
ATOM      9  C   UNL d   1       3.155  -2.688   3.821  0.00  0.00     0.018 C 
ENDBRANCH   1   8
TORSDOF 1
ENDMDL
