MODEL 1
REMARK minimizedAffinity 2.38598061
REMARK minimizedRMSD -1
REMARK  1 active torsions:
REMARK  status: ('A' for Active; 'I' for Inactive)
REMARK    1  A    between atoms: C1_2  and  C2_3 
ROOT
ATOM      1  C2  UNL d   1       3.136  -0.559  -0.080  0.00  0.00    -0.081 A 
ATOM      2  C3  UNL d   1       3.786   0.431   0.667  0.00  0.00     0.006 A 
ATOM      3  C4  UNL d   1       3.364   0.732   1.964  0.00  0.00     0.002 A 
ATOM      4  C5  UNL d   1       2.290   0.043   2.538  0.00  0.00    -0.080 A 
ATOM      5  C6  UNL d   1       1.846   0.336   3.941  0.00  0.00     0.076 C 
ATOM      6  C7  UNL d   1       1.629  -0.933   1.786  0.00  0.00     0.002 A 
ATOM      7  C8  UNL d   1       2.050  -1.234   0.489  0.00  0.00     0.006 A 
ENDROOT
BRANCH   1   8
ATOM      8  C1  UNL d   1       3.629  -0.931  -1.455  0.00  0.00     0.054 C 
ATOM      9  C   UNL d   1       2.836  -0.217  -2.540  0.00  0.00     0.018 C 
ENDBRANCH   1   8
TORSDOF 1
ENDMDL
