MODEL 1
REMARK minimizedAffinity 5.76088524
REMARK minimizedRMSD -1
REMARK  1 active torsions:
REMARK  status: ('A' for Active; 'I' for Inactive)
REMARK    1  A    between atoms: C1_2  and  C2_3 
ROOT
ATOM      1  C2  UNL d   1       4.536  -3.047   3.570  0.00  0.00    -0.081 A 
ATOM      2  C3  UNL d   1       3.843  -3.438   4.722  0.00  0.00     0.006 A 
ATOM      3  C4  UNL d   1       2.511  -3.058   4.910  0.00  0.00     0.002 A 
ATOM      4  C5  UNL d   1       1.850  -2.289   3.947  0.00  0.00    -0.080 A 
ATOM      5  C6  UNL d   1       0.412  -1.900   4.122  0.00  0.00     0.076 C 
ATOM      6  C7  UNL d   1       2.548  -1.884   2.804  0.00  0.00     0.002 A 
ATOM      7  C8  UNL d   1       3.879  -2.262   2.616  0.00  0.00     0.006 A 
ENDROOT
BRANCH   1   8
ATOM      8  C1  UNL d   1       5.952  -3.509   3.334  0.00  0.00     0.054 C 
ATOM      9  C   UNL d   1       5.995  -4.697   2.384  0.00  0.00     0.018 C 
ENDBRANCH   1   8
TORSDOF 1
ENDMDL
