MODEL 1
REMARK minimizedAffinity 10.4892244
REMARK minimizedRMSD -1
REMARK  1 active torsions:
REMARK  status: ('A' for Active; 'I' for Inactive)
REMARK    1  A    between atoms: C1_2  and  C2_3 
ROOT
ATOM      1  C2  UNL d   1       3.476  -3.026   4.035  0.00  0.00    -0.081 A 
ATOM      2  C3  UNL d   1       2.239  -3.681   4.042  0.00  0.00     0.006 A 
ATOM      3  C4  UNL d   1       1.164  -3.173   3.308  0.00  0.00     0.002 A 
ATOM      4  C5  UNL d   1       1.312  -2.008   2.548  0.00  0.00    -0.080 A 
ATOM      5  C6  UNL d   1       0.175  -1.469   1.732  0.00  0.00     0.076 C 
ATOM      6  C7  UNL d   1       2.543  -1.344   2.555  0.00  0.00     0.002 A 
ATOM      7  C8  UNL d   1       3.617  -1.851   3.289  0.00  0.00     0.006 A 
ENDROOT
BRANCH   1   8
ATOM      8  C1  UNL d   1       4.655  -3.607   4.774  0.00  0.00     0.054 C 
ATOM      9  C   UNL d   1       5.936  -3.475   3.962  0.00  0.00     0.018 C 
ENDBRANCH   1   8
TORSDOF 1
ENDMDL
