MODEL 1
REMARK minimizedAffinity 6.71703911
REMARK minimizedRMSD -1
REMARK  1 active torsions:
REMARK  status: ('A' for Active; 'I' for Inactive)
REMARK    1  A    between atoms: C1_2  and  C2_3 
ROOT
ATOM      1  C2  UNL d   1      -4.337   2.722  -1.370  0.00  0.00    -0.081 A 
ATOM      2  C3  UNL d   1      -3.484   1.836  -2.039  0.00  0.00     0.006 A 
ATOM      3  C4  UNL d   1      -3.693   1.533  -3.387  0.00  0.00     0.002 A 
ATOM      4  C5  UNL d   1      -4.754   2.115  -4.089  0.00  0.00    -0.080 A 
ATOM      5  C6  UNL d   1      -4.972   1.821  -5.543  0.00  0.00     0.076 C 
ATOM      6  C7  UNL d   1      -5.617   2.986  -3.416  0.00  0.00     0.002 A 
ATOM      7  C8  UNL d   1      -5.408   3.290  -2.069  0.00  0.00     0.006 A 
ENDROOT
BRANCH   1   8
ATOM      8  C1  UNL d   1      -4.075   3.102   0.065  0.00  0.00     0.054 C 
ATOM      9  C   UNL d   1      -2.962   2.256   0.667  0.00  0.00     0.018 C 
ENDBRANCH   1   8
TORSDOF 1
ENDMDL
