MODEL 1
REMARK minimizedAffinity -0.416507959
REMARK minimizedRMSD -1
REMARK  0 active torsions:
REMARK  status: ('A' for Active; 'I' for Inactive)
ROOT
ATOM      1  C4' PXY d   1       0.769  -1.190   0.943  0.00  0.00     0.077 C 
ATOM      2  C1' PXY d   1       0.259   4.563   0.705  0.00  0.00     0.077 C 
ATOM      3  C1  PXY d   1       0.383   3.053   0.759  0.00  0.00    -0.082 A 
ATOM      4  C2  PXY d   1       0.918   2.478   1.824  0.00  0.00     0.003 A 
ATOM      5  C3  PXY d   1       1.067   1.116   1.875  0.00  0.00     0.003 A 
ATOM      6  C4  PXY d   1       0.615   0.331   0.849  0.00  0.00    -0.082 A 
ATOM      7  C5  PXY d   1       0.059   0.909  -0.237  0.00  0.00     0.003 A 
ATOM      8  C6  PXY d   1      -0.046   2.296  -0.287  0.00  0.00     0.003 A 
ENDROOT
TORSDOF 0
ENDMDL
