MODEL 1
REMARK minimizedAffinity 2.2366097
REMARK minimizedRMSD -1
REMARK  0 active torsions:
REMARK  status: ('A' for Active; 'I' for Inactive)
ROOT
ATOM      1  C4' PXY d   1       0.344   4.452   0.258  0.00  0.00     0.077 C 
ATOM      2  C1' PXY d   1      -0.305  -0.954   2.198  0.00  0.00     0.077 C 
ATOM      3  C1  PXY d   1      -0.138   0.468   1.701  0.00  0.00    -0.082 A 
ATOM      4  C2  PXY d   1      -0.306   0.736   0.416  0.00  0.00     0.003 A 
ATOM      5  C3  PXY d   1      -0.126   2.011  -0.055  0.00  0.00     0.003 A 
ATOM      6  C4  PXY d   1       0.175   3.032   0.805  0.00  0.00    -0.082 A 
ATOM      7  C5  PXY d   1       0.338   2.769   2.119  0.00  0.00     0.003 A 
ATOM      8  C6  PXY d   1       0.192   1.460   2.572  0.00  0.00     0.003 A 
ENDROOT
TORSDOF 0
ENDMDL
