MODEL 1
REMARK minimizedAffinity 4.11262131
REMARK minimizedRMSD -1
REMARK  0 active torsions:
REMARK  status: ('A' for Active; 'I' for Inactive)
ROOT
ATOM      1  C4' PXY d   1       0.046   0.796   2.503  0.00  0.00     0.077 C 
ATOM      2  C1' PXY d   1      -0.510   4.303  -2.059  0.00  0.00     0.077 C 
ATOM      3  C1  PXY d   1      -0.354   3.390  -0.858  0.00  0.00    -0.082 A 
ATOM      4  C2  PXY d   1      -0.799   2.146  -0.921  0.00  0.00     0.003 A 
ATOM      5  C3  PXY d   1      -0.695   1.317   0.167  0.00  0.00     0.003 A 
ATOM      6  C4  PXY d   1      -0.082   1.750   1.312  0.00  0.00    -0.082 A 
ATOM      7  C5  PXY d   1       0.384   3.015   1.380  0.00  0.00     0.003 A 
ATOM      8  C6  PXY d   1       0.232   3.853   0.279  0.00  0.00     0.003 A 
ENDROOT
TORSDOF 0
ENDMDL
