MODEL 1
REMARK minimizedAffinity 7.13961554
REMARK minimizedRMSD -1
REMARK  0 active torsions:
REMARK  status: ('A' for Active; 'I' for Inactive)
ROOT
ATOM      1  C4' PXY d   1      -0.655  -5.893  -6.000  0.00  0.00     0.077 C 
ATOM      2  C1' PXY d   1       0.850  -4.914  -0.505  0.00  0.00     0.077 C 
ATOM      3  C1  PXY d   1       0.467  -5.169  -1.950  0.00  0.00    -0.082 A 
ATOM      4  C2  PXY d   1      -0.765  -4.911  -2.356  0.00  0.00     0.003 A 
ATOM      5  C3  PXY d   1      -1.136  -5.166  -3.651  0.00  0.00     0.003 A 
ATOM      6  C4  PXY d   1      -0.222  -5.642  -4.553  0.00  0.00    -0.082 A 
ATOM      7  C5  PXY d   1       1.040  -5.898  -4.149  0.00  0.00     0.003 A 
ATOM      8  C6  PXY d   1       1.386  -5.671  -2.820  0.00  0.00     0.003 A 
ENDROOT
TORSDOF 0
ENDMDL
