MODEL 1
REMARK minimizedAffinity 5.17577362
REMARK minimizedRMSD -1
REMARK  0 active torsions:
REMARK  status: ('A' for Active; 'I' for Inactive)
ROOT
ATOM      1  C4' PXY d   1       0.399  -0.558   4.650  0.00  0.00     0.077 C 
ATOM      2  C1' PXY d   1      -0.345   2.994   0.150  0.00  0.00     0.077 C 
ATOM      3  C1  PXY d   1      -0.161   2.068   1.336  0.00  0.00    -0.082 A 
ATOM      4  C2  PXY d   1       1.036   1.564   1.592  0.00  0.00     0.003 A 
ATOM      5  C3  PXY d   1       1.214   0.700   2.642  0.00  0.00     0.003 A 
ATOM      6  C4  PXY d   1       0.168   0.389   3.469  0.00  0.00    -0.082 A 
ATOM      7  C5  PXY d   1      -1.054   0.907   3.220  0.00  0.00     0.003 A 
ATOM      8  C6  PXY d   1      -1.223   1.750   2.125  0.00  0.00     0.003 A 
ENDROOT
TORSDOF 0
ENDMDL
