MODEL 1
REMARK minimizedAffinity 2.28631377
REMARK minimizedRMSD -1
REMARK  0 active torsions:
REMARK  status: ('A' for Active; 'I' for Inactive)
ROOT
ATOM      1  C4' PXY d   1      -2.062   5.471   1.308  0.00  0.00     0.077 C 
ATOM      2  C1' PXY d   1       0.833   0.612   2.503  0.00  0.00     0.077 C 
ATOM      3  C1  PXY d   1       0.085   1.893   2.188  0.00  0.00    -0.082 A 
ATOM      4  C2  PXY d   1      -1.150   2.055   2.633  0.00  0.00     0.003 A 
ATOM      5  C3  PXY d   1      -1.852   3.193   2.331  0.00  0.00     0.003 A 
ATOM      6  C4  PXY d   1      -1.266   4.198   1.610  0.00  0.00    -0.082 A 
ATOM      7  C5  PXY d   1      -0.002   4.045   1.161  0.00  0.00     0.003 A 
ATOM      8  C6  PXY d   1       0.679   2.865   1.444  0.00  0.00     0.003 A 
ENDROOT
TORSDOF 0
ENDMDL
