MODEL 1
REMARK minimizedAffinity 5.50143099
REMARK minimizedRMSD -1
REMARK  0 active torsions:
REMARK  status: ('A' for Active; 'I' for Inactive)
ROOT
ATOM      1  C4' PXY d   1       1.656  -2.599  -0.583  0.00  0.00     0.077 C 
ATOM      2  C1' PXY d   1      -0.057   1.838   2.702  0.00  0.00     0.077 C 
ATOM      3  C1  PXY d   1       0.382   0.677   1.833  0.00  0.00    -0.082 A 
ATOM      4  C2  PXY d   1       1.101  -0.300   2.361  0.00  0.00     0.003 A 
ATOM      5  C3  PXY d   1       1.534  -1.342   1.581  0.00  0.00     0.003 A 
ATOM      6  C4  PXY d   1       1.182  -1.411   0.260  0.00  0.00    -0.082 A 
ATOM      7  C5  PXY d   1       0.440  -0.424  -0.284  0.00  0.00     0.003 A 
ATOM      8  C6  PXY d   1       0.045   0.646   0.515  0.00  0.00     0.003 A 
ENDROOT
TORSDOF 0
ENDMDL
