MODEL 1
REMARK minimizedAffinity -0.363037199
REMARK minimizedRMSD -1
REMARK  0 active torsions:
REMARK  status: ('A' for Active; 'I' for Inactive)
ROOT
ATOM      1  C4' PXY d   1       0.510   4.281  -0.291  0.00  0.00     0.077 C 
ATOM      2  C1' PXY d   1       0.115  -0.816   2.409  0.00  0.00     0.077 C 
ATOM      3  C1  PXY d   1       0.211   0.526   1.710  0.00  0.00    -0.082 A 
ATOM      4  C2  PXY d   1       0.482   0.572   0.415  0.00  0.00     0.003 A 
ATOM      5  C3  PXY d   1       0.604   1.778  -0.225  0.00  0.00     0.003 A 
ATOM      6  C4  PXY d   1       0.394   2.948   0.454  0.00  0.00    -0.082 A 
ATOM      7  C5  PXY d   1       0.107   2.909   1.772  0.00  0.00     0.003 A 
ATOM      8  C6  PXY d   1       0.028   1.677   2.413  0.00  0.00     0.003 A 
ENDROOT
TORSDOF 0
ENDMDL
