MODEL 1
REMARK minimizedAffinity 1.12286103
REMARK minimizedRMSD -1
REMARK  0 active torsions:
REMARK  status: ('A' for Active; 'I' for Inactive)
ROOT
ATOM      1  C4' PXY d   1       1.212   3.540   0.030  0.00  0.00     0.077 C 
ATOM      2  C1' PXY d   1      -0.192  -1.183   3.053  0.00  0.00     0.077 C 
ATOM      3  C1  PXY d   1       0.181   0.048   2.251  0.00  0.00    -0.082 A 
ATOM      4  C2  PXY d   1       0.344   1.207   2.869  0.00  0.00     0.003 A 
ATOM      5  C3  PXY d   1       0.650   2.336   2.155  0.00  0.00     0.003 A 
ATOM      6  C4  PXY d   1       0.844   2.269   0.801  0.00  0.00    -0.082 A 
ATOM      7  C5  PXY d   1       0.690   1.088   0.165  0.00  0.00     0.003 A 
ATOM      8  C6  PXY d   1       0.338  -0.038   0.902  0.00  0.00     0.003 A 
ENDROOT
TORSDOF 0
ENDMDL
