MODEL 1
REMARK minimizedAffinity 3.68080854
REMARK minimizedRMSD -1
REMARK  0 active torsions:
REMARK  status: ('A' for Active; 'I' for Inactive)
ROOT
ATOM      1  C4' PXY d   1       0.096   1.127  -0.855  0.00  0.00     0.077 C 
ATOM      2  C1' PXY d   1      -3.807  -0.869  -4.623  0.00  0.00     0.077 C 
ATOM      3  C1  PXY d   1      -2.776  -0.356  -3.637  0.00  0.00    -0.082 A 
ATOM      4  C2  PXY d   1      -3.138   0.508  -2.703  0.00  0.00     0.003 A 
ATOM      5  C3  PXY d   1      -2.212   1.006  -1.823  0.00  0.00     0.003 A 
ATOM      6  C4  PXY d   1      -0.913   0.575  -1.866  0.00  0.00    -0.082 A 
ATOM      7  C5  PXY d   1      -0.538  -0.314  -2.810  0.00  0.00     0.003 A 
ATOM      8  C6  PXY d   1      -1.485  -0.776  -3.720  0.00  0.00     0.003 A 
ENDROOT
TORSDOF 0
ENDMDL
