MODEL 1
REMARK minimizedAffinity 2.05237055
REMARK minimizedRMSD -1
REMARK  0 active torsions:
REMARK  status: ('A' for Active; 'I' for Inactive)
ROOT
ATOM      1  C4' PXY d   1       1.321   4.904   0.346  0.00  0.00     0.077 C 
ATOM      2  C1' PXY d   1       0.274  -0.584   1.832  0.00  0.00     0.077 C 
ATOM      3  C1  PXY d   1       0.545   0.859   1.454  0.00  0.00    -0.082 A 
ATOM      4  C2  PXY d   1       0.497   1.223   0.183  0.00  0.00     0.003 A 
ATOM      5  C3  PXY d   1       0.771   2.516  -0.179  0.00  0.00     0.003 A 
ATOM      6  C4  PXY d   1       1.045   3.460   0.775  0.00  0.00    -0.082 A 
ATOM      7  C5  PXY d   1       1.086   3.099   2.075  0.00  0.00     0.003 A 
ATOM      8  C6  PXY d   1       0.845   1.772   2.418  0.00  0.00     0.003 A 
ENDROOT
TORSDOF 0
ENDMDL
