MODEL 1
REMARK minimizedAffinity 8.60999393
REMARK minimizedRMSD -1
REMARK  0 active torsions:
REMARK  status: ('A' for Active; 'I' for Inactive)
ROOT
ATOM      1  C1  DEN d   1      -1.060   1.237   1.951  0.00  0.00     0.130 A 
ATOM      2  C2  DEN d   1      -2.069   1.594   0.958  0.00  0.00    -0.031 A 
ATOM      3  C3  DEN d   1      -3.221   0.686   1.131  0.00  0.00     0.027 A 
ATOM      4  C4  DEN d   1      -3.540  -1.224   2.835  0.00  0.00     0.027 A 
ATOM      5  C5  DEN d   1      -2.952  -1.911   3.874  0.00  0.00    -0.003 A 
ATOM      6  C6  DEN d   1      -1.689  -1.622   4.318  0.00  0.00     0.001 A 
ATOM      7  C7  DEN d   1      -0.990  -0.589   3.752  0.00  0.00     0.017 A 
ATOM      8  C8  DEN d   1      -1.573   0.104   2.699  0.00  0.00    -0.094 A 
ATOM      9  C9  DEN d   1      -2.856  -0.196   2.272  0.00  0.00    -0.072 A 
ENDROOT
TORSDOF 0
ENDMDL
