MODEL 1
REMARK minimizedAffinity 1.89670217
REMARK minimizedRMSD -1
REMARK  0 active torsions:
REMARK  status: ('A' for Active; 'I' for Inactive)
ROOT
ATOM      1  C1  DEN d   1      -1.622   0.162  -0.183  0.00  0.00     0.130 A 
ATOM      2  C2  DEN d   1      -0.231   0.495  -0.480  0.00  0.00    -0.031 A 
ATOM      3  C3  DEN d   1       0.555   0.318   0.757  0.00  0.00     0.027 A 
ATOM      4  C4  DEN d   1      -0.241  -0.438   3.091  0.00  0.00     0.027 A 
ATOM      5  C5  DEN d   1      -1.336  -0.820   3.834  0.00  0.00    -0.003 A 
ATOM      6  C6  DEN d   1      -2.598  -0.869   3.304  0.00  0.00     0.001 A 
ATOM      7  C7  DEN d   1      -2.789  -0.572   1.980  0.00  0.00     0.017 A 
ATOM      8  C8  DEN d   1      -1.692  -0.179   1.226  0.00  0.00    -0.094 A 
ATOM      9  C9  DEN d   1      -0.422  -0.148   1.778  0.00  0.00    -0.072 A 
ENDROOT
TORSDOF 0
ENDMDL
