MODEL 1
REMARK minimizedAffinity 15.3935184
REMARK minimizedRMSD -1
REMARK  0 active torsions:
REMARK  status: ('A' for Active; 'I' for Inactive)
ROOT
ATOM      1  C1  DEN d   1      -3.143   0.183   2.823  0.00  0.00     0.130 A 
ATOM      2  C2  DEN d   1      -2.019  -0.148   3.694  0.00  0.00    -0.031 A 
ATOM      3  C3  DEN d   1      -0.815  -0.293   2.852  0.00  0.00     0.027 A 
ATOM      4  C4  DEN d   1      -0.583  -0.032   0.296  0.00  0.00     0.027 A 
ATOM      5  C5  DEN d   1      -1.264   0.233  -0.872  0.00  0.00    -0.003 A 
ATOM      6  C6  DEN d   1      -2.613   0.465  -0.894  0.00  0.00     0.001 A 
ATOM      7  C7  DEN d   1      -3.319   0.480   0.280  0.00  0.00     0.017 A 
ATOM      8  C8  DEN d   1      -2.641   0.207   1.461  0.00  0.00    -0.094 A 
ATOM      9  C9  DEN d   1      -1.274  -0.013   1.464  0.00  0.00    -0.072 A 
ENDROOT
TORSDOF 0
ENDMDL
