MODEL 1
REMARK minimizedAffinity 6.4904089
REMARK minimizedRMSD -1
REMARK  0 active torsions:
REMARK  status: ('A' for Active; 'I' for Inactive)
ROOT
ATOM      1  C1  DEN d   1      -0.074  -0.839  -1.008  0.00  0.00     0.130 A 
ATOM      2  C2  DEN d   1       1.064  -0.780  -0.095  0.00  0.00    -0.031 A 
ATOM      3  C3  DEN d   1       0.593  -0.213   1.185  0.00  0.00     0.027 A 
ATOM      4  C4  DEN d   1      -1.775   0.572   1.839  0.00  0.00     0.027 A 
ATOM      5  C5  DEN d   1      -3.069   0.728   1.393  0.00  0.00    -0.003 A 
ATOM      6  C6  DEN d   1      -3.445   0.408   0.115  0.00  0.00     0.001 A 
ATOM      7  C7  DEN d   1      -2.526  -0.128  -0.748  0.00  0.00     0.017 A 
ATOM      8  C8  DEN d   1      -1.218  -0.282  -0.308  0.00  0.00    -0.094 A 
ATOM      9  C9  DEN d   1      -0.861   0.036   0.991  0.00  0.00    -0.072 A 
ENDROOT
TORSDOF 0
ENDMDL
