MODEL 1
REMARK minimizedAffinity 5.06992531
REMARK minimizedRMSD -1
REMARK  0 active torsions:
REMARK  status: ('A' for Active; 'I' for Inactive)
ROOT
ATOM      1  C1  DEN d   1      -1.020   1.396   2.096  0.00  0.00     0.130 A 
ATOM      2  C2  DEN d   1      -2.139   1.551   1.171  0.00  0.00    -0.031 A 
ATOM      3  C3  DEN d   1      -3.084   0.441   1.406  0.00  0.00     0.027 A 
ATOM      4  C4  DEN d   1      -2.925  -1.491   3.108  0.00  0.00     0.027 A 
ATOM      5  C5  DEN d   1      -2.153  -2.052   4.101  0.00  0.00    -0.003 A 
ATOM      6  C6  DEN d   1      -0.943  -1.526   4.469  0.00  0.00     0.001 A 
ATOM      7  C7  DEN d   1      -0.490  -0.380   3.871  0.00  0.00     0.017 A 
ATOM      8  C8  DEN d   1      -1.260   0.187   2.863  0.00  0.00    -0.094 A 
ATOM      9  C9  DEN d   1      -2.486  -0.353   2.514  0.00  0.00    -0.072 A 
ENDROOT
TORSDOF 0
ENDMDL
