MODEL 1
REMARK minimizedAffinity 10.1185913
REMARK minimizedRMSD -1
REMARK  0 active torsions:
REMARK  status: ('A' for Active; 'I' for Inactive)
ROOT
ATOM      1  C1  DEN d   1       0.589  -0.679  -0.749  0.00  0.00     0.130 A 
ATOM      2  C2  DEN d   1       1.661  -0.452   0.216  0.00  0.00    -0.031 A 
ATOM      3  C3  DEN d   1       1.053   0.045   1.466  0.00  0.00     0.027 A 
ATOM      4  C4  DEN d   1      -1.433   0.479   2.001  0.00  0.00     0.027 A 
ATOM      5  C5  DEN d   1      -2.713   0.443   1.493  0.00  0.00    -0.003 A 
ATOM      6  C6  DEN d   1      -2.977   0.067   0.203  0.00  0.00     0.001 A 
ATOM      7  C7  DEN d   1      -1.950  -0.333  -0.611  0.00  0.00     0.017 A 
ATOM      8  C8  DEN d   1      -0.656  -0.293  -0.109  0.00  0.00    -0.094 A 
ATOM      9  C9  DEN d   1      -0.411   0.079   1.202  0.00  0.00    -0.072 A 
ENDROOT
TORSDOF 0
ENDMDL
