MODEL 1
REMARK minimizedAffinity 1.32325172
REMARK minimizedRMSD -1
REMARK  0 active torsions:
REMARK  status: ('A' for Active; 'I' for Inactive)
ROOT
ATOM      1  C1  DEN d   1      -0.765  -0.286   3.858  0.00  0.00     0.130 A 
ATOM      2  C2  DEN d   1       0.620  -0.737   3.959  0.00  0.00    -0.031 A 
ATOM      3  C3  DEN d   1       1.186  -0.787   2.596  0.00  0.00     0.027 A 
ATOM      4  C4  DEN d   1       0.058  -0.206   0.350  0.00  0.00     0.027 A 
ATOM      5  C5  DEN d   1      -1.112   0.214  -0.243  0.00  0.00    -0.003 A 
ATOM      6  C6  DEN d   1      -2.249   0.461   0.479  0.00  0.00     0.001 A 
ATOM      7  C7  DEN d   1      -2.228   0.335   1.843  0.00  0.00     0.017 A 
ATOM      8  C8  DEN d   1      -1.053  -0.095   2.448  0.00  0.00    -0.094 A 
ATOM      9  C9  DEN d   1       0.089  -0.328   1.701  0.00  0.00    -0.072 A 
ENDROOT
TORSDOF 0
ENDMDL
