MODEL 1
REMARK minimizedAffinity 7.73527479
REMARK minimizedRMSD -1
REMARK  0 active torsions:
REMARK  status: ('A' for Active; 'I' for Inactive)
ROOT
ATOM      1  C   UNL d   1       5.899   2.743  -1.495  0.00  0.00     0.078 C 
ATOM      2  C1  UNL d   1       4.876   1.699  -1.160  0.00  0.00    -0.077 A 
ATOM      3  C2  UNL d   1       3.743   1.515  -1.962  0.00  0.00    -0.001 A 
ATOM      4  C3  UNL d   1       2.795   0.546  -1.632  0.00  0.00     0.003 A 
ATOM      5  C4  UNL d   1       2.969  -0.246  -0.499  0.00  0.00    -0.005 A 
ATOM      6  C5  UNL d   1       4.092  -0.070   0.306  0.00  0.00     0.003 A 
ATOM      7  C6  UNL d   1       5.042   0.899  -0.022  0.00  0.00    -0.001 A 
ENDROOT
TORSDOF 0
ENDMDL
