MODEL 1
REMARK minimizedAffinity 6.42018318
REMARK minimizedRMSD -1
REMARK  0 active torsions:
REMARK  status: ('A' for Active; 'I' for Inactive)
ROOT
ATOM      1  C   UNL d   1       1.116   1.641   3.054  0.00  0.00     0.078 C 
ATOM      2  C1  UNL d   1       1.682   3.020   3.212  0.00  0.00    -0.077 A 
ATOM      3  C2  UNL d   1       3.054   3.218   3.411  0.00  0.00    -0.001 A 
ATOM      4  C3  UNL d   1       3.566   4.507   3.566  0.00  0.00     0.003 A 
ATOM      5  C4  UNL d   1       2.713   5.609   3.525  0.00  0.00    -0.005 A 
ATOM      6  C5  UNL d   1       1.347   5.421   3.329  0.00  0.00     0.003 A 
ATOM      7  C6  UNL d   1       0.833   4.133   3.174  0.00  0.00    -0.001 A 
ENDROOT
TORSDOF 0
ENDMDL
