MODEL 1
REMARK minimizedAffinity -0.460188061
REMARK minimizedRMSD -1
REMARK  0 active torsions:
REMARK  status: ('A' for Active; 'I' for Inactive)
ROOT
ATOM      1  C   UNL d   1      -3.059   5.277   1.136  0.00  0.00     0.078 C 
ATOM      2  C1  UNL d   1      -3.976   5.247   2.322  0.00  0.00    -0.077 A 
ATOM      3  C2  UNL d   1      -5.151   4.484   2.306  0.00  0.00    -0.001 A 
ATOM      4  C3  UNL d   1      -6.000   4.472   3.414  0.00  0.00     0.003 A 
ATOM      5  C4  UNL d   1      -5.685   5.223   4.545  0.00  0.00    -0.005 A 
ATOM      6  C5  UNL d   1      -4.520   5.987   4.569  0.00  0.00     0.003 A 
ATOM      7  C6  UNL d   1      -3.669   5.999   3.463  0.00  0.00    -0.001 A 
ENDROOT
TORSDOF 0
ENDMDL
