MODEL 1
REMARK minimizedAffinity -3.82378221
REMARK minimizedRMSD -1
REMARK  0 active torsions:
REMARK  status: ('A' for Active; 'I' for Inactive)
ROOT
ATOM      1  C   UNL d   1      -4.121   6.000   1.054  0.00  0.00     0.078 C 
ATOM      2  C1  UNL d   1      -4.414   5.780   2.508  0.00  0.00    -0.077 A 
ATOM      3  C2  UNL d   1      -5.701   5.438   2.940  0.00  0.00    -0.001 A 
ATOM      4  C3  UNL d   1      -5.962   5.246   4.298  0.00  0.00     0.003 A 
ATOM      5  C4  UNL d   1      -4.941   5.396   5.235  0.00  0.00    -0.005 A 
ATOM      6  C5  UNL d   1      -3.658   5.740   4.814  0.00  0.00     0.003 A 
ATOM      7  C6  UNL d   1      -3.395   5.932   3.457  0.00  0.00    -0.001 A 
ENDROOT
TORSDOF 0
ENDMDL
