MODEL 1
REMARK minimizedAffinity 2.3675673
REMARK minimizedRMSD -1
REMARK  0 active torsions:
REMARK  status: ('A' for Active; 'I' for Inactive)
ROOT
ATOM      1  C   UNL d   1       0.773   0.769   4.596  0.00  0.00     0.078 C 
ATOM      2  C1  UNL d   1       0.671  -0.714   4.791  0.00  0.00    -0.077 A 
ATOM      3  C2  UNL d   1      -0.429  -1.431   4.303  0.00  0.00    -0.001 A 
ATOM      4  C3  UNL d   1      -0.516  -2.810   4.499  0.00  0.00     0.003 A 
ATOM      5  C4  UNL d   1       0.493  -3.484   5.185  0.00  0.00    -0.005 A 
ATOM      6  C5  UNL d   1       1.589  -2.779   5.677  0.00  0.00     0.003 A 
ATOM      7  C6  UNL d   1       1.678  -1.400   5.481  0.00  0.00    -0.001 A 
ENDROOT
TORSDOF 0
ENDMDL
