MODEL 1
REMARK minimizedAffinity 3.79125381
REMARK minimizedRMSD -1
REMARK  0 active torsions:
REMARK  status: ('A' for Active; 'I' for Inactive)
ROOT
ATOM      1  C   UNL d   1      -6.000   5.983   4.568  0.00  0.00     0.078 C 
ATOM      2  C1  UNL d   1      -5.160   5.918   3.327  0.00  0.00    -0.077 A 
ATOM      3  C2  UNL d   1      -5.750   5.845   2.060  0.00  0.00    -0.001 A 
ATOM      4  C3  UNL d   1      -4.956   5.775   0.914  0.00  0.00     0.003 A 
ATOM      5  C4  UNL d   1      -3.567   5.778   1.025  0.00  0.00    -0.005 A 
ATOM      6  C5  UNL d   1      -2.970   5.848   2.282  0.00  0.00     0.003 A 
ATOM      7  C6  UNL d   1      -3.763   5.918   3.429  0.00  0.00    -0.001 A 
ENDROOT
TORSDOF 0
ENDMDL
