MODEL 1
REMARK minimizedAffinity -1.1676811
REMARK minimizedRMSD -1
REMARK  0 active torsions:
REMARK  status: ('A' for Active; 'I' for Inactive)
ROOT
ATOM      1  C   UNL d   1      -6.000   3.369  -3.769  0.00  0.00     0.078 C 
ATOM      2  C1  UNL d   1      -4.849   2.407  -3.755  0.00  0.00    -0.077 A 
ATOM      3  C2  UNL d   1      -3.568   2.821  -3.370  0.00  0.00    -0.001 A 
ATOM      4  C3  UNL d   1      -2.505   1.917  -3.371  0.00  0.00     0.003 A 
ATOM      5  C4  UNL d   1      -2.711   0.594  -3.758  0.00  0.00    -0.005 A 
ATOM      6  C5  UNL d   1      -3.982   0.174  -4.145  0.00  0.00     0.003 A 
ATOM      7  C6  UNL d   1      -5.047   1.076  -4.144  0.00  0.00    -0.001 A 
ENDROOT
TORSDOF 0
ENDMDL
