MODEL 1
REMARK minimizedAffinity -3.24758744
REMARK minimizedRMSD -1
REMARK  0 active torsions:
REMARK  status: ('A' for Active; 'I' for Inactive)
ROOT
ATOM      1  C1  BNZ d   1       5.166   3.956   2.223  0.00  0.00     0.000 A 
ATOM      2  C2  BNZ d   1       3.858   3.967   2.631  0.00  0.00     0.000 A 
ATOM      3  C3  BNZ d   1       3.368   5.000   3.380  0.00  0.00     0.000 A 
ATOM      4  C4  BNZ d   1       4.193   5.998   3.755  0.00  0.00     0.000 A 
ATOM      5  C5  BNZ d   1       5.516   5.997   3.360  0.00  0.00     0.000 A 
ATOM      6  C6  BNZ d   1       5.997   4.976   2.573  0.00  0.00     0.000 A 
ENDROOT
TORSDOF 0
ENDMDL
