MODEL 1
REMARK minimizedAffinity -2.418576
REMARK minimizedRMSD -1
REMARK  0 active torsions:
REMARK  status: ('A' for Active; 'I' for Inactive)
ROOT
ATOM      1  C1  BNZ d   1       1.227  -2.313   2.719  0.00  0.00     0.000 A 
ATOM      2  C2  BNZ d   1       0.331  -1.277   2.683  0.00  0.00     0.000 A 
ATOM      3  C3  BNZ d   1       0.055  -0.631   1.511  0.00  0.00     0.000 A 
ATOM      4  C4  BNZ d   1       0.704  -0.993   0.385  0.00  0.00     0.000 A 
ATOM      5  C5  BNZ d   1       1.616  -2.029   0.407  0.00  0.00     0.000 A 
ATOM      6  C6  BNZ d   1       1.863  -2.703   1.581  0.00  0.00     0.000 A 
ENDROOT
TORSDOF 0
ENDMDL
