MODEL 1
REMARK minimizedAffinity -2.89575672
REMARK minimizedRMSD -1
REMARK  0 active torsions:
REMARK  status: ('A' for Active; 'I' for Inactive)
ROOT
ATOM      1  C1  BNZ d   1       5.093   5.633   2.664  0.00  0.00     0.000 A 
ATOM      2  C2  BNZ d   1       3.773   5.272   2.629  0.00  0.00     0.000 A 
ATOM      3  C3  BNZ d   1       3.017   5.271   3.768  0.00  0.00     0.000 A 
ATOM      4  C4  BNZ d   1       3.592   5.592   4.945  0.00  0.00     0.000 A 
ATOM      5  C5  BNZ d   1       4.925   5.949   4.998  0.00  0.00     0.000 A 
ATOM      6  C6  BNZ d   1       5.672   5.986   3.844  0.00  0.00     0.000 A 
ENDROOT
TORSDOF 0
ENDMDL
