MODEL 1
REMARK minimizedAffinity -0.00886128843
REMARK minimizedRMSD -1
REMARK  0 active torsions:
REMARK  status: ('A' for Active; 'I' for Inactive)
ROOT
ATOM      1  C1  BNZ d   1       3.080   0.495  -2.586  0.00  0.00     0.000 A 
ATOM      2  C2  BNZ d   1       3.479   1.647  -3.209  0.00  0.00     0.000 A 
ATOM      3  C3  BNZ d   1       2.668   2.747  -3.233  0.00  0.00     0.000 A 
ATOM      4  C4  BNZ d   1       1.443   2.680  -2.671  0.00  0.00     0.000 A 
ATOM      5  C5  BNZ d   1       1.023   1.522  -2.048  0.00  0.00     0.000 A 
ATOM      6  C6  BNZ d   1       1.857   0.430  -1.991  0.00  0.00     0.000 A 
ENDROOT
TORSDOF 0
ENDMDL
