MODEL 1
REMARK minimizedAffinity -0.594297528
REMARK minimizedRMSD -1
REMARK  0 active torsions:
REMARK  status: ('A' for Active; 'I' for Inactive)
ROOT
ATOM      1  C1  BNZ d   1       2.684   5.734   3.636  0.00  0.00     0.000 A 
ATOM      2  C2  BNZ d   1       1.347   5.440   3.664  0.00  0.00     0.000 A 
ATOM      3  C3  BNZ d   1       0.660   5.419   4.845  0.00  0.00     0.000 A 
ATOM      4  C4  BNZ d   1       1.318   5.652   5.999  0.00  0.00     0.000 A 
ATOM      5  C5  BNZ d   1       2.668   5.941   5.988  0.00  0.00     0.000 A 
ATOM      6  C6  BNZ d   1       3.348   6.000   4.794  0.00  0.00     0.000 A 
ENDROOT
TORSDOF 0
ENDMDL
