MODEL 1
REMARK minimizedAffinity -1.87667084
REMARK minimizedRMSD -1
REMARK  0 active torsions:
REMARK  status: ('A' for Active; 'I' for Inactive)
ROOT
ATOM      1  C1  BNZ d   1      -0.297  -2.860   3.174  0.00  0.00     0.000 A 
ATOM      2  C2  BNZ d   1      -1.006  -1.690   3.107  0.00  0.00     0.000 A 
ATOM      3  C3  BNZ d   1      -0.973  -0.915   1.981  0.00  0.00     0.000 A 
ATOM      4  C4  BNZ d   1      -0.201  -1.291   0.940  0.00  0.00     0.000 A 
ATOM      5  C5  BNZ d   1       0.527  -2.463   0.997  0.00  0.00     0.000 A 
ATOM      6  C6  BNZ d   1       0.460  -3.259   2.117  0.00  0.00     0.000 A 
ENDROOT
TORSDOF 0
ENDMDL
