MODEL 1
REMARK minimizedAffinity 0.473765254
REMARK minimizedRMSD -1
REMARK  0 active torsions:
REMARK  status: ('A' for Active; 'I' for Inactive)
ROOT
ATOM      1  C1  BNZ d   1      -3.061  -0.518   0.955  0.00  0.00     0.000 A 
ATOM      2  C2  BNZ d   1      -2.326  -0.615   2.106  0.00  0.00     0.000 A 
ATOM      3  C3  BNZ d   1      -0.960  -0.579   2.070  0.00  0.00     0.000 A 
ATOM      4  C4  BNZ d   1      -0.330  -0.486   0.881  0.00  0.00     0.000 A 
ATOM      5  C5  BNZ d   1      -1.057  -0.397  -0.290  0.00  0.00     0.000 A 
ATOM      6  C6  BNZ d   1      -2.432  -0.395  -0.246  0.00  0.00     0.000 A 
ENDROOT
TORSDOF 0
ENDMDL
