MODEL 1
REMARK minimizedAffinity -3.11487222
REMARK minimizedRMSD -1
REMARK  0 active torsions:
REMARK  status: ('A' for Active; 'I' for Inactive)
ROOT
ATOM      1  C   UNL d   1      -1.281  -2.233   1.663  0.00  0.00     0.023 A 
ATOM      2  C1  UNL d   1      -2.023  -1.435   0.791  0.00  0.00     0.003 A 
ATOM      3  C2  UNL d   1      -1.385  -0.465   0.016  0.00  0.00     0.048 A 
ATOM      4  C3  UNL d   1      -0.004  -0.298   0.116  0.00  0.00     0.023 A 
ATOM      5  C4  UNL d   1       0.743  -1.095   0.986  0.00  0.00     0.048 A 
ATOM      6  C5  UNL d   1       0.100  -2.063   1.760  0.00  0.00     0.003 A 
ATOM      7  I   UNL d   1       0.948   1.145  -1.037  0.00  0.00    -0.146 I 
ENDROOT
TORSDOF 0
ENDMDL
