MODEL 1
REMARK minimizedAffinity -5.03902054
REMARK minimizedRMSD -1
REMARK  0 active torsions:
REMARK  status: ('A' for Active; 'I' for Inactive)
ROOT
ATOM      1  C   UNL d   1      -2.664  -1.962   1.588  0.00  0.00     0.023 A 
ATOM      2  C1  UNL d   1      -3.020  -0.616   1.502  0.00  0.00     0.003 A 
ATOM      3  C2  UNL d   1      -2.139   0.306   0.933  0.00  0.00     0.048 A 
ATOM      4  C3  UNL d   1      -0.903  -0.124   0.452  0.00  0.00     0.023 A 
ATOM      5  C4  UNL d   1      -0.542  -1.470   0.536  0.00  0.00     0.048 A 
ATOM      6  C5  UNL d   1      -1.426  -2.388   1.106  0.00  0.00     0.003 A 
ATOM      7  I   UNL d   1       0.410   1.246  -0.394  0.00  0.00    -0.146 I 
ENDROOT
TORSDOF 0
ENDMDL
