MODEL 1
REMARK minimizedAffinity -5.00314331
REMARK minimizedRMSD -1
REMARK  0 active torsions:
REMARK  status: ('A' for Active; 'I' for Inactive)
ROOT
ATOM      1  C   UNL d   1      -3.349  -1.945   1.747  0.00  0.00     0.023 A 
ATOM      2  C1  UNL d   1      -3.170  -0.569   1.886  0.00  0.00     0.003 A 
ATOM      3  C2  UNL d   1      -2.041   0.048   1.343  0.00  0.00     0.048 A 
ATOM      4  C3  UNL d   1      -1.095  -0.717   0.661  0.00  0.00     0.023 A 
ATOM      5  C4  UNL d   1      -1.271  -2.095   0.519  0.00  0.00     0.048 A 
ATOM      6  C5  UNL d   1      -2.401  -2.707   1.064  0.00  0.00     0.003 A 
ATOM      7  I   UNL d   1       0.586   0.198  -0.148  0.00  0.00    -0.146 I 
ENDROOT
TORSDOF 0
ENDMDL
