MODEL 1
REMARK minimizedAffinity -2.90978765
REMARK minimizedRMSD -1
REMARK  0 active torsions:
REMARK  status: ('A' for Active; 'I' for Inactive)
ROOT
ATOM      1  C   UNL d   1      -1.349  -1.243   0.675  0.00  0.00     0.023 A 
ATOM      2  C1  UNL d   1      -1.776   0.085   0.658  0.00  0.00     0.003 A 
ATOM      3  C2  UNL d   1      -0.881   1.103   0.322  0.00  0.00     0.048 A 
ATOM      4  C3  UNL d   1       0.439   0.786   0.002  0.00  0.00     0.023 A 
ATOM      5  C4  UNL d   1       0.870  -0.541   0.016  0.00  0.00     0.048 A 
ATOM      6  C5  UNL d   1      -0.028  -1.556   0.354  0.00  0.00     0.003 A 
ATOM      7  I   UNL d   1       1.772   2.300  -0.499  0.00  0.00    -0.146 I 
ENDROOT
TORSDOF 0
ENDMDL
