MODEL 1
REMARK minimizedAffinity 0.2014485
REMARK minimizedRMSD -1
REMARK  0 active torsions:
REMARK  status: ('A' for Active; 'I' for Inactive)
ROOT
ATOM      1  C   UNL d   1       0.740   3.195  -3.858  0.00  0.00     0.023 A 
ATOM      2  C1  UNL d   1      -0.572   3.111  -3.394  0.00  0.00     0.003 A 
ATOM      3  C2  UNL d   1      -0.857   2.405  -2.223  0.00  0.00     0.048 A 
ATOM      4  C3  UNL d   1       0.177   1.786  -1.521  0.00  0.00     0.023 A 
ATOM      5  C4  UNL d   1       1.492   1.869  -1.981  0.00  0.00     0.048 A 
ATOM      6  C5  UNL d   1       1.771   2.575  -3.153  0.00  0.00     0.003 A 
ATOM      7  I   UNL d   1      -0.243   0.735   0.222  0.00  0.00    -0.146 I 
ENDROOT
TORSDOF 0
ENDMDL
