MODEL 1
REMARK minimizedAffinity -4.4863348
REMARK minimizedRMSD -1
REMARK  0 active torsions:
REMARK  status: ('A' for Active; 'I' for Inactive)
ROOT
ATOM      1  C   UNL d   1      -1.281  -2.493   1.497  0.00  0.00     0.023 A 
ATOM      2  C1  UNL d   1      -2.063  -1.345   1.369  0.00  0.00     0.003 A 
ATOM      3  C2  UNL d   1      -1.598  -0.261   0.621  0.00  0.00     0.048 A 
ATOM      4  C3  UNL d   1      -0.350  -0.332   0.004  0.00  0.00     0.023 A 
ATOM      5  C4  UNL d   1       0.436  -1.478   0.129  0.00  0.00     0.048 A 
ATOM      6  C5  UNL d   1      -0.033  -2.559   0.878  0.00  0.00     0.003 A 
ATOM      7  I   UNL d   1       0.345   1.280  -1.109  0.00  0.00    -0.146 I 
ENDROOT
TORSDOF 0
ENDMDL
