MODEL 1
REMARK minimizedAffinity -4.88654137
REMARK minimizedRMSD -1
REMARK  0 active torsions:
REMARK  status: ('A' for Active; 'I' for Inactive)
ROOT
ATOM      1  C   UNL d   1      -1.416  -2.239   1.034  0.00  0.00     0.023 A 
ATOM      2  C1  UNL d   1      -0.709  -2.804  -0.028  0.00  0.00     0.003 A 
ATOM      3  C2  UNL d   1      -0.195  -1.989  -1.038  0.00  0.00     0.048 A 
ATOM      4  C3  UNL d   1      -0.389  -0.609  -0.979  0.00  0.00     0.023 A 
ATOM      5  C4  UNL d   1      -1.094  -0.039   0.082  0.00  0.00     0.048 A 
ATOM      6  C5  UNL d   1      -1.608  -0.859   1.089  0.00  0.00     0.003 A 
ATOM      7  I   UNL d   1       0.376   0.606  -2.482  0.00  0.00    -0.146 I 
ENDROOT
TORSDOF 0
ENDMDL
