MODEL 1
REMARK minimizedAffinity -3.93585205
REMARK minimizedRMSD -1
REMARK  0 active torsions:
REMARK  status: ('A' for Active; 'I' for Inactive)
ROOT
ATOM      1  C   UNL d   1      -1.098  -2.003   1.196  0.00  0.00     0.023 A 
ATOM      2  C1  UNL d   1      -1.842  -0.830   1.073  0.00  0.00     0.003 A 
ATOM      3  C2  UNL d   1      -1.312   0.266   0.389  0.00  0.00     0.048 A 
ATOM      4  C3  UNL d   1      -0.037   0.181  -0.170  0.00  0.00     0.023 A 
ATOM      5  C4  UNL d   1       0.710  -0.992  -0.050  0.00  0.00     0.048 A 
ATOM      6  C5  UNL d   1       0.176  -2.084   0.636  0.00  0.00     0.003 A 
ATOM      7  I   UNL d   1       0.755   1.811  -1.189  0.00  0.00    -0.146 I 
ENDROOT
TORSDOF 0
ENDMDL
