MODEL 1
REMARK minimizedAffinity -4.11541414
REMARK minimizedRMSD -1
REMARK  0 active torsions:
REMARK  status: ('A' for Active; 'I' for Inactive)
ROOT
ATOM      1  C   UNL d   1      -0.938  -1.259   0.999  0.00  0.00     0.023 A 
ATOM      2  C1  UNL d   1       0.148  -1.692   0.238  0.00  0.00     0.003 A 
ATOM      3  C2  UNL d   1       0.708  -0.851  -0.724  0.00  0.00     0.048 A 
ATOM      4  C3  UNL d   1       0.179   0.424  -0.921  0.00  0.00     0.023 A 
ATOM      5  C4  UNL d   1      -0.907   0.863  -0.162  0.00  0.00     0.048 A 
ATOM      6  C5  UNL d   1      -1.465   0.017   0.799  0.00  0.00     0.003 A 
ATOM      7  I   UNL d   1       1.011   1.679  -2.353  0.00  0.00    -0.146 I 
ENDROOT
TORSDOF 0
ENDMDL
