MODEL 1
REMARK minimizedAffinity -5.6036396
REMARK minimizedRMSD -1
REMARK  0 active torsions:
REMARK  status: ('A' for Active; 'I' for Inactive)
ROOT
ATOM      1  C   UNL d   1      -0.809  -2.595   1.142  0.00  0.00     0.023 A 
ATOM      2  C1  UNL d   1      -1.681  -1.523   0.957  0.00  0.00     0.003 A 
ATOM      3  C2  UNL d   1      -1.232  -0.353   0.341  0.00  0.00     0.048 A 
ATOM      4  C3  UNL d   1       0.092  -0.263  -0.089  0.00  0.00     0.023 A 
ATOM      5  C4  UNL d   1       0.968  -1.334   0.093  0.00  0.00     0.048 A 
ATOM      6  C5  UNL d   1       0.514  -2.501   0.711  0.00  0.00     0.003 A 
ATOM      7  I   UNL d   1       0.763   1.477  -1.007  0.00  0.00    -0.146 I 
ENDROOT
TORSDOF 0
ENDMDL
