MODEL 1
REMARK minimizedAffinity -4.04286432
REMARK minimizedRMSD -1
REMARK  0 active torsions:
REMARK  status: ('A' for Active; 'I' for Inactive)
ROOT
ATOM      1  C   UNL d   1      -0.830  -1.584   1.276  0.00  0.00     0.023 A 
ATOM      2  C1  UNL d   1       0.476  -1.823   0.849  0.00  0.00     0.003 A 
ATOM      3  C2  UNL d   1       1.159  -0.855   0.110  0.00  0.00     0.048 A 
ATOM      4  C3  UNL d   1       0.530   0.351  -0.197  0.00  0.00     0.023 A 
ATOM      5  C4  UNL d   1      -0.776   0.596   0.228  0.00  0.00     0.048 A 
ATOM      6  C5  UNL d   1      -1.456  -0.376   0.966  0.00  0.00     0.003 A 
ATOM      7  I   UNL d   1       1.545   1.794  -1.296  0.00  0.00    -0.146 I 
ENDROOT
TORSDOF 0
ENDMDL
