MODEL 1
REMARK minimizedAffinity -3.23179221
REMARK minimizedRMSD -1
REMARK  0 active torsions:
REMARK  status: ('A' for Active; 'I' for Inactive)
ROOT
ATOM      1  C   UNL d   1      -0.145   2.101   0.377  0.00  0.00     0.023 A 
ATOM      2  C1  UNL d   1       0.701   1.053   0.014  0.00  0.00     0.003 A 
ATOM      3  C2  UNL d   1       0.282  -0.270   0.170  0.00  0.00     0.048 A 
ATOM      4  C3  UNL d   1      -0.984  -0.538   0.689  0.00  0.00     0.023 A 
ATOM      5  C4  UNL d   1      -1.834   0.507   1.053  0.00  0.00     0.048 A 
ATOM      6  C5  UNL d   1      -1.411   1.829   0.896  0.00  0.00     0.003 A 
ATOM      7  I   UNL d   1      -1.609  -2.506   0.922  0.00  0.00    -0.146 I 
ENDROOT
TORSDOF 0
ENDMDL
