MODEL 1
REMARK minimizedAffinity -2.63184524
REMARK minimizedRMSD -1
REMARK  0 active torsions:
REMARK  status: ('A' for Active; 'I' for Inactive)
ROOT
ATOM      1  C   UNL d   1      -1.402   1.557   1.582  0.00  0.00     0.023 A 
ATOM      2  C1  UNL d   1      -1.215   0.222   1.940  0.00  0.00     0.003 A 
ATOM      3  C2  UNL d   1      -0.689  -0.683   1.016  0.00  0.00     0.048 A 
ATOM      4  C3  UNL d   1      -0.352  -0.246  -0.265  0.00  0.00     0.023 A 
ATOM      5  C4  UNL d   1      -0.537   1.089  -0.627  0.00  0.00     0.048 A 
ATOM      6  C5  UNL d   1      -1.064   1.990   0.300  0.00  0.00     0.003 A 
ATOM      7  I   UNL d   1       0.431  -1.591  -1.642  0.00  0.00    -0.146 I 
ENDROOT
TORSDOF 0
ENDMDL
