MODEL 1
REMARK minimizedAffinity -0.95758301
REMARK minimizedRMSD -1
REMARK  0 active torsions:
REMARK  status: ('A' for Active; 'I' for Inactive)
ROOT
ATOM      1  C   UNL d   1      -0.370   0.802   0.286  0.00  0.00     0.023 A 
ATOM      2  C1  UNL d   1      -0.506  -0.463   0.857  0.00  0.00     0.003 A 
ATOM      3  C2  UNL d   1      -0.162  -1.602   0.125  0.00  0.00     0.048 A 
ATOM      4  C3  UNL d   1       0.319  -1.467  -1.177  0.00  0.00     0.023 A 
ATOM      5  C4  UNL d   1       0.459  -0.203  -1.752  0.00  0.00     0.048 A 
ATOM      6  C5  UNL d   1       0.112   0.932  -1.016  0.00  0.00     0.003 A 
ATOM      7  I   UNL d   1       0.832  -3.160  -2.268  0.00  0.00    -0.146 I 
ENDROOT
TORSDOF 0
ENDMDL
