MODEL 1
REMARK minimizedAffinity -1.20454931
REMARK minimizedRMSD -1
REMARK  0 active torsions:
REMARK  status: ('A' for Active; 'I' for Inactive)
ROOT
ATOM      1  C   UNL d   1       0.850  -1.204  -0.462  0.00  0.00     0.023 A 
ATOM      2  C1  UNL d   1       0.621   0.087  -0.939  0.00  0.00     0.003 A 
ATOM      3  C2  UNL d   1      -0.123   0.991  -0.178  0.00  0.00     0.048 A 
ATOM      4  C3  UNL d   1      -0.633   0.599   1.059  0.00  0.00     0.023 A 
ATOM      5  C4  UNL d   1      -0.405  -0.691   1.541  0.00  0.00     0.048 A 
ATOM      6  C5  UNL d   1       0.338  -1.592   0.776  0.00  0.00     0.003 A 
ATOM      7  I   UNL d   1      -1.740   1.944   2.193  0.00  0.00    -0.146 I 
ENDROOT
TORSDOF 0
ENDMDL
