MODEL 1
REMARK minimizedAffinity -1.65782964
REMARK minimizedRMSD -1
REMARK  0 active torsions:
REMARK  status: ('A' for Active; 'I' for Inactive)
ROOT
ATOM      1  C   UNL d   1      -1.250   1.695   1.468  0.00  0.00     0.023 A 
ATOM      2  C1  UNL d   1      -1.500   0.399   1.921  0.00  0.00     0.003 A 
ATOM      3  C2  UNL d   1      -1.027  -0.698   1.198  0.00  0.00     0.048 A 
ATOM      4  C3  UNL d   1      -0.304  -0.493   0.024  0.00  0.00     0.023 A 
ATOM      5  C4  UNL d   1      -0.050   0.802  -0.433  0.00  0.00     0.048 A 
ATOM      6  C5  UNL d   1      -0.526   1.896   0.292  0.00  0.00     0.003 A 
ATOM      7  I   UNL d   1       0.401  -2.124  -1.053  0.00  0.00    -0.146 I 
ENDROOT
TORSDOF 0
ENDMDL
