MODEL 1
REMARK minimizedAffinity -5.49159288
REMARK minimizedRMSD -1
REMARK  0 active torsions:
REMARK  status: ('A' for Active; 'I' for Inactive)
ROOT
ATOM      1  C   UNL d   1      -1.626   1.485   1.564  0.00  0.00     0.023 A 
ATOM      2  C1  UNL d   1      -1.838   1.637   0.194  0.00  0.00     0.003 A 
ATOM      3  C2  UNL d   1      -1.420   0.643  -0.694  0.00  0.00     0.048 A 
ATOM      4  C3  UNL d   1      -0.792  -0.502  -0.204  0.00  0.00     0.023 A 
ATOM      5  C4  UNL d   1      -0.578  -0.658   1.167  0.00  0.00     0.048 A 
ATOM      6  C5  UNL d   1      -0.997   0.339   2.050  0.00  0.00     0.003 A 
ATOM      7  I   UNL d   1      -0.170  -1.983  -1.522  0.00  0.00    -0.146 I 
ENDROOT
TORSDOF 0
ENDMDL
