MODEL 1
REMARK minimizedAffinity -4.93658638
REMARK minimizedRMSD -1
REMARK  0 active torsions:
REMARK  status: ('A' for Active; 'I' for Inactive)
ROOT
ATOM      1  C   UNL d   1      -1.382   1.536   1.810  0.00  0.00     0.023 A 
ATOM      2  C1  UNL d   1      -1.409   0.192   2.184  0.00  0.00     0.003 A 
ATOM      3  C2  UNL d   1      -0.986  -0.792   1.288  0.00  0.00     0.048 A 
ATOM      4  C3  UNL d   1      -0.535  -0.425   0.020  0.00  0.00     0.023 A 
ATOM      5  C4  UNL d   1      -0.505   0.918  -0.358  0.00  0.00     0.048 A 
ATOM      6  C5  UNL d   1      -0.930   1.899   0.541  0.00  0.00     0.003 A 
ATOM      7  I   UNL d   1       0.095  -1.888  -1.315  0.00  0.00    -0.146 I 
ENDROOT
TORSDOF 0
ENDMDL
