MODEL 1
REMARK minimizedAffinity -4.28451538
REMARK minimizedRMSD -1
REMARK  0 active torsions:
REMARK  status: ('A' for Active; 'I' for Inactive)
ROOT
ATOM      1  C   UNL d   1      -2.056   1.372   2.061  0.00  0.00     0.023 A 
ATOM      2  C1  UNL d   1      -1.921   1.841   0.754  0.00  0.00     0.003 A 
ATOM      3  C2  UNL d   1      -1.121   1.150  -0.158  0.00  0.00     0.048 A 
ATOM      4  C3  UNL d   1      -0.461  -0.011   0.242  0.00  0.00     0.023 A 
ATOM      5  C4  UNL d   1      -0.594  -0.485   1.548  0.00  0.00     0.048 A 
ATOM      6  C5  UNL d   1      -1.393   0.210   2.458  0.00  0.00     0.003 A 
ATOM      7  I   UNL d   1       0.730  -1.042  -1.114  0.00  0.00    -0.146 I 
ENDROOT
TORSDOF 0
ENDMDL
