MODEL 1
REMARK minimizedAffinity -3.20211315
REMARK minimizedRMSD -1
REMARK  0 active torsions:
REMARK  status: ('A' for Active; 'I' for Inactive)
ROOT
ATOM      1  C   UNL d   1      -1.456   2.849  -0.677  0.00  0.00     0.023 A 
ATOM      2  C1  UNL d   1      -0.311   2.249  -1.200  0.00  0.00     0.003 A 
ATOM      3  C2  UNL d   1       0.230   1.118  -0.584  0.00  0.00     0.048 A 
ATOM      4  C3  UNL d   1      -0.381   0.592   0.554  0.00  0.00     0.023 A 
ATOM      5  C4  UNL d   1      -1.529   1.188   1.080  0.00  0.00     0.048 A 
ATOM      6  C5  UNL d   1      -2.065   2.319   0.461  0.00  0.00     0.003 A 
ATOM      7  I   UNL d   1       0.421  -1.091   1.472  0.00  0.00    -0.146 I 
ENDROOT
TORSDOF 0
ENDMDL
