MODEL 1
REMARK minimizedAffinity -2.78551483
REMARK minimizedRMSD -1
REMARK  0 active torsions:
REMARK  status: ('A' for Active; 'I' for Inactive)
ROOT
ATOM      1  C   UNL d   1      -1.874   1.678   1.527  0.00  0.00     0.023 A 
ATOM      2  C1  UNL d   1      -1.130   0.753   2.260  0.00  0.00     0.003 A 
ATOM      3  C2  UNL d   1      -0.375  -0.218   1.601  0.00  0.00     0.048 A 
ATOM      4  C3  UNL d   1      -0.367  -0.259   0.207  0.00  0.00     0.023 A 
ATOM      5  C4  UNL d   1      -1.109   0.664  -0.531  0.00  0.00     0.048 A 
ATOM      6  C5  UNL d   1      -1.863   1.633   0.133  0.00  0.00     0.003 A 
ATOM      7  I   UNL d   1       0.757  -1.704  -0.777  0.00  0.00    -0.146 I 
ENDROOT
TORSDOF 0
ENDMDL
