MODEL 1
REMARK minimizedAffinity -5.20724964
REMARK minimizedRMSD -1
REMARK  0 active torsions:
REMARK  status: ('A' for Active; 'I' for Inactive)
ROOT
ATOM      1  C   UNL d   1      -2.464   1.662   1.371  0.00  0.00     0.023 A 
ATOM      2  C1  UNL d   1      -1.705   0.695   2.029  0.00  0.00     0.003 A 
ATOM      3  C2  UNL d   1      -0.746  -0.039   1.327  0.00  0.00     0.048 A 
ATOM      4  C3  UNL d   1      -0.552   0.200  -0.033  0.00  0.00     0.023 A 
ATOM      5  C4  UNL d   1      -1.309   1.168  -0.695  0.00  0.00     0.048 A 
ATOM      6  C5  UNL d   1      -2.266   1.899   0.011  0.00  0.00     0.003 A 
ATOM      7  I   UNL d   1       0.874  -0.890  -1.080  0.00  0.00    -0.146 I 
ENDROOT
TORSDOF 0
ENDMDL
