MODEL 1
REMARK minimizedAffinity -1.45354927
REMARK minimizedRMSD -1
REMARK  0 active torsions:
REMARK  status: ('A' for Active; 'I' for Inactive)
ROOT
ATOM      1  C   UNL d   1      -0.797   1.363   0.484  0.00  0.00     0.023 A 
ATOM      2  C1  UNL d   1      -1.808   0.409   0.366  0.00  0.00     0.003 A 
ATOM      3  C2  UNL d   1      -1.562  -0.792  -0.302  0.00  0.00     0.048 A 
ATOM      4  C3  UNL d   1      -0.303  -1.033  -0.851  0.00  0.00     0.023 A 
ATOM      5  C4  UNL d   1       0.712  -0.082  -0.735  0.00  0.00     0.048 A 
ATOM      6  C5  UNL d   1       0.462   1.118  -0.066  0.00  0.00     0.003 A 
ATOM      7  I   UNL d   1       0.065  -2.820  -1.846  0.00  0.00    -0.146 I 
ENDROOT
TORSDOF 0
ENDMDL
