MODEL 1
REMARK minimizedAffinity -3.36283708
REMARK minimizedRMSD -1
REMARK  0 active torsions:
REMARK  status: ('A' for Active; 'I' for Inactive)
ROOT
ATOM      1  C   UNL d   1      -1.666   1.959   1.611  0.00  0.00     0.023 A 
ATOM      2  C1  UNL d   1      -1.258   0.755   2.184  0.00  0.00     0.003 A 
ATOM      3  C2  UNL d   1      -0.532  -0.169   1.430  0.00  0.00     0.048 A 
ATOM      4  C3  UNL d   1      -0.216   0.119   0.102  0.00  0.00     0.023 A 
ATOM      5  C4  UNL d   1      -0.622   1.323  -0.476  0.00  0.00     0.048 A 
ATOM      6  C5  UNL d   1      -1.348   2.243   0.282  0.00  0.00     0.003 A 
ATOM      7  I   UNL d   1       0.865  -1.255  -1.023  0.00  0.00    -0.146 I 
ENDROOT
TORSDOF 0
ENDMDL
