MODEL 1
REMARK minimizedAffinity 11.4231501
REMARK minimizedRMSD -1
REMARK  0 active torsions:
REMARK  status: ('A' for Active; 'I' for Inactive)
ROOT
ATOM      1  C   UNL d   1       3.448  -3.895  -2.538  0.00  0.00     0.172 C 
ATOM      2  N   UNL d   1       3.911  -3.148  -1.392  0.00  0.00    -0.070 N 
ATOM      3  C1  UNL d   1       3.447  -1.921  -0.998  0.00  0.00    -0.004 A 
ATOM      4  C2  UNL d   1       4.141  -1.552   0.134  0.00  0.00    -0.047 A 
ATOM      5  C3  UNL d   1       5.054  -2.591   0.430  0.00  0.00    -0.047 A 
ATOM      6  C4  UNL d   1       4.891  -3.567  -0.531  0.00  0.00    -0.004 A 
ENDROOT
TORSDOF 0
ENDMDL
