MODEL 1
REMARK minimizedAffinity 4.0084753
REMARK minimizedRMSD -1
REMARK  0 active torsions:
REMARK  status: ('A' for Active; 'I' for Inactive)
ROOT
ATOM      1  C   UNL d   1       4.782  -4.984  -3.018  0.00  0.00     0.172 C 
ATOM      2  N   UNL d   1       3.626  -4.835  -2.167  0.00  0.00    -0.070 N 
ATOM      3  C1  UNL d   1       2.388  -5.371  -2.401  0.00  0.00    -0.004 A 
ATOM      4  C2  UNL d   1       1.564  -5.002  -1.359  0.00  0.00    -0.047 A 
ATOM      5  C3  UNL d   1       2.333  -4.216  -0.469  0.00  0.00    -0.047 A 
ATOM      6  C4  UNL d   1       3.606  -4.129  -0.993  0.00  0.00    -0.004 A 
ENDROOT
TORSDOF 0
ENDMDL
