MODEL 1
REMARK minimizedAffinity 2.50015044
REMARK minimizedRMSD -1
REMARK  0 active torsions:
REMARK  status: ('A' for Active; 'I' for Inactive)
ROOT
ATOM      1  C   UNL d   1      -3.490   1.101  -2.571  0.00  0.00     0.172 C 
ATOM      2  N   UNL d   1      -3.787   2.345  -3.241  0.00  0.00    -0.070 N 
ATOM      3  C1  UNL d   1      -4.385   3.437  -2.669  0.00  0.00    -0.004 A 
ATOM      4  C2  UNL d   1      -4.490   4.414  -3.635  0.00  0.00    -0.047 A 
ATOM      5  C3  UNL d   1      -3.937   3.892  -4.829  0.00  0.00    -0.047 A 
ATOM      6  C4  UNL d   1      -3.509   2.610  -4.556  0.00  0.00    -0.004 A 
ENDROOT
TORSDOF 0
ENDMDL
