MODEL 1
REMARK minimizedAffinity 10.2046633
REMARK minimizedRMSD -1
REMARK  0 active torsions:
REMARK  status: ('A' for Active; 'I' for Inactive)
ROOT
ATOM      1  C   UNL d   1       0.743  -4.929  -1.471  0.00  0.00     0.172 C 
ATOM      2  N   UNL d   1      -0.567  -4.672  -0.918  0.00  0.00    -0.070 N 
ATOM      3  C1  UNL d   1      -1.528  -5.615  -0.672  0.00  0.00    -0.004 A 
ATOM      4  C2  UNL d   1      -2.628  -4.970  -0.148  0.00  0.00    -0.047 A 
ATOM      5  C3  UNL d   1      -2.316  -3.592  -0.077  0.00  0.00    -0.047 A 
ATOM      6  C4  UNL d   1      -1.034  -3.435  -0.560  0.00  0.00    -0.004 A 
ENDROOT
TORSDOF 0
ENDMDL
