MODEL 1
REMARK minimizedAffinity 8.74424839
REMARK minimizedRMSD -1
REMARK  0 active torsions:
REMARK  status: ('A' for Active; 'I' for Inactive)
ROOT
ATOM      1  C   UNL d   1       2.403  -4.523  -1.514  0.00  0.00     0.172 C 
ATOM      2  N   UNL d   1       3.816  -4.525  -1.216  0.00  0.00    -0.070 N 
ATOM      3  C1  UNL d   1       4.404  -3.931  -0.132  0.00  0.00    -0.004 A 
ATOM      4  C2  UNL d   1       5.761  -4.159  -0.210  0.00  0.00    -0.047 A 
ATOM      5  C3  UNL d   1       5.997  -4.915  -1.382  0.00  0.00    -0.047 A 
ATOM      6  C4  UNL d   1       4.776  -5.128  -1.986  0.00  0.00    -0.004 A 
ENDROOT
TORSDOF 0
ENDMDL
