MODEL 1
REMARK minimizedAffinity 6.20432901
REMARK minimizedRMSD -1
REMARK  0 active torsions:
REMARK  status: ('A' for Active; 'I' for Inactive)
ROOT
ATOM      1  C   UNL d   1      -2.492  -4.716  -0.088  0.00  0.00     0.172 C 
ATOM      2  N   UNL d   1      -1.088  -4.779  -0.420  0.00  0.00    -0.070 N 
ATOM      3  C1  UNL d   1      -0.572  -4.948  -1.677  0.00  0.00    -0.004 A 
ATOM      4  C2  UNL d   1       0.802  -4.954  -1.572  0.00  0.00    -0.047 A 
ATOM      5  C3  UNL d   1       1.123  -4.783  -0.204  0.00  0.00    -0.047 A 
ATOM      6  C4  UNL d   1      -0.066  -4.678   0.486  0.00  0.00    -0.004 A 
ENDROOT
TORSDOF 0
ENDMDL
