MODEL 1
REMARK minimizedAffinity 1.17468572
REMARK minimizedRMSD -1
REMARK  0 active torsions:
REMARK  status: ('A' for Active; 'I' for Inactive)
ROOT
ATOM      1  C   UNL d   1      -3.698   1.760  -3.251  0.00  0.00     0.172 C 
ATOM      2  N   UNL d   1      -3.890   3.149  -3.597  0.00  0.00    -0.070 N 
ATOM      3  C1  UNL d   1      -3.387   3.771  -4.709  0.00  0.00    -0.004 A 
ATOM      4  C2  UNL d   1      -3.793   5.088  -4.674  0.00  0.00    -0.047 A 
ATOM      5  C3  UNL d   1      -4.566   5.263  -3.502  0.00  0.00    -0.047 A 
ATOM      6  C4  UNL d   1      -4.609   4.046  -2.854  0.00  0.00    -0.004 A 
ENDROOT
TORSDOF 0
ENDMDL
