MODEL 1
REMARK minimizedAffinity 6.53778124
REMARK minimizedRMSD -1
REMARK  0 active torsions:
REMARK  status: ('A' for Active; 'I' for Inactive)
ROOT
ATOM      1  C   UNL d   1       0.795  -1.912   3.293  0.00  0.00     0.172 C 
ATOM      2  N   UNL d   1       1.522  -1.427   2.143  0.00  0.00    -0.070 N 
ATOM      3  C1  UNL d   1       2.323  -2.181   1.328  0.00  0.00    -0.004 A 
ATOM      4  C2  UNL d   1       2.831  -1.353   0.351  0.00  0.00    -0.047 A 
ATOM      5  C3  UNL d   1       2.318  -0.055   0.587  0.00  0.00    -0.047 A 
ATOM      6  C4  UNL d   1       1.511  -0.129   1.703  0.00  0.00    -0.004 A 
ENDROOT
TORSDOF 0
ENDMDL
