MODEL 1
REMARK minimizedAffinity 12.2655754
REMARK minimizedRMSD -1
REMARK  0 active torsions:
REMARK  status: ('A' for Active; 'I' for Inactive)
ROOT
ATOM      1  C   UNL d   1       1.391  -1.871   2.407  0.00  0.00     0.172 C 
ATOM      2  N   UNL d   1       1.522  -2.270   3.789  0.00  0.00    -0.070 N 
ATOM      3  C1  UNL d   1       2.236  -3.346   4.245  0.00  0.00    -0.004 A 
ATOM      4  C2  UNL d   1       2.112  -3.383   5.617  0.00  0.00    -0.047 A 
ATOM      5  C3  UNL d   1       1.294  -2.293   5.999  0.00  0.00    -0.047 A 
ATOM      6  C4  UNL d   1       0.943  -1.620   4.847  0.00  0.00    -0.004 A 
ENDROOT
TORSDOF 0
ENDMDL
