MODEL 1
REMARK minimizedAffinity 3.19559026
REMARK minimizedRMSD -1
REMARK  1 active torsions:
REMARK  status: ('A' for Active; 'I' for Inactive)
REMARK    1  A    between atoms: N_2  and  C1_3 
ROOT
ATOM      1  C1  UNL d   1       6.000  -0.844   1.077  0.00  0.00     0.143 A 
ATOM      2  C2  UNL d   1       5.980  -0.004  -0.042  0.00  0.00    -0.057 A 
ATOM      3  C3  UNL d   1       5.994   1.389   0.095  0.00  0.00     0.033 A 
ATOM      4  C4  UNL d   1       6.000   1.970   1.359  0.00  0.00    -0.042 A 
ATOM      5  C5  UNL d   1       5.995   1.155   2.486  0.00  0.00     0.033 A 
ATOM      6  C6  UNL d   1       5.987  -0.236   2.342  0.00  0.00    -0.057 A 
ENDROOT
BRANCH   1   7
ATOM      7  N   UNL d   1       5.887  -2.234   1.009  0.00  0.00    -0.732 N 
ATOM      8  C   UNL d   1       4.606  -2.880   1.198  0.00  0.00     0.284 C 
ATOM      9  H3  UNL d   1       6.447  -2.633   0.258  0.00  0.00     0.395 HD
ENDBRANCH   1   7
TORSDOF 1
ENDMDL
