MODEL 1
REMARK minimizedAffinity -0.271233022
REMARK minimizedRMSD -1
REMARK  1 active torsions:
REMARK  status: ('A' for Active; 'I' for Inactive)
REMARK    1  A    between atoms: N_2  and  C1_3 
ROOT
ATOM      1  C1  UNL d   1       0.331  -1.918   1.254  0.00  0.00     0.143 A 
ATOM      2  C2  UNL d   1       1.030  -1.610   2.426  0.00  0.00    -0.057 A 
ATOM      3  C3  UNL d   1       0.368  -1.128   3.561  0.00  0.00     0.033 A 
ATOM      4  C4  UNL d   1      -1.007  -0.917   3.535  0.00  0.00    -0.042 A 
ATOM      5  C5  UNL d   1      -1.719  -1.193   2.373  0.00  0.00     0.033 A 
ATOM      6  C6  UNL d   1      -1.052  -1.681   1.244  0.00  0.00    -0.057 A 
ENDROOT
BRANCH   1   7
ATOM      7  N   UNL d   1       0.946  -2.307   0.061  0.00  0.00    -0.732 N 
ATOM      8  C   UNL d   1       0.548  -1.718  -1.199  0.00  0.00     0.284 C 
ATOM      9  H3  UNL d   1       1.951  -2.429   0.164  0.00  0.00     0.395 HD
ENDBRANCH   1   7
TORSDOF 1
ENDMDL
