MODEL 1
REMARK minimizedAffinity 8.32406139
REMARK minimizedRMSD -1
REMARK  1 active torsions:
REMARK  status: ('A' for Active; 'I' for Inactive)
REMARK    1  A    between atoms: N_2  and  C1_3 
ROOT
ATOM      1  C1  UNL d   1       0.925  -2.186   1.889  0.00  0.00     0.143 A 
ATOM      2  C2  UNL d   1       1.469  -3.471   1.999  0.00  0.00    -0.057 A 
ATOM      3  C3  UNL d   1       2.344  -3.974   1.028  0.00  0.00     0.033 A 
ATOM      4  C4  UNL d   1       2.668  -3.210  -0.088  0.00  0.00    -0.042 A 
ATOM      5  C5  UNL d   1       2.120  -1.940  -0.230  0.00  0.00     0.033 A 
ATOM      6  C6  UNL d   1       1.252  -1.441   0.746  0.00  0.00    -0.057 A 
ENDROOT
BRANCH   1   7
ATOM      7  N   UNL d   1      -0.027  -1.667   2.770  0.00  0.00    -0.732 N 
ATOM      8  C   UNL d   1      -1.410  -2.084   2.689  0.00  0.00     0.284 C 
ATOM      9  H3  UNL d   1       0.328  -1.584   3.720  0.00  0.00     0.395 HD
ENDBRANCH   1   7
TORSDOF 1
ENDMDL
