MODEL 1
REMARK minimizedAffinity 3.4322288
REMARK minimizedRMSD -1
REMARK  1 active torsions:
REMARK  status: ('A' for Active; 'I' for Inactive)
REMARK    1  A    between atoms: N_2  and  C1_3 
ROOT
ATOM      1  C1  UNL d   1       0.939  -1.947   2.155  0.00  0.00     0.143 A 
ATOM      2  C2  UNL d   1       1.137  -1.171   1.007  0.00  0.00    -0.057 A 
ATOM      3  C3  UNL d   1       1.932  -1.629  -0.051  0.00  0.00     0.033 A 
ATOM      4  C4  UNL d   1       2.569  -2.863   0.034  0.00  0.00    -0.042 A 
ATOM      5  C5  UNL d   1       2.408  -3.639   1.176  0.00  0.00     0.033 A 
ATOM      6  C6  UNL d   1       1.607  -3.179   2.226  0.00  0.00    -0.057 A 
ENDROOT
BRANCH   1   7
ATOM      7  N   UNL d   1       0.241  -1.505   3.281  0.00  0.00    -0.732 N 
ATOM      8  C   UNL d   1      -0.672  -0.385   3.191  0.00  0.00     0.284 C 
ATOM      9  H3  UNL d   1      -0.100  -2.274   3.853  0.00  0.00     0.395 HD
ENDBRANCH   1   7
TORSDOF 1
ENDMDL
