MODEL 1
REMARK minimizedAffinity 5.45548964
REMARK minimizedRMSD -1
REMARK  1 active torsions:
REMARK  status: ('A' for Active; 'I' for Inactive)
REMARK    1  A    between atoms: N_2  and  C1_3 
ROOT
ATOM      1  C1  UNL d   1       1.873  -0.080   1.637  0.00  0.00     0.143 A 
ATOM      2  C2  UNL d   1       1.255  -0.190   2.888  0.00  0.00    -0.057 A 
ATOM      3  C3  UNL d   1       0.956   0.945   3.651  0.00  0.00     0.033 A 
ATOM      4  C4  UNL d   1       1.296   2.212   3.189  0.00  0.00    -0.042 A 
ATOM      5  C5  UNL d   1       1.932   2.343   1.960  0.00  0.00     0.033 A 
ATOM      6  C6  UNL d   1       2.223   1.207   1.199  0.00  0.00    -0.057 A 
ENDROOT
BRANCH   1   7
ATOM      7  N   UNL d   1       2.285  -1.176   0.875  0.00  0.00    -0.732 N 
ATOM      8  C   UNL d   1       1.567  -1.552  -0.324  0.00  0.00     0.284 C 
ATOM      9  H3  UNL d   1       3.298  -1.228   0.786  0.00  0.00     0.395 HD
ENDBRANCH   1   7
TORSDOF 1
ENDMDL
