MODEL 1
REMARK minimizedAffinity 6.09988117
REMARK minimizedRMSD -1
REMARK  1 active torsions:
REMARK  status: ('A' for Active; 'I' for Inactive)
REMARK    1  A    between atoms: N_2  and  C1_3 
ROOT
ATOM      1  C1  UNL d   1      -0.103  -1.625   2.541  0.00  0.00     0.143 A 
ATOM      2  C2  UNL d   1       0.801  -2.620   2.929  0.00  0.00    -0.057 A 
ATOM      3  C3  UNL d   1       1.723  -3.157   2.022  0.00  0.00     0.033 A 
ATOM      4  C4  UNL d   1       1.738  -2.727   0.699  0.00  0.00    -0.042 A 
ATOM      5  C5  UNL d   1       0.831  -1.757   0.285  0.00  0.00     0.033 A 
ATOM      6  C6  UNL d   1      -0.083  -1.220   1.197  0.00  0.00    -0.057 A 
ENDROOT
BRANCH   1   7
ATOM      7  N   UNL d   1      -1.110  -1.123   3.369  0.00  0.00    -0.732 N 
ATOM      8  C   UNL d   1      -1.860   0.054   2.987  0.00  0.00     0.284 C 
ATOM      9  H3  UNL d   1      -1.675  -1.860   3.785  0.00  0.00     0.395 HD
ENDBRANCH   1   7
TORSDOF 1
ENDMDL
