MODEL 1
REMARK minimizedAffinity 5.47157621
REMARK minimizedRMSD -1
REMARK  1 active torsions:
REMARK  status: ('A' for Active; 'I' for Inactive)
REMARK    1  A    between atoms: N_2  and  C1_3 
ROOT
ATOM      1  C1  UNL d   1      -2.900   0.618   2.765  0.00  0.00     0.143 A 
ATOM      2  C2  UNL d   1      -1.653   0.418   3.367  0.00  0.00    -0.057 A 
ATOM      3  C3  UNL d   1      -0.738  -0.508   2.851  0.00  0.00     0.033 A 
ATOM      4  C4  UNL d   1      -1.068  -1.274   1.738  0.00  0.00    -0.042 A 
ATOM      5  C5  UNL d   1      -2.311  -1.110   1.138  0.00  0.00     0.033 A 
ATOM      6  C6  UNL d   1      -3.218  -0.178   1.654  0.00  0.00    -0.057 A 
ENDROOT
BRANCH   1   7
ATOM      7  N   UNL d   1      -3.891   1.452   3.288  0.00  0.00    -0.732 N 
ATOM      8  C   UNL d   1      -3.860   1.853   4.678  0.00  0.00     0.284 C 
ATOM      9  H3  UNL d   1      -4.149   2.199   2.646  0.00  0.00     0.395 HD
ENDBRANCH   1   7
TORSDOF 1
ENDMDL
