MODEL 1
REMARK minimizedAffinity 2.19567251
REMARK minimizedRMSD -1
REMARK  1 active torsions:
REMARK  status: ('A' for Active; 'I' for Inactive)
REMARK    1  A    between atoms: N_2  and  C1_3 
ROOT
ATOM      1  C1  UNL d   1       1.062  -2.020   2.038  0.00  0.00     0.143 A 
ATOM      2  C2  UNL d   1       1.209  -3.401   1.864  0.00  0.00    -0.057 A 
ATOM      3  C3  UNL d   1       1.954  -3.923   0.801  0.00  0.00     0.033 A 
ATOM      4  C4  UNL d   1       2.544  -3.072  -0.128  0.00  0.00    -0.042 A 
ATOM      5  C5  UNL d   1       2.390  -1.697   0.011  0.00  0.00     0.033 A 
ATOM      6  C6  UNL d   1       1.650  -1.181   1.079  0.00  0.00    -0.057 A 
ENDROOT
BRANCH   1   7
ATOM      7  N   UNL d   1       0.251  -1.442   3.018  0.00  0.00    -0.732 N 
ATOM      8  C   UNL d   1      -0.825  -0.547   2.650  0.00  0.00     0.284 C 
ATOM      9  H3  UNL d   1       0.014  -2.095   3.761  0.00  0.00     0.395 HD
ENDBRANCH   1   7
TORSDOF 1
ENDMDL
