MODEL 1
REMARK minimizedAffinity -2.49082375
REMARK minimizedRMSD -1
REMARK  0 active torsions:
REMARK  status: ('A' for Active; 'I' for Inactive)
ROOT
ATOM      1  O1  BZF d   1       0.787  -1.516  -4.187  0.00  0.00    -0.204 OA
ATOM      2  C2  BZF d   1       2.135  -1.218  -4.135  0.00  0.00     0.174 A 
ATOM      3  C3  BZF d   1       2.328   0.046  -3.704  0.00  0.00    -0.012 A 
ATOM      4  C3A BZF d   1       1.024   0.539  -3.386  0.00  0.00    -0.107 A 
ATOM      5  C4  BZF d   1       0.563   1.727  -2.895  0.00  0.00     0.055 A 
ATOM      6  C5  BZF d   1      -0.777   1.914  -2.767  0.00  0.00    -0.016 A 
ATOM      7  C6  BZF d   1      -1.684   0.937  -3.125  0.00  0.00     0.022 A 
ATOM      8  C7  BZF d   1      -1.274  -0.260  -3.611  0.00  0.00     0.029 A 
ATOM      9  C7A BZF d   1       0.081  -0.464  -3.711  0.00  0.00     0.058 A 
ENDROOT
TORSDOF 0
ENDMDL
