MODEL 1
REMARK minimizedAffinity 5.99371862
REMARK minimizedRMSD -1
REMARK  0 active torsions:
REMARK  status: ('A' for Active; 'I' for Inactive)
ROOT
ATOM      1  O1  BZF d   1       1.510  -1.007  -3.676  0.00  0.00    -0.204 OA
ATOM      2  C2  BZF d   1       2.832  -0.636  -3.525  0.00  0.00     0.174 A 
ATOM      3  C3  BZF d   1       2.937   0.694  -3.327  0.00  0.00    -0.012 A 
ATOM      4  C3A BZF d   1       1.590   1.172  -3.264  0.00  0.00    -0.107 A 
ATOM      5  C4  BZF d   1       1.040   2.406  -3.068  0.00  0.00     0.055 A 
ATOM      6  C5  BZF d   1      -0.310   2.546  -3.135  0.00  0.00    -0.016 A 
ATOM      7  C6  BZF d   1      -1.139   1.476  -3.400  0.00  0.00     0.022 A 
ATOM      8  C7  BZF d   1      -0.640   0.231  -3.596  0.00  0.00     0.029 A 
ATOM      9  C7A BZF d   1       0.721   0.080  -3.496  0.00  0.00     0.058 A 
ENDROOT
TORSDOF 0
ENDMDL
