MODEL 1
REMARK minimizedAffinity 3.86585188
REMARK minimizedRMSD -1
REMARK  0 active torsions:
REMARK  status: ('A' for Active; 'I' for Inactive)
ROOT
ATOM      1  O1  BZF d   1      -1.532   2.164  -3.270  0.00  0.00    -0.204 OA
ATOM      2  C2  BZF d   1      -2.565   1.666  -4.040  0.00  0.00     0.174 A 
ATOM      3  C3  BZF d   1      -3.180   0.643  -3.411  0.00  0.00    -0.012 A 
ATOM      4  C3A BZF d   1      -2.547   0.553  -2.131  0.00  0.00    -0.107 A 
ATOM      5  C4  BZF d   1      -2.730  -0.259  -1.049  0.00  0.00     0.055 A 
ATOM      6  C5  BZF d   1      -1.896  -0.135   0.018  0.00  0.00    -0.016 A 
ATOM      7  C6  BZF d   1      -0.868   0.785   0.033  0.00  0.00     0.022 A 
ATOM      8  C7  BZF d   1      -0.651   1.616  -1.016  0.00  0.00     0.029 A 
ATOM      9  C7A BZF d   1      -1.512   1.515  -2.081  0.00  0.00     0.058 A 
ENDROOT
TORSDOF 0
ENDMDL
