MODEL 1
REMARK minimizedAffinity 13.9728556
REMARK minimizedRMSD -1
REMARK  0 active torsions:
REMARK  status: ('A' for Active; 'I' for Inactive)
ROOT
ATOM      1  O1  BZF d   1       5.999   0.387   1.805  0.00  0.00    -0.204 OA
ATOM      2  C2  BZF d   1       5.187  -0.327   2.665  0.00  0.00     0.174 A 
ATOM      3  C3  BZF d   1       3.906   0.080   2.561  0.00  0.00    -0.012 A 
ATOM      4  C3A BZF d   1       3.903   1.049   1.508  0.00  0.00    -0.107 A 
ATOM      5  C4  BZF d   1       2.922   1.800   0.926  0.00  0.00     0.055 A 
ATOM      6  C5  BZF d   1       3.262   2.705  -0.028  0.00  0.00    -0.016 A 
ATOM      7  C6  BZF d   1       4.572   2.888  -0.422  0.00  0.00     0.022 A 
ATOM      8  C7  BZF d   1       5.579   2.162   0.122  0.00  0.00     0.029 A 
ATOM      9  C7A BZF d   1       5.234   1.224   1.064  0.00  0.00     0.058 A 
ENDROOT
TORSDOF 0
ENDMDL
