MODEL 1
REMARK minimizedAffinity 6.46585846
REMARK minimizedRMSD -1
REMARK  0 active torsions:
REMARK  status: ('A' for Active; 'I' for Inactive)
ROOT
ATOM      1  O1  BZF d   1       0.870   3.491  -3.504  0.00  0.00    -0.204 OA
ATOM      2  C2  BZF d   1       1.141   4.101  -4.713  0.00  0.00     0.174 A 
ATOM      3  C3  BZF d   1       2.230   3.555  -5.291  0.00  0.00    -0.012 A 
ATOM      4  C3A BZF d   1       2.614   2.479  -4.430  0.00  0.00    -0.107 A 
ATOM      5  C4  BZF d   1       3.615   1.551  -4.476  0.00  0.00     0.055 A 
ATOM      6  C5  BZF d   1       3.759   0.683  -3.440  0.00  0.00    -0.016 A 
ATOM      7  C6  BZF d   1       2.924   0.718  -2.342  0.00  0.00     0.022 A 
ATOM      8  C7  BZF d   1       1.914   1.617  -2.254  0.00  0.00     0.029 A 
ATOM      9  C7A BZF d   1       1.745   2.474  -3.314  0.00  0.00     0.058 A 
ENDROOT
TORSDOF 0
ENDMDL
