MODEL 1
REMARK minimizedAffinity 6.91114092
REMARK minimizedRMSD -1
REMARK  0 active torsions:
REMARK  status: ('A' for Active; 'I' for Inactive)
ROOT
ATOM      1  O1  BZF d   1      -1.218  -5.976  -0.386  0.00  0.00    -0.204 OA
ATOM      2  C2  BZF d   1      -2.482  -5.959   0.171  0.00  0.00     0.174 A 
ATOM      3  C3  BZF d   1      -2.411  -5.997   1.518  0.00  0.00    -0.012 A 
ATOM      4  C3A BZF d   1      -1.014  -5.947   1.823  0.00  0.00    -0.107 A 
ATOM      5  C4  BZF d   1      -0.308  -5.938   2.991  0.00  0.00     0.055 A 
ATOM      6  C5  BZF d   1       1.050  -5.959   2.943  0.00  0.00    -0.016 A 
ATOM      7  C6  BZF d   1       1.733  -5.995   1.745  0.00  0.00     0.022 A 
ATOM      8  C7  BZF d   1       1.076  -6.000   0.559  0.00  0.00     0.029 A 
ATOM      9  C7A BZF d   1      -0.296  -5.945   0.605  0.00  0.00     0.058 A 
ENDROOT
TORSDOF 0
ENDMDL
