MODEL 1
REMARK minimizedAffinity 7.81185341
REMARK minimizedRMSD -1
REMARK  0 active torsions:
REMARK  status: ('A' for Active; 'I' for Inactive)
ROOT
ATOM      1  O1  BZF d   1      -0.758  -5.619   0.004  0.00  0.00    -0.204 OA
ATOM      2  C2  BZF d   1      -1.714  -5.768   0.990  0.00  0.00     0.174 A 
ATOM      3  C3  BZF d   1      -1.136  -5.993   2.187  0.00  0.00    -0.012 A 
ATOM      4  C3A BZF d   1       0.271  -5.891   1.951  0.00  0.00    -0.107 A 
ATOM      5  C4  BZF d   1       1.369  -6.000   2.756  0.00  0.00     0.055 A 
ATOM      6  C5  BZF d   1       2.606  -5.920   2.200  0.00  0.00    -0.016 A 
ATOM      7  C6  BZF d   1       2.783  -5.738   0.844  0.00  0.00     0.022 A 
ATOM      8  C7  BZF d   1       1.724  -5.619   0.006  0.00  0.00     0.029 A 
ATOM      9  C7A BZF d   1       0.472  -5.666   0.569  0.00  0.00     0.058 A 
ENDROOT
TORSDOF 0
ENDMDL
