MODEL 1
REMARK minimizedAffinity 10.5515127
REMARK minimizedRMSD -1
REMARK  0 active torsions:
REMARK  status: ('A' for Active; 'I' for Inactive)
ROOT
ATOM      1  O1  BZF d   1      -0.301   2.158  -2.351  0.00  0.00    -0.204 OA
ATOM      2  C2  BZF d   1       0.931   2.698  -2.668  0.00  0.00     0.174 A 
ATOM      3  C3  BZF d   1       1.032   2.911  -3.996  0.00  0.00    -0.012 A 
ATOM      4  C3A BZF d   1      -0.249   2.564  -4.531  0.00  0.00    -0.107 A 
ATOM      5  C4  BZF d   1      -0.775   2.578  -5.792  0.00  0.00     0.055 A 
ATOM      6  C5  BZF d   1      -2.034   2.107  -5.987  0.00  0.00    -0.016 A 
ATOM      7  C6  BZF d   1      -2.793   1.610  -4.947  0.00  0.00     0.022 A 
ATOM      8  C7  BZF d   1      -2.316   1.580  -3.679  0.00  0.00     0.029 A 
ATOM      9  C7A BZF d   1      -1.056   2.086  -3.473  0.00  0.00     0.058 A 
ENDROOT
TORSDOF 0
ENDMDL
