MODEL 1
REMARK minimizedAffinity 15.0787344
REMARK minimizedRMSD -1
REMARK  0 active torsions:
REMARK  status: ('A' for Active; 'I' for Inactive)
ROOT
ATOM      1  O1  BZF d   1      -3.816   2.611   2.808  0.00  0.00    -0.204 OA
ATOM      2  C2  BZF d   1      -4.152   1.946   1.645  0.00  0.00     0.174 A 
ATOM      3  C3  BZF d   1      -4.974   0.910   1.907  0.00  0.00    -0.012 A 
ATOM      4  C3A BZF d   1      -5.238   0.985   3.312  0.00  0.00    -0.107 A 
ATOM      5  C4  BZF d   1      -6.000   0.239   4.165  0.00  0.00     0.055 A 
ATOM      6  C5  BZF d   1      -5.984   0.532   5.492  0.00  0.00    -0.016 A 
ATOM      7  C6  BZF d   1      -5.216   1.559   6.000  0.00  0.00     0.022 A 
ATOM      8  C7  BZF d   1      -4.449   2.330   5.192  0.00  0.00     0.029 A 
ATOM      9  C7A BZF d   1      -4.487   2.057   3.846  0.00  0.00     0.058 A 
ENDROOT
TORSDOF 0
ENDMDL
