MODEL 1
REMARK minimizedAffinity 9.28716564
REMARK minimizedRMSD -1
REMARK  0 active torsions:
REMARK  status: ('A' for Active; 'I' for Inactive)
ROOT
ATOM      1  O1  BZF d   1       3.055   3.271  -5.203  0.00  0.00    -0.204 OA
ATOM      2  C2  BZF d   1       2.129   4.235  -4.856  0.00  0.00     0.174 A 
ATOM      3  C3  BZF d   1       1.489   3.897  -3.718  0.00  0.00    -0.012 A 
ATOM      4  C3A BZF d   1       2.116   2.687  -3.280  0.00  0.00    -0.107 A 
ATOM      5  C4  BZF d   1       1.931   1.872  -2.200  0.00  0.00     0.055 A 
ATOM      6  C5  BZF d   1       2.659   0.728  -2.104  0.00  0.00    -0.016 A 
ATOM      7  C6  BZF d   1       3.575   0.367  -3.070  0.00  0.00     0.022 A 
ATOM      8  C7  BZF d   1       3.796   1.146  -4.157  0.00  0.00     0.029 A 
ATOM      9  C7A BZF d   1       3.086   2.319  -4.240  0.00  0.00     0.058 A 
ENDROOT
TORSDOF 0
ENDMDL
