MODEL 1
REMARK minimizedAffinity 2.73317289
REMARK minimizedRMSD -1
REMARK  0 active torsions:
REMARK  status: ('A' for Active; 'I' for Inactive)
ROOT
ATOM      1  O1  BZF d   1      -2.503   1.777  -3.801  0.00  0.00    -0.204 OA
ATOM      2  C2  BZF d   1      -3.059   0.568  -4.170  0.00  0.00     0.174 A 
ATOM      3  C3  BZF d   1      -2.120  -0.400  -4.205  0.00  0.00    -0.012 A 
ATOM      4  C3A BZF d   1      -0.918   0.226  -3.745  0.00  0.00    -0.107 A 
ATOM      5  C4  BZF d   1       0.356  -0.223  -3.543  0.00  0.00     0.055 A 
ATOM      6  C5  BZF d   1       1.314   0.661  -3.158  0.00  0.00    -0.016 A 
ATOM      7  C6  BZF d   1       1.035   1.998  -2.970  0.00  0.00     0.022 A 
ATOM      8  C7  BZF d   1      -0.215   2.489  -3.154  0.00  0.00     0.029 A 
ATOM      9  C7A BZF d   1      -1.193   1.593  -3.511  0.00  0.00     0.058 A 
ENDROOT
TORSDOF 0
ENDMDL
