MODEL 1
REMARK minimizedAffinity -0.619019091
REMARK minimizedRMSD -1
REMARK  0 active torsions:
REMARK  status: ('A' for Active; 'I' for Inactive)
ROOT
ATOM      1  O1  BZF d   1       2.043  -1.520   2.611  0.00  0.00    -0.204 OA
ATOM      2  C2  BZF d   1       0.767  -1.308   2.126  0.00  0.00     0.174 A 
ATOM      3  C3  BZF d   1       0.728  -0.209   1.346  0.00  0.00    -0.012 A 
ATOM      4  C3A BZF d   1       2.083   0.246   1.268  0.00  0.00    -0.107 A 
ATOM      5  C4  BZF d   1       2.689   1.287   0.625  0.00  0.00     0.055 A 
ATOM      6  C5  BZF d   1       4.018   1.497   0.814  0.00  0.00    -0.016 A 
ATOM      7  C6  BZF d   1       4.770   0.688   1.641  0.00  0.00     0.022 A 
ATOM      8  C7  BZF d   1       4.215  -0.360   2.296  0.00  0.00     0.029 A 
ATOM      9  C7A BZF d   1       2.879  -0.594   2.081  0.00  0.00     0.058 A 
ENDROOT
TORSDOF 0
ENDMDL
