MODEL 1
REMARK minimizedAffinity 3.81285572
REMARK minimizedRMSD -1
REMARK  0 active torsions:
REMARK  status: ('A' for Active; 'I' for Inactive)
ROOT
ATOM      1  O1  BZF d   1      -2.734   2.052   1.202  0.00  0.00    -0.204 OA
ATOM      2  C2  BZF d   1      -1.448   1.870   0.731  0.00  0.00     0.174 A 
ATOM      3  C3  BZF d   1      -1.333   0.683   0.102  0.00  0.00    -0.012 A 
ATOM      4  C3A BZF d   1      -2.651   0.126   0.104  0.00  0.00    -0.107 A 
ATOM      5  C4  BZF d   1      -3.182  -1.032  -0.387  0.00  0.00     0.055 A 
ATOM      6  C5  BZF d   1      -4.492  -1.309  -0.153  0.00  0.00    -0.016 A 
ATOM      7  C6  BZF d   1      -5.297  -0.455   0.571  0.00  0.00     0.022 A 
ATOM      8  C7  BZF d   1      -4.817   0.708   1.074  0.00  0.00     0.029 A 
ATOM      9  C7A BZF d   1      -3.502   1.007   0.811  0.00  0.00     0.058 A 
ENDROOT
TORSDOF 0
ENDMDL
