MODEL 1
REMARK minimizedAffinity 12.9273119
REMARK minimizedRMSD -1
REMARK  0 active torsions:
REMARK  status: ('A' for Active; 'I' for Inactive)
ROOT
ATOM      1  O1  BZF d   1       1.307   0.140  -2.586  0.00  0.00    -0.204 OA
ATOM      2  C2  BZF d   1       2.199  -0.858  -2.926  0.00  0.00     0.174 A 
ATOM      3  C3  BZF d   1       3.248  -0.871  -2.078  0.00  0.00    -0.012 A 
ATOM      4  C3A BZF d   1       2.949   0.125  -1.095  0.00  0.00    -0.107 A 
ATOM      5  C4  BZF d   1       3.602   0.570   0.019  0.00  0.00     0.055 A 
ATOM      6  C5  BZF d   1       3.077   1.607   0.723  0.00  0.00    -0.016 A 
ATOM      7  C6  BZF d   1       1.905   2.225   0.339  0.00  0.00     0.022 A 
ATOM      8  C7  BZF d   1       1.219   1.815  -0.756  0.00  0.00     0.029 A 
ATOM      9  C7A BZF d   1       1.730   0.746  -1.450  0.00  0.00     0.058 A 
ENDROOT
TORSDOF 0
ENDMDL
