MODEL 1
REMARK minimizedAffinity 16.2554436
REMARK minimizedRMSD -1
REMARK  0 active torsions:
REMARK  status: ('A' for Active; 'I' for Inactive)
ROOT
ATOM      1  O1  BZF d   1       3.036  -3.200   2.103  0.00  0.00    -0.204 OA
ATOM      2  C2  BZF d   1       4.023  -3.749   1.307  0.00  0.00     0.174 A 
ATOM      3  C3  BZF d   1       3.608  -4.911   0.763  0.00  0.00    -0.012 A 
ATOM      4  C3A BZF d   1       2.246  -5.055   1.176  0.00  0.00    -0.107 A 
ATOM      5  C4  BZF d   1       1.288  -6.000   0.942  0.00  0.00     0.055 A 
ATOM      6  C5  BZF d   1       0.080  -5.881   1.552  0.00  0.00    -0.016 A 
ATOM      7  C6  BZF d   1      -0.203  -4.834   2.405  0.00  0.00     0.022 A 
ATOM      8  C7  BZF d   1       0.713  -3.870   2.664  0.00  0.00     0.029 A 
ATOM      9  C7A BZF d   1       1.924  -3.969   2.023  0.00  0.00     0.058 A 
ENDROOT
TORSDOF 0
ENDMDL
