MODEL 1
REMARK minimizedAffinity 8.89262962
REMARK minimizedRMSD -1
REMARK  0 active torsions:
REMARK  status: ('A' for Active; 'I' for Inactive)
ROOT
ATOM      1  O1  BZF d   1       3.779   0.530  -4.727  0.00  0.00    -0.204 OA
ATOM      2  C2  BZF d   1       3.825  -0.504  -3.812  0.00  0.00     0.174 A 
ATOM      3  C3  BZF d   1       2.971  -0.280  -2.793  0.00  0.00    -0.012 A 
ATOM      4  C3A BZF d   1       2.285   0.928  -3.135  0.00  0.00    -0.107 A 
ATOM      5  C4  BZF d   1       1.303   1.655  -2.526  0.00  0.00     0.055 A 
ATOM      6  C5  BZF d   1       0.903   2.826  -3.087  0.00  0.00    -0.016 A 
ATOM      7  C6  BZF d   1       1.467   3.303  -4.252  0.00  0.00     0.022 A 
ATOM      8  C7  BZF d   1       2.441   2.614  -4.896  0.00  0.00     0.029 A 
ATOM      9  C7A BZF d   1       2.824   1.414  -4.349  0.00  0.00     0.058 A 
ENDROOT
TORSDOF 0
ENDMDL
