MODEL 1
REMARK minimizedAffinity 4.31287575
REMARK minimizedRMSD -1
REMARK  0 active torsions:
REMARK  status: ('A' for Active; 'I' for Inactive)
ROOT
ATOM      1  O1  BZF d   1       1.137   1.701   1.349  0.00  0.00    -0.204 OA
ATOM      2  C2  BZF d   1       2.211   1.693   0.479  0.00  0.00     0.174 A 
ATOM      3  C3  BZF d   1       1.808   1.406  -0.775  0.00  0.00    -0.012 A 
ATOM      4  C3A BZF d   1       0.382   1.314  -0.701  0.00  0.00    -0.107 A 
ATOM      5  C4  BZF d   1      -0.592   1.067  -1.626  0.00  0.00     0.055 A 
ATOM      6  C5  BZF d   1      -1.884   0.973  -1.215  0.00  0.00    -0.016 A 
ATOM      7  C6  BZF d   1      -2.236   1.115   0.111  0.00  0.00     0.022 A 
ATOM      8  C7  BZF d   1      -1.306   1.366   1.064  0.00  0.00     0.029 A 
ATOM      9  C7A BZF d   1      -0.003   1.494   0.647  0.00  0.00     0.058 A 
ENDROOT
TORSDOF 0
ENDMDL
