MODEL 1
REMARK minimizedAffinity -4.91053677
REMARK minimizedRMSD -1
REMARK  2 active torsions:
REMARK  status: ('A' for Active; 'I' for Inactive)
REMARK    1  A    between atoms: C1_2  and  C2_3 
REMARK    2  A    between atoms: C2_3  and  C3_4 
ROOT
ATOM      1  C3  UNL d   1      -0.698   0.508   0.585  0.00  0.00    -0.075 A 
ATOM      2  C4  UNL d   1      -1.700   0.418   1.563  0.00  0.00     0.002 A 
ATOM      3  C5  UNL d   1      -1.977  -0.801   2.183  0.00  0.00     0.002 A 
ATOM      4  C6  UNL d   1      -1.265  -1.945   1.826  0.00  0.00    -0.004 A 
ATOM      5  C7  UNL d   1      -0.280  -1.870   0.844  0.00  0.00     0.002 A 
ATOM      6  C8  UNL d   1       0.002  -0.651   0.226  0.00  0.00     0.002 A 
ENDROOT
BRANCH   1   7
ATOM      7  C2  UNL d   1      -0.374   1.830  -0.069  0.00  0.00     0.056 C 
BRANCH   7   8
ATOM      8  C1  UNL d   1       0.911   1.813  -0.905  0.00  0.00     0.007 C 
ATOM      9  C   UNL d   1       0.689   2.227  -2.353  0.00  0.00     0.009 C 
ENDBRANCH   7   8
ENDBRANCH   1   7
TORSDOF 2
ENDMDL
