MODEL 1
REMARK minimizedAffinity -1.70608926
REMARK minimizedRMSD -1
REMARK  2 active torsions:
REMARK  status: ('A' for Active; 'I' for Inactive)
REMARK    1  A    between atoms: C1_2  and  C2_3 
REMARK    2  A    between atoms: C2_3  and  C3_4 
ROOT
ATOM      1  C3  UNL d   1      -0.200  -0.789   0.280  0.00  0.00    -0.075 A 
ATOM      2  C4  UNL d   1       0.053  -1.903   1.093  0.00  0.00     0.002 A 
ATOM      3  C5  UNL d   1      -0.977  -2.491   1.828  0.00  0.00     0.002 A 
ATOM      4  C6  UNL d   1      -2.267  -1.970   1.767  0.00  0.00    -0.004 A 
ATOM      5  C7  UNL d   1      -2.526  -0.853   0.974  0.00  0.00     0.002 A 
ATOM      6  C8  UNL d   1      -1.499  -0.265   0.235  0.00  0.00     0.002 A 
ENDROOT
BRANCH   1   7
ATOM      7  C2  UNL d   1       0.904  -0.165  -0.541  0.00  0.00     0.056 C 
BRANCH   7   8
ATOM      8  C1  UNL d   1       0.661   1.305  -0.897  0.00  0.00     0.007 C 
ATOM      9  C   UNL d   1       0.956   1.626  -2.356  0.00  0.00     0.009 C 
ENDBRANCH   7   8
ENDBRANCH   1   7
TORSDOF 2
ENDMDL
