MODEL 1
REMARK minimizedAffinity -5.54061747
REMARK minimizedRMSD -1
REMARK  2 active torsions:
REMARK  status: ('A' for Active; 'I' for Inactive)
REMARK    1  A    between atoms: C1_2  and  C2_3 
REMARK    2  A    between atoms: C2_3  and  C3_4 
ROOT
ATOM      1  C3  UNL d   1       0.123   0.496   0.166  0.00  0.00    -0.075 A 
ATOM      2  C4  UNL d   1       0.942  -0.643   0.151  0.00  0.00     0.002 A 
ATOM      3  C5  UNL d   1       0.414  -1.899   0.449  0.00  0.00     0.002 A 
ATOM      4  C6  UNL d   1      -0.934  -2.032   0.775  0.00  0.00    -0.004 A 
ATOM      5  C7  UNL d   1      -1.753  -0.906   0.809  0.00  0.00     0.002 A 
ATOM      6  C8  UNL d   1      -1.229   0.352   0.507  0.00  0.00     0.002 A 
ENDROOT
BRANCH   1   7
ATOM      7  C2  UNL d   1       0.682   1.854  -0.184  0.00  0.00     0.056 C 
BRANCH   7   8
ATOM      8  C1  UNL d   1       1.373   1.911  -1.550  0.00  0.00     0.007 C 
ATOM      9  C   UNL d   1       0.400   1.824  -2.719  0.00  0.00     0.009 C 
ENDBRANCH   7   8
ENDBRANCH   1   7
TORSDOF 2
ENDMDL
