MODEL 1
REMARK minimizedAffinity -6.46467638
REMARK minimizedRMSD -1
REMARK  2 active torsions:
REMARK  status: ('A' for Active; 'I' for Inactive)
REMARK    1  A    between atoms: C1_2  and  C2_3 
REMARK    2  A    between atoms: C2_3  and  C3_4 
ROOT
ATOM      1  C3  UNL d   1       0.068   0.103  -0.251  0.00  0.00    -0.075 A 
ATOM      2  C4  UNL d   1       0.650  -1.145   0.015  0.00  0.00     0.002 A 
ATOM      3  C5  UNL d   1      -0.099  -2.166   0.601  0.00  0.00     0.002 A 
ATOM      4  C6  UNL d   1      -1.434  -1.949   0.937  0.00  0.00    -0.004 A 
ATOM      5  C7  UNL d   1      -2.017  -0.708   0.693  0.00  0.00     0.002 A 
ATOM      6  C8  UNL d   1      -1.271   0.313   0.103  0.00  0.00     0.002 A 
ENDROOT
BRANCH   1   7
ATOM      7  C2  UNL d   1       0.866   1.202  -0.911  0.00  0.00     0.056 C 
BRANCH   7   8
ATOM      8  C1  UNL d   1       0.238   1.739  -2.202  0.00  0.00     0.007 C 
ATOM      9  C   UNL d   1       1.085   1.471  -3.438  0.00  0.00     0.009 C 
ENDBRANCH   7   8
ENDBRANCH   1   7
TORSDOF 2
ENDMDL
