MODEL 1
REMARK minimizedAffinity -0.0157957226
REMARK minimizedRMSD -1
REMARK  2 active torsions:
REMARK  status: ('A' for Active; 'I' for Inactive)
REMARK    1  A    between atoms: C1_2  and  C2_3 
REMARK    2  A    between atoms: C2_3  and  C3_4 
ROOT
ATOM      1  C3  UNL d   1       3.091   2.222  -3.716  0.00  0.00    -0.075 A 
ATOM      2  C4  UNL d   1       2.343   1.734  -2.635  0.00  0.00     0.002 A 
ATOM      3  C5  UNL d   1       0.954   1.862  -2.619  0.00  0.00     0.002 A 
ATOM      4  C6  UNL d   1       0.297   2.487  -3.677  0.00  0.00    -0.004 A 
ATOM      5  C7  UNL d   1       1.032   2.991  -4.748  0.00  0.00     0.002 A 
ATOM      6  C8  UNL d   1       2.421   2.861  -4.768  0.00  0.00     0.002 A 
ENDROOT
BRANCH   1   7
ATOM      7  C2  UNL d   1       4.592   2.061  -3.753  0.00  0.00     0.056 C 
BRANCH   7   8
ATOM      8  C1  UNL d   1       5.315   2.670  -2.547  0.00  0.00     0.007 C 
ATOM      9  C   UNL d   1       6.000   3.993  -2.863  0.00  0.00     0.009 C 
ENDBRANCH   7   8
ENDBRANCH   1   7
TORSDOF 2
ENDMDL
