MODEL 1
REMARK minimizedAffinity -2.24679732
REMARK minimizedRMSD -1
REMARK  2 active torsions:
REMARK  status: ('A' for Active; 'I' for Inactive)
REMARK    1  A    between atoms: C1_2  and  C2_3 
REMARK    2  A    between atoms: C2_3  and  C3_4 
ROOT
ATOM      1  C3  UNL d   1      -0.572  -1.309   0.433  0.00  0.00    -0.075 A 
ATOM      2  C4  UNL d   1      -1.406  -0.188   0.546  0.00  0.00     0.002 A 
ATOM      3  C5  UNL d   1      -0.927   1.085   0.234  0.00  0.00     0.002 A 
ATOM      4  C6  UNL d   1       0.391   1.254  -0.183  0.00  0.00    -0.004 A 
ATOM      5  C7  UNL d   1       1.233   0.149  -0.282  0.00  0.00     0.002 A 
ATOM      6  C8  UNL d   1       0.756  -1.126   0.024  0.00  0.00     0.002 A 
ENDROOT
BRANCH   1   7
ATOM      7  C2  UNL d   1      -1.092  -2.693   0.740  0.00  0.00     0.056 C 
BRANCH   7   8
ATOM      8  C1  UNL d   1      -1.556  -2.878   2.189  0.00  0.00     0.007 C 
ATOM      9  C   UNL d   1      -0.416  -2.816   3.197  0.00  0.00     0.009 C 
ENDBRANCH   7   8
ENDBRANCH   1   7
TORSDOF 2
ENDMDL
