MODEL 1
REMARK minimizedAffinity -5.70907688
REMARK minimizedRMSD -1
REMARK  2 active torsions:
REMARK  status: ('A' for Active; 'I' for Inactive)
REMARK    1  A    between atoms: C1_2  and  C2_3 
REMARK    2  A    between atoms: C2_3  and  C3_4 
ROOT
ATOM      1  C3  UNL d   1      -0.330  -1.495   0.225  0.00  0.00    -0.075 A 
ATOM      2  C4  UNL d   1      -0.671  -0.182  -0.132  0.00  0.00     0.002 A 
ATOM      3  C5  UNL d   1       0.317   0.794  -0.267  0.00  0.00     0.002 A 
ATOM      4  C6  UNL d   1       1.653   0.474  -0.038  0.00  0.00    -0.004 A 
ATOM      5  C7  UNL d   1       2.002  -0.823   0.333  0.00  0.00     0.002 A 
ATOM      6  C8  UNL d   1       1.016  -1.803   0.465  0.00  0.00     0.002 A 
ENDROOT
BRANCH   1   7
ATOM      7  C2  UNL d   1      -1.390  -2.563   0.344  0.00  0.00     0.056 C 
BRANCH   7   8
ATOM      8  C1  UNL d   1      -2.171  -2.523   1.662  0.00  0.00     0.007 C 
ATOM      9  C   UNL d   1      -2.404  -1.109   2.179  0.00  0.00     0.009 C 
ENDBRANCH   7   8
ENDBRANCH   1   7
TORSDOF 2
ENDMDL
