MODEL 1
REMARK minimizedAffinity -4.87034178
REMARK minimizedRMSD -1
REMARK  2 active torsions:
REMARK  status: ('A' for Active; 'I' for Inactive)
REMARK    1  A    between atoms: C1_2  and  C2_3 
REMARK    2  A    between atoms: C2_3  and  C3_4 
ROOT
ATOM      1  C3  UNL d   1      -0.545  -0.320   0.835  0.00  0.00    -0.075 A 
ATOM      2  C4  UNL d   1      -1.718  -0.137   1.582  0.00  0.00     0.002 A 
ATOM      3  C5  UNL d   1      -2.572  -1.211   1.834  0.00  0.00     0.002 A 
ATOM      4  C6  UNL d   1      -2.270  -2.477   1.336  0.00  0.00    -0.004 A 
ATOM      5  C7  UNL d   1      -1.116  -2.667   0.579  0.00  0.00     0.002 A 
ATOM      6  C8  UNL d   1      -0.258  -1.595   0.328  0.00  0.00     0.002 A 
ENDROOT
BRANCH   1   7
ATOM      7  C2  UNL d   1       0.398   0.832   0.583  0.00  0.00     0.056 C 
BRANCH   7   8
ATOM      8  C1  UNL d   1       0.707   1.073  -0.899  0.00  0.00     0.007 C 
ATOM      9  C   UNL d   1       2.001   1.842  -1.125  0.00  0.00     0.009 C 
ENDBRANCH   7   8
ENDBRANCH   1   7
TORSDOF 2
ENDMDL
