MODEL 1
REMARK minimizedAffinity -5.11606359
REMARK minimizedRMSD -1
REMARK  2 active torsions:
REMARK  status: ('A' for Active; 'I' for Inactive)
REMARK    1  A    between atoms: C1_2  and  C2_3 
REMARK    2  A    between atoms: C2_3  and  C3_4 
ROOT
ATOM      1  C3  UNL d   1       0.021   0.265   0.047  0.00  0.00    -0.075 A 
ATOM      2  C4  UNL d   1      -1.274  -0.077   0.463  0.00  0.00     0.002 A 
ATOM      3  C5  UNL d   1      -1.514  -1.289   1.111  0.00  0.00     0.002 A 
ATOM      4  C6  UNL d   1      -0.466  -2.177   1.343  0.00  0.00    -0.004 A 
ATOM      5  C7  UNL d   1       0.821  -1.856   0.919  0.00  0.00     0.002 A 
ATOM      6  C8  UNL d   1       1.065  -0.642   0.274  0.00  0.00     0.002 A 
ENDROOT
BRANCH   1   7
ATOM      7  C2  UNL d   1       0.292   1.588  -0.629  0.00  0.00     0.056 C 
BRANCH   7   8
ATOM      8  C1  UNL d   1       1.224   1.489  -1.841  0.00  0.00     0.007 C 
ATOM      9  C   UNL d   1       0.637   2.111  -3.101  0.00  0.00     0.009 C 
ENDBRANCH   7   8
ENDBRANCH   1   7
TORSDOF 2
ENDMDL
