MODEL 1
REMARK minimizedAffinity -4.96131706
REMARK minimizedRMSD -1
REMARK  2 active torsions:
REMARK  status: ('A' for Active; 'I' for Inactive)
REMARK    1  A    between atoms: C1_2  and  C2_3 
REMARK    2  A    between atoms: C2_3  and  C3_4 
ROOT
ATOM      1  C3  UNL d   1      -4.449  -3.062   3.410  0.00  0.00    -0.075 A 
ATOM      2  C4  UNL d   1      -4.189  -3.177   4.783  0.00  0.00     0.002 A 
ATOM      3  C5  UNL d   1      -4.771  -4.201   5.530  0.00  0.00     0.002 A 
ATOM      4  C6  UNL d   1      -5.626  -5.115   4.918  0.00  0.00    -0.004 A 
ATOM      5  C7  UNL d   1      -5.904  -5.000   3.558  0.00  0.00     0.002 A 
ATOM      6  C8  UNL d   1      -5.320  -3.979   2.807  0.00  0.00     0.002 A 
ENDROOT
BRANCH   1   7
ATOM      7  C2  UNL d   1      -3.800  -1.973   2.589  0.00  0.00     0.056 C 
BRANCH   7   8
ATOM      8  C1  UNL d   1      -2.356  -1.660   2.998  0.00  0.00     0.007 C 
ATOM      9  C   UNL d   1      -1.321  -2.281   2.070  0.00  0.00     0.009 C 
ENDBRANCH   7   8
ENDBRANCH   1   7
TORSDOF 2
ENDMDL
