MODEL 1
REMARK minimizedAffinity -5.01629543
REMARK minimizedRMSD -1
REMARK  1 active torsions:
REMARK  status: ('A' for Active; 'I' for Inactive)
REMARK    1  A    between atoms: C1_2  and  C2_3 
ROOT
ATOM      1  C2  UNL d   1       0.602   0.024  -0.462  0.00  0.00    -0.081 A 
ATOM      2  C3  UNL d   1       0.093  -0.482   0.740  0.00  0.00     0.006 A 
ATOM      3  C4  UNL d   1      -0.805   0.270   1.501  0.00  0.00     0.002 A 
ATOM      4  C5  UNL d   1      -1.214   1.537   1.069  0.00  0.00    -0.080 A 
ATOM      5  C6  UNL d   1      -2.201   2.342   1.861  0.00  0.00     0.076 C 
ATOM      6  C7  UNL d   1      -0.692   2.049  -0.123  0.00  0.00     0.002 A 
ATOM      7  C8  UNL d   1       0.207   1.298  -0.884  0.00  0.00     0.006 A 
ENDROOT
BRANCH   1   8
ATOM      8  C1  UNL d   1       1.520  -0.812  -1.318  0.00  0.00     0.054 C 
ATOM      9  C   UNL d   1       1.000  -2.235  -1.461  0.00  0.00     0.018 C 
ENDBRANCH   1   8
TORSDOF 1
ENDMDL
