MODEL 1
REMARK minimizedAffinity -3.99129224
REMARK minimizedRMSD -1
REMARK  1 active torsions:
REMARK  status: ('A' for Active; 'I' for Inactive)
REMARK    1  A    between atoms: C1_2  and  C2_3 
ROOT
ATOM      1  C2  UNL d   1       0.465  -0.905  -0.583  0.00  0.00    -0.081 A 
ATOM      2  C3  UNL d   1       0.239  -1.068   0.790  0.00  0.00     0.006 A 
ATOM      3  C4  UNL d   1      -0.507  -0.124   1.501  0.00  0.00     0.002 A 
ATOM      4  C5  UNL d   1      -1.045   0.992   0.851  0.00  0.00    -0.080 A 
ATOM      5  C6  UNL d   1      -1.873   1.996   1.597  0.00  0.00     0.076 C 
ATOM      6  C7  UNL d   1      -0.804   1.163  -0.516  0.00  0.00     0.002 A 
ATOM      7  C8  UNL d   1      -0.058   0.221  -1.228  0.00  0.00     0.006 A 
ENDROOT
BRANCH   1   8
ATOM      8  C1  UNL d   1       1.214  -1.954  -1.365  0.00  0.00     0.054 C 
ATOM      9  C   UNL d   1       0.433  -2.387  -2.598  0.00  0.00     0.018 C 
ENDBRANCH   1   8
TORSDOF 1
ENDMDL
