MODEL 1
REMARK minimizedAffinity 1.37114823
REMARK minimizedRMSD -1
REMARK  1 active torsions:
REMARK  status: ('A' for Active; 'I' for Inactive)
REMARK    1  A    between atoms: C1_2  and  C2_3 
ROOT
ATOM      1  C2  UNL d   1      -0.815   1.143  -0.208  0.00  0.00    -0.081 A 
ATOM      2  C3  UNL d   1      -0.794   1.466   1.154  0.00  0.00     0.006 A 
ATOM      3  C4  UNL d   1      -0.109   0.657   2.064  0.00  0.00     0.002 A 
ATOM      4  C5  UNL d   1       0.573  -0.483   1.626  0.00  0.00    -0.080 A 
ATOM      5  C6  UNL d   1       1.338  -1.343   2.588  0.00  0.00     0.076 C 
ATOM      6  C7  UNL d   1       0.538  -0.816   0.268  0.00  0.00     0.002 A 
ATOM      7  C8  UNL d   1      -0.147  -0.008  -0.642  0.00  0.00     0.006 A 
ENDROOT
BRANCH   1   8
ATOM      8  C1  UNL d   1      -1.498   2.048  -1.201  0.00  0.00     0.054 C 
ATOM      9  C   UNL d   1      -0.488   2.872  -1.985  0.00  0.00     0.018 C 
ENDBRANCH   1   8
TORSDOF 1
ENDMDL
