MODEL 1
REMARK minimizedAffinity -5.12320995
REMARK minimizedRMSD -1
REMARK  1 active torsions:
REMARK  status: ('A' for Active; 'I' for Inactive)
REMARK    1  A    between atoms: C1_2  and  C2_3 
ROOT
ATOM      1  C2  UNL d   1       0.810   0.241  -0.601  0.00  0.00    -0.081 A 
ATOM      2  C3  UNL d   1      -0.046  -0.070   0.463  0.00  0.00     0.006 A 
ATOM      3  C4  UNL d   1      -0.943   0.883   0.952  0.00  0.00     0.002 A 
ATOM      4  C5  UNL d   1      -1.005   2.158   0.380  0.00  0.00    -0.080 A 
ATOM      5  C6  UNL d   1      -1.985   3.180   0.875  0.00  0.00     0.076 C 
ATOM      6  C7  UNL d   1      -0.138   2.474  -0.672  0.00  0.00     0.002 A 
ATOM      7  C8  UNL d   1       0.760   1.522  -1.160  0.00  0.00     0.006 A 
ENDROOT
BRANCH   1   8
ATOM      8  C1  UNL d   1       1.733  -0.805  -1.172  0.00  0.00     0.054 C 
ATOM      9  C   UNL d   1       1.294  -2.207  -0.774  0.00  0.00     0.018 C 
ENDBRANCH   1   8
TORSDOF 1
ENDMDL
