MODEL 1
REMARK minimizedAffinity -3.07395577
REMARK minimizedRMSD -1
REMARK  1 active torsions:
REMARK  status: ('A' for Active; 'I' for Inactive)
REMARK    1  A    between atoms: C1_2  and  C2_3 
ROOT
ATOM      1  C2  UNL d   1       1.185  -1.799  -1.089  0.00  0.00    -0.081 A 
ATOM      2  C3  UNL d   1       0.977  -1.340   0.217  0.00  0.00     0.006 A 
ATOM      3  C4  UNL d   1       0.067  -0.310   0.469  0.00  0.00     0.002 A 
ATOM      4  C5  UNL d   1      -0.654   0.272  -0.578  0.00  0.00    -0.080 A 
ATOM      5  C6  UNL d   1      -1.656   1.358  -0.317  0.00  0.00     0.076 C 
ATOM      6  C7  UNL d   1      -0.434  -0.175  -1.886  0.00  0.00     0.002 A 
ATOM      7  C8  UNL d   1       0.476  -1.204  -2.139  0.00  0.00     0.006 A 
ENDROOT
BRANCH   1   8
ATOM      8  C1  UNL d   1       2.117  -2.953  -1.357  0.00  0.00     0.054 C 
ATOM      9  C   UNL d   1       1.642  -4.221  -0.661  0.00  0.00     0.018 C 
ENDBRANCH   1   8
TORSDOF 1
ENDMDL
