MODEL 1
REMARK minimizedAffinity -4.93081951
REMARK minimizedRMSD -1
REMARK  1 active torsions:
REMARK  status: ('A' for Active; 'I' for Inactive)
REMARK    1  A    between atoms: C1_2  and  C2_3 
ROOT
ATOM      1  C2  UNL d   1       0.342  -0.184  -0.058  0.00  0.00    -0.081 A 
ATOM      2  C3  UNL d   1       0.130   0.960  -0.836  0.00  0.00     0.006 A 
ATOM      3  C4  UNL d   1      -0.726   1.970  -0.392  0.00  0.00     0.002 A 
ATOM      4  C5  UNL d   1      -1.379   1.857   0.840  0.00  0.00    -0.080 A 
ATOM      5  C6  UNL d   1      -2.278   2.948   1.342  0.00  0.00     0.076 C 
ATOM      6  C7  UNL d   1      -1.181   0.706   1.610  0.00  0.00     0.002 A 
ATOM      7  C8  UNL d   1      -0.325  -0.305   1.166  0.00  0.00     0.006 A 
ENDROOT
BRANCH   1   8
ATOM      8  C1  UNL d   1       1.315  -1.245  -0.504  0.00  0.00     0.054 C 
ATOM      9  C   UNL d   1       0.829  -1.948  -1.763  0.00  0.00     0.018 C 
ENDBRANCH   1   8
TORSDOF 1
ENDMDL
