MODEL 1
REMARK minimizedAffinity -4.01216793
REMARK minimizedRMSD -1
REMARK  1 active torsions:
REMARK  status: ('A' for Active; 'I' for Inactive)
REMARK    1  A    between atoms: C1_2  and  C2_3 
ROOT
ATOM      1  C2  UNL d   1       0.730  -1.130  -0.211  0.00  0.00    -0.081 A 
ATOM      2  C3  UNL d   1       0.674  -1.298   1.178  0.00  0.00     0.006 A 
ATOM      3  C4  UNL d   1       0.013  -0.363   1.978  0.00  0.00     0.002 A 
ATOM      4  C5  UNL d   1      -0.610   0.749   1.403  0.00  0.00    -0.080 A 
ATOM      5  C6  UNL d   1      -1.349   1.744   2.247  0.00  0.00     0.076 C 
ATOM      6  C7  UNL d   1      -0.539   0.926   0.017  0.00  0.00     0.002 A 
ATOM      7  C8  UNL d   1       0.122  -0.008  -0.784  0.00  0.00     0.006 A 
ENDROOT
BRANCH   1   8
ATOM      8  C1  UNL d   1       1.387  -2.170  -1.083  0.00  0.00     0.054 C 
ATOM      9  C   UNL d   1       0.395  -2.773  -2.067  0.00  0.00     0.018 C 
ENDBRANCH   1   8
TORSDOF 1
ENDMDL
