MODEL 1
REMARK minimizedAffinity -4.49439001
REMARK minimizedRMSD -1
REMARK  1 active torsions:
REMARK  status: ('A' for Active; 'I' for Inactive)
REMARK    1  A    between atoms: C1_2  and  C2_3 
ROOT
ATOM      1  C2  UNL d   1      -0.846   0.871   0.216  0.00  0.00    -0.081 A 
ATOM      2  C3  UNL d   1      -1.710   0.001  -0.458  0.00  0.00     0.006 A 
ATOM      3  C4  UNL d   1      -1.203  -1.074  -1.191  0.00  0.00     0.002 A 
ATOM      4  C5  UNL d   1       0.176  -1.302  -1.255  0.00  0.00    -0.080 A 
ATOM      5  C6  UNL d   1       0.732  -2.470  -2.014  0.00  0.00     0.076 C 
ATOM      6  C7  UNL d   1       1.041  -0.422  -0.596  0.00  0.00     0.002 A 
ATOM      7  C8  UNL d   1       0.534   0.653   0.137  0.00  0.00     0.006 A 
ENDROOT
BRANCH   1   8
ATOM      8  C1  UNL d   1      -1.393   1.994   1.061  0.00  0.00     0.054 C 
ATOM      9  C   UNL d   1      -0.772   1.994   2.450  0.00  0.00     0.018 C 
ENDBRANCH   1   8
TORSDOF 1
ENDMDL
