MODEL 1
REMARK minimizedAffinity -2.45682096
REMARK minimizedRMSD -1
REMARK  1 active torsions:
REMARK  status: ('A' for Active; 'I' for Inactive)
REMARK    1  A    between atoms: C1_2  and  C2_3 
ROOT
ATOM      1  C2  UNL d   1       0.434  -1.044  -0.658  0.00  0.00    -0.081 A 
ATOM      2  C3  UNL d   1      -0.198   0.118  -1.118  0.00  0.00     0.006 A 
ATOM      3  C4  UNL d   1      -0.794   1.004  -0.217  0.00  0.00     0.002 A 
ATOM      4  C5  UNL d   1      -0.760   0.747   1.158  0.00  0.00    -0.080 A 
ATOM      5  C6  UNL d   1      -1.369   1.705   2.138  0.00  0.00     0.076 C 
ATOM      6  C7  UNL d   1      -0.143  -0.422   1.616  0.00  0.00     0.002 A 
ATOM      7  C8  UNL d   1       0.452  -1.308   0.716  0.00  0.00     0.006 A 
ENDROOT
BRANCH   1   8
ATOM      8  C1  UNL d   1       1.134  -1.968  -1.622  0.00  0.00     0.054 C 
ATOM      9  C   UNL d   1       0.138  -2.685  -2.523  0.00  0.00     0.018 C 
ENDBRANCH   1   8
TORSDOF 1
ENDMDL
