MODEL 1
REMARK minimizedAffinity -4.03526163
REMARK minimizedRMSD -1
REMARK  1 active torsions:
REMARK  status: ('A' for Active; 'I' for Inactive)
REMARK    1  A    between atoms: C1_2  and  C2_3 
ROOT
ATOM      1  C2  UNL d   1       0.314  -1.338  -1.215  0.00  0.00    -0.081 A 
ATOM      2  C3  UNL d   1       1.122  -0.326  -0.683  0.00  0.00     0.006 A 
ATOM      3  C4  UNL d   1       0.579   0.642   0.165  0.00  0.00     0.002 A 
ATOM      4  C5  UNL d   1      -0.778   0.610   0.501  0.00  0.00    -0.080 A 
ATOM      5  C6  UNL d   1      -1.368   1.626   1.434  0.00  0.00     0.076 C 
ATOM      6  C7  UNL d   1      -1.590  -0.390  -0.044  0.00  0.00     0.002 A 
ATOM      7  C8  UNL d   1      -1.048  -1.358  -0.893  0.00  0.00     0.006 A 
ENDROOT
BRANCH   1   8
ATOM      8  C1  UNL d   1       0.909  -2.421  -2.078  0.00  0.00     0.054 C 
ATOM      9  C   UNL d   1      -0.054  -2.845  -3.177  0.00  0.00     0.018 C 
ENDBRANCH   1   8
TORSDOF 1
ENDMDL
