MODEL 1
REMARK minimizedAffinity 0.14121969
REMARK minimizedRMSD -1
REMARK  2 active torsions:
REMARK  status: ('A' for Active; 'I' for Inactive)
REMARK    1  A    between atoms: C2'_3  and  C1'_4 
REMARK    2  A    between atoms: C1'_4  and  C1_5 
ROOT
ATOM      1  C1  I4B d   1      -3.197   1.032  -1.588  0.00  0.00    -0.075 A 
ATOM      2  C2  I4B d   1      -3.352  -0.240  -1.096  0.00  0.00     0.003 A 
ATOM      3  C3  I4B d   1      -4.564  -0.618  -0.469  0.00  0.00     0.002 A 
ATOM      4  C4  I4B d   1      -5.568   0.315  -0.311  0.00  0.00    -0.004 A 
ATOM      5  C5  I4B d   1      -5.417   1.598  -0.830  0.00  0.00     0.002 A 
ATOM      6  C6  I4B d   1      -4.229   1.955  -1.484  0.00  0.00     0.003 A 
ENDROOT
BRANCH   1   7
ATOM      7  C1' I4B d   1      -1.892   1.408  -2.215  0.00  0.00     0.060 C 
BRANCH   7   8
ATOM      8  C2' I4B d   1      -1.054   2.109  -1.165  0.00  0.00    -0.013 C 
ATOM      9  C4' I4B d   1      -0.179   1.132  -0.424  0.00  0.00     0.013 C 
ATOM     10  C3' I4B d   1      -0.232   3.158  -1.853  0.00  0.00     0.013 C 
ENDBRANCH   7   8
ENDBRANCH   1   7
TORSDOF 2
ENDMDL
