MODEL 1
REMARK minimizedAffinity 1.02007866
REMARK minimizedRMSD -1
REMARK  2 active torsions:
REMARK  status: ('A' for Active; 'I' for Inactive)
REMARK    1  A    between atoms: C2'_3  and  C1'_4 
REMARK    2  A    between atoms: C1'_4  and  C1_5 
ROOT
ATOM      1  C1  I4B d   1      -1.693   3.103  -1.737  0.00  0.00    -0.075 A 
ATOM      2  C2  I4B d   1      -1.713   4.475  -1.683  0.00  0.00     0.003 A 
ATOM      3  C3  I4B d   1      -0.799   5.169  -0.854  0.00  0.00     0.002 A 
ATOM      4  C4  I4B d   1       0.078   4.456  -0.063  0.00  0.00    -0.004 A 
ATOM      5  C5  I4B d   1       0.113   3.066  -0.136  0.00  0.00     0.002 A 
ATOM      6  C6  I4B d   1      -0.770   2.386  -0.987  0.00  0.00     0.003 A 
ENDROOT
BRANCH   1   7
ATOM      7  C1' I4B d   1      -2.695   2.401  -2.597  0.00  0.00     0.060 C 
BRANCH   7   8
ATOM      8  C2' I4B d   1      -3.863   1.999  -1.720  0.00  0.00    -0.013 C 
ATOM      9  C4' I4B d   1      -5.178   2.324  -2.380  0.00  0.00     0.013 C 
ATOM     10  C3' I4B d   1      -3.747   0.530  -1.439  0.00  0.00     0.013 C 
ENDBRANCH   7   8
ENDBRANCH   1   7
TORSDOF 2
ENDMDL
