MODEL 1
REMARK minimizedAffinity 4.12322521
REMARK minimizedRMSD -1
REMARK  2 active torsions:
REMARK  status: ('A' for Active; 'I' for Inactive)
REMARK    1  A    between atoms: C2'_3  and  C1'_4 
REMARK    2  A    between atoms: C1'_4  and  C1_5 
ROOT
ATOM      1  C1  I4B d   1      -2.336   1.854  -1.816  0.00  0.00    -0.075 A 
ATOM      2  C2  I4B d   1      -2.961   0.662  -1.544  0.00  0.00     0.003 A 
ATOM      3  C3  I4B d   1      -4.364   0.544  -1.692  0.00  0.00     0.002 A 
ATOM      4  C4  I4B d   1      -5.104   1.649  -2.061  0.00  0.00    -0.004 A 
ATOM      5  C5  I4B d   1      -4.466   2.849  -2.358  0.00  0.00     0.002 A 
ATOM      6  C6  I4B d   1      -3.072   2.950  -2.247  0.00  0.00     0.003 A 
ENDROOT
BRANCH   1   7
ATOM      7  C1' I4B d   1      -0.856   1.953  -1.618  0.00  0.00     0.060 C 
BRANCH   7   8
ATOM      8  C2' I4B d   1      -0.585   3.129  -0.702  0.00  0.00    -0.013 C 
ATOM      9  C4' I4B d   1       0.101   2.687   0.564  0.00  0.00     0.013 C 
ATOM     10  C3' I4B d   1       0.252   4.119  -1.455  0.00  0.00     0.013 C 
ENDBRANCH   7   8
ENDBRANCH   1   7
TORSDOF 2
ENDMDL
