MODEL 1
REMARK minimizedAffinity 7.81716108
REMARK minimizedRMSD -1
REMARK  2 active torsions:
REMARK  status: ('A' for Active; 'I' for Inactive)
REMARK    1  A    between atoms: C2'_3  and  C1'_4 
REMARK    2  A    between atoms: C1'_4  and  C1_5 
ROOT
ATOM      1  C1  I4B d   1       3.540  -3.741  -2.389  0.00  0.00    -0.075 A 
ATOM      2  C2  I4B d   1       3.823  -2.533  -1.803  0.00  0.00     0.003 A 
ATOM      3  C3  I4B d   1       4.091  -1.396  -2.604  0.00  0.00     0.002 A 
ATOM      4  C4  I4B d   1       4.115  -1.524  -3.978  0.00  0.00    -0.004 A 
ATOM      5  C5  I4B d   1       3.804  -2.744  -4.571  0.00  0.00     0.002 A 
ATOM      6  C6  I4B d   1       3.503  -3.857  -3.773  0.00  0.00     0.003 A 
ENDROOT
BRANCH   1   7
ATOM      7  C1' I4B d   1       3.294  -4.928  -1.513  0.00  0.00     0.060 C 
BRANCH   7   8
ATOM      8  C2' I4B d   1       4.455  -5.885  -1.687  0.00  0.00    -0.013 C 
ATOM      9  C4' I4B d   1       5.053  -5.772  -3.065  0.00  0.00     0.013 C 
ATOM     10  C3' I4B d   1       5.472  -5.577  -0.629  0.00  0.00     0.013 C 
ENDBRANCH   7   8
ENDBRANCH   1   7
TORSDOF 2
ENDMDL
