MODEL 1
REMARK minimizedAffinity -3.06016731
REMARK minimizedRMSD -1
REMARK  0 active torsions:
REMARK  status: ('A' for Active; 'I' for Inactive)
ROOT
ATOM      1  O1  BZF d   1       0.537  -0.696  -0.502  0.00  0.00    -0.204 OA
ATOM      2  C2  BZF d   1      -0.654  -0.706   0.198  0.00  0.00     0.174 A 
ATOM      3  C3  BZF d   1      -0.651   0.239   1.161  0.00  0.00    -0.012 A 
ATOM      4  C3A BZF d   1       0.585   0.940   0.996  0.00  0.00    -0.107 A 
ATOM      5  C4  BZF d   1       1.159   1.996   1.643  0.00  0.00     0.055 A 
ATOM      6  C5  BZF d   1       2.408   2.392   1.284  0.00  0.00    -0.016 A 
ATOM      7  C6  BZF d   1       3.114   1.751   0.286  0.00  0.00     0.022 A 
ATOM      8  C7  BZF d   1       2.585   0.701  -0.388  0.00  0.00     0.029 A 
ATOM      9  C7A BZF d   1       1.309   0.320  -0.049  0.00  0.00     0.058 A 
ENDROOT
TORSDOF 0
ENDMDL
