MODEL 1
REMARK minimizedAffinity -4.26093245
REMARK minimizedRMSD -1
REMARK  0 active torsions:
REMARK  status: ('A' for Active; 'I' for Inactive)
ROOT
ATOM      1  O1  BZF d   1       2.010   2.001   0.525  0.00  0.00    -0.204 OA
ATOM      2  C2  BZF d   1       1.462   2.798   1.512  0.00  0.00     0.174 A 
ATOM      3  C3  BZF d   1       0.261   2.322   1.899  0.00  0.00    -0.012 A 
ATOM      4  C3A BZF d   1       0.087   1.103   1.170  0.00  0.00    -0.107 A 
ATOM      5  C4  BZF d   1      -0.904   0.163   1.135  0.00  0.00     0.055 A 
ATOM      6  C5  BZF d   1      -0.801  -0.872   0.261  0.00  0.00    -0.016 A 
ATOM      7  C6  BZF d   1       0.273  -0.995  -0.596  0.00  0.00     0.022 A 
ATOM      8  C7  BZF d   1       1.282  -0.091  -0.595  0.00  0.00     0.029 A 
ATOM      9  C7A BZF d   1       1.198   0.938   0.311  0.00  0.00     0.058 A 
ENDROOT
TORSDOF 0
ENDMDL
