MODEL 1
REMARK minimizedAffinity -4.06444311
REMARK minimizedRMSD -1
REMARK  0 active torsions:
REMARK  status: ('A' for Active; 'I' for Inactive)
ROOT
ATOM      1  O1  BZF d   1      -2.137  -2.202  -1.030  0.00  0.00    -0.204 OA
ATOM      2  C2  BZF d   1      -2.354  -1.811  -2.337  0.00  0.00     0.174 A 
ATOM      3  C3  BZF d   1      -1.742  -0.637  -2.593  0.00  0.00    -0.012 A 
ATOM      4  C3A BZF d   1      -1.026  -0.317  -1.396  0.00  0.00    -0.107 A 
ATOM      5  C4  BZF d   1      -0.213   0.720  -1.037  0.00  0.00     0.055 A 
ATOM      6  C5  BZF d   1       0.269   0.771   0.232  0.00  0.00    -0.016 A 
ATOM      7  C6  BZF d   1      -0.044  -0.192   1.168  0.00  0.00     0.022 A 
ATOM      8  C7  BZF d   1      -0.842  -1.243   0.857  0.00  0.00     0.029 A 
ATOM      9  C7A BZF d   1      -1.305  -1.315  -0.434  0.00  0.00     0.058 A 
ENDROOT
TORSDOF 0
ENDMDL
