MODEL 1
REMARK minimizedAffinity -5.3251915
REMARK minimizedRMSD -1
REMARK  0 active torsions:
REMARK  status: ('A' for Active; 'I' for Inactive)
ROOT
ATOM      1  O1  BZF d   1      -1.031  -0.264   0.014  0.00  0.00    -0.204 OA
ATOM      2  C2  BZF d   1      -0.808  -1.506  -0.548  0.00  0.00     0.174 A 
ATOM      3  C3  BZF d   1       0.414  -1.561  -1.118  0.00  0.00    -0.012 A 
ATOM      4  C3A BZF d   1       1.026  -0.303  -0.817  0.00  0.00    -0.107 A 
ATOM      5  C4  BZF d   1       2.248   0.237  -1.099  0.00  0.00     0.055 A 
ATOM      6  C5  BZF d   1       2.506   1.518  -0.724  0.00  0.00    -0.016 A 
ATOM      7  C6  BZF d   1       1.564   2.288  -0.073  0.00  0.00     0.022 A 
ATOM      8  C7  BZF d   1       0.340   1.794   0.232  0.00  0.00     0.029 A 
ATOM      9  C7A BZF d   1       0.088   0.489  -0.116  0.00  0.00     0.058 A 
ENDROOT
TORSDOF 0
ENDMDL
