MODEL 1
REMARK minimizedAffinity -3.67921495
REMARK minimizedRMSD -1
REMARK  0 active torsions:
REMARK  status: ('A' for Active; 'I' for Inactive)
ROOT
ATOM      1  O1  BZF d   1      -0.852  -0.651   0.759  0.00  0.00    -0.204 OA
ATOM      2  C2  BZF d   1      -0.492  -1.196  -0.459  0.00  0.00     0.174 A 
ATOM      3  C3  BZF d   1       0.294  -0.345  -1.150  0.00  0.00    -0.012 A 
ATOM      4  C3A BZF d   1       0.509   0.765  -0.273  0.00  0.00    -0.107 A 
ATOM      5  C4  BZF d   1       1.221   1.925  -0.384  0.00  0.00     0.055 A 
ATOM      6  C5  BZF d   1       1.166   2.833   0.625  0.00  0.00    -0.016 A 
ATOM      7  C6  BZF d   1       0.407   2.616   1.756  0.00  0.00     0.022 A 
ATOM      8  C7  BZF d   1      -0.312   1.478   1.914  0.00  0.00     0.029 A 
ATOM      9  C7A BZF d   1      -0.232   0.544   0.911  0.00  0.00     0.058 A 
ENDROOT
TORSDOF 0
ENDMDL
