MODEL 1
REMARK minimizedAffinity -1.5153532
REMARK minimizedRMSD -1
REMARK  0 active torsions:
REMARK  status: ('A' for Active; 'I' for Inactive)
ROOT
ATOM      1  O1  BZF d   1      -1.327  -0.830   0.027  0.00  0.00    -0.204 OA
ATOM      2  C2  BZF d   1      -0.748  -1.477  -1.048  0.00  0.00     0.174 A 
ATOM      3  C3  BZF d   1       0.412  -0.882  -1.395  0.00  0.00    -0.012 A 
ATOM      4  C3A BZF d   1       0.613   0.148  -0.423  0.00  0.00    -0.107 A 
ATOM      5  C4  BZF d   1       1.598   1.072  -0.225  0.00  0.00     0.055 A 
ATOM      6  C5  BZF d   1       1.458   1.983   0.774  0.00  0.00    -0.016 A 
ATOM      7  C6  BZF d   1       0.346   2.001   1.589  0.00  0.00     0.022 A 
ATOM      8  C7  BZF d   1      -0.655   1.101   1.435  0.00  0.00     0.029 A 
ATOM      9  C7A BZF d   1      -0.501   0.158   0.447  0.00  0.00     0.058 A 
ENDROOT
TORSDOF 0
ENDMDL
