MODEL 1
REMARK minimizedAffinity -4.01252842
REMARK minimizedRMSD -1
REMARK  0 active torsions:
REMARK  status: ('A' for Active; 'I' for Inactive)
ROOT
ATOM      1  O1  BZF d   1      -0.625  -0.550   1.417  0.00  0.00    -0.204 OA
ATOM      2  C2  BZF d   1      -0.460  -1.310   0.275  0.00  0.00     0.174 A 
ATOM      3  C3  BZF d   1       0.220  -0.621  -0.664  0.00  0.00    -0.012 A 
ATOM      4  C3A BZF d   1       0.579   0.614  -0.039  0.00  0.00    -0.107 A 
ATOM      5  C4  BZF d   1       1.277   1.711  -0.457  0.00  0.00     0.055 A 
ATOM      6  C5  BZF d   1       1.386   2.781   0.374  0.00  0.00    -0.016 A 
ATOM      7  C6  BZF d   1       0.806   2.791   1.625  0.00  0.00     0.022 A 
ATOM      8  C7  BZF d   1       0.108   1.725   2.086  0.00  0.00     0.029 A 
ATOM      9  C7A BZF d   1       0.024   0.629   1.262  0.00  0.00     0.058 A 
ENDROOT
TORSDOF 0
ENDMDL
