MODEL 1
REMARK minimizedAffinity -4.81800175
REMARK minimizedRMSD -1
REMARK  0 active torsions:
REMARK  status: ('A' for Active; 'I' for Inactive)
ROOT
ATOM      1  O1  BZF d   1       0.349   2.135   1.967  0.00  0.00    -0.204 OA
ATOM      2  C2  BZF d   1       1.244   3.053   1.452  0.00  0.00     0.174 A 
ATOM      3  C3  BZF d   1       1.809   2.586   0.320  0.00  0.00    -0.012 A 
ATOM      4  C3A BZF d   1       1.163   1.335   0.065  0.00  0.00    -0.107 A 
ATOM      5  C4  BZF d   1       1.282   0.402  -0.925  0.00  0.00     0.055 A 
ATOM      6  C5  BZF d   1       0.558  -0.745  -0.842  0.00  0.00    -0.016 A 
ATOM      7  C6  BZF d   1      -0.290  -0.993   0.218  0.00  0.00     0.022 A 
ATOM      8  C7  BZF d   1      -0.445  -0.095   1.221  0.00  0.00     0.029 A 
ATOM      9  C7A BZF d   1       0.261   1.079   1.123  0.00  0.00     0.058 A 
ENDROOT
TORSDOF 0
ENDMDL
