MODEL 1
REMARK minimizedAffinity -5.47619343
REMARK minimizedRMSD -1
REMARK  0 active torsions:
REMARK  status: ('A' for Active; 'I' for Inactive)
ROOT
ATOM      1  O1  BZF d   1       0.853  -0.006  -1.359  0.00  0.00    -0.204 OA
ATOM      2  C2  BZF d   1      -0.071  -1.033  -1.377  0.00  0.00     0.174 A 
ATOM      3  C3  BZF d   1      -0.837  -1.007  -0.268  0.00  0.00    -0.012 A 
ATOM      4  C3A BZF d   1      -0.424   0.161   0.448  0.00  0.00    -0.107 A 
ATOM      5  C4  BZF d   1      -0.825   0.734   1.620  0.00  0.00     0.055 A 
ATOM      6  C5  BZF d   1      -0.168   1.832   2.078  0.00  0.00    -0.016 A 
ATOM      7  C6  BZF d   1       0.897   2.379   1.391  0.00  0.00     0.022 A 
ATOM      8  C7  BZF d   1       1.328   1.848   0.221  0.00  0.00     0.029 A 
ATOM      9  C7A BZF d   1       0.644   0.759  -0.260  0.00  0.00     0.058 A 
ENDROOT
TORSDOF 0
ENDMDL
