MODEL 1
REMARK minimizedAffinity -4.97524118
REMARK minimizedRMSD -1
REMARK  0 active torsions:
REMARK  status: ('A' for Active; 'I' for Inactive)
ROOT
ATOM      1  O1  BZF d   1       1.533   2.435   0.054  0.00  0.00    -0.204 OA
ATOM      2  C2  BZF d   1       1.158   3.063   1.226  0.00  0.00     0.174 A 
ATOM      3  C3  BZF d   1       0.147   2.399   1.823  0.00  0.00    -0.012 A 
ATOM      4  C3A BZF d   1      -0.064   1.235   1.018  0.00  0.00    -0.107 A 
ATOM      5  C4  BZF d   1      -0.924   0.177   1.105  0.00  0.00     0.055 A 
ATOM      6  C5  BZF d   1      -0.925  -0.756   0.117  0.00  0.00    -0.016 A 
ATOM      7  C6  BZF d   1      -0.085  -0.660  -0.974  0.00  0.00     0.022 A 
ATOM      8  C7  BZF d   1       0.788   0.369  -1.101  0.00  0.00     0.029 A 
ATOM      9  C7A BZF d   1       0.815   1.296  -0.088  0.00  0.00     0.058 A 
ENDROOT
TORSDOF 0
ENDMDL
