MODEL 1
REMARK minimizedAffinity -4.82753325
REMARK minimizedRMSD -1
REMARK  0 active torsions:
REMARK  status: ('A' for Active; 'I' for Inactive)
ROOT
ATOM      1  O1  BZF d   1       0.966  -0.777  -0.752  0.00  0.00    -0.204 OA
ATOM      2  C2  BZF d   1      -0.246  -1.416  -0.575  0.00  0.00     0.174 A 
ATOM      3  C3  BZF d   1      -1.024  -0.735   0.290  0.00  0.00    -0.012 A 
ATOM      4  C3A BZF d   1      -0.287   0.450   0.607  0.00  0.00    -0.107 A 
ATOM      5  C4  BZF d   1      -0.542   1.529   1.404  0.00  0.00     0.055 A 
ATOM      6  C5  BZF d   1       0.417   2.480   1.554  0.00  0.00    -0.016 A 
ATOM      7  C6  BZF d   1       1.642   2.381   0.928  0.00  0.00     0.022 A 
ATOM      8  C7  BZF d   1       1.939   1.331   0.124  0.00  0.00     0.029 A 
ATOM      9  C7A BZF d   1       0.960   0.385  -0.056  0.00  0.00     0.058 A 
ENDROOT
TORSDOF 0
ENDMDL
