MODEL 1
REMARK minimizedAffinity -2.20534205
REMARK minimizedRMSD -1
REMARK  0 active torsions:
REMARK  status: ('A' for Active; 'I' for Inactive)
ROOT
ATOM      1  O1  BZF d   1       1.195  -0.805  -0.519  0.00  0.00    -0.204 OA
ATOM      2  C2  BZF d   1      -0.021  -1.417  -0.750  0.00  0.00     0.174 A 
ATOM      3  C3  BZF d   1      -0.997  -0.832  -0.025  0.00  0.00    -0.012 A 
ATOM      4  C3A BZF d   1      -0.366   0.270   0.634  0.00  0.00    -0.107 A 
ATOM      5  C4  BZF d   1      -0.817   1.240   1.482  0.00  0.00     0.055 A 
ATOM      6  C5  BZF d   1       0.071   2.126   2.006  0.00  0.00    -0.016 A 
ATOM      7  C6  BZF d   1       1.416   2.068   1.707  0.00  0.00     0.022 A 
ATOM      8  C7  BZF d   1       1.910   1.126   0.866  0.00  0.00     0.029 A 
ATOM      9  C7A BZF d   1       1.011   0.251   0.310  0.00  0.00     0.058 A 
ENDROOT
TORSDOF 0
ENDMDL
