MODEL 1
REMARK minimizedAffinity -1.53476727
REMARK minimizedRMSD -1
REMARK  0 active torsions:
REMARK  status: ('A' for Active; 'I' for Inactive)
ROOT
ATOM      1  O1  BZF d   1       0.578  -1.082  -0.734  0.00  0.00    -0.204 OA
ATOM      2  C2  BZF d   1       1.888  -0.754  -1.025  0.00  0.00     0.174 A 
ATOM      3  C3  BZF d   1       2.258   0.366  -0.370  0.00  0.00    -0.012 A 
ATOM      4  C3A BZF d   1       1.136   0.710   0.449  0.00  0.00    -0.107 A 
ATOM      5  C4  BZF d   1       0.899   1.716   1.342  0.00  0.00     0.055 A 
ATOM      6  C5  BZF d   1      -0.327   1.811   1.919  0.00  0.00    -0.016 A 
ATOM      7  C6  BZF d   1      -1.340   0.922   1.624  0.00  0.00     0.022 A 
ATOM      8  C7  BZF d   1      -1.150  -0.095   0.749  0.00  0.00     0.029 A 
ATOM      9  C7A BZF d   1       0.098  -0.214   0.188  0.00  0.00     0.058 A 
ENDROOT
TORSDOF 0
ENDMDL
