MODEL 1
REMARK minimizedAffinity -5.00615692
REMARK minimizedRMSD -1
REMARK  0 active torsions:
REMARK  status: ('A' for Active; 'I' for Inactive)
ROOT
ATOM      1  O1  BZF d   1       0.685  -0.318  -1.005  0.00  0.00    -0.204 OA
ATOM      2  C2  BZF d   1      -0.244  -1.340  -1.035  0.00  0.00     0.174 A 
ATOM      3  C3  BZF d   1      -1.041  -1.294   0.052  0.00  0.00    -0.012 A 
ATOM      4  C3A BZF d   1      -0.642  -0.118   0.762  0.00  0.00    -0.107 A 
ATOM      5  C4  BZF d   1      -1.073   0.475   1.914  0.00  0.00     0.055 A 
ATOM      6  C5  BZF d   1      -0.423   1.577   2.373  0.00  0.00    -0.016 A 
ATOM      7  C6  BZF d   1       0.664   2.108   1.709  0.00  0.00     0.022 A 
ATOM      8  C7  BZF d   1       1.125   1.558   0.560  0.00  0.00     0.029 A 
ATOM      9  C7A BZF d   1       0.449   0.464   0.076  0.00  0.00     0.058 A 
ENDROOT
TORSDOF 0
ENDMDL
