MODEL 1
REMARK minimizedAffinity 7.37410545
REMARK minimizedRMSD -1
REMARK  1 active torsions:
REMARK  status: ('A' for Active; 'I' for Inactive)
REMARK    1  A    between atoms: C1_2  and  C2_3 
ROOT
ATOM      1  C2  UNL d   1      -3.005  -1.219  -2.824  0.00  0.00    -0.076 A 
ATOM      2  C3  UNL d   1      -2.859  -1.392  -4.211  0.00  0.00     0.004 A 
ATOM      3  C4  UNL d   1      -3.097  -2.629  -4.809  0.00  0.00    -0.003 A 
ATOM      4  C5  UNL d   1      -3.485  -3.712  -4.030  0.00  0.00     0.000 A 
ATOM      5  C6  UNL d   1      -3.652  -3.555  -2.654  0.00  0.00     0.000 A 
ATOM      6  C7  UNL d   1      -3.432  -2.311  -2.038  0.00  0.00    -0.073 A 
ATOM      7  C8  UNL d   1      -3.622  -2.199  -0.550  0.00  0.00     0.078 C 
ENDROOT
BRANCH   1   8
ATOM      8  C1  UNL d   1      -2.707   0.138  -2.228  0.00  0.00     0.053 C 
ATOM      9  C   UNL d   1      -3.446   1.261  -2.938  0.00  0.00     0.018 C 
ENDBRANCH   1   8
TORSDOF 1
ENDMDL
