MODEL 1
REMARK minimizedAffinity 6.84204483
REMARK minimizedRMSD -1
REMARK  1 active torsions:
REMARK  status: ('A' for Active; 'I' for Inactive)
REMARK    1  A    between atoms: C1_2  and  C2_3 
ROOT
ATOM      1  C2  UNL d   1       0.877  -0.220  -0.392  0.00  0.00    -0.076 A 
ATOM      2  C3  UNL d   1       2.006   0.457  -0.886  0.00  0.00     0.004 A 
ATOM      3  C4  UNL d   1       2.207   1.809  -0.615  0.00  0.00    -0.003 A 
ATOM      4  C5  UNL d   1       1.282   2.507   0.155  0.00  0.00     0.000 A 
ATOM      5  C6  UNL d   1       0.166   1.847   0.667  0.00  0.00     0.000 A 
ATOM      6  C7  UNL d   1      -0.044   0.480   0.417  0.00  0.00    -0.073 A 
ATOM      7  C8  UNL d   1      -1.268  -0.179   0.990  0.00  0.00     0.078 C 
ENDROOT
BRANCH   1   8
ATOM      8  C1  UNL d   1       0.697  -1.680  -0.741  0.00  0.00     0.053 C 
ATOM      9  C   UNL d   1       2.023  -2.406  -0.907  0.00  0.00     0.018 C 
ENDBRANCH   1   8
TORSDOF 1
ENDMDL
