MODEL 1
REMARK minimizedAffinity 3.05087423
REMARK minimizedRMSD -1
REMARK  1 active torsions:
REMARK  status: ('A' for Active; 'I' for Inactive)
REMARK    1  A    between atoms: C1_2  and  C2_3 
ROOT
ATOM      1  C2  UNL d   1       0.313   1.112   0.090  0.00  0.00    -0.076 A 
ATOM      2  C3  UNL d   1       1.135   0.763   1.175  0.00  0.00     0.004 A 
ATOM      3  C4  UNL d   1       2.002  -0.325   1.098  0.00  0.00    -0.003 A 
ATOM      4  C5  UNL d   1       2.061  -1.083  -0.067  0.00  0.00     0.000 A 
ATOM      5  C6  UNL d   1       1.265  -0.741  -1.159  0.00  0.00     0.000 A 
ATOM      6  C7  UNL d   1       0.398   0.363  -1.104  0.00  0.00    -0.073 A 
ATOM      7  C8  UNL d   1      -0.443   0.683  -2.310  0.00  0.00     0.078 C 
ENDROOT
BRANCH   1   8
ATOM      8  C1  UNL d   1      -0.628   2.286   0.241  0.00  0.00     0.053 C 
ATOM      9  C   UNL d   1       0.106   3.618   0.285  0.00  0.00     0.018 C 
ENDBRANCH   1   8
TORSDOF 1
ENDMDL
