MODEL 1
REMARK minimizedAffinity -3.61354709
REMARK minimizedRMSD -1
REMARK  0 active torsions:
REMARK  status: ('A' for Active; 'I' for Inactive)
ROOT
ATOM      1  C   UNL d   1       3.011   1.333  -0.314  0.00  0.00     0.124 A 
ATOM      2  C1  UNL d   1       3.549   0.109  -0.686  0.00  0.00     0.062 A 
ATOM      3  C2  UNL d   1       2.759  -1.037  -0.668  0.00  0.00     0.162 A 
ATOM      4  C3  UNL d   1       1.422  -0.964  -0.278  0.00  0.00    -0.034 A 
ATOM      5  C4  UNL d   1       0.888   0.271   0.095  0.00  0.00     0.162 A 
ATOM      6  C5  UNL d   1       1.681   1.413   0.075  0.00  0.00     0.062 A 
ATOM      7  F   UNL d   1       1.159   2.595   0.435  0.00  0.00    -0.097 F 
ATOM      8  F1  UNL d   1      -0.394   0.376   0.475  0.00  0.00    -0.096 F 
ATOM      9  I   UNL d   1       0.237  -2.675  -0.251  0.00  0.00    -0.060 I 
ATOM     10  F2  UNL d   1       3.305  -2.207  -1.032  0.00  0.00    -0.096 F 
ATOM     11  F3  UNL d   1       4.833   0.029  -1.062  0.00  0.00    -0.097 F 
ATOM     12  F4  UNL d   1       3.773   2.434  -0.331  0.00  0.00    -0.092 F 
ENDROOT
TORSDOF 0
ENDMDL
