MODEL 1
REMARK minimizedAffinity 0.225083485
REMARK minimizedRMSD -1
REMARK  0 active torsions:
REMARK  status: ('A' for Active; 'I' for Inactive)
ROOT
ATOM      1  C   UNL d   1       2.429   0.305   1.016  0.00  0.00     0.124 A 
ATOM      2  C1  UNL d   1       1.250   0.955   0.677  0.00  0.00     0.062 A 
ATOM      3  C2  UNL d   1       0.412   0.423  -0.298  0.00  0.00     0.162 A 
ATOM      4  C3  UNL d   1       0.749  -0.769  -0.942  0.00  0.00    -0.034 A 
ATOM      5  C4  UNL d   1       1.936  -1.417  -0.596  0.00  0.00     0.162 A 
ATOM      6  C5  UNL d   1       2.770  -0.880   0.379  0.00  0.00     0.062 A 
ATOM      7  F   UNL d   1       3.908  -1.510   0.706  0.00  0.00    -0.097 F 
ATOM      8  F1  UNL d   1       2.290  -2.564  -1.194  0.00  0.00    -0.096 F 
ATOM      9  I   UNL d   1      -0.502  -1.568  -2.400  0.00  0.00    -0.060 I 
ATOM     10  F2  UNL d   1      -0.720   1.073  -0.606  0.00  0.00    -0.096 F 
ATOM     11  F3  UNL d   1       0.919   2.101   1.290  0.00  0.00    -0.097 F 
ATOM     12  F4  UNL d   1       3.234   0.820   1.954  0.00  0.00    -0.092 F 
ENDROOT
TORSDOF 0
ENDMDL
