MODEL 1
REMARK minimizedAffinity 3.4393599
REMARK minimizedRMSD -1
REMARK  0 active torsions:
REMARK  status: ('A' for Active; 'I' for Inactive)
ROOT
ATOM      1  C   UNL d   1       1.860  -0.205   1.095  0.00  0.00     0.124 A 
ATOM      2  C1  UNL d   1       0.577   0.306   1.225  0.00  0.00     0.062 A 
ATOM      3  C2  UNL d   1      -0.340   0.170   0.187  0.00  0.00     0.162 A 
ATOM      4  C3  UNL d   1       0.024  -0.481  -0.992  0.00  0.00    -0.034 A 
ATOM      5  C4  UNL d   1       1.317  -0.992  -1.117  0.00  0.00     0.162 A 
ATOM      6  C5  UNL d   1       2.229  -0.853  -0.076  0.00  0.00     0.062 A 
ATOM      7  F   UNL d   1       3.469  -1.348  -0.204  0.00  0.00    -0.097 F 
ATOM      8  F1  UNL d   1       1.699  -1.623  -2.236  0.00  0.00    -0.096 F 
ATOM      9  I   UNL d   1      -1.344  -0.686  -2.547  0.00  0.00    -0.060 I 
ATOM     10  F2  UNL d   1      -1.573   0.674   0.341  0.00  0.00    -0.096 F 
ATOM     11  F3  UNL d   1       0.218   0.933   2.355  0.00  0.00    -0.097 F 
ATOM     12  F4  UNL d   1       2.741  -0.072   2.095  0.00  0.00    -0.092 F 
ENDROOT
TORSDOF 0
ENDMDL
