MODEL 1
REMARK minimizedAffinity -3.01686192
REMARK minimizedRMSD -1
REMARK  0 active torsions:
REMARK  status: ('A' for Active; 'I' for Inactive)
ROOT
ATOM      1  C   UNL d   1       1.766   0.941   0.454  0.00  0.00     0.124 A 
ATOM      2  C1  UNL d   1       1.871  -0.442   0.392  0.00  0.00     0.062 A 
ATOM      3  C2  UNL d   1       1.160  -1.155  -0.569  0.00  0.00     0.162 A 
ATOM      4  C3  UNL d   1       0.338  -0.486  -1.477  0.00  0.00    -0.034 A 
ATOM      5  C4  UNL d   1       0.238   0.905  -1.407  0.00  0.00     0.162 A 
ATOM      6  C5  UNL d   1       0.950   1.613  -0.445  0.00  0.00     0.062 A 
ATOM      7  F   UNL d   1       0.848   2.948  -0.386  0.00  0.00    -0.097 F 
ATOM      8  F1  UNL d   1      -0.543   1.579  -2.264  0.00  0.00    -0.096 F 
ATOM      9  I   UNL d   1      -0.726  -1.548  -2.915  0.00  0.00    -0.060 I 
ATOM     10  F2  UNL d   1       1.280  -2.490  -0.607  0.00  0.00    -0.096 F 
ATOM     11  F3  UNL d   1       2.658  -1.093   1.260  0.00  0.00    -0.097 F 
ATOM     12  F4  UNL d   1       2.451   1.624   1.381  0.00  0.00    -0.092 F 
ENDROOT
TORSDOF 0
ENDMDL
