MODEL 1
REMARK minimizedAffinity 4.67150593
REMARK minimizedRMSD -1
REMARK  0 active torsions:
REMARK  status: ('A' for Active; 'I' for Inactive)
ROOT
ATOM      1  C   UNL d   1       1.584  -0.466   0.955  0.00  0.00     0.124 A 
ATOM      2  C1  UNL d   1       0.290  -0.005   0.750  0.00  0.00     0.062 A 
ATOM      3  C2  UNL d   1      -0.416  -0.385  -0.387  0.00  0.00     0.162 A 
ATOM      4  C3  UNL d   1       0.169  -1.232  -1.329  0.00  0.00    -0.034 A 
ATOM      5  C4  UNL d   1       1.470  -1.690  -1.116  0.00  0.00     0.162 A 
ATOM      6  C5  UNL d   1       2.172  -1.307   0.022  0.00  0.00     0.062 A 
ATOM      7  F   UNL d   1       3.421  -1.754   0.219  0.00  0.00    -0.097 F 
ATOM      8  F1  UNL d   1       2.063  -2.506  -2.001  0.00  0.00    -0.096 F 
ATOM      9  I   UNL d   1      -0.884  -1.802  -3.031  0.00  0.00    -0.060 I 
ATOM     10  F2  UNL d   1      -1.664   0.076  -0.559  0.00  0.00    -0.096 F 
ATOM     11  F3  UNL d   1      -0.280   0.810   1.650  0.00  0.00    -0.097 F 
ATOM     12  F4  UNL d   1       2.261  -0.097   2.050  0.00  0.00    -0.092 F 
ENDROOT
TORSDOF 0
ENDMDL
