MODEL 1
REMARK minimizedAffinity 3.6280334
REMARK minimizedRMSD -1
REMARK  0 active torsions:
REMARK  status: ('A' for Active; 'I' for Inactive)
ROOT
ATOM      1  C   UNL d   1      -2.253   0.572   0.871  0.00  0.00     0.124 A 
ATOM      2  C1  UNL d   1      -0.988   0.191   0.446  0.00  0.00     0.062 A 
ATOM      3  C2  UNL d   1      -0.793  -0.261  -0.856  0.00  0.00     0.162 A 
ATOM      4  C3  UNL d   1      -1.867  -0.333  -1.743  0.00  0.00    -0.034 A 
ATOM      5  C4  UNL d   1      -3.136   0.051  -1.309  0.00  0.00     0.162 A 
ATOM      6  C5  UNL d   1      -3.326   0.501  -0.006  0.00  0.00     0.062 A 
ATOM      7  F   UNL d   1      -4.549   0.869   0.402  0.00  0.00    -0.097 F 
ATOM      8  F1  UNL d   1      -4.191  -0.007  -2.136  0.00  0.00    -0.096 F 
ATOM      9  I   UNL d   1      -1.580  -1.009  -3.691  0.00  0.00    -0.060 I 
ATOM     10  F2  UNL d   1       0.440  -0.623  -1.239  0.00  0.00    -0.096 F 
ATOM     11  F3  UNL d   1       0.050   0.257   1.292  0.00  0.00    -0.097 F 
ATOM     12  F4  UNL d   1      -2.438   1.005   2.125  0.00  0.00    -0.092 F 
ENDROOT
TORSDOF 0
ENDMDL
