MODEL 1
REMARK minimizedAffinity -3.50126648
REMARK minimizedRMSD -1
REMARK  0 active torsions:
REMARK  status: ('A' for Active; 'I' for Inactive)
ROOT
ATOM      1  C   UNL d   1       1.952   0.090   0.405  0.00  0.00     0.124 A 
ATOM      2  C1  UNL d   1       1.141   0.800  -0.469  0.00  0.00     0.062 A 
ATOM      3  C2  UNL d   1       0.426   0.132  -1.459  0.00  0.00     0.162 A 
ATOM      4  C3  UNL d   1       0.517  -1.255  -1.579  0.00  0.00    -0.034 A 
ATOM      5  C4  UNL d   1       1.336  -1.962  -0.696  0.00  0.00     0.162 A 
ATOM      6  C5  UNL d   1       2.049  -1.289   0.291  0.00  0.00     0.062 A 
ATOM      7  F   UNL d   1       2.832  -1.977   1.135  0.00  0.00    -0.097 F 
ATOM      8  F1  UNL d   1       1.446  -3.295  -0.783  0.00  0.00    -0.096 F 
ATOM      9  I   UNL d   1      -0.551  -2.257  -3.057  0.00  0.00    -0.060 I 
ATOM     10  F2  UNL d   1      -0.350   0.843  -2.290  0.00  0.00    -0.096 F 
ATOM     11  F3  UNL d   1       1.047   2.133  -0.362  0.00  0.00    -0.097 F 
ATOM     12  F4  UNL d   1       2.640   0.736   1.356  0.00  0.00    -0.092 F 
ENDROOT
TORSDOF 0
ENDMDL
