MODEL 1
REMARK minimizedAffinity -0.514975965
REMARK minimizedRMSD -1
REMARK  0 active torsions:
REMARK  status: ('A' for Active; 'I' for Inactive)
ROOT
ATOM      1  C   UNL d   1       3.174  -0.787  -0.039  0.00  0.00     0.124 A 
ATOM      2  C1  UNL d   1       2.350  -1.671  -0.721  0.00  0.00     0.062 A 
ATOM      3  C2  UNL d   1       0.969  -1.494  -0.709  0.00  0.00     0.162 A 
ATOM      4  C3  UNL d   1       0.403  -0.426  -0.012  0.00  0.00    -0.034 A 
ATOM      5  C4  UNL d   1       1.238   0.458   0.673  0.00  0.00     0.162 A 
ATOM      6  C5  UNL d   1       2.617   0.277   0.657  0.00  0.00     0.062 A 
ATOM      7  F   UNL d   1       3.412   1.132   1.318  0.00  0.00    -0.097 F 
ATOM      8  F1  UNL d   1       0.728   1.495   1.354  0.00  0.00    -0.096 F 
ATOM      9  I   UNL d   1      -1.660  -0.157   0.010  0.00  0.00    -0.060 I 
ATOM     10  F2  UNL d   1       0.197  -2.364  -1.377  0.00  0.00    -0.096 F 
ATOM     11  F3  UNL d   1       2.884  -2.700  -1.394  0.00  0.00    -0.097 F 
ATOM     12  F4  UNL d   1       4.501  -0.961  -0.052  0.00  0.00    -0.092 F 
ENDROOT
TORSDOF 0
ENDMDL
