MODEL 1
REMARK minimizedAffinity 11.1007872
REMARK minimizedRMSD -1
REMARK  0 active torsions:
REMARK  status: ('A' for Active; 'I' for Inactive)
ROOT
ATOM      1  C   UNL d   1      -0.788   1.664   0.312  0.00  0.00     0.124 A 
ATOM      2  C1  UNL d   1      -1.051   0.348  -0.044  0.00  0.00     0.062 A 
ATOM      3  C2  UNL d   1      -0.005  -0.515  -0.356  0.00  0.00     0.162 A 
ATOM      4  C3  UNL d   1       1.315  -0.066  -0.314  0.00  0.00    -0.034 A 
ATOM      5  C4  UNL d   1       1.572   1.259   0.044  0.00  0.00     0.162 A 
ATOM      6  C5  UNL d   1       0.523   2.118   0.355  0.00  0.00     0.062 A 
ATOM      7  F   UNL d   1       0.779   3.389   0.699  0.00  0.00    -0.097 F 
ATOM      8  F1  UNL d   1       2.829   1.724   0.095  0.00  0.00    -0.096 F 
ATOM      9  I   UNL d   1       2.882  -1.354  -0.780  0.00  0.00    -0.060 I 
ATOM     10  F2  UNL d   1      -0.288  -1.781  -0.696  0.00  0.00    -0.096 F 
ATOM     11  F3  UNL d   1      -2.316  -0.093  -0.087  0.00  0.00    -0.097 F 
ATOM     12  F4  UNL d   1      -1.796   2.492   0.611  0.00  0.00    -0.092 F 
ENDROOT
TORSDOF 0
ENDMDL
