MODEL 1
REMARK minimizedAffinity -2.90497541
REMARK minimizedRMSD -1
REMARK  1 active torsions:
REMARK  status: ('A' for Active; 'I' for Inactive)
REMARK    1  A    between atoms: C1_2  and  C2_3 
ROOT
ATOM      1  C2  UNL d   1       0.126  -0.691   0.003  0.00  0.00    -0.077 A 
ATOM      2  C3  UNL d   1       1.199  -1.587  -0.107  0.00  0.00     0.002 A 
ATOM      3  C4  UNL d   1       1.000  -2.955   0.092  0.00  0.00     0.002 A 
ATOM      4  C5  UNL d   1      -0.270  -3.438   0.398  0.00  0.00    -0.004 A 
ATOM      5  C6  UNL d   1      -1.343  -2.555   0.511  0.00  0.00     0.002 A 
ATOM      6  C7  UNL d   1      -1.146  -1.188   0.314  0.00  0.00     0.002 A 
ENDROOT
BRANCH   1   7
ATOM      7  C1  UNL d   1       0.329   0.778  -0.260  0.00  0.00     0.055 C 
ATOM      8  C   UNL d   1      -0.202   1.624   0.889  0.00  0.00     0.019 C 
ENDBRANCH   1   7
TORSDOF 1
ENDMDL
