MODEL 1
REMARK minimizedAffinity -4.09648275
REMARK minimizedRMSD -1
REMARK  1 active torsions:
REMARK  status: ('A' for Active; 'I' for Inactive)
REMARK    1  A    between atoms: C1_2  and  C2_3 
ROOT
ATOM      1  C2  UNL d   1      -0.022  -0.831   0.492  0.00  0.00    -0.077 A 
ATOM      2  C3  UNL d   1       0.770  -0.941  -0.659  0.00  0.00     0.002 A 
ATOM      3  C4  UNL d   1       1.110  -2.197  -1.166  0.00  0.00     0.002 A 
ATOM      4  C5  UNL d   1       0.658  -3.351  -0.530  0.00  0.00    -0.004 A 
ATOM      5  C6  UNL d   1      -0.129  -3.253   0.617  0.00  0.00     0.002 A 
ATOM      6  C7  UNL d   1      -0.468  -1.998   1.125  0.00  0.00     0.002 A 
ENDROOT
BRANCH   1   7
ATOM      7  C1  UNL d   1      -0.430   0.523   1.011  0.00  0.00     0.055 C 
ATOM      8  C   UNL d   1      -0.117   1.620   0.004  0.00  0.00     0.019 C 
ENDBRANCH   1   7
TORSDOF 1
ENDMDL
