MODEL 1
REMARK minimizedAffinity -5.57073593
REMARK minimizedRMSD -1
REMARK  1 active torsions:
REMARK  status: ('A' for Active; 'I' for Inactive)
REMARK    1  A    between atoms: C1_2  and  C2_3 
ROOT
ATOM      1  C2  UNL d   1      -0.101   0.376   0.326  0.00  0.00    -0.077 A 
ATOM      2  C3  UNL d   1       0.959  -0.337  -0.253  0.00  0.00     0.002 A 
ATOM      3  C4  UNL d   1       0.967  -1.733  -0.232  0.00  0.00     0.002 A 
ATOM      4  C5  UNL d   1      -0.083  -2.428   0.364  0.00  0.00    -0.004 A 
ATOM      5  C6  UNL d   1      -1.141  -1.729   0.945  0.00  0.00     0.002 A 
ATOM      6  C7  UNL d   1      -1.150  -0.333   0.925  0.00  0.00     0.002 A 
ENDROOT
BRANCH   1   7
ATOM      7  C1  UNL d   1      -0.136   1.880   0.260  0.00  0.00     0.055 C 
ATOM      8  C   UNL d   1       1.235   2.452  -0.072  0.00  0.00     0.019 C 
ENDBRANCH   1   7
TORSDOF 1
ENDMDL
