MODEL 1
REMARK minimizedAffinity -2.59321737
REMARK minimizedRMSD -1
REMARK  1 active torsions:
REMARK  status: ('A' for Active; 'I' for Inactive)
REMARK    1  A    between atoms: C1_2  and  C2_3 
ROOT
ATOM      1  C2  UNL d   1       0.281   1.070   0.020  0.00  0.00    -0.077 A 
ATOM      2  C3  UNL d   1       0.796   0.513  -1.159  0.00  0.00     0.002 A 
ATOM      3  C4  UNL d   1       0.857  -0.873  -1.316  0.00  0.00     0.002 A 
ATOM      4  C5  UNL d   1       0.400  -1.712  -0.302  0.00  0.00    -0.004 A 
ATOM      5  C6  UNL d   1      -0.113  -1.167   0.874  0.00  0.00     0.002 A 
ATOM      6  C7  UNL d   1      -0.173   0.218   1.034  0.00  0.00     0.002 A 
ENDROOT
BRANCH   1   7
ATOM      7  C1  UNL d   1       0.169   2.565   0.171  0.00  0.00     0.055 C 
ATOM      8  C   UNL d   1       1.449   3.161   0.738  0.00  0.00     0.019 C 
ENDBRANCH   1   7
TORSDOF 1
ENDMDL
