MODEL 1
REMARK minimizedAffinity -3.30108094
REMARK minimizedRMSD -1
REMARK  1 active torsions:
REMARK  status: ('A' for Active; 'I' for Inactive)
REMARK    1  A    between atoms: C1_2  and  C2_3 
ROOT
ATOM      1  C2  UNL d   1      -0.037  -0.574  -0.070  0.00  0.00    -0.077 A 
ATOM      2  C3  UNL d   1       1.190  -1.250  -0.097  0.00  0.00     0.002 A 
ATOM      3  C4  UNL d   1       1.249  -2.618   0.177  0.00  0.00     0.002 A 
ATOM      4  C5  UNL d   1       0.084  -3.321   0.476  0.00  0.00    -0.004 A 
ATOM      5  C6  UNL d   1      -1.142  -2.656   0.508  0.00  0.00     0.002 A 
ATOM      6  C7  UNL d   1      -1.202  -1.289   0.236  0.00  0.00     0.002 A 
ENDROOT
BRANCH   1   7
ATOM      7  C1  UNL d   1      -0.109   0.891  -0.413  0.00  0.00     0.055 C 
ATOM      8  C   UNL d   1       1.048   1.662   0.205  0.00  0.00     0.019 C 
ENDBRANCH   1   7
TORSDOF 1
ENDMDL
