MODEL 1
REMARK minimizedAffinity -4.99850416
REMARK minimizedRMSD -1
REMARK  1 active torsions:
REMARK  status: ('A' for Active; 'I' for Inactive)
REMARK    1  A    between atoms: C1_2  and  C2_3 
ROOT
ATOM      1  C2  UNL d   1      -0.126  -0.861  -0.284  0.00  0.00    -0.077 A 
ATOM      2  C3  UNL d   1      -0.591   0.461  -0.313  0.00  0.00     0.002 A 
ATOM      3  C4  UNL d   1      -0.623   1.172  -1.514  0.00  0.00     0.002 A 
ATOM      4  C5  UNL d   1      -0.196   0.568  -2.695  0.00  0.00    -0.004 A 
ATOM      5  C6  UNL d   1       0.269  -0.746  -2.676  0.00  0.00     0.002 A 
ATOM      6  C7  UNL d   1       0.303  -1.458  -1.476  0.00  0.00     0.002 A 
ENDROOT
BRANCH   1   7
ATOM      7  C1  UNL d   1      -0.137  -1.646   1.002  0.00  0.00     0.055 C 
ATOM      8  C   UNL d   1       0.327  -3.079   0.780  0.00  0.00     0.019 C 
ENDBRANCH   1   7
TORSDOF 1
ENDMDL
