MODEL 1
REMARK minimizedAffinity -3.96852207
REMARK minimizedRMSD -1
REMARK  1 active torsions:
REMARK  status: ('A' for Active; 'I' for Inactive)
REMARK    1  A    between atoms: C1_2  and  C2_3 
ROOT
ATOM      1  C2  UNL d   1      -0.265   0.028   0.150  0.00  0.00    -0.077 A 
ATOM      2  C3  UNL d   1       0.651  -0.927  -0.315  0.00  0.00     0.002 A 
ATOM      3  C4  UNL d   1       0.498  -2.274   0.021  0.00  0.00     0.002 A 
ATOM      4  C5  UNL d   1      -0.571  -2.678   0.818  0.00  0.00    -0.004 A 
ATOM      5  C6  UNL d   1      -1.485  -1.735   1.287  0.00  0.00     0.002 A 
ATOM      6  C7  UNL d   1      -1.333  -0.389   0.954  0.00  0.00     0.002 A 
ENDROOT
BRANCH   1   7
ATOM      7  C1  UNL d   1      -0.129   1.473  -0.252  0.00  0.00     0.055 C 
ATOM      8  C   UNL d   1       1.273   1.996   0.024  0.00  0.00     0.019 C 
ENDBRANCH   1   7
TORSDOF 1
ENDMDL
