MODEL 1
REMARK minimizedAffinity -3.07542133
REMARK minimizedRMSD -1
REMARK  1 active torsions:
REMARK  status: ('A' for Active; 'I' for Inactive)
REMARK    1  A    between atoms: C1_2  and  C2_3 
ROOT
ATOM      1  C2  UNL d   1       0.902   2.073  -0.654  0.00  0.00    -0.077 A 
ATOM      2  C3  UNL d   1       2.178   2.450  -1.096  0.00  0.00     0.002 A 
ATOM      3  C4  UNL d   1       2.787   3.602  -0.595  0.00  0.00     0.002 A 
ATOM      4  C5  UNL d   1       2.129   4.384   0.352  0.00  0.00    -0.004 A 
ATOM      5  C6  UNL d   1       0.859   4.019   0.796  0.00  0.00     0.002 A 
ATOM      6  C7  UNL d   1       0.248   2.868   0.296  0.00  0.00     0.002 A 
ENDROOT
BRANCH   1   7
ATOM      7  C1  UNL d   1       0.265   0.804  -1.157  0.00  0.00     0.055 C 
ATOM      8  C   UNL d   1       0.374  -0.315  -0.130  0.00  0.00     0.019 C 
ENDBRANCH   1   7
TORSDOF 1
ENDMDL
