MODEL 1
REMARK minimizedAffinity -0.283577383
REMARK minimizedRMSD -1
REMARK  1 active torsions:
REMARK  status: ('A' for Active; 'I' for Inactive)
REMARK    1  A    between atoms: C1_2  and  C2_3 
ROOT
ATOM      1  C2  UNL d   1       0.842   1.926  -0.623  0.00  0.00    -0.077 A 
ATOM      2  C3  UNL d   1       2.089   2.275  -1.160  0.00  0.00     0.002 A 
ATOM      3  C4  UNL d   1       2.825   3.327  -0.612  0.00  0.00     0.002 A 
ATOM      4  C5  UNL d   1       2.324   4.036   0.478  0.00  0.00    -0.004 A 
ATOM      5  C6  UNL d   1       1.084   3.698   1.018  0.00  0.00     0.002 A 
ATOM      6  C7  UNL d   1       0.347   2.647   0.471  0.00  0.00     0.002 A 
ENDROOT
BRANCH   1   7
ATOM      7  C1  UNL d   1       0.069   0.760  -1.181  0.00  0.00     0.055 C 
ATOM      8  C   UNL d   1      -0.246  -0.264  -0.100  0.00  0.00     0.019 C 
ENDBRANCH   1   7
TORSDOF 1
ENDMDL
