MODEL 1
REMARK minimizedAffinity -4.93291044
REMARK minimizedRMSD -1
REMARK  1 active torsions:
REMARK  status: ('A' for Active; 'I' for Inactive)
REMARK    1  A    between atoms: C1_2  and  C2_3 
ROOT
ATOM      1  C2  UNL d   1      -0.093  -0.203  -0.436  0.00  0.00    -0.077 A 
ATOM      2  C3  UNL d   1       0.559  -1.183  -1.197  0.00  0.00     0.002 A 
ATOM      3  C4  UNL d   1       0.572  -2.513  -0.774  0.00  0.00     0.002 A 
ATOM      4  C5  UNL d   1      -0.070  -2.876   0.408  0.00  0.00    -0.004 A 
ATOM      5  C6  UNL d   1      -0.720  -1.909   1.173  0.00  0.00     0.002 A 
ATOM      6  C7  UNL d   1      -0.732  -0.578   0.753  0.00  0.00     0.002 A 
ENDROOT
BRANCH   1   7
ATOM      7  C1  UNL d   1      -0.150   1.224  -0.916  0.00  0.00     0.055 C 
ATOM      8  C   UNL d   1       0.871   2.092  -0.195  0.00  0.00     0.019 C 
ENDBRANCH   1   7
TORSDOF 1
ENDMDL
