MODEL 1
REMARK minimizedAffinity -1.76318777
REMARK minimizedRMSD -1
REMARK  1 active torsions:
REMARK  status: ('A' for Active; 'I' for Inactive)
REMARK    1  A    between atoms: C1_2  and  C2_3 
ROOT
ATOM      1  C2  UNL d   1      -0.324  -2.053   0.278  0.00  0.00    -0.077 A 
ATOM      2  C3  UNL d   1       1.067  -2.094   0.115  0.00  0.00     0.002 A 
ATOM      3  C4  UNL d   1       1.798  -0.912  -0.019  0.00  0.00     0.002 A 
ATOM      4  C5  UNL d   1       1.146   0.319   0.013  0.00  0.00    -0.004 A 
ATOM      5  C6  UNL d   1      -0.239   0.370   0.173  0.00  0.00     0.002 A 
ATOM      6  C7  UNL d   1      -0.970  -0.811   0.306  0.00  0.00     0.002 A 
ENDROOT
BRANCH   1   7
ATOM      7  C1  UNL d   1      -1.108  -3.326   0.472  0.00  0.00     0.055 C 
ATOM      8  C   UNL d   1      -2.603  -3.050   0.540  0.00  0.00     0.019 C 
ENDBRANCH   1   7
TORSDOF 1
ENDMDL
