MODEL 1
REMARK minimizedAffinity -5.53968287
REMARK minimizedRMSD -1
REMARK  1 active torsions:
REMARK  status: ('A' for Active; 'I' for Inactive)
REMARK    1  A    between atoms: C1_2  and  C2_3 
ROOT
ATOM      1  C2  UNL d   1      -0.074  -0.824  -0.293  0.00  0.00    -0.077 A 
ATOM      2  C3  UNL d   1       0.252  -0.719  -1.653  0.00  0.00     0.002 A 
ATOM      3  C4  UNL d   1       0.372  -1.866  -2.441  0.00  0.00     0.002 A 
ATOM      4  C5  UNL d   1       0.165  -3.124  -1.879  0.00  0.00    -0.004 A 
ATOM      5  C6  UNL d   1      -0.158  -3.239  -0.528  0.00  0.00     0.002 A 
ATOM      6  C7  UNL d   1      -0.277  -2.094   0.262  0.00  0.00     0.002 A 
ENDROOT
BRANCH   1   7
ATOM      7  C1  UNL d   1      -0.253   0.413   0.547  0.00  0.00     0.055 C 
ATOM      8  C   UNL d   1       0.387   1.627  -0.112  0.00  0.00     0.019 C 
ENDBRANCH   1   7
TORSDOF 1
ENDMDL
