MODEL 1
REMARK minimizedAffinity -5.55076504
REMARK minimizedRMSD -1
REMARK  1 active torsions:
REMARK  status: ('A' for Active; 'I' for Inactive)
REMARK    1  A    between atoms: C1_2  and  C2_3 
ROOT
ATOM      1  C2  UNL d   1      -0.274   0.524   0.248  0.00  0.00    -0.077 A 
ATOM      2  C3  UNL d   1      -1.147   0.140   1.275  0.00  0.00     0.002 A 
ATOM      3  C4  UNL d   1      -1.310  -1.210   1.596  0.00  0.00     0.002 A 
ATOM      4  C5  UNL d   1      -0.599  -2.184   0.898  0.00  0.00    -0.004 A 
ATOM      5  C6  UNL d   1       0.270  -1.812  -0.127  0.00  0.00     0.002 A 
ATOM      6  C7  UNL d   1       0.433  -0.464  -0.450  0.00  0.00     0.002 A 
ENDROOT
BRANCH   1   7
ATOM      7  C1  UNL d   1      -0.060   1.981  -0.067  0.00  0.00     0.055 C 
ATOM      8  C   UNL d   1       1.422   2.323  -0.130  0.00  0.00     0.019 C 
ENDBRANCH   1   7
TORSDOF 1
ENDMDL
