MODEL 1
REMARK minimizedAffinity 1.73730826
REMARK minimizedRMSD -1
REMARK  1 active torsions:
REMARK  status: ('A' for Active; 'I' for Inactive)
REMARK    1  A    between atoms: C1_2  and  C2_3 
ROOT
ATOM      1  C2  UNL d   1      -2.243  -5.381  -3.024  0.00  0.00    -0.081 A 
ATOM      2  C3  UNL d   1      -1.083  -4.848  -2.449  0.00  0.00     0.006 A 
ATOM      3  C4  UNL d   1       0.131  -4.887  -3.138  0.00  0.00     0.002 A 
ATOM      4  C5  UNL d   1       0.205  -5.451  -4.416  0.00  0.00    -0.080 A 
ATOM      5  C6  UNL d   1       1.496  -5.472  -5.179  0.00  0.00     0.076 C 
ATOM      6  C7  UNL d   1      -0.950  -6.000  -4.984  0.00  0.00     0.002 A 
ATOM      7  C8  UNL d   1      -2.165  -5.962  -4.295  0.00  0.00     0.006 A 
ENDROOT
BRANCH   1   8
ATOM      8  C1  UNL d   1      -3.567  -5.283  -2.311  0.00  0.00     0.054 C 
ATOM      9  C   UNL d   1      -3.518  -5.974  -0.955  0.00  0.00     0.018 C 
ENDBRANCH   1   8
TORSDOF 1
ENDMDL
