MODEL 1
REMARK minimizedAffinity 5.07654762
REMARK minimizedRMSD -1
REMARK  1 active torsions:
REMARK  status: ('A' for Active; 'I' for Inactive)
REMARK    1  A    between atoms: C1_2  and  C2_3 
ROOT
ATOM      1  C2  UNL d   1       1.185   0.046   0.716  0.00  0.00    -0.081 A 
ATOM      2  C3  UNL d   1       2.014  -0.038   1.841  0.00  0.00     0.006 A 
ATOM      3  C4  UNL d   1       2.020  -1.190   2.631  0.00  0.00     0.002 A 
ATOM      4  C5  UNL d   1       1.205  -2.279   2.305  0.00  0.00    -0.080 A 
ATOM      5  C6  UNL d   1       1.225  -3.534   3.127  0.00  0.00     0.076 C 
ATOM      6  C7  UNL d   1       0.364  -2.188   1.190  0.00  0.00     0.002 A 
ATOM      7  C8  UNL d   1       0.356  -1.036   0.401  0.00  0.00     0.006 A 
ENDROOT
BRANCH   1   8
ATOM      8  C1  UNL d   1       1.223   1.262  -0.175  0.00  0.00     0.054 C 
ATOM      9  C   UNL d   1       0.925   2.532   0.609  0.00  0.00     0.018 C 
ENDBRANCH   1   8
TORSDOF 1
ENDMDL
