MODEL 1
REMARK minimizedAffinity 6.58002853
REMARK minimizedRMSD -1
REMARK  1 active torsions:
REMARK  status: ('A' for Active; 'I' for Inactive)
REMARK    1  A    between atoms: C1_2  and  C2_3 
ROOT
ATOM      1  C2  UNL d   1      -3.573   0.453  -1.626  0.00  0.00    -0.081 A 
ATOM      2  C3  UNL d   1      -4.967   0.550  -1.526  0.00  0.00     0.006 A 
ATOM      3  C4  UNL d   1      -5.625   0.118  -0.372  0.00  0.00     0.002 A 
ATOM      4  C5  UNL d   1      -4.902  -0.410   0.703  0.00  0.00    -0.080 A 
ATOM      5  C6  UNL d   1      -5.593  -0.848   1.959  0.00  0.00     0.076 C 
ATOM      6  C7  UNL d   1      -3.511  -0.523   0.596  0.00  0.00     0.002 A 
ATOM      7  C8  UNL d   1      -2.852  -0.092  -0.558  0.00  0.00     0.006 A 
ENDROOT
BRANCH   1   8
ATOM      8  C1  UNL d   1      -2.854   0.977  -2.843  0.00  0.00     0.054 C 
ATOM      9  C   UNL d   1      -1.394   1.279  -2.536  0.00  0.00     0.018 C 
ENDBRANCH   1   8
TORSDOF 1
ENDMDL
