MODEL 1
REMARK minimizedAffinity 2.89302659
REMARK minimizedRMSD -1
REMARK  1 active torsions:
REMARK  status: ('A' for Active; 'I' for Inactive)
REMARK    1  A    between atoms: C1_2  and  C2_3 
ROOT
ATOM      1  C2  UNL d   1      -0.578  -5.989  -4.729  0.00  0.00    -0.081 A 
ATOM      2  C3  UNL d   1      -1.975  -5.999  -4.815  0.00  0.00     0.006 A 
ATOM      3  C4  UNL d   1      -2.756  -6.000  -3.656  0.00  0.00     0.002 A 
ATOM      4  C5  UNL d   1      -2.153  -5.983  -2.394  0.00  0.00    -0.080 A 
ATOM      5  C6  UNL d   1      -2.980  -5.953  -1.143  0.00  0.00     0.076 C 
ATOM      6  C7  UNL d   1      -0.757  -5.991  -2.308  0.00  0.00     0.002 A 
ATOM      7  C8  UNL d   1       0.024  -5.991  -3.466  0.00  0.00     0.006 A 
ENDROOT
BRANCH   1   8
ATOM      8  C1  UNL d   1       0.266  -5.923  -5.976  0.00  0.00     0.054 C 
ATOM      9  C   UNL d   1       1.750  -5.977  -5.643  0.00  0.00     0.018 C 
ENDBRANCH   1   8
TORSDOF 1
ENDMDL
