MODEL 1
REMARK minimizedAffinity -2.41712165
REMARK minimizedRMSD -1
REMARK  1 active torsions:
REMARK  status: ('A' for Active; 'I' for Inactive)
REMARK    1  A    between atoms: C1_2  and  C2_3 
ROOT
ATOM      1  C2  UNL d   1      -1.845  -5.999  -3.214  0.00  0.00    -0.081 A 
ATOM      2  C3  UNL d   1      -0.672  -5.989  -2.450  0.00  0.00     0.006 A 
ATOM      3  C4  UNL d   1       0.579  -5.957  -3.072  0.00  0.00     0.002 A 
ATOM      4  C5  UNL d   1       0.677  -5.927  -4.467  0.00  0.00    -0.080 A 
ATOM      5  C6  UNL d   1       2.012  -5.862  -5.147  0.00  0.00     0.076 C 
ATOM      6  C7  UNL d   1      -0.495  -5.954  -5.231  0.00  0.00     0.002 A 
ATOM      7  C8  UNL d   1      -1.745  -5.987  -4.610  0.00  0.00     0.006 A 
ENDROOT
BRANCH   1   8
ATOM      8  C1  UNL d   1      -3.196  -5.968  -2.546  0.00  0.00     0.054 C 
ATOM      9  C   UNL d   1      -3.064  -6.000  -1.030  0.00  0.00     0.018 C 
ENDBRANCH   1   8
TORSDOF 1
ENDMDL
