MODEL 1
REMARK minimizedAffinity 0.587135732
REMARK minimizedRMSD -1
REMARK  1 active torsions:
REMARK  status: ('A' for Active; 'I' for Inactive)
REMARK    1  A    between atoms: C1_2  and  C2_3 
ROOT
ATOM      1  C2  UNL d   1      -1.614  -5.811  -3.029  0.00  0.00    -0.081 A 
ATOM      2  C3  UNL d   1      -0.271  -5.866  -2.635  0.00  0.00     0.006 A 
ATOM      3  C4  UNL d   1       0.745  -5.933  -3.592  0.00  0.00     0.002 A 
ATOM      4  C5  UNL d   1       0.435  -5.939  -4.956  0.00  0.00    -0.080 A 
ATOM      5  C6  UNL d   1       1.518  -5.980  -5.994  0.00  0.00     0.076 C 
ATOM      6  C7  UNL d   1      -0.907  -5.902  -5.349  0.00  0.00     0.002 A 
ATOM      7  C8  UNL d   1      -1.923  -5.836  -4.393  0.00  0.00     0.006 A 
ENDROOT
BRANCH   1   8
ATOM      8  C1  UNL d   1      -2.708  -5.673  -2.001  0.00  0.00     0.054 C 
ATOM      9  C   UNL d   1      -4.080  -5.898  -2.621  0.00  0.00     0.018 C 
ENDBRANCH   1   8
TORSDOF 1
ENDMDL
