MODEL 1
REMARK minimizedAffinity 5.11672878
REMARK minimizedRMSD -1
REMARK  1 active torsions:
REMARK  status: ('A' for Active; 'I' for Inactive)
REMARK    1  A    between atoms: C1_2  and  C2_3 
ROOT
ATOM      1  C2  UNL d   1      -3.356  -1.199  -0.003  0.00  0.00    -0.081 A 
ATOM      2  C3  UNL d   1      -3.685  -1.439  -1.343  0.00  0.00     0.006 A 
ATOM      3  C4  UNL d   1      -4.549  -0.578  -2.025  0.00  0.00     0.002 A 
ATOM      4  C5  UNL d   1      -5.091   0.539  -1.381  0.00  0.00    -0.080 A 
ATOM      5  C6  UNL d   1      -5.995   1.488  -2.110  0.00  0.00     0.076 C 
ATOM      6  C7  UNL d   1      -4.777   0.769  -0.037  0.00  0.00     0.002 A 
ATOM      7  C8  UNL d   1      -3.914  -0.092   0.645  0.00  0.00     0.006 A 
ENDROOT
BRANCH   1   8
ATOM      8  C1  UNL d   1      -2.375  -2.089   0.716  0.00  0.00     0.054 C 
ATOM      9  C   UNL d   1      -2.991  -3.442   1.044  0.00  0.00     0.018 C 
ENDBRANCH   1   8
TORSDOF 1
ENDMDL
