MODEL 1
REMARK minimizedAffinity 2.8071835
REMARK minimizedRMSD -1
REMARK  0 active torsions:
REMARK  status: ('A' for Active; 'I' for Inactive)
ROOT
ATOM      1  C2' OXE d   1      -3.362   0.656  -3.143  0.00  0.00     0.078 C 
ATOM      2  C1' OXE d   1      -0.668   0.445  -2.383  0.00  0.00     0.078 C 
ATOM      3  C1  OXE d   1      -1.055   1.584  -3.293  0.00  0.00    -0.078 A 
ATOM      4  C2  OXE d   1      -2.367   1.652  -3.697  0.00  0.00    -0.078 A 
ATOM      5  C3  OXE d   1      -2.789   2.714  -4.492  0.00  0.00     0.003 A 
ATOM      6  C4  OXE d   1      -1.860   3.626  -5.009  0.00  0.00    -0.002 A 
ATOM      7  C5  OXE d   1      -0.512   3.551  -4.641  0.00  0.00    -0.002 A 
ATOM      8  C6  OXE d   1      -0.102   2.564  -3.752  0.00  0.00     0.003 A 
ENDROOT
TORSDOF 0
ENDMDL
