MODEL 1
REMARK minimizedAffinity -3.08273149
REMARK minimizedRMSD -1
REMARK  0 active torsions:
REMARK  status: ('A' for Active; 'I' for Inactive)
ROOT
ATOM      1  C2' OXE d   1       1.849  -5.935  -3.484  0.00  0.00     0.078 C 
ATOM      2  C1' OXE d   1       0.633  -5.663  -5.999  0.00  0.00     0.078 C 
ATOM      3  C1  OXE d   1      -0.265  -5.761  -4.791  0.00  0.00    -0.078 A 
ATOM      4  C2  OXE d   1       0.337  -5.941  -3.569  0.00  0.00    -0.078 A 
ATOM      5  C3  OXE d   1      -0.441  -5.983  -2.416  0.00  0.00     0.003 A 
ATOM      6  C4  OXE d   1      -1.839  -5.999  -2.505  0.00  0.00    -0.002 A 
ATOM      7  C5  OXE d   1      -2.473  -5.856  -3.744  0.00  0.00    -0.002 A 
ATOM      8  C6  OXE d   1      -1.702  -5.694  -4.889  0.00  0.00     0.003 A 
ENDROOT
TORSDOF 0
ENDMDL
