MODEL 1
REMARK minimizedAffinity -0.157689556
REMARK minimizedRMSD -1
REMARK  0 active torsions:
REMARK  status: ('A' for Active; 'I' for Inactive)
ROOT
ATOM      1  C2' OXE d   1       3.082  -1.513   0.813  0.00  0.00     0.078 C 
ATOM      2  C1' OXE d   1       3.200   0.668  -0.951  0.00  0.00     0.078 C 
ATOM      3  C1  OXE d   1       1.899   0.414  -0.232  0.00  0.00    -0.078 A 
ATOM      4  C2  OXE d   1       1.836  -0.682   0.593  0.00  0.00    -0.078 A 
ATOM      5  C3  OXE d   1       0.676  -0.931   1.322  0.00  0.00     0.003 A 
ATOM      6  C4  OXE d   1      -0.475  -0.163   1.106  0.00  0.00    -0.002 A 
ATOM      7  C5  OXE d   1      -0.444   0.934   0.240  0.00  0.00    -0.002 A 
ATOM      8  C6  OXE d   1       0.745   1.262  -0.403  0.00  0.00     0.003 A 
ENDROOT
TORSDOF 0
ENDMDL
