MODEL 1
REMARK minimizedAffinity -1.02952349
REMARK minimizedRMSD -1
REMARK  0 active torsions:
REMARK  status: ('A' for Active; 'I' for Inactive)
ROOT
ATOM      1  C2' OXE d   1       0.111  -0.202   1.248  0.00  0.00     0.078 C 
ATOM      2  C1' OXE d   1       2.574  -0.465  -0.072  0.00  0.00     0.078 C 
ATOM      3  C1  OXE d   1       2.552  -0.666   1.422  0.00  0.00    -0.078 A 
ATOM      4  C2  OXE d   1       1.351  -0.490   2.067  0.00  0.00    -0.078 A 
ATOM      5  C3  OXE d   1       1.264  -0.717   3.437  0.00  0.00     0.003 A 
ATOM      6  C4  OXE d   1       2.418  -0.972   4.188  0.00  0.00    -0.002 A 
ATOM      7  C5  OXE d   1       3.658  -1.117   3.557  0.00  0.00    -0.002 A 
ATOM      8  C6  OXE d   1       3.735  -1.009   2.173  0.00  0.00     0.003 A 
ENDROOT
TORSDOF 0
ENDMDL
