MODEL 1
REMARK minimizedAffinity 7.29526472
REMARK minimizedRMSD -1
REMARK  0 active torsions:
REMARK  status: ('A' for Active; 'I' for Inactive)
ROOT
ATOM      1  C2' OXE d   1      -2.139  -2.723   0.240  0.00  0.00     0.078 C 
ATOM      2  C1' OXE d   1      -2.511   0.015   0.732  0.00  0.00     0.078 C 
ATOM      3  C1  OXE d   1      -1.109  -0.465   0.452  0.00  0.00    -0.078 A 
ATOM      4  C2  OXE d   1      -0.929  -1.814   0.258  0.00  0.00    -0.078 A 
ATOM      5  C3  OXE d   1       0.335  -2.303  -0.058  0.00  0.00     0.003 A 
ATOM      6  C4  OXE d   1       1.450  -1.457  -0.029  0.00  0.00    -0.002 A 
ATOM      7  C5  OXE d   1       1.295  -0.086   0.205  0.00  0.00    -0.002 A 
ATOM      8  C6  OXE d   1       0.020   0.431   0.405  0.00  0.00     0.003 A 
ENDROOT
TORSDOF 0
ENDMDL
