MODEL 1
REMARK minimizedAffinity -3.2530756
REMARK minimizedRMSD -1
REMARK  0 active torsions:
REMARK  status: ('A' for Active; 'I' for Inactive)
ROOT
ATOM      1  C2' OXE d   1      -1.527  -5.627  -1.705  0.00  0.00     0.078 C 
ATOM      2  C1' OXE d   1      -3.754  -5.998  -3.373  0.00  0.00     0.078 C 
ATOM      3  C1  OXE d   1      -2.416  -5.762  -4.028  0.00  0.00    -0.078 A 
ATOM      4  C2  OXE d   1      -1.340  -5.536  -3.204  0.00  0.00    -0.078 A 
ATOM      5  C3  OXE d   1      -0.073  -5.367  -3.756  0.00  0.00     0.003 A 
ATOM      6  C4  OXE d   1       0.090  -5.274  -5.143  0.00  0.00    -0.002 A 
ATOM      7  C5  OXE d   1      -1.000  -5.462  -6.000  0.00  0.00    -0.002 A 
ATOM      8  C6  OXE d   1      -2.249  -5.749  -5.461  0.00  0.00     0.003 A 
ENDROOT
TORSDOF 0
ENDMDL
