MODEL 1
REMARK minimizedAffinity -4.00014925
REMARK minimizedRMSD -1
REMARK  0 active torsions:
REMARK  status: ('A' for Active; 'I' for Inactive)
ROOT
ATOM      1  C2' OXE d   1      -3.238  -5.971  -1.638  0.00  0.00     0.078 C 
ATOM      2  C1' OXE d   1      -5.998  -6.000  -1.130  0.00  0.00     0.078 C 
ATOM      3  C1  OXE d   1      -5.069  -5.817   0.043  0.00  0.00    -0.078 A 
ATOM      4  C2  OXE d   1      -3.719  -5.851  -0.208  0.00  0.00    -0.078 A 
ATOM      5  C3  OXE d   1      -2.818  -5.633   0.831  0.00  0.00     0.003 A 
ATOM      6  C4  OXE d   1      -3.271  -5.533   2.152  0.00  0.00    -0.002 A 
ATOM      7  C5  OXE d   1      -4.641  -5.536   2.435  0.00  0.00    -0.002 A 
ATOM      8  C6  OXE d   1      -5.553  -5.634   1.390  0.00  0.00     0.003 A 
ENDROOT
TORSDOF 0
ENDMDL
