MODEL 1
REMARK minimizedAffinity -0.977995813
REMARK minimizedRMSD -1
REMARK  0 active torsions:
REMARK  status: ('A' for Active; 'I' for Inactive)
ROOT
ATOM      1  C2' OXE d   1      -3.870  -5.941  -3.763  0.00  0.00     0.078 C 
ATOM      2  C1' OXE d   1      -1.961  -4.922  -1.975  0.00  0.00     0.078 C 
ATOM      3  C1  OXE d   1      -1.517  -5.217  -3.386  0.00  0.00    -0.078 A 
ATOM      4  C2  OXE d   1      -2.446  -5.759  -4.241  0.00  0.00    -0.078 A 
ATOM      5  C3  OXE d   1      -2.103  -6.000  -5.569  0.00  0.00     0.003 A 
ATOM      6  C4  OXE d   1      -0.781  -5.839  -6.000  0.00  0.00    -0.002 A 
ATOM      7  C5  OXE d   1       0.191  -5.325  -5.134  0.00  0.00    -0.002 A 
ATOM      8  C6  OXE d   1      -0.170  -4.969  -3.839  0.00  0.00     0.003 A 
ENDROOT
TORSDOF 0
ENDMDL
