MODEL 1
REMARK minimizedAffinity 5.1560421
REMARK minimizedRMSD -1
REMARK  0 active torsions:
REMARK  status: ('A' for Active; 'I' for Inactive)
ROOT
ATOM      1  C2' OXE d   1       0.790  -5.089  -5.762  0.00  0.00     0.078 C 
ATOM      2  C1' OXE d   1      -1.855  -5.999  -6.000  0.00  0.00     0.078 C 
ATOM      3  C1  OXE d   1      -1.381  -5.560  -4.636  0.00  0.00    -0.078 A 
ATOM      4  C2  OXE d   1      -0.072  -5.160  -4.520  0.00  0.00    -0.078 A 
ATOM      5  C3  OXE d   1       0.400  -4.694  -3.297  0.00  0.00     0.003 A 
ATOM      6  C4  OXE d   1      -0.400  -4.773  -2.151  0.00  0.00    -0.002 A 
ATOM      7  C5  OXE d   1      -1.725  -5.215  -2.240  0.00  0.00    -0.002 A 
ATOM      8  C6  OXE d   1      -2.243  -5.571  -3.480  0.00  0.00     0.003 A 
ENDROOT
TORSDOF 0
ENDMDL
