MODEL 1
REMARK minimizedAffinity -2.96078539
REMARK minimizedRMSD -1
REMARK  0 active torsions:
REMARK  status: ('A' for Active; 'I' for Inactive)
ROOT
ATOM      1  C2' OXE d   1      -1.499  -5.957  -1.694  0.00  0.00     0.078 C 
ATOM      2  C1' OXE d   1      -3.758  -6.000  -3.359  0.00  0.00     0.078 C 
ATOM      3  C1  OXE d   1      -2.400  -5.975  -4.016  0.00  0.00    -0.078 A 
ATOM      4  C2  OXE d   1      -1.301  -5.907  -3.193  0.00  0.00    -0.078 A 
ATOM      5  C3  OXE d   1      -0.024  -5.937  -3.746  0.00  0.00     0.003 A 
ATOM      6  C4  OXE d   1       0.149  -5.881  -5.134  0.00  0.00    -0.002 A 
ATOM      7  C5  OXE d   1      -0.957  -5.909  -5.989  0.00  0.00    -0.002 A 
ATOM      8  C6  OXE d   1      -2.235  -5.999  -5.448  0.00  0.00     0.003 A 
ENDROOT
TORSDOF 0
ENDMDL
