MODEL 1
REMARK minimizedAffinity 3.78675199
REMARK minimizedRMSD -1
REMARK  0 active torsions:
REMARK  status: ('A' for Active; 'I' for Inactive)
ROOT
ATOM      1  C2' OXE d   1      -5.110   0.366   1.477  0.00  0.00     0.078 C 
ATOM      2  C1' OXE d   1      -2.646  -0.419   0.386  0.00  0.00     0.078 C 
ATOM      3  C1  OXE d   1      -3.748  -0.037  -0.570  0.00  0.00    -0.078 A 
ATOM      4  C2  OXE d   1      -4.965   0.301  -0.029  0.00  0.00    -0.078 A 
ATOM      5  C3  OXE d   1      -6.000   0.714  -0.863  0.00  0.00     0.003 A 
ATOM      6  C4  OXE d   1      -5.861   0.641  -2.254  0.00  0.00    -0.002 A 
ATOM      7  C5  OXE d   1      -4.642   0.261  -2.827  0.00  0.00    -0.002 A 
ATOM      8  C6  OXE d   1      -3.565  -0.039  -2.000  0.00  0.00     0.003 A 
ENDROOT
TORSDOF 0
ENDMDL
