MODEL 1
REMARK minimizedAffinity 0.910731673
REMARK minimizedRMSD -1
REMARK  0 active torsions:
REMARK  status: ('A' for Active; 'I' for Inactive)
ROOT
ATOM      1  C2' OXE d   1      -5.671  -5.729   3.328  0.00  0.00     0.078 C 
ATOM      2  C1' OXE d   1      -2.985  -4.952   3.580  0.00  0.00     0.078 C 
ATOM      3  C1  OXE d   1      -3.491  -5.297   2.201  0.00  0.00    -0.078 A 
ATOM      4  C2  OXE d   1      -4.794  -5.721   2.094  0.00  0.00    -0.078 A 
ATOM      5  C3  OXE d   1      -5.328  -5.998   0.839  0.00  0.00     0.003 A 
ATOM      6  C4  OXE d   1      -4.507  -5.998  -0.296  0.00  0.00    -0.002 A 
ATOM      7  C5  OXE d   1      -3.167  -5.608  -0.203  0.00  0.00    -0.002 A 
ATOM      8  C6  OXE d   1      -2.656  -5.214   1.029  0.00  0.00     0.003 A 
ENDROOT
TORSDOF 0
ENDMDL
