MODEL 1
REMARK minimizedAffinity 1.48910379
REMARK minimizedRMSD -1
REMARK  0 active torsions:
REMARK  status: ('A' for Active; 'I' for Inactive)
ROOT
ATOM      1  C2' OXE d   1      -3.097   1.361  -3.177  0.00  0.00     0.078 C 
ATOM      2  C1' OXE d   1      -0.467   1.329  -2.195  0.00  0.00     0.078 C 
ATOM      3  C1  OXE d   1      -0.859   2.454  -3.120  0.00  0.00    -0.078 A 
ATOM      4  C2  OXE d   1      -2.134   2.436  -3.633  0.00  0.00    -0.078 A 
ATOM      5  C3  OXE d   1      -2.564   3.480  -4.447  0.00  0.00     0.003 A 
ATOM      6  C4  OXE d   1      -1.664   4.464  -4.872  0.00  0.00    -0.002 A 
ATOM      7  C5  OXE d   1      -0.349   4.479  -4.394  0.00  0.00    -0.002 A 
ATOM      8  C6  OXE d   1       0.056   3.507  -3.486  0.00  0.00     0.003 A 
ENDROOT
TORSDOF 0
ENDMDL
