MODEL 1
REMARK minimizedAffinity -0.463648915
REMARK minimizedRMSD -1
REMARK  0 active torsions:
REMARK  status: ('A' for Active; 'I' for Inactive)
ROOT
ATOM      1  C2' OXE d   1       1.906  -1.167   3.114  0.00  0.00     0.078 C 
ATOM      2  C1' OXE d   1       3.424  -1.336   0.759  0.00  0.00     0.078 C 
ATOM      3  C1  OXE d   1       1.990  -0.885   0.640  0.00  0.00    -0.078 A 
ATOM      4  C2  OXE d   1       1.241  -0.850   1.792  0.00  0.00    -0.078 A 
ATOM      5  C3  OXE d   1      -0.071  -0.389   1.746  0.00  0.00     0.003 A 
ATOM      6  C4  OXE d   1      -0.682  -0.107   0.518  0.00  0.00    -0.002 A 
ATOM      7  C5  OXE d   1       0.052  -0.174  -0.671  0.00  0.00    -0.002 A 
ATOM      8  C6  OXE d   1       1.398  -0.520  -0.623  0.00  0.00     0.003 A 
ENDROOT
TORSDOF 0
ENDMDL
