MODEL 1
REMARK minimizedAffinity 4.39675331
REMARK minimizedRMSD -1
REMARK  0 active torsions:
REMARK  status: ('A' for Active; 'I' for Inactive)
ROOT
ATOM      1  C2' OXE d   1       0.710  -1.506   2.991  0.00  0.00     0.078 C 
ATOM      2  C1' OXE d   1       1.308  -0.840   0.330  0.00  0.00     0.078 C 
ATOM      3  C1  OXE d   1       2.450  -0.901   1.314  0.00  0.00    -0.078 A 
ATOM      4  C2  OXE d   1       2.142  -1.182   2.623  0.00  0.00    -0.078 A 
ATOM      5  C3  OXE d   1       3.164  -1.304   3.560  0.00  0.00     0.003 A 
ATOM      6  C4  OXE d   1       4.484  -0.993   3.214  0.00  0.00    -0.002 A 
ATOM      7  C5  OXE d   1       4.814  -0.666   1.894  0.00  0.00    -0.002 A 
ATOM      8  C6  OXE d   1       3.817  -0.657   0.925  0.00  0.00     0.003 A 
ENDROOT
TORSDOF 0
ENDMDL
