MODEL 1
REMARK minimizedAffinity 3.37860394
REMARK minimizedRMSD -1
REMARK  0 active torsions:
REMARK  status: ('A' for Active; 'I' for Inactive)
ROOT
ATOM      1  C2' OXE d   1       0.247   0.515  -0.112  0.00  0.00     0.078 C 
ATOM      2  C1' OXE d   1       0.624   3.224   0.519  0.00  0.00     0.078 C 
ATOM      3  C1  OXE d   1       0.103   2.888  -0.856  0.00  0.00    -0.078 A 
ATOM      4  C2  OXE d   1      -0.034   1.557  -1.172  0.00  0.00    -0.078 A 
ATOM      5  C3  OXE d   1      -0.562   1.193  -2.407  0.00  0.00     0.003 A 
ATOM      6  C4  OXE d   1      -0.810   2.164  -3.386  0.00  0.00    -0.002 A 
ATOM      7  C5  OXE d   1      -0.639   3.522  -3.098  0.00  0.00    -0.002 A 
ATOM      8  C6  OXE d   1      -0.225   3.902  -1.826  0.00  0.00     0.003 A 
ENDROOT
TORSDOF 0
ENDMDL
