MODEL 1
REMARK minimizedAffinity -1.80460095
REMARK minimizedRMSD -1
REMARK  0 active torsions:
REMARK  status: ('A' for Active; 'I' for Inactive)
ROOT
ATOM      1  C2' OXE d   1       3.552  -1.356   2.857  0.00  0.00     0.078 C 
ATOM      2  C1' OXE d   1       0.800  -1.305   3.408  0.00  0.00     0.078 C 
ATOM      3  C1  OXE d   1       1.246  -0.936   2.015  0.00  0.00    -0.078 A 
ATOM      4  C2  OXE d   1       2.597  -0.918   1.767  0.00  0.00    -0.078 A 
ATOM      5  C3  OXE d   1       3.059  -0.637   0.485  0.00  0.00     0.003 A 
ATOM      6  C4  OXE d   1       2.170  -0.223  -0.514  0.00  0.00    -0.002 A 
ATOM      7  C5  OXE d   1       0.792  -0.196  -0.272  0.00  0.00    -0.002 A 
ATOM      8  C6  OXE d   1       0.312  -0.589   0.972  0.00  0.00     0.003 A 
ENDROOT
TORSDOF 0
ENDMDL
