MODEL 1
REMARK minimizedAffinity -5.04617453
REMARK minimizedRMSD -1
REMARK  0 active torsions:
REMARK  status: ('A' for Active; 'I' for Inactive)
ROOT
ATOM      1  N1  IND d   1       0.379  -0.503  -0.656  0.00  0.00    -0.196 N 
ATOM      2  C2  IND d   1      -0.859  -0.726  -0.121  0.00  0.00     0.054 A 
ATOM      3  C3  IND d   1      -1.075   0.102   0.926  0.00  0.00    -0.031 A 
ATOM      4  C4  IND d   1       0.424   1.970   1.870  0.00  0.00     0.051 A 
ATOM      5  C5  IND d   1       1.664   2.527   1.735  0.00  0.00    -0.031 A 
ATOM      6  C6  IND d   1       2.557   2.095   0.776  0.00  0.00     0.015 A 
ATOM      7  C7  IND d   1       2.236   1.094  -0.097  0.00  0.00    -0.016 A 
ATOM      8  C8  IND d   1       0.980   0.522   0.042  0.00  0.00    -0.047 A 
ATOM      9  C9  IND d   1       0.086   0.926   1.041  0.00  0.00    -0.096 A 
ATOM     10  HN1 IND d   1       0.724  -0.931  -1.317  0.00  0.00     0.298 HD
ENDROOT
TORSDOF 0
ENDMDL
