MODEL 1
REMARK minimizedAffinity -3.58599186
REMARK minimizedRMSD -1
REMARK  0 active torsions:
REMARK  status: ('A' for Active; 'I' for Inactive)
ROOT
ATOM      1  N1  IND d   1       0.507  -0.189   0.117  0.00  0.00    -0.196 N 
ATOM      2  C2  IND d   1      -0.856  -0.104   0.164  0.00  0.00     0.054 A 
ATOM      3  C3  IND d   1      -1.235   1.016   0.819  0.00  0.00    -0.031 A 
ATOM      4  C4  IND d   1       0.212   2.900   1.810  0.00  0.00     0.051 A 
ATOM      5  C5  IND d   1       1.513   3.250   2.045  0.00  0.00    -0.031 A 
ATOM      6  C6  IND d   1       2.566   2.456   1.638  0.00  0.00     0.015 A 
ATOM      7  C7  IND d   1       2.357   1.283   0.969  0.00  0.00    -0.016 A 
ATOM      8  C8  IND d   1       1.037   0.922   0.735  0.00  0.00    -0.047 A 
ATOM      9  C9  IND d   1      -0.036   1.702   1.183  0.00  0.00    -0.096 A 
ATOM     10  HN1 IND d   1       0.958  -0.830  -0.238  0.00  0.00     0.298 HD
ENDROOT
TORSDOF 0
ENDMDL
