MODEL 1
REMARK minimizedAffinity -5.30636263
REMARK minimizedRMSD -1
REMARK  0 active torsions:
REMARK  status: ('A' for Active; 'I' for Inactive)
ROOT
ATOM      1  N1  IND d   1      -0.459   0.150   1.129  0.00  0.00    -0.196 N 
ATOM      2  C2  IND d   1      -0.270  -0.982   0.385  0.00  0.00     0.054 A 
ATOM      3  C3  IND d   1       0.888  -0.901  -0.309  0.00  0.00    -0.031 A 
ATOM      4  C4  IND d   1       2.677   0.950  -0.295  0.00  0.00     0.051 A 
ATOM      5  C5  IND d   1       2.932   2.197   0.201  0.00  0.00    -0.031 A 
ATOM      6  C6  IND d   1       2.054   2.838   1.051  0.00  0.00     0.015 A 
ATOM      7  C7  IND d   1       0.887   2.247   1.447  0.00  0.00    -0.016 A 
ATOM      8  C8  IND d   1       0.621   0.983   0.940  0.00  0.00    -0.047 A 
ATOM      9  C9  IND d   1       1.489   0.346   0.044  0.00  0.00    -0.096 A 
ATOM     10  HN1 IND d   1      -1.138   0.313   1.630  0.00  0.00     0.298 HD
ENDROOT
TORSDOF 0
ENDMDL
