MODEL 1
REMARK minimizedAffinity -0.252263933
REMARK minimizedRMSD -1
REMARK  0 active torsions:
REMARK  status: ('A' for Active; 'I' for Inactive)
ROOT
ATOM      1  N1  IND d   1      -1.382  -2.250  -2.767  0.00  0.00    -0.196 N 
ATOM      2  C2  IND d   1      -2.528  -1.754  -3.321  0.00  0.00     0.054 A 
ATOM      3  C3  IND d   1      -2.976  -0.696  -2.609  0.00  0.00    -0.031 A 
ATOM      4  C4  IND d   1      -1.930   0.455  -0.557  0.00  0.00     0.051 A 
ATOM      5  C5  IND d   1      -0.900   0.339   0.335  0.00  0.00    -0.031 A 
ATOM      6  C6  IND d   1       0.042  -0.665   0.234  0.00  0.00     0.015 A 
ATOM      7  C7  IND d   1      -0.004  -1.587  -0.772  0.00  0.00    -0.016 A 
ATOM      8  C8  IND d   1      -1.052  -1.477  -1.675  0.00  0.00    -0.047 A 
ATOM      9  C9  IND d   1      -2.035  -0.486  -1.554  0.00  0.00    -0.096 A 
ATOM     10  HN1 IND d   1      -0.941  -2.931  -3.051  0.00  0.00     0.298 HD
ENDROOT
TORSDOF 0
ENDMDL
