MODEL 1
REMARK minimizedAffinity -5.003932
REMARK minimizedRMSD -1
REMARK  0 active torsions:
REMARK  status: ('A' for Active; 'I' for Inactive)
ROOT
ATOM      1  N1  IND d   1       1.017  -0.855  -0.334  0.00  0.00    -0.196 N 
ATOM      2  C2  IND d   1      -0.334  -0.942  -0.148  0.00  0.00     0.054 A 
ATOM      3  C3  IND d   1      -0.790   0.149   0.507  0.00  0.00    -0.031 A 
ATOM      4  C4  IND d   1       0.488   2.247   1.277  0.00  0.00     0.051 A 
ATOM      5  C5  IND d   1       1.747   2.771   1.362  0.00  0.00    -0.031 A 
ATOM      6  C6  IND d   1       2.850   2.100   0.874  0.00  0.00     0.015 A 
ATOM      7  C7  IND d   1       2.732   0.880   0.269  0.00  0.00    -0.016 A 
ATOM      8  C8  IND d   1       1.455   0.343   0.188  0.00  0.00    -0.047 A 
ATOM      9  C9  IND d   1       0.338   0.999   0.719  0.00  0.00    -0.096 A 
ATOM     10  HN1 IND d   1       1.511  -1.448  -0.713  0.00  0.00     0.298 HD
ENDROOT
TORSDOF 0
ENDMDL
