MODEL 1
REMARK minimizedAffinity -2.42716694
REMARK minimizedRMSD -1
REMARK  0 active torsions:
REMARK  status: ('A' for Active; 'I' for Inactive)
ROOT
ATOM      1  N1  IND d   1       1.519  -0.803  -1.050  0.00  0.00    -0.196 N 
ATOM      2  C2  IND d   1       0.179  -0.690  -0.806  0.00  0.00     0.054 A 
ATOM      3  C3  IND d   1      -0.083   0.454  -0.136  0.00  0.00    -0.031 A 
ATOM      4  C4  IND d   1       1.521   2.339   0.572  0.00  0.00     0.051 A 
ATOM      5  C5  IND d   1       2.847   2.671   0.601  0.00  0.00    -0.031 A 
ATOM      6  C6  IND d   1       3.817   1.847   0.068  0.00  0.00     0.015 A 
ATOM      7  C7  IND d   1       3.495   0.660  -0.526  0.00  0.00    -0.016 A 
ATOM      8  C8  IND d   1       2.150   0.316  -0.551  0.00  0.00    -0.047 A 
ATOM      9  C9  IND d   1       1.166   1.129   0.025  0.00  0.00    -0.096 A 
ATOM     10  HN1 IND d   1       1.903  -1.461  -1.447  0.00  0.00     0.298 HD
ENDROOT
TORSDOF 0
ENDMDL
