MODEL 1
REMARK minimizedAffinity -5.75205135
REMARK minimizedRMSD -1
REMARK  0 active torsions:
REMARK  status: ('A' for Active; 'I' for Inactive)
ROOT
ATOM      1  N1  IND d   1       0.481  -0.675  -0.227  0.00  0.00    -0.196 N 
ATOM      2  C2  IND d   1      -0.855  -0.570   0.040  0.00  0.00     0.054 A 
ATOM      3  C3  IND d   1      -1.116   0.587   0.690  0.00  0.00    -0.031 A 
ATOM      4  C4  IND d   1       0.484   2.501   1.326  0.00  0.00     0.051 A 
ATOM      5  C5  IND d   1       1.806   2.846   1.323  0.00  0.00    -0.031 A 
ATOM      6  C6  IND d   1       2.774   2.019   0.790  0.00  0.00     0.015 A 
ATOM      7  C7  IND d   1       2.452   0.817   0.227  0.00  0.00    -0.016 A 
ATOM      8  C8  IND d   1       1.111   0.460   0.235  0.00  0.00    -0.047 A 
ATOM      9  C9  IND d   1       0.130   1.276   0.813  0.00  0.00    -0.096 A 
ATOM     10  HN1 IND d   1       0.864  -1.338  -0.617  0.00  0.00     0.298 HD
ENDROOT
TORSDOF 0
ENDMDL
