MODEL 1
REMARK minimizedAffinity -3.56430006
REMARK minimizedRMSD -1
REMARK  0 active torsions:
REMARK  status: ('A' for Active; 'I' for Inactive)
ROOT
ATOM      1  N1  IND d   1       0.926   1.650   2.516  0.00  0.00    -0.196 N 
ATOM      2  C2  IND d   1       1.778   2.410   1.765  0.00  0.00     0.054 A 
ATOM      3  C3  IND d   1       1.567   2.191   0.448  0.00  0.00    -0.031 A 
ATOM      4  C4  IND d   1      -0.194   0.705  -0.701  0.00  0.00     0.051 A 
ATOM      5  C5  IND d   1      -1.173  -0.209  -0.432  0.00  0.00    -0.031 A 
ATOM      6  C6  IND d   1      -1.511  -0.556   0.860  0.00  0.00     0.015 A 
ATOM      7  C7  IND d   1      -0.888   0.010   1.936  0.00  0.00    -0.016 A 
ATOM      8  C8  IND d   1       0.112   0.934   1.666  0.00  0.00    -0.047 A 
ATOM      9  C9  IND d   1       0.488   1.258   0.357  0.00  0.00    -0.096 A 
ATOM     10  HN1 IND d   1       0.902   1.623   3.375  0.00  0.00     0.298 HD
ENDROOT
TORSDOF 0
ENDMDL
