MODEL 1
REMARK minimizedAffinity -2.78371239
REMARK minimizedRMSD -1
REMARK  0 active torsions:
REMARK  status: ('A' for Active; 'I' for Inactive)
ROOT
ATOM      1  N1  IND d   1       0.236  -0.504  -0.338  0.00  0.00    -0.196 N 
ATOM      2  C2  IND d   1      -1.058  -0.490   0.104  0.00  0.00     0.054 A 
ATOM      3  C3  IND d   1      -1.237   0.503   1.003  0.00  0.00    -0.031 A 
ATOM      4  C4  IND d   1       0.428   2.289   1.821  0.00  0.00     0.051 A 
ATOM      5  C5  IND d   1       1.739   2.661   1.730  0.00  0.00    -0.031 A 
ATOM      6  C6  IND d   1       2.635   1.985   0.926  0.00  0.00     0.015 A 
ATOM      7  C7  IND d   1       2.247   0.914   0.171  0.00  0.00    -0.016 A 
ATOM      8  C8  IND d   1       0.917   0.529   0.267  0.00  0.00    -0.047 A 
ATOM      9  C9  IND d   1       0.014   1.185   1.114  0.00  0.00    -0.096 A 
ATOM     10  HN1 IND d   1       0.568  -1.064  -0.900  0.00  0.00     0.298 HD
ENDROOT
TORSDOF 0
ENDMDL
