MODEL 1
REMARK minimizedAffinity -4.24494219
REMARK minimizedRMSD -1
REMARK  0 active torsions:
REMARK  status: ('A' for Active; 'I' for Inactive)
ROOT
ATOM      1  N1  IND d   1       0.574  -0.732  -0.357  0.00  0.00    -0.196 N 
ATOM      2  C2  IND d   1      -0.719  -0.821   0.078  0.00  0.00     0.054 A 
ATOM      3  C3  IND d   1      -0.997   0.189   0.934  0.00  0.00    -0.031 A 
ATOM      4  C4  IND d   1       0.488   2.154   1.683  0.00  0.00     0.051 A 
ATOM      5  C5  IND d   1       1.760   2.642   1.581  0.00  0.00    -0.031 A 
ATOM      6  C6  IND d   1       2.721   2.020   0.811  0.00  0.00     0.015 A 
ATOM      7  C7  IND d   1       2.440   0.887   0.101  0.00  0.00    -0.016 A 
ATOM      8  C8  IND d   1       1.151   0.384   0.207  0.00  0.00    -0.047 A 
ATOM      9  C9  IND d   1       0.184   0.987   1.021  0.00  0.00    -0.096 A 
ATOM     10  HN1 IND d   1       0.961  -1.282  -0.893  0.00  0.00     0.298 HD
ENDROOT
TORSDOF 0
ENDMDL
