MODEL 1
REMARK minimizedAffinity -4.32680655
REMARK minimizedRMSD -1
REMARK  0 active torsions:
REMARK  status: ('A' for Active; 'I' for Inactive)
ROOT
ATOM      1  N1  IND d   1       0.931  -0.872  -0.621  0.00  0.00    -0.196 N 
ATOM      2  C2  IND d   1      -0.410  -0.957  -0.368  0.00  0.00     0.054 A 
ATOM      3  C3  IND d   1      -0.825   0.122   0.333  0.00  0.00    -0.031 A 
ATOM      4  C4  IND d   1       0.504   2.195   1.084  0.00  0.00     0.051 A 
ATOM      5  C5  IND d   1       1.770   2.710   1.116  0.00  0.00    -0.031 A 
ATOM      6  C6  IND d   1       2.842   2.044   0.557  0.00  0.00     0.015 A 
ATOM      7  C7  IND d   1       2.685   0.839  -0.067  0.00  0.00    -0.016 A 
ATOM      8  C8  IND d   1       1.403   0.311  -0.096  0.00  0.00    -0.047 A 
ATOM      9  C9  IND d   1       0.318   0.961   0.507  0.00  0.00    -0.096 A 
ATOM     10  HN1 IND d   1       1.401  -1.460  -1.038  0.00  0.00     0.298 HD
ENDROOT
TORSDOF 0
ENDMDL
