MODEL 1
REMARK minimizedAffinity -4.14502335
REMARK minimizedRMSD -1
REMARK  0 active torsions:
REMARK  status: ('A' for Active; 'I' for Inactive)
ROOT
ATOM      1  N1  IND d   1       0.738   2.675   1.339  0.00  0.00    -0.196 N 
ATOM      2  C2  IND d   1       1.807   2.882   0.513  0.00  0.00     0.054 A 
ATOM      3  C3  IND d   1       1.980   1.822  -0.308  0.00  0.00    -0.031 A 
ATOM      4  C4  IND d   1       0.566  -0.317  -0.536  0.00  0.00     0.051 A 
ATOM      5  C5  IND d   1      -0.490  -0.976   0.029  0.00  0.00    -0.031 A 
ATOM      6  C6  IND d   1      -1.207  -0.439   1.079  0.00  0.00     0.015 A 
ATOM      7  C7  IND d   1      -0.900   0.787   1.598  0.00  0.00    -0.016 A 
ATOM      8  C8  IND d   1       0.176   1.455   1.031  0.00  0.00    -0.047 A 
ATOM      9  C9  IND d   1       0.933   0.897  -0.006  0.00  0.00    -0.096 A 
ATOM     10  HN1 IND d   1       0.463   3.215   1.949  0.00  0.00     0.298 HD
ENDROOT
TORSDOF 0
ENDMDL
