MODEL 1
REMARK minimizedAffinity -4.58558512
REMARK minimizedRMSD -1
REMARK  0 active torsions:
REMARK  status: ('A' for Active; 'I' for Inactive)
ROOT
ATOM      1  N1  IND d   1       0.281  -0.770  -0.490  0.00  0.00    -0.196 N 
ATOM      2  C2  IND d   1      -1.000  -0.946  -0.046  0.00  0.00     0.054 A 
ATOM      3  C3  IND d   1      -1.315   0.001   0.866  0.00  0.00    -0.031 A 
ATOM      4  C4  IND d   1       0.082   1.994   1.705  0.00  0.00     0.051 A 
ATOM      5  C5  IND d   1       1.327   2.550   1.616  0.00  0.00    -0.031 A 
ATOM      6  C6  IND d   1       2.306   2.018   0.802  0.00  0.00     0.015 A 
ATOM      7  C7  IND d   1       2.072   0.912   0.034  0.00  0.00    -0.016 A 
ATOM      8  C8  IND d   1       0.810   0.341   0.127  0.00  0.00    -0.047 A 
ATOM      9  C9  IND d   1      -0.174   0.851   0.984  0.00  0.00    -0.096 A 
ATOM     10  HN1 IND d   1       0.687  -1.270  -1.060  0.00  0.00     0.298 HD
ENDROOT
TORSDOF 0
ENDMDL
