MODEL 1
REMARK minimizedAffinity -3.36204123
REMARK minimizedRMSD -1
REMARK  0 active torsions:
REMARK  status: ('A' for Active; 'I' for Inactive)
ROOT
ATOM      1  N1  IND d   1       0.830  -0.594  -0.729  0.00  0.00    -0.196 N 
ATOM      2  C2  IND d   1      -0.427  -0.906  -0.290  0.00  0.00     0.054 A 
ATOM      3  C3  IND d   1      -0.843  -0.003   0.626  0.00  0.00    -0.031 A 
ATOM      4  C4  IND d   1       0.334   2.122   1.480  0.00  0.00     0.051 A 
ATOM      5  C5  IND d   1       1.514   2.806   1.398  0.00  0.00    -0.031 A 
ATOM      6  C6  IND d   1       2.547   2.385   0.585  0.00  0.00     0.015 A 
ATOM      7  C7  IND d   1       2.432   1.265  -0.189  0.00  0.00    -0.016 A 
ATOM      8  C8  IND d   1       1.238   0.563  -0.103  0.00  0.00    -0.047 A 
ATOM      9  C9  IND d   1       0.203   0.962   0.752  0.00  0.00    -0.096 A 
ATOM     10  HN1 IND d   1       1.289  -1.046  -1.299  0.00  0.00     0.298 HD
ENDROOT
TORSDOF 0
ENDMDL
