MODEL 1
REMARK minimizedAffinity 0.192887917
REMARK minimizedRMSD -1
REMARK  0 active torsions:
REMARK  status: ('A' for Active; 'I' for Inactive)
ROOT
ATOM      1  N1  IND d   1      -0.329  -0.171   1.885  0.00  0.00    -0.196 N 
ATOM      2  C2  IND d   1      -0.864   0.269   0.706  0.00  0.00     0.054 A 
ATOM      3  C3  IND d   1      -0.295   1.439   0.339  0.00  0.00    -0.031 A 
ATOM      4  C4  IND d   1       1.604   2.759   1.469  0.00  0.00     0.051 A 
ATOM      5  C5  IND d   1       2.388   2.774   2.588  0.00  0.00    -0.031 A 
ATOM      6  C6  IND d   1       2.307   1.786   3.548  0.00  0.00     0.015 A 
ATOM      7  C7  IND d   1       1.443   0.736   3.419  0.00  0.00    -0.016 A 
ATOM      8  C8  IND d   1       0.640   0.722   2.287  0.00  0.00    -0.047 A 
ATOM      9  C9  IND d   1       0.688   1.744   1.330  0.00  0.00    -0.096 A 
ATOM     10  HN1 IND d   1      -0.559  -0.886   2.305  0.00  0.00     0.298 HD
ENDROOT
TORSDOF 0
ENDMDL
