MODEL 1
REMARK minimizedAffinity -5.17876053
REMARK minimizedRMSD -1
REMARK  0 active torsions:
REMARK  status: ('A' for Active; 'I' for Inactive)
ROOT
ATOM      1  N1  IND d   1       1.215  -0.852  -0.704  0.00  0.00    -0.196 N 
ATOM      2  C2  IND d   1      -0.036  -1.399  -0.637  0.00  0.00     0.054 A 
ATOM      3  C3  IND d   1      -0.864  -0.595   0.067  0.00  0.00    -0.031 A 
ATOM      4  C4  IND d   1      -0.405   1.712   1.112  0.00  0.00     0.051 A 
ATOM      5  C5  IND d   1       0.600   2.610   1.343  0.00  0.00    -0.031 A 
ATOM      6  C6  IND d   1       1.886   2.396   0.892  0.00  0.00     0.015 A 
ATOM      7  C7  IND d   1       2.215   1.277   0.180  0.00  0.00    -0.016 A 
ATOM      8  C8  IND d   1       1.199   0.360  -0.050  0.00  0.00    -0.047 A 
ATOM      9  C9  IND d   1      -0.099   0.552   0.442  0.00  0.00    -0.096 A 
ATOM     10  HN1 IND d   1       1.897  -1.206  -1.090  0.00  0.00     0.298 HD
ENDROOT
TORSDOF 0
ENDMDL
