MODEL 1
REMARK minimizedAffinity -5.90429115
REMARK minimizedRMSD -1
REMARK  0 active torsions:
REMARK  status: ('A' for Active; 'I' for Inactive)
ROOT
ATOM      1  N1  IND d   1       0.696  -0.806   0.174  0.00  0.00    -0.196 N 
ATOM      2  C2  IND d   1      -0.481  -0.809   0.870  0.00  0.00     0.054 A 
ATOM      3  C3  IND d   1      -0.613   0.337   1.576  0.00  0.00    -0.031 A 
ATOM      4  C4  IND d   1       0.929   2.396   1.655  0.00  0.00     0.051 A 
ATOM      5  C5  IND d   1       2.140   2.853   1.215  0.00  0.00    -0.031 A 
ATOM      6  C6  IND d   1       2.946   2.099   0.387  0.00  0.00     0.015 A 
ATOM      7  C7  IND d   1       2.565   0.860  -0.043  0.00  0.00    -0.016 A 
ATOM      8  C8  IND d   1       1.339   0.390   0.407  0.00  0.00    -0.047 A 
ATOM      9  C9  IND d   1       0.536   1.133   1.282  0.00  0.00    -0.096 A 
ATOM     10  HN1 IND d   1       0.985  -1.443  -0.325  0.00  0.00     0.298 HD
ENDROOT
TORSDOF 0
ENDMDL
