MODEL 1
REMARK minimizedAffinity -1.95907617
REMARK minimizedRMSD -1
REMARK  2 active torsions:
REMARK  status: ('A' for Active; 'I' for Inactive)
REMARK    1  A    between atoms: C2'_3  and  C1'_4 
REMARK    2  A    between atoms: C1'_4  and  C1_5 
ROOT
ATOM      1  C1  I4B d   1      -0.902   0.584   1.374  0.00  0.00    -0.075 A 
ATOM      2  C2  I4B d   1       0.190   0.503   0.546  0.00  0.00     0.003 A 
ATOM      3  C3  I4B d   1       0.102  -0.193  -0.684  0.00  0.00     0.002 A 
ATOM      4  C4  I4B d   1      -1.074  -0.831  -1.021  0.00  0.00    -0.004 A 
ATOM      5  C5  I4B d   1      -2.187  -0.729  -0.192  0.00  0.00     0.002 A 
ATOM      6  C6  I4B d   1      -2.105  -0.006   1.008  0.00  0.00     0.003 A 
ENDROOT
BRANCH   1   7
ATOM      7  C1' I4B d   1      -0.765   1.299   2.680  0.00  0.00     0.060 C 
BRANCH   7   8
ATOM      8  C2' I4B d   1      -0.053   0.374   3.646  0.00  0.00    -0.013 C 
ATOM      9  C4' I4B d   1      -0.917  -0.805   4.009  0.00  0.00     0.013 C 
ATOM     10  C3' I4B d   1       1.227  -0.070   3.003  0.00  0.00     0.013 C 
ENDBRANCH   7   8
ENDBRANCH   1   7
TORSDOF 2
ENDMDL
