MODEL 1
REMARK minimizedAffinity -4.03223753
REMARK minimizedRMSD -1
REMARK  2 active torsions:
REMARK  status: ('A' for Active; 'I' for Inactive)
REMARK    1  A    between atoms: C2'_3  and  C1'_4 
REMARK    2  A    between atoms: C1'_4  and  C1_5 
ROOT
ATOM      1  C1  I4B d   1      -0.520  -0.292  -0.352  0.00  0.00    -0.075 A 
ATOM      2  C2  I4B d   1       0.039   0.038   0.857  0.00  0.00     0.003 A 
ATOM      3  C3  I4B d   1      -0.740   0.679   1.851  0.00  0.00     0.002 A 
ATOM      4  C4  I4B d   1      -2.050   1.016   1.576  0.00  0.00    -0.004 A 
ATOM      5  C5  I4B d   1      -2.621   0.660   0.357  0.00  0.00     0.002 A 
ATOM      6  C6  I4B d   1      -1.855  -0.009  -0.609  0.00  0.00     0.003 A 
ENDROOT
BRANCH   1   7
ATOM      7  C1' I4B d   1       0.341  -0.939  -1.391  0.00  0.00     0.060 C 
BRANCH   7   8
ATOM      8  C2' I4B d   1       0.160  -0.177  -2.688  0.00  0.00    -0.013 C 
ATOM      9  C4' I4B d   1       1.400   0.601  -3.041  0.00  0.00     0.013 C 
ATOM     10  C3' I4B d   1      -0.183  -1.167  -3.762  0.00  0.00     0.013 C 
ENDBRANCH   7   8
ENDBRANCH   1   7
TORSDOF 2
ENDMDL
