MODEL 1
REMARK minimizedAffinity -0.240750745
REMARK minimizedRMSD -1
REMARK  2 active torsions:
REMARK  status: ('A' for Active; 'I' for Inactive)
REMARK    1  A    between atoms: C2'_3  and  C1'_4 
REMARK    2  A    between atoms: C1'_4  and  C1_5 
ROOT
ATOM      1  C1  I4B d   1       0.375  -0.763  -0.085  0.00  0.00    -0.075 A 
ATOM      2  C2  I4B d   1       1.113  -0.801   1.071  0.00  0.00     0.003 A 
ATOM      3  C3  I4B d   1       0.500  -0.527   2.318  0.00  0.00     0.002 A 
ATOM      4  C4  I4B d   1      -0.833  -0.171   2.355  0.00  0.00    -0.004 A 
ATOM      5  C5  I4B d   1      -1.585  -0.155   1.184  0.00  0.00     0.002 A 
ATOM      6  C6  I4B d   1      -0.981  -0.465  -0.043  0.00  0.00     0.003 A 
ENDROOT
BRANCH   1   7
ATOM      7  C1' I4B d   1       1.062  -1.026  -1.388  0.00  0.00     0.060 C 
BRANCH   7   8
ATOM      8  C2' I4B d   1       0.246  -0.375  -2.486  0.00  0.00    -0.013 C 
ATOM      9  C4' I4B d   1       1.029   0.709  -3.178  0.00  0.00     0.013 C 
ATOM     10  C3' I4B d   1      -0.166  -1.446  -3.452  0.00  0.00     0.013 C 
ENDBRANCH   7   8
ENDBRANCH   1   7
TORSDOF 2
ENDMDL
