MODEL 1
REMARK minimizedAffinity -4.35318995
REMARK minimizedRMSD -1
REMARK  2 active torsions:
REMARK  status: ('A' for Active; 'I' for Inactive)
REMARK    1  A    between atoms: C2'_3  and  C1'_4 
REMARK    2  A    between atoms: C1'_4  and  C1_5 
ROOT
ATOM      1  C1  I4B d   1       0.075  -0.024  -0.127  0.00  0.00    -0.075 A 
ATOM      2  C2  I4B d   1      -1.294   0.020  -0.215  0.00  0.00     0.003 A 
ATOM      3  C3  I4B d   1      -2.056   0.593   0.832  0.00  0.00     0.002 A 
ATOM      4  C4  I4B d   1      -1.417   1.061   1.962  0.00  0.00    -0.004 A 
ATOM      5  C5  I4B d   1      -0.027   1.036   2.038  0.00  0.00     0.002 A 
ATOM      6  C6  I4B d   1       0.725   0.502   0.982  0.00  0.00     0.003 A 
ENDROOT
BRANCH   1   7
ATOM      7  C1' I4B d   1       0.848  -0.666  -1.236  0.00  0.00     0.060 C 
BRANCH   7   8
ATOM      8  C2' I4B d   1       0.866   0.293  -2.409  0.00  0.00    -0.013 C 
ATOM      9  C4' I4B d   1       2.215   0.946  -2.558  0.00  0.00     0.013 C 
ATOM     10  C3' I4B d   1       0.497  -0.476  -3.642  0.00  0.00     0.013 C 
ENDBRANCH   7   8
ENDBRANCH   1   7
TORSDOF 2
ENDMDL
