MODEL 1
REMARK minimizedAffinity -4.59810352
REMARK minimizedRMSD -1
REMARK  2 active torsions:
REMARK  status: ('A' for Active; 'I' for Inactive)
REMARK    1  A    between atoms: C2'_3  and  C1'_4 
REMARK    2  A    between atoms: C1'_4  and  C1_5 
ROOT
ATOM      1  C1  I4B d   1       0.700  -0.222   0.218  0.00  0.00    -0.075 A 
ATOM      2  C2  I4B d   1      -0.461   0.496   0.371  0.00  0.00     0.003 A 
ATOM      3  C3  I4B d   1      -0.765   1.103   1.613  0.00  0.00     0.002 A 
ATOM      4  C4  I4B d   1       0.088   0.926   2.684  0.00  0.00    -0.004 A 
ATOM      5  C5  I4B d   1       1.275   0.218   2.521  0.00  0.00     0.002 A 
ATOM      6  C6  I4B d   1       1.589  -0.349   1.277  0.00  0.00     0.003 A 
ENDROOT
BRANCH   1   7
ATOM      7  C1' I4B d   1       0.974  -0.877  -1.098  0.00  0.00     0.060 C 
BRANCH   7   8
ATOM      8  C2' I4B d   1       0.707   0.139  -2.190  0.00  0.00    -0.013 C 
ATOM      9  C4' I4B d   1       1.988   0.758  -2.684  0.00  0.00     0.013 C 
ATOM     10  C3' I4B d   1      -0.022  -0.557  -3.301  0.00  0.00     0.013 C 
ENDBRANCH   7   8
ENDBRANCH   1   7
TORSDOF 2
ENDMDL
