MODEL 1
REMARK minimizedAffinity 1.30120397
REMARK minimizedRMSD -1
REMARK  2 active torsions:
REMARK  status: ('A' for Active; 'I' for Inactive)
REMARK    1  A    between atoms: C2'_3  and  C1'_4 
REMARK    2  A    between atoms: C1'_4  and  C1_5 
ROOT
ATOM      1  C1  I4B d   1       0.498  -0.335   1.077  0.00  0.00    -0.075 A 
ATOM      2  C2  I4B d   1       0.378  -0.196   2.437  0.00  0.00     0.003 A 
ATOM      3  C3  I4B d   1       1.489  -0.441   3.280  0.00  0.00     0.002 A 
ATOM      4  C4  I4B d   1       2.679  -0.869   2.728  0.00  0.00    -0.004 A 
ATOM      5  C5  I4B d   1       2.806  -0.987   1.347  0.00  0.00     0.002 A 
ATOM      6  C6  I4B d   1       1.713  -0.706   0.515  0.00  0.00     0.003 A 
ENDROOT
BRANCH   1   7
ATOM      7  C1' I4B d   1      -0.704  -0.100   0.219  0.00  0.00     0.060 C 
BRANCH   7   8
ATOM      8  C2' I4B d   1      -1.883  -0.796   0.867  0.00  0.00    -0.013 C 
ATOM      9  C4' I4B d   1      -2.478   0.047   1.965  0.00  0.00     0.013 C 
ATOM     10  C3' I4B d   1      -2.895  -1.086  -0.201  0.00  0.00     0.013 C 
ENDBRANCH   7   8
ENDBRANCH   1   7
TORSDOF 2
ENDMDL
