MODEL 1
REMARK minimizedAffinity -3.36077881
REMARK minimizedRMSD -1
REMARK  2 active torsions:
REMARK  status: ('A' for Active; 'I' for Inactive)
REMARK    1  A    between atoms: C2'_3  and  C1'_4 
REMARK    2  A    between atoms: C1'_4  and  C1_5 
ROOT
ATOM      1  C1  I4B d   1      -0.494   0.756   0.498  0.00  0.00    -0.075 A 
ATOM      2  C2  I4B d   1      -1.465  -0.192   0.705  0.00  0.00     0.003 A 
ATOM      3  C3  I4B d   1      -2.015  -0.378   1.997  0.00  0.00     0.002 A 
ATOM      4  C4  I4B d   1      -1.532   0.364   3.055  0.00  0.00    -0.004 A 
ATOM      5  C5  I4B d   1      -0.564   1.341   2.838  0.00  0.00     0.002 A 
ATOM      6  C6  I4B d   1      -0.050   1.547   1.550  0.00  0.00     0.003 A 
ENDROOT
BRANCH   1   7
ATOM      7  C1' I4B d   1       0.088   0.904  -0.872  0.00  0.00     0.060 C 
BRANCH   7   8
ATOM      8  C2' I4B d   1       0.366  -0.484  -1.413  0.00  0.00    -0.013 C 
ATOM      9  C4' I4B d   1       0.971  -0.421  -2.791  0.00  0.00     0.013 C 
ATOM     10  C3' I4B d   1       1.281  -1.182  -0.452  0.00  0.00     0.013 C 
ENDBRANCH   7   8
ENDBRANCH   1   7
TORSDOF 2
ENDMDL
