MODEL 1
REMARK minimizedAffinity -5.79881239
REMARK minimizedRMSD -1
REMARK  3 active torsions:
REMARK  status: ('A' for Active; 'I' for Inactive)
REMARK    1  A    between atoms: C3'_2  and  C2'_3 
REMARK    2  A    between atoms: C2'_3  and  C1'_4 
REMARK    3  A    between atoms: C1'_4  and  C1_5 
ROOT
ATOM      1  C1  N4B d   1       0.518  -0.519   0.740  0.00  0.00    -0.075 A 
ATOM      2  C2  N4B d   1       1.514  -1.181  -0.012  0.00  0.00     0.002 A 
ATOM      3  C3  N4B d   1       2.379  -2.049   0.608  0.00  0.00     0.002 A 
ATOM      4  C4  N4B d   1       2.280  -2.256   1.976  0.00  0.00    -0.004 A 
ATOM      5  C5  N4B d   1       1.299  -1.632   2.690  0.00  0.00     0.002 A 
ATOM      6  C6  N4B d   1       0.420  -0.761   2.079  0.00  0.00     0.002 A 
ENDROOT
BRANCH   1   7
ATOM      7  C1' N4B d   1      -0.396   0.503   0.121  0.00  0.00     0.057 C 
BRANCH   7   8
ATOM      8  C2' N4B d   1      -0.290   0.416  -1.398  0.00  0.00     0.009 C 
BRANCH   8   9
ATOM      9  C3' N4B d   1       0.224   1.709  -2.007  0.00  0.00     0.004 C 
ATOM     10  C4' N4B d   1      -0.876   2.574  -2.548  0.00  0.00     0.003 C 
ENDBRANCH   8   9
ENDBRANCH   7   8
ENDBRANCH   1   7
TORSDOF 3
ENDMDL
