MODEL 1
REMARK minimizedAffinity -4.68054533
REMARK minimizedRMSD -1
REMARK  3 active torsions:
REMARK  status: ('A' for Active; 'I' for Inactive)
REMARK    1  A    between atoms: C3'_2  and  C2'_3 
REMARK    2  A    between atoms: C2'_3  and  C1'_4 
REMARK    3  A    between atoms: C1'_4  and  C1_5 
ROOT
ATOM      1  C1  N4B d   1      -0.035  -0.521  -0.028  0.00  0.00    -0.075 A 
ATOM      2  C2  N4B d   1      -0.844  -0.321   1.112  0.00  0.00     0.002 A 
ATOM      3  C3  N4B d   1      -0.403  -0.732   2.346  0.00  0.00     0.002 A 
ATOM      4  C4  N4B d   1       0.828  -1.359   2.462  0.00  0.00    -0.004 A 
ATOM      5  C5  N4B d   1       1.614  -1.526   1.359  0.00  0.00     0.002 A 
ATOM      6  C6  N4B d   1       1.186  -1.114   0.113  0.00  0.00     0.002 A 
ENDROOT
BRANCH   1   7
ATOM      7  C1' N4B d   1      -0.510  -0.167  -1.411  0.00  0.00     0.057 C 
BRANCH   7   8
ATOM      8  C2' N4B d   1      -0.566   1.352  -1.547  0.00  0.00     0.009 C 
BRANCH   8   9
ATOM      9  C3' N4B d   1      -1.878   1.820  -2.152  0.00  0.00     0.004 C 
ATOM     10  C4' N4B d   1      -1.987   3.314  -2.218  0.00  0.00     0.003 C 
ENDBRANCH   8   9
ENDBRANCH   7   8
ENDBRANCH   1   7
TORSDOF 3
ENDMDL
