MODEL 1
REMARK minimizedAffinity -2.14762902
REMARK minimizedRMSD -1
REMARK  3 active torsions:
REMARK  status: ('A' for Active; 'I' for Inactive)
REMARK    1  A    between atoms: C3'_2  and  C2'_3 
REMARK    2  A    between atoms: C2'_3  and  C1'_4 
REMARK    3  A    between atoms: C1'_4  and  C1_5 
ROOT
ATOM      1  C1  N4B d   1      -0.915   1.236  -1.969  0.00  0.00    -0.075 A 
ATOM      2  C2  N4B d   1      -2.200   1.808  -1.845  0.00  0.00     0.002 A 
ATOM      3  C3  N4B d   1      -2.414   3.107  -2.236  0.00  0.00     0.002 A 
ATOM      4  C4  N4B d   1      -1.358   3.855  -2.735  0.00  0.00    -0.004 A 
ATOM      5  C5  N4B d   1      -0.126   3.287  -2.876  0.00  0.00     0.002 A 
ATOM      6  C6  N4B d   1       0.103   1.982  -2.491  0.00  0.00     0.002 A 
ENDROOT
BRANCH   1   7
ATOM      7  C1' N4B d   1      -0.612  -0.153  -1.475  0.00  0.00     0.057 C 
BRANCH   7   8
ATOM      8  C2' N4B d   1       0.072  -0.062  -0.115  0.00  0.00     0.009 C 
BRANCH   8   9
ATOM      9  C3' N4B d   1      -0.901  -0.296   1.028  0.00  0.00     0.004 C 
ATOM     10  C4' N4B d   1      -0.220  -0.733   2.290  0.00  0.00     0.003 C 
ENDBRANCH   8   9
ENDBRANCH   7   8
ENDBRANCH   1   7
TORSDOF 3
ENDMDL
