MODEL 1
REMARK minimizedAffinity -3.66531801
REMARK minimizedRMSD -1
REMARK  3 active torsions:
REMARK  status: ('A' for Active; 'I' for Inactive)
REMARK    1  A    between atoms: C3'_2  and  C2'_3 
REMARK    2  A    between atoms: C2'_3  and  C1'_4 
REMARK    3  A    between atoms: C1'_4  and  C1_5 
ROOT
ATOM      1  C1  N4B d   1      -0.098  -0.333  -0.084  0.00  0.00    -0.075 A 
ATOM      2  C2  N4B d   1      -0.531  -0.373   1.259  0.00  0.00     0.002 A 
ATOM      3  C3  N4B d   1       0.108  -1.188   2.162  0.00  0.00     0.002 A 
ATOM      4  C4  N4B d   1       1.164  -1.982   1.742  0.00  0.00    -0.004 A 
ATOM      5  C5  N4B d   1       1.592  -1.919   0.448  0.00  0.00     0.002 A 
ATOM      6  C6  N4B d   1       0.962  -1.101  -0.469  0.00  0.00     0.002 A 
ENDROOT
BRANCH   1   7
ATOM      7  C1' N4B d   1      -0.819   0.478  -1.127  0.00  0.00     0.057 C 
BRANCH   7   8
ATOM      8  C2' N4B d   1      -0.521   1.958  -0.904  0.00  0.00     0.009 C 
BRANCH   8   9
ATOM      9  C3' N4B d   1      -0.323   2.701  -2.214  0.00  0.00     0.004 C 
ATOM     10  C4' N4B d   1      -1.041   4.017  -2.249  0.00  0.00     0.003 C 
ENDBRANCH   8   9
ENDBRANCH   7   8
ENDBRANCH   1   7
TORSDOF 3
ENDMDL
