MODEL 1
REMARK minimizedAffinity -3.1084733
REMARK minimizedRMSD -1
REMARK  3 active torsions:
REMARK  status: ('A' for Active; 'I' for Inactive)
REMARK    1  A    between atoms: C3'_2  and  C2'_3 
REMARK    2  A    between atoms: C2'_3  and  C1'_4 
REMARK    3  A    between atoms: C1'_4  and  C1_5 
ROOT
ATOM      1  C1  N4B d   1      -0.674   0.155  -0.348  0.00  0.00    -0.075 A 
ATOM      2  C2  N4B d   1       0.282  -0.842  -0.056  0.00  0.00     0.002 A 
ATOM      3  C3  N4B d   1       0.383  -1.345   1.218  0.00  0.00     0.002 A 
ATOM      4  C4  N4B d   1      -0.445  -0.854   2.216  0.00  0.00    -0.004 A 
ATOM      5  C5  N4B d   1      -1.383   0.091   1.920  0.00  0.00     0.002 A 
ATOM      6  C6  N4B d   1      -1.499   0.602   0.643  0.00  0.00     0.002 A 
ENDROOT
BRANCH   1   7
ATOM      7  C1' N4B d   1      -0.764   0.796  -1.706  0.00  0.00     0.057 C 
BRANCH   7   8
ATOM      8  C2' N4B d   1      -1.838   1.879  -1.679  0.00  0.00     0.009 C 
BRANCH   8   9
ATOM      9  C3' N4B d   1      -1.260   3.260  -1.934  0.00  0.00     0.004 C 
ATOM     10  C4' N4B d   1       0.167   3.217  -2.392  0.00  0.00     0.003 C 
ENDBRANCH   8   9
ENDBRANCH   7   8
ENDBRANCH   1   7
TORSDOF 3
ENDMDL
