MODEL 1
REMARK minimizedAffinity -3.12096095
REMARK minimizedRMSD -1
REMARK  3 active torsions:
REMARK  status: ('A' for Active; 'I' for Inactive)
REMARK    1  A    between atoms: C3'_2  and  C2'_3 
REMARK    2  A    between atoms: C2'_3  and  C1'_4 
REMARK    3  A    between atoms: C1'_4  and  C1_5 
ROOT
ATOM      1  C1  N4B d   1      -0.517  -0.421  -0.353  0.00  0.00    -0.075 A 
ATOM      2  C2  N4B d   1       0.524  -1.270   0.084  0.00  0.00     0.002 A 
ATOM      3  C3  N4B d   1       0.806  -1.375   1.424  0.00  0.00     0.002 A 
ATOM      4  C4  N4B d   1       0.076  -0.631   2.340  0.00  0.00    -0.004 A 
ATOM      5  C5  N4B d   1      -0.944   0.167   1.911  0.00  0.00     0.002 A 
ATOM      6  C6  N4B d   1      -1.241   0.279   0.567  0.00  0.00     0.002 A 
ENDROOT
BRANCH   1   7
ATOM      7  C1' N4B d   1      -0.806  -0.208  -1.814  0.00  0.00     0.057 C 
BRANCH   7   8
ATOM      8  C2' N4B d   1      -1.638   1.061  -1.979  0.00  0.00     0.009 C 
BRANCH   8   9
ATOM      9  C3' N4B d   1      -0.830   2.194  -2.589  0.00  0.00     0.004 C 
ATOM     10  C4' N4B d   1      -0.825   3.428  -1.736  0.00  0.00     0.003 C 
ENDBRANCH   8   9
ENDBRANCH   7   8
ENDBRANCH   1   7
TORSDOF 3
ENDMDL
