MODEL 1
REMARK minimizedAffinity -2.18540335
REMARK minimizedRMSD -1
REMARK  0 active torsions:
REMARK  status: ('A' for Active; 'I' for Inactive)
ROOT
ATOM      1  C   UNL d   1       4.448  -0.751  -3.356  0.00  0.00    -0.002 A 
ATOM      2  C1  UNL d   1       5.599  -0.632  -4.121  0.00  0.00     0.010 A 
ATOM      3  C2  UNL d   1       6.000  -1.668  -4.967  0.00  0.00     0.041 A 
ATOM      4  C3  UNL d   1       5.215  -2.837  -5.033  0.00  0.00    -0.075 A 
ATOM      5  S   UNL d   1       5.511  -4.234  -5.999  0.00  0.00     0.015 SA
ATOM      6  C4  UNL d   1       4.115  -5.021  -5.419  0.00  0.00     0.022 A 
ATOM      7  C5  UNL d   1       3.428  -4.251  -4.510  0.00  0.00     0.026 A 
ATOM      8  C6  UNL d   1       4.051  -2.979  -4.273  0.00  0.00    -0.082 A 
ATOM      9  C7  UNL d   1       3.672  -1.912  -3.424  0.00  0.00     0.045 A 
ENDROOT
TORSDOF 0
ENDMDL
