MODEL 1
REMARK minimizedAffinity 5.54541683
REMARK minimizedRMSD -1
REMARK  0 active torsions:
REMARK  status: ('A' for Active; 'I' for Inactive)
ROOT
ATOM      1  C   UNL d   1       3.142   5.273  -0.337  0.00  0.00    -0.002 A 
ATOM      2  C1  UNL d   1       2.287   4.644  -1.232  0.00  0.00     0.010 A 
ATOM      3  C2  UNL d   1       2.653   4.482  -2.569  0.00  0.00     0.041 A 
ATOM      4  C3  UNL d   1       3.906   4.963  -2.997  0.00  0.00    -0.075 A 
ATOM      5  S   UNL d   1       4.566   4.875  -4.587  0.00  0.00     0.015 SA
ATOM      6  C4  UNL d   1       5.999   5.668  -4.116  0.00  0.00     0.022 A 
ATOM      7  C5  UNL d   1       5.991   5.999  -2.782  0.00  0.00     0.026 A 
ATOM      8  C6  UNL d   1       4.785   5.598  -2.115  0.00  0.00    -0.082 A 
ATOM      9  C7  UNL d   1       4.384   5.749  -0.765  0.00  0.00     0.045 A 
ENDROOT
TORSDOF 0
ENDMDL
