MODEL 1
REMARK minimizedAffinity 2.8519876
REMARK minimizedRMSD -1
REMARK  0 active torsions:
REMARK  status: ('A' for Active; 'I' for Inactive)
ROOT
ATOM      1  C   UNL d   1       5.290  -1.291  -5.028  0.00  0.00    -0.002 A 
ATOM      2  C1  UNL d   1       4.070  -1.494  -4.401  0.00  0.00     0.010 A 
ATOM      3  C2  UNL d   1       3.527  -2.777  -4.302  0.00  0.00     0.041 A 
ATOM      4  C3  UNL d   1       4.240  -3.863  -4.848  0.00  0.00    -0.075 A 
ATOM      5  S   UNL d   1       3.770  -5.522  -4.844  0.00  0.00     0.015 SA
ATOM      6  C4  UNL d   1       5.180  -6.000  -5.675  0.00  0.00     0.022 A 
ATOM      7  C5  UNL d   1       5.999  -4.932  -5.956  0.00  0.00     0.026 A 
ATOM      8  C6  UNL d   1       5.471  -3.683  -5.484  0.00  0.00    -0.082 A 
ATOM      9  C7  UNL d   1       5.994  -2.370  -5.569  0.00  0.00     0.045 A 
ENDROOT
TORSDOF 0
ENDMDL
