MODEL 1
REMARK minimizedAffinity 19.8263607
REMARK minimizedRMSD -1
REMARK  0 active torsions:
REMARK  status: ('A' for Active; 'I' for Inactive)
ROOT
ATOM      1  C   UNL d   1      -2.343   0.719  -3.170  0.00  0.00    -0.002 A 
ATOM      2  C1  UNL d   1      -3.140   0.571  -2.044  0.00  0.00     0.010 A 
ATOM      3  C2  UNL d   1      -4.117   1.520  -1.736  0.00  0.00     0.041 A 
ATOM      4  C3  UNL d   1      -4.282   2.629  -2.588  0.00  0.00    -0.075 A 
ATOM      5  S   UNL d   1      -5.416   3.917  -2.411  0.00  0.00     0.015 SA
ATOM      6  C4  UNL d   1      -4.868   4.693  -3.826  0.00  0.00     0.022 A 
ATOM      7  C5  UNL d   1      -3.846   4.001  -4.432  0.00  0.00     0.026 A 
ATOM      8  C6  UNL d   1      -3.492   2.800  -3.728  0.00  0.00    -0.082 A 
ATOM      9  C7  UNL d   1      -2.509   1.821  -4.013  0.00  0.00     0.045 A 
ENDROOT
TORSDOF 0
ENDMDL
