MODEL 1
REMARK minimizedAffinity 2.27849388
REMARK minimizedRMSD -1
REMARK  0 active torsions:
REMARK  status: ('A' for Active; 'I' for Inactive)
ROOT
ATOM      1  C   UNL d   1      -2.424  -3.368  -0.649  0.00  0.00     0.124 A 
ATOM      2  C1  UNL d   1      -1.278  -3.871  -1.250  0.00  0.00     0.062 A 
ATOM      3  C2  UNL d   1      -0.040  -3.292  -0.990  0.00  0.00     0.162 A 
ATOM      4  C3  UNL d   1       0.061  -2.204  -0.123  0.00  0.00    -0.034 A 
ATOM      5  C4  UNL d   1      -1.096  -1.703   0.477  0.00  0.00     0.162 A 
ATOM      6  C5  UNL d   1      -2.332  -2.285   0.214  0.00  0.00     0.062 A 
ATOM      7  F   UNL d   1      -3.438  -1.798   0.795  0.00  0.00    -0.097 F 
ATOM      8  F1  UNL d   1      -1.036  -0.658   1.316  0.00  0.00    -0.096 F 
ATOM      9  I   UNL d   1       1.911  -1.335   0.269  0.00  0.00    -0.060 I 
ATOM     10  F2  UNL d   1       1.051  -3.798  -1.585  0.00  0.00    -0.096 F 
ATOM     11  F3  UNL d   1      -1.365  -4.916  -2.085  0.00  0.00    -0.097 F 
ATOM     12  F4  UNL d   1      -3.615  -3.926  -0.902  0.00  0.00    -0.092 F 
ENDROOT
TORSDOF 0
ENDMDL
