MODEL 1
REMARK minimizedAffinity 19.5209236
REMARK minimizedRMSD -1
REMARK  0 active torsions:
REMARK  status: ('A' for Active; 'I' for Inactive)
ROOT
ATOM      1  C   UNL d   1      -2.651  -2.910  -0.291  0.00  0.00     0.124 A 
ATOM      2  C1  UNL d   1      -2.801  -1.805   0.534  0.00  0.00     0.062 A 
ATOM      3  C2  UNL d   1      -1.710  -0.989   0.818  0.00  0.00     0.162 A 
ATOM      4  C3  UNL d   1      -0.458  -1.275   0.274  0.00  0.00    -0.034 A 
ATOM      5  C4  UNL d   1      -0.314  -2.389  -0.555  0.00  0.00     0.162 A 
ATOM      6  C5  UNL d   1      -1.408  -3.201  -0.835  0.00  0.00     0.062 A 
ATOM      7  F   UNL d   1      -1.260  -4.269  -1.633  0.00  0.00    -0.097 F 
ATOM      8  F1  UNL d   1       0.876  -2.693  -1.095  0.00  0.00    -0.096 F 
ATOM      9  I   UNL d   1       1.177  -0.057   0.695  0.00  0.00    -0.060 I 
ATOM     10  F2  UNL d   1      -1.884   0.073   1.618  0.00  0.00    -0.096 F 
ATOM     11  F3  UNL d   1      -4.001  -1.522   1.062  0.00  0.00    -0.097 F 
ATOM     12  F4  UNL d   1      -3.702  -3.694  -0.561  0.00  0.00    -0.092 F 
ENDROOT
TORSDOF 0
ENDMDL
