MODEL 1
REMARK minimizedAffinity 4.18814135
REMARK minimizedRMSD -1
REMARK  0 active torsions:
REMARK  status: ('A' for Active; 'I' for Inactive)
ROOT
ATOM      1  C   UNL d   1      -2.405  -4.257  -1.077  0.00  0.00     0.124 A 
ATOM      2  C1  UNL d   1      -2.316  -3.124  -0.280  0.00  0.00     0.062 A 
ATOM      3  C2  UNL d   1      -1.102  -2.457  -0.144  0.00  0.00     0.162 A 
ATOM      4  C3  UNL d   1       0.034  -2.920  -0.807  0.00  0.00    -0.034 A 
ATOM      5  C4  UNL d   1      -0.063  -4.061  -1.606  0.00  0.00     0.162 A 
ATOM      6  C5  UNL d   1      -1.278  -4.724  -1.739  0.00  0.00     0.062 A 
ATOM      7  F   UNL d   1      -1.362  -5.819  -2.509  0.00  0.00    -0.097 F 
ATOM      8  F1  UNL d   1       1.010  -4.534  -2.258  0.00  0.00    -0.096 F 
ATOM      9  I   UNL d   1       1.851  -1.925  -0.607  0.00  0.00    -0.060 I 
ATOM     10  F2  UNL d   1      -1.046  -1.365   0.633  0.00  0.00    -0.096 F 
ATOM     11  F3  UNL d   1      -3.403  -2.671   0.362  0.00  0.00    -0.097 F 
ATOM     12  F4  UNL d   1      -3.574  -4.898  -1.205  0.00  0.00    -0.092 F 
ENDROOT
TORSDOF 0
ENDMDL
