MODEL 1
REMARK minimizedAffinity 12.0958529
REMARK minimizedRMSD -1
REMARK  0 active torsions:
REMARK  status: ('A' for Active; 'I' for Inactive)
ROOT
ATOM      1  C   UNL d   1       2.697   1.909   1.880  0.00  0.00     0.124 A 
ATOM      2  C1  UNL d   1       1.838   2.642   2.687  0.00  0.00     0.062 A 
ATOM      3  C2  UNL d   1       2.308   3.751   3.384  0.00  0.00     0.162 A 
ATOM      4  C3  UNL d   1       3.644   4.136   3.277  0.00  0.00    -0.034 A 
ATOM      5  C4  UNL d   1       4.503   3.393   2.464  0.00  0.00     0.162 A 
ATOM      6  C5  UNL d   1       4.029   2.286   1.769  0.00  0.00     0.062 A 
ATOM      7  F   UNL d   1       4.860   1.579   0.990  0.00  0.00    -0.097 F 
ATOM      8  F1  UNL d   1       5.794   3.735   2.338  0.00  0.00    -0.096 F 
ATOM      9  I   UNL d   1       4.350   5.794   4.318  0.00  0.00    -0.060 I 
ATOM     10  F2  UNL d   1       1.455   4.440   4.157  0.00  0.00    -0.096 F 
ATOM     11  F3  UNL d   1       0.552   2.280   2.796  0.00  0.00    -0.097 F 
ATOM     12  F4  UNL d   1       2.243   0.842   1.211  0.00  0.00    -0.092 F 
ENDROOT
TORSDOF 0
ENDMDL
