MODEL 1
REMARK minimizedAffinity 11.1930656
REMARK minimizedRMSD -1
REMARK  0 active torsions:
REMARK  status: ('A' for Active; 'I' for Inactive)
ROOT
ATOM      1  C   UNL d   1       0.885   0.349   1.083  0.00  0.00     0.124 A 
ATOM      2  C1  UNL d   1       1.880  -0.307   0.372  0.00  0.00     0.062 A 
ATOM      3  C2  UNL d   1       1.658  -1.589  -0.123  0.00  0.00     0.162 A 
ATOM      4  C3  UNL d   1       0.434  -2.223   0.091  0.00  0.00    -0.034 A 
ATOM      5  C4  UNL d   1      -0.561  -1.558   0.808  0.00  0.00     0.162 A 
ATOM      6  C5  UNL d   1      -0.334  -0.277   1.301  0.00  0.00     0.062 A 
ATOM      7  F   UNL d   1      -1.297   0.356   1.988  0.00  0.00    -0.097 F 
ATOM      8  F1  UNL d   1      -1.749  -2.138   1.033  0.00  0.00    -0.096 F 
ATOM      9  I   UNL d   1       0.098  -4.140  -0.647  0.00  0.00    -0.060 I 
ATOM     10  F2  UNL d   1       2.637  -2.199  -0.807  0.00  0.00    -0.096 F 
ATOM     11  F3  UNL d   1       3.060   0.295   0.161  0.00  0.00    -0.097 F 
ATOM     12  F4  UNL d   1       1.102   1.582   1.559  0.00  0.00    -0.092 F 
ENDROOT
TORSDOF 0
ENDMDL
