MODEL 1
REMARK minimizedAffinity 25.1047649
REMARK minimizedRMSD -1
REMARK  0 active torsions:
REMARK  status: ('A' for Active; 'I' for Inactive)
ROOT
ATOM      1  C   UNL d   1      -2.695  -4.140  -0.556  0.00  0.00     0.124 A 
ATOM      2  C1  UNL d   1      -1.535  -4.785  -0.962  0.00  0.00     0.062 A 
ATOM      3  C2  UNL d   1      -0.297  -4.176  -0.786  0.00  0.00     0.162 A 
ATOM      4  C3  UNL d   1      -0.211  -2.913  -0.200  0.00  0.00    -0.034 A 
ATOM      5  C4  UNL d   1      -1.382  -2.269   0.204  0.00  0.00     0.162 A 
ATOM      6  C5  UNL d   1      -2.617  -2.883   0.026  0.00  0.00     0.062 A 
ATOM      7  F   UNL d   1      -3.737  -2.257   0.419  0.00  0.00    -0.097 F 
ATOM      8  F1  UNL d   1      -1.335  -1.054   0.771  0.00  0.00    -0.096 F 
ATOM      9  I   UNL d   1       1.640  -1.997   0.064  0.00  0.00    -0.060 I 
ATOM     10  F2  UNL d   1       0.808  -4.823  -1.188  0.00  0.00    -0.096 F 
ATOM     11  F3  UNL d   1      -1.608  -6.000  -1.526  0.00  0.00    -0.097 F 
ATOM     12  F4  UNL d   1      -3.886  -4.729  -0.727  0.00  0.00    -0.092 F 
ENDROOT
TORSDOF 0
ENDMDL
