MODEL 1
REMARK minimizedAffinity 20.1331615
REMARK minimizedRMSD -1
REMARK  0 active torsions:
REMARK  status: ('A' for Active; 'I' for Inactive)
ROOT
ATOM      1  C   UNL d   1       2.283   2.110   2.291  0.00  0.00     0.124 A 
ATOM      2  C1  UNL d   1       3.613   2.385   2.003  0.00  0.00     0.062 A 
ATOM      3  C2  UNL d   1       4.236   3.495   2.566  0.00  0.00     0.162 A 
ATOM      4  C3  UNL d   1       3.531   4.339   3.424  0.00  0.00    -0.034 A 
ATOM      5  C4  UNL d   1       2.193   4.056   3.708  0.00  0.00     0.162 A 
ATOM      6  C5  UNL d   1       1.575   2.946   3.143  0.00  0.00     0.062 A 
ATOM      7  F   UNL d   1       0.290   2.682   3.422  0.00  0.00    -0.097 F 
ATOM      8  F1  UNL d   1       1.486   4.847   4.529  0.00  0.00    -0.096 F 
ATOM      9  I   UNL d   1       4.459   5.999   4.268  0.00  0.00    -0.060 I 
ATOM     10  F2  UNL d   1       5.522   3.736   2.270  0.00  0.00    -0.096 F 
ATOM     11  F3  UNL d   1       4.299   1.580   1.179  0.00  0.00    -0.097 F 
ATOM     12  F4  UNL d   1       1.686   1.042   1.747  0.00  0.00    -0.092 F 
ENDROOT
TORSDOF 0
ENDMDL
