MODEL 1
REMARK minimizedAffinity 24.874752
REMARK minimizedRMSD -1
REMARK  0 active torsions:
REMARK  status: ('A' for Active; 'I' for Inactive)
ROOT
ATOM      1  C   UNL d   1      -5.229   1.302  -1.162  0.00  0.00     0.124 A 
ATOM      2  C1  UNL d   1      -5.167   2.631  -0.768  0.00  0.00     0.062 A 
ATOM      3  C2  UNL d   1      -5.387   3.647  -1.694  0.00  0.00     0.162 A 
ATOM      4  C3  UNL d   1      -5.670   3.337  -3.024  0.00  0.00    -0.034 A 
ATOM      5  C4  UNL d   1      -5.729   1.997  -3.413  0.00  0.00     0.162 A 
ATOM      6  C5  UNL d   1      -5.509   0.986  -2.484  0.00  0.00     0.062 A 
ATOM      7  F   UNL d   1      -5.569  -0.298  -2.866  0.00  0.00    -0.097 F 
ATOM      8  F1  UNL d   1      -5.999   1.664  -4.684  0.00  0.00    -0.096 F 
ATOM      9  I   UNL d   1      -5.998   4.852  -4.413  0.00  0.00    -0.060 I 
ATOM     10  F2  UNL d   1      -5.321   4.923  -1.285  0.00  0.00    -0.096 F 
ATOM     11  F3  UNL d   1      -4.895   2.939   0.509  0.00  0.00    -0.097 F 
ATOM     12  F4  UNL d   1      -5.016   0.327  -0.268  0.00  0.00    -0.092 F 
ENDROOT
TORSDOF 0
ENDMDL
