MODEL 1
REMARK minimizedAffinity 23.8645382
REMARK minimizedRMSD -1
REMARK  0 active torsions:
REMARK  status: ('A' for Active; 'I' for Inactive)
ROOT
ATOM      1  C   UNL d   1      -5.154   1.961  -1.130  0.00  0.00     0.124 A 
ATOM      2  C1  UNL d   1      -4.882   0.644  -1.475  0.00  0.00     0.062 A 
ATOM      3  C2  UNL d   1      -4.004  -0.114  -0.705  0.00  0.00     0.162 A 
ATOM      4  C3  UNL d   1      -3.393   0.442   0.418  0.00  0.00    -0.034 A 
ATOM      5  C4  UNL d   1      -3.671   1.767   0.759  0.00  0.00     0.162 A 
ATOM      6  C5  UNL d   1      -4.549   2.521  -0.014  0.00  0.00     0.062 A 
ATOM      7  F   UNL d   1      -4.811   3.793   0.321  0.00  0.00    -0.097 F 
ATOM      8  F1  UNL d   1      -3.101   2.333   1.833  0.00  0.00    -0.096 F 
ATOM      9  I   UNL d   1      -2.080  -0.688   1.572  0.00  0.00    -0.060 I 
ATOM     10  F2  UNL d   1      -3.760  -1.383  -1.062  0.00  0.00    -0.096 F 
ATOM     11  F3  UNL d   1      -5.465   0.101  -2.553  0.00  0.00    -0.097 F 
ATOM     12  F4  UNL d   1      -5.998   2.689  -1.873  0.00  0.00    -0.092 F 
ENDROOT
TORSDOF 0
ENDMDL
