MODEL 1
REMARK minimizedAffinity 19.6539021
REMARK minimizedRMSD -1
REMARK  0 active torsions:
REMARK  status: ('A' for Active; 'I' for Inactive)
ROOT
ATOM      1  C   UNL d   1      -1.635  -0.978   1.558  0.00  0.00     0.124 A 
ATOM      2  C1  UNL d   1      -2.377  -0.445   2.604  0.00  0.00     0.062 A 
ATOM      3  C2  UNL d   1      -3.582  -1.032   2.977  0.00  0.00     0.162 A 
ATOM      4  C3  UNL d   1      -4.054  -2.160   2.305  0.00  0.00    -0.034 A 
ATOM      5  C4  UNL d   1      -3.303  -2.689   1.254  0.00  0.00     0.162 A 
ATOM      6  C5  UNL d   1      -2.099  -2.099   0.884  0.00  0.00     0.062 A 
ATOM      7  F   UNL d   1      -1.384  -2.615  -0.126  0.00  0.00    -0.097 F 
ATOM      8  F1  UNL d   1      -3.727  -3.772   0.586  0.00  0.00    -0.096 F 
ATOM      9  I   UNL d   1      -5.856  -3.041   2.860  0.00  0.00    -0.060 I 
ATOM     10  F2  UNL d   1      -4.278  -0.497   3.991  0.00  0.00    -0.096 F 
ATOM     11  F3  UNL d   1      -1.931   0.638   3.256  0.00  0.00    -0.097 F 
ATOM     12  F4  UNL d   1      -0.476  -0.410   1.200  0.00  0.00    -0.092 F 
ENDROOT
TORSDOF 0
ENDMDL
