MODEL 1
REMARK minimizedAffinity 22.2321072
REMARK minimizedRMSD -1
REMARK  0 active torsions:
REMARK  status: ('A' for Active; 'I' for Inactive)
ROOT
ATOM      1  C   UNL d   1      -0.097  -4.558  -1.226  0.00  0.00     0.124 A 
ATOM      2  C1  UNL d   1       0.154  -3.718  -0.151  0.00  0.00     0.062 A 
ATOM      3  C2  UNL d   1      -0.802  -2.788   0.248  0.00  0.00     0.162 A 
ATOM      4  C3  UNL d   1      -2.019  -2.695  -0.428  0.00  0.00    -0.034 A 
ATOM      5  C4  UNL d   1      -2.263  -3.543  -1.510  0.00  0.00     0.162 A 
ATOM      6  C5  UNL d   1      -1.304  -4.470  -1.905  0.00  0.00     0.062 A 
ATOM      7  F   UNL d   1      -1.548  -5.282  -2.944  0.00  0.00    -0.097 F 
ATOM      8  F1  UNL d   1      -3.422  -3.480  -2.182  0.00  0.00    -0.096 F 
ATOM      9  I   UNL d   1      -3.450  -1.306   0.165  0.00  0.00    -0.060 I 
ATOM     10  F2  UNL d   1      -0.533  -1.988   1.291  0.00  0.00    -0.096 F 
ATOM     11  F3  UNL d   1       1.320  -3.800   0.505  0.00  0.00    -0.097 F 
ATOM     12  F4  UNL d   1       0.825  -5.451  -1.609  0.00  0.00    -0.092 F 
ENDROOT
TORSDOF 0
ENDMDL
