MODEL 1
REMARK minimizedAffinity 8.41640949
REMARK minimizedRMSD -1
REMARK  0 active torsions:
REMARK  status: ('A' for Active; 'I' for Inactive)
ROOT
ATOM      1  C   UNL d   1       1.681  -2.550  -0.072  0.00  0.00     0.124 A 
ATOM      2  C1  UNL d   1       2.273  -3.636  -0.703  0.00  0.00     0.062 A 
ATOM      3  C2  UNL d   1       1.484  -4.621  -1.288  0.00  0.00     0.162 A 
ATOM      4  C3  UNL d   1       0.093  -4.526  -1.247  0.00  0.00    -0.034 A 
ATOM      5  C4  UNL d   1      -0.496  -3.432  -0.609  0.00  0.00     0.162 A 
ATOM      6  C5  UNL d   1       0.298  -2.450  -0.026  0.00  0.00     0.062 A 
ATOM      7  F   UNL d   1      -0.276  -1.402   0.583  0.00  0.00    -0.097 F 
ATOM      8  F1  UNL d   1      -1.830  -3.309  -0.551  0.00  0.00    -0.096 F 
ATOM      9  I   UNL d   1      -1.091  -5.998  -2.120  0.00  0.00    -0.060 I 
ATOM     10  F2  UNL d   1       2.083  -5.659  -1.891  0.00  0.00    -0.096 F 
ATOM     11  F3  UNL d   1       3.609  -3.736  -0.748  0.00  0.00    -0.097 F 
ATOM     12  F4  UNL d   1       2.443  -1.604   0.491  0.00  0.00    -0.092 F 
ENDROOT
TORSDOF 0
ENDMDL
