MODEL 1
REMARK minimizedAffinity 21.9482574
REMARK minimizedRMSD -1
REMARK  0 active torsions:
REMARK  status: ('A' for Active; 'I' for Inactive)
ROOT
ATOM      1  C   UNL d   1       5.069   4.207   3.139  0.00  0.00     0.124 A 
ATOM      2  C1  UNL d   1       4.105   4.701   2.270  0.00  0.00     0.062 A 
ATOM      3  C2  UNL d   1       3.138   3.850   1.742  0.00  0.00     0.162 A 
ATOM      4  C3  UNL d   1       3.130   2.497   2.081  0.00  0.00    -0.034 A 
ATOM      5  C4  UNL d   1       4.103   2.008   2.954  0.00  0.00     0.162 A 
ATOM      6  C5  UNL d   1       5.067   2.862   3.480  0.00  0.00     0.062 A 
ATOM      7  F   UNL d   1       5.998   2.384   4.318  0.00  0.00    -0.097 F 
ATOM      8  F1  UNL d   1       4.124   0.713   3.301  0.00  0.00    -0.096 F 
ATOM      9  I   UNL d   1       1.685   1.223   1.293  0.00  0.00    -0.060 I 
ATOM     10  F2  UNL d   1       2.219   4.354   0.905  0.00  0.00    -0.096 F 
ATOM     11  F3  UNL d   1       4.106   6.000   1.938  0.00  0.00    -0.097 F 
ATOM     12  F4  UNL d   1       5.999   5.028   3.645  0.00  0.00    -0.092 F 
ENDROOT
TORSDOF 0
ENDMDL
