MODEL 1
REMARK minimizedAffinity 14.2827177
REMARK minimizedRMSD -1
REMARK  0 active torsions:
REMARK  status: ('A' for Active; 'I' for Inactive)
ROOT
ATOM      1  C   UNL d   1       3.322   1.573  -3.672  0.00  0.00     0.124 A 
ATOM      2  C1  UNL d   1       3.125   2.654  -4.520  0.00  0.00     0.062 A 
ATOM      3  C2  UNL d   1       1.912   2.808  -5.186  0.00  0.00     0.162 A 
ATOM      4  C3  UNL d   1       0.887   1.880  -5.006  0.00  0.00    -0.034 A 
ATOM      5  C4  UNL d   1       1.094   0.795  -4.152  0.00  0.00     0.162 A 
ATOM      6  C5  UNL d   1       2.307   0.645  -3.489  0.00  0.00     0.062 A 
ATOM      7  F   UNL d   1       2.496  -0.400  -2.670  0.00  0.00    -0.097 F 
ATOM      8  F1  UNL d   1       0.129  -0.116  -3.956  0.00  0.00    -0.096 F 
ATOM      9  I   UNL d   1      -0.927   2.107  -6.000  0.00  0.00    -0.060 I 
ATOM     10  F2  UNL d   1       1.749   3.862  -6.000  0.00  0.00    -0.096 F 
ATOM     11  F3  UNL d   1       4.105   3.551  -4.700  0.00  0.00    -0.097 F 
ATOM     12  F4  UNL d   1       4.490   1.426  -3.033  0.00  0.00    -0.092 F 
ENDROOT
TORSDOF 0
ENDMDL
