MODEL 1
REMARK minimizedAffinity 8.71092796
REMARK minimizedRMSD -1
REMARK  0 active torsions:
REMARK  status: ('A' for Active; 'I' for Inactive)
ROOT
ATOM      1  C   UNL d   1      -2.472  -3.344  -0.717  0.00  0.00     0.124 A 
ATOM      2  C1  UNL d   1      -2.305  -2.226   0.088  0.00  0.00     0.062 A 
ATOM      3  C2  UNL d   1      -1.027  -1.782   0.415  0.00  0.00     0.162 A 
ATOM      4  C3  UNL d   1       0.096  -2.456  -0.065  0.00  0.00    -0.034 A 
ATOM      5  C4  UNL d   1      -0.079  -3.580  -0.874  0.00  0.00     0.162 A 
ATOM      6  C5  UNL d   1      -1.359  -4.020  -1.197  0.00  0.00     0.062 A 
ATOM      7  F   UNL d   1      -1.517  -5.100  -1.976  0.00  0.00    -0.097 F 
ATOM      8  F1  UNL d   1       0.979  -4.252  -1.352  0.00  0.00    -0.096 F 
ATOM      9  I   UNL d   1       2.009  -1.796   0.421  0.00  0.00    -0.060 I 
ATOM     10  F2  UNL d   1      -0.897  -0.699   1.195  0.00  0.00    -0.096 F 
ATOM     11  F3  UNL d   1      -3.379  -1.572   0.554  0.00  0.00    -0.097 F 
ATOM     12  F4  UNL d   1      -3.702  -3.769  -1.029  0.00  0.00    -0.092 F 
ENDROOT
TORSDOF 0
ENDMDL
