MODEL 1
REMARK minimizedAffinity 7.05116987
REMARK minimizedRMSD -1
REMARK  0 active torsions:
REMARK  status: ('A' for Active; 'I' for Inactive)
ROOT
ATOM      1  C   UNL d   1      -1.339  -4.874  -1.315  0.00  0.00     0.124 A 
ATOM      2  C1  UNL d   1      -2.390  -3.986  -1.136  0.00  0.00     0.062 A 
ATOM      3  C2  UNL d   1      -2.201  -2.816  -0.407  0.00  0.00     0.162 A 
ATOM      4  C3  UNL d   1      -0.955  -2.527   0.149  0.00  0.00    -0.034 A 
ATOM      5  C4  UNL d   1       0.097  -3.426  -0.034  0.00  0.00     0.162 A 
ATOM      6  C5  UNL d   1      -0.097  -4.594  -0.764  0.00  0.00     0.062 A 
ATOM      7  F   UNL d   1       0.920  -5.451  -0.936  0.00  0.00    -0.097 F 
ATOM      8  F1  UNL d   1       1.308  -3.179   0.487  0.00  0.00    -0.096 F 
ATOM      9  I   UNL d   1      -0.668  -0.778   1.241  0.00  0.00    -0.060 I 
ATOM     10  F2  UNL d   1      -3.235  -1.975  -0.250  0.00  0.00    -0.096 F 
ATOM     11  F3  UNL d   1      -3.592  -4.255  -1.667  0.00  0.00    -0.097 F 
ATOM     12  F4  UNL d   1      -1.524  -6.000  -2.017  0.00  0.00    -0.092 F 
ENDROOT
TORSDOF 0
ENDMDL
