MODEL 1
REMARK minimizedAffinity 12.8021898
REMARK minimizedRMSD -1
REMARK  0 active torsions:
REMARK  status: ('A' for Active; 'I' for Inactive)
ROOT
ATOM      1  N1  IND d   1       0.428   1.613  -0.313  0.00  0.00    -0.196 N 
ATOM      2  C2  IND d   1       0.077   2.113  -1.536  0.00  0.00     0.054 A 
ATOM      3  C3  IND d   1      -1.175   2.622  -1.494  0.00  0.00    -0.031 A 
ATOM      4  C4  IND d   1      -2.789   2.833   0.501  0.00  0.00     0.051 A 
ATOM      5  C5  IND d   1      -2.928   2.486   1.815  0.00  0.00    -0.031 A 
ATOM      6  C6  IND d   1      -1.934   1.819   2.502  0.00  0.00     0.015 A 
ATOM      7  C7  IND d   1      -0.755   1.483   1.900  0.00  0.00    -0.016 A 
ATOM      8  C8  IND d   1      -0.613   1.828   0.564  0.00  0.00    -0.047 A 
ATOM      9  C9  IND d   1      -1.635   2.467  -0.150  0.00  0.00    -0.096 A 
ATOM     10  HN1 IND d   1       1.173   1.229  -0.123  0.00  0.00     0.298 HD
ENDROOT
TORSDOF 0
ENDMDL
