MODEL 1
REMARK minimizedAffinity 11.2744436
REMARK minimizedRMSD -1
REMARK  0 active torsions:
REMARK  status: ('A' for Active; 'I' for Inactive)
ROOT
ATOM      1  N1  IND d   1       4.270  -2.072  -5.072  0.00  0.00    -0.196 N 
ATOM      2  C2  IND d   1       2.986  -2.359  -5.444  0.00  0.00     0.054 A 
ATOM      3  C3  IND d   1       2.551  -3.472  -4.812  0.00  0.00    -0.031 A 
ATOM      4  C4  IND d   1       3.740  -4.922  -3.049  0.00  0.00     0.051 A 
ATOM      5  C5  IND d   1       4.940  -5.077  -2.413  0.00  0.00    -0.031 A 
ATOM      6  C6  IND d   1       5.998  -4.219  -2.633  0.00  0.00     0.015 A 
ATOM      7  C7  IND d   1       5.892  -3.163  -3.493  0.00  0.00    -0.016 A 
ATOM      8  C8  IND d   1       4.677  -3.007  -4.146  0.00  0.00    -0.047 A 
ATOM      9  C9  IND d   1       3.614  -3.899  -3.958  0.00  0.00    -0.096 A 
ATOM     10  HN1 IND d   1       4.743  -1.417  -5.366  0.00  0.00     0.298 HD
ENDROOT
TORSDOF 0
ENDMDL
