MODEL 1
REMARK minimizedAffinity 6.47454691
REMARK minimizedRMSD -1
REMARK  0 active torsions:
REMARK  status: ('A' for Active; 'I' for Inactive)
ROOT
ATOM      1  N1  IND d   1       4.042  -4.490  -0.122  0.00  0.00    -0.196 N 
ATOM      2  C2  IND d   1       5.081  -4.054   0.652  0.00  0.00     0.054 A 
ATOM      3  C3  IND d   1       5.999  -3.416  -0.108  0.00  0.00    -0.031 A 
ATOM      4  C4  IND d   1       5.951  -2.881  -2.626  0.00  0.00     0.051 A 
ATOM      5  C5  IND d   1       5.225  -3.107  -3.761  0.00  0.00    -0.031 A 
ATOM      6  C6  IND d   1       4.041  -3.816  -3.741  0.00  0.00     0.015 A 
ATOM      7  C7  IND d   1       3.533  -4.320  -2.577  0.00  0.00    -0.016 A 
ATOM      8  C8  IND d   1       4.271  -4.099  -1.423  0.00  0.00    -0.047 A 
ATOM      9  C9  IND d   1       5.494  -3.416  -1.444  0.00  0.00    -0.096 A 
ATOM     10  HN1 IND d   1       3.360  -4.933   0.157  0.00  0.00     0.298 HD
ENDROOT
TORSDOF 0
ENDMDL
