MODEL 1
REMARK minimizedAffinity 12.6661444
REMARK minimizedRMSD -1
REMARK  0 active torsions:
REMARK  status: ('A' for Active; 'I' for Inactive)
ROOT
ATOM      1  N1  IND d   1      -3.892  -5.600   5.893  0.00  0.00    -0.196 N 
ATOM      2  C2  IND d   1      -5.214  -5.945   5.919  0.00  0.00     0.054 A 
ATOM      3  C3  IND d   1      -5.988  -4.839   5.991  0.00  0.00    -0.031 A 
ATOM      4  C4  IND d   1      -5.301  -2.358   5.974  0.00  0.00     0.051 A 
ATOM      5  C5  IND d   1      -4.203  -1.544   5.997  0.00  0.00    -0.031 A 
ATOM      6  C6  IND d   1      -2.920  -2.051   5.983  0.00  0.00     0.015 A 
ATOM      7  C7  IND d   1      -2.685  -3.396   5.934  0.00  0.00    -0.016 A 
ATOM      8  C8  IND d   1      -3.797  -4.226   5.918  0.00  0.00    -0.047 A 
ATOM      9  C9  IND d   1      -5.102  -3.719   5.975  0.00  0.00    -0.096 A 
ATOM     10  HN1 IND d   1      -3.230  -6.148   5.865  0.00  0.00     0.298 HD
ENDROOT
TORSDOF 0
ENDMDL
