MODEL 1
REMARK minimizedAffinity 12.4607725
REMARK minimizedRMSD -1
REMARK  0 active torsions:
REMARK  status: ('A' for Active; 'I' for Inactive)
ROOT
ATOM      1  N1  IND d   1       0.887   0.815  -0.780  0.00  0.00    -0.196 N 
ATOM      2  C2  IND d   1       0.610   1.566  -1.888  0.00  0.00     0.054 A 
ATOM      3  C3  IND d   1      -0.457   2.365  -1.660  0.00  0.00    -0.031 A 
ATOM      4  C4  IND d   1      -1.837   2.675   0.491  0.00  0.00     0.051 A 
ATOM      5  C5  IND d   1      -1.986   2.180   1.756  0.00  0.00    -0.031 A 
ATOM      6  C6  IND d   1      -1.166   1.187   2.252  0.00  0.00     0.015 A 
ATOM      7  C7  IND d   1      -0.156   0.657   1.501  0.00  0.00    -0.016 A 
ATOM      8  C8  IND d   1      -0.006   1.152   0.213  0.00  0.00    -0.047 A 
ATOM      9  C9  IND d   1      -0.862   2.130  -0.310  0.00  0.00    -0.096 A 
ATOM     10  HN1 IND d   1       1.514   0.230  -0.715  0.00  0.00     0.298 HD
ENDROOT
TORSDOF 0
ENDMDL
