MODEL 1
REMARK minimizedAffinity 10.186039
REMARK minimizedRMSD -1
REMARK  0 active torsions:
REMARK  status: ('A' for Active; 'I' for Inactive)
ROOT
ATOM      1  N1  IND d   1       0.478   0.553  -0.102  0.00  0.00    -0.196 N 
ATOM      2  C2  IND d   1       0.204   0.932  -1.386  0.00  0.00     0.054 A 
ATOM      3  C3  IND d   1      -0.868   1.755  -1.416  0.00  0.00    -0.031 A 
ATOM      4  C4  IND d   1      -2.264   2.692   0.534  0.00  0.00     0.051 A 
ATOM      5  C5  IND d   1      -2.419   2.602   1.889  0.00  0.00    -0.031 A 
ATOM      6  C6  IND d   1      -1.597   1.811   2.665  0.00  0.00     0.015 A 
ATOM      7  C7  IND d   1      -0.579   1.086   2.115  0.00  0.00    -0.016 A 
ATOM      8  C8  IND d   1      -0.424   1.169   0.739  0.00  0.00    -0.047 A 
ATOM      9  C9  IND d   1      -1.281   1.937  -0.060  0.00  0.00    -0.096 A 
ATOM     10  HN1 IND d   1       1.107   0.020   0.141  0.00  0.00     0.298 HD
ENDROOT
TORSDOF 0
ENDMDL
