MODEL 1
REMARK minimizedAffinity 6.27545595
REMARK minimizedRMSD -1
REMARK  0 active torsions:
REMARK  status: ('A' for Active; 'I' for Inactive)
ROOT
ATOM      1  N1  IND d   1       0.646   1.694   0.069  0.00  0.00    -0.196 N 
ATOM      2  C2  IND d   1       0.463   2.308  -1.139  0.00  0.00     0.054 A 
ATOM      3  C3  IND d   1      -0.775   2.847  -1.211  0.00  0.00    -0.031 A 
ATOM      4  C4  IND d   1      -2.628   2.929   0.574  0.00  0.00     0.051 A 
ATOM      5  C5  IND d   1      -2.941   2.473   1.824  0.00  0.00    -0.031 A 
ATOM      6  C6  IND d   1      -2.055   1.721   2.569  0.00  0.00     0.015 A 
ATOM      7  C7  IND d   1      -0.813   1.406   2.094  0.00  0.00    -0.016 A 
ATOM      8  C8  IND d   1      -0.495   1.861   0.822  0.00  0.00    -0.047 A 
ATOM      9  C9  IND d   1      -1.406   2.588   0.045  0.00  0.00    -0.096 A 
ATOM     10  HN1 IND d   1       1.354   1.275   0.316  0.00  0.00     0.298 HD
ENDROOT
TORSDOF 0
ENDMDL
