MODEL 1
REMARK minimizedAffinity 7.86224937
REMARK minimizedRMSD -1
REMARK  0 active torsions:
REMARK  status: ('A' for Active; 'I' for Inactive)
ROOT
ATOM      1  N1  IND d   1       1.140   1.559  -1.859  0.00  0.00    -0.196 N 
ATOM      2  C2  IND d   1       0.532   2.069  -0.746  0.00  0.00     0.054 A 
ATOM      3  C3  IND d   1      -0.748   1.641  -0.671  0.00  0.00    -0.031 A 
ATOM      4  C4  IND d   1      -2.024   0.021  -2.212  0.00  0.00     0.051 A 
ATOM      5  C5  IND d   1      -1.900  -0.677  -3.381  0.00  0.00    -0.031 A 
ATOM      6  C6  IND d   1      -0.731  -0.667  -4.116  0.00  0.00     0.015 A 
ATOM      7  C7  IND d   1       0.365   0.036  -3.701  0.00  0.00    -0.016 A 
ATOM      8  C8  IND d   1       0.240   0.751  -2.519  0.00  0.00    -0.047 A 
ATOM      9  C9  IND d   1      -0.957   0.779  -1.791  0.00  0.00    -0.096 A 
ATOM     10  HN1 IND d   1       1.948   1.718  -2.107  0.00  0.00     0.298 HD
ENDROOT
TORSDOF 0
ENDMDL
