MODEL 1
REMARK minimizedAffinity 8.05591679
REMARK minimizedRMSD -1
REMARK  0 active torsions:
REMARK  status: ('A' for Active; 'I' for Inactive)
ROOT
ATOM      1  N1  IND d   1      -1.800  -0.632  -2.674  0.00  0.00    -0.196 N 
ATOM      2  C2  IND d   1      -2.833   0.263  -2.709  0.00  0.00     0.054 A 
ATOM      3  C3  IND d   1      -2.386   1.507  -2.424  0.00  0.00    -0.031 A 
ATOM      4  C4  IND d   1       0.015   2.319  -1.969  0.00  0.00     0.051 A 
ATOM      5  C5  IND d   1       1.291   1.862  -1.796  0.00  0.00    -0.031 A 
ATOM      6  C6  IND d   1       1.609   0.525  -1.911  0.00  0.00     0.015 A 
ATOM      7  C7  IND d   1       0.660  -0.410  -2.217  0.00  0.00    -0.016 A 
ATOM      8  C8  IND d   1      -0.638   0.049  -2.387  0.00  0.00    -0.047 A 
ATOM      9  C9  IND d   1      -0.975   1.400  -2.229  0.00  0.00    -0.096 A 
ATOM     10  HN1 IND d   1      -1.866  -1.479  -2.808  0.00  0.00     0.298 HD
ENDROOT
TORSDOF 0
ENDMDL
