MODEL 1
REMARK minimizedAffinity 12.913928
REMARK minimizedRMSD -1
REMARK  0 active torsions:
REMARK  status: ('A' for Active; 'I' for Inactive)
ROOT
ATOM      1  N1  IND d   1      -1.945   0.695  -2.079  0.00  0.00    -0.196 N 
ATOM      2  C2  IND d   1      -2.565   0.035  -3.102  0.00  0.00     0.054 A 
ATOM      3  C3  IND d   1      -1.746  -0.047  -4.174  0.00  0.00    -0.031 A 
ATOM      4  C4  IND d   1       0.691   0.743  -4.435  0.00  0.00     0.051 A 
ATOM      5  C5  IND d   1       1.675   1.433  -3.784  0.00  0.00    -0.031 A 
ATOM      6  C6  IND d   1       1.500   1.919  -2.504  0.00  0.00     0.015 A 
ATOM      7  C7  IND d   1       0.334   1.723  -1.821  0.00  0.00    -0.016 A 
ATOM      8  C8  IND d   1      -0.670   1.029  -2.481  0.00  0.00    -0.047 A 
ATOM      9  C9  IND d   1      -0.514   0.570  -3.796  0.00  0.00    -0.096 A 
ATOM     10  HN1 IND d   1      -2.292   0.871  -1.312  0.00  0.00     0.298 HD
ENDROOT
TORSDOF 0
ENDMDL
