MODEL 1
REMARK minimizedAffinity 3.8324995
REMARK minimizedRMSD -1
REMARK  0 active torsions:
REMARK  status: ('A' for Active; 'I' for Inactive)
ROOT
ATOM      1  N1  IND d   1       5.672  -1.800   0.191  0.00  0.00    -0.196 N 
ATOM      2  C2  IND d   1       4.584  -1.505   0.964  0.00  0.00     0.054 A 
ATOM      3  C3  IND d   1       3.451  -1.943   0.370  0.00  0.00    -0.031 A 
ATOM      4  C4  IND d   1       3.159  -3.257  -1.824  0.00  0.00     0.051 A 
ATOM      5  C5  IND d   1       3.859  -3.729  -2.899  0.00  0.00    -0.031 A 
ATOM      6  C6  IND d   1       5.227  -3.581  -3.000  0.00  0.00     0.015 A 
ATOM      7  C7  IND d   1       5.951  -2.963  -2.019  0.00  0.00    -0.016 A 
ATOM      8  C8  IND d   1       5.242  -2.477  -0.930  0.00  0.00    -0.047 A 
ATOM      9  C9  IND d   1       3.848  -2.586  -0.842  0.00  0.00    -0.096 A 
ATOM     10  HN1 IND d   1       6.487  -1.597   0.373  0.00  0.00     0.298 HD
ENDROOT
TORSDOF 0
ENDMDL
