MODEL 1
REMARK minimizedAffinity 5.17496681
REMARK minimizedRMSD -1
REMARK  0 active torsions:
REMARK  status: ('A' for Active; 'I' for Inactive)
ROOT
ATOM      1  N1  IND d   1       4.735  -0.945   0.094  0.00  0.00    -0.196 N 
ATOM      2  C2  IND d   1       6.000  -1.173  -0.372  0.00  0.00     0.054 A 
ATOM      3  C3  IND d   1       6.000  -2.200  -1.250  0.00  0.00    -0.031 A 
ATOM      4  C4  IND d   1       4.024  -3.585  -2.147  0.00  0.00     0.051 A 
ATOM      5  C5  IND d   1       2.679  -3.772  -1.988  0.00  0.00    -0.031 A 
ATOM      6  C6  IND d   1       1.936  -3.009  -1.111  0.00  0.00     0.015 A 
ATOM      7  C7  IND d   1       2.510  -2.018  -0.366  0.00  0.00    -0.016 A 
ATOM      8  C8  IND d   1       3.876  -1.831  -0.519  0.00  0.00    -0.047 A 
ATOM      9  C9  IND d   1       4.644  -2.630  -1.376  0.00  0.00    -0.096 A 
ATOM     10  HN1 IND d   1       4.513  -0.349   0.673  0.00  0.00     0.298 HD
ENDROOT
TORSDOF 0
ENDMDL
