MODEL 1
REMARK minimizedAffinity -2.73927832
REMARK minimizedRMSD -1
REMARK  0 active torsions:
REMARK  status: ('A' for Active; 'I' for Inactive)
ROOT
ATOM      1  N1  IND d   1       0.217   0.405   1.373  0.00  0.00    -0.196 N 
ATOM      2  C2  IND d   1      -0.454   1.580   1.567  0.00  0.00     0.054 A 
ATOM      3  C3  IND d   1      -1.028   1.990   0.413  0.00  0.00    -0.031 A 
ATOM      4  C4  IND d   1      -1.081   0.835  -1.887  0.00  0.00     0.051 A 
ATOM      5  C5  IND d   1      -0.579  -0.240  -2.565  0.00  0.00    -0.031 A 
ATOM      6  C6  IND d   1       0.228  -1.177  -1.951  0.00  0.00     0.015 A 
ATOM      7  C7  IND d   1       0.555  -1.077  -0.628  0.00  0.00    -0.016 A 
ATOM      8  C8  IND d   1       0.053   0.018   0.061  0.00  0.00    -0.047 A 
ATOM      9  C9  IND d   1      -0.732   0.994  -0.567  0.00  0.00    -0.096 A 
ATOM     10  HN1 IND d   1       0.666  -0.021   1.970  0.00  0.00     0.298 HD
ENDROOT
TORSDOF 0
ENDMDL
