MODEL 1
REMARK minimizedAffinity 10.9952946
REMARK minimizedRMSD -1
REMARK  0 active torsions:
REMARK  status: ('A' for Active; 'I' for Inactive)
ROOT
ATOM      1  N1  IND d   1      -2.384  -1.107   3.788  0.00  0.00    -0.196 N 
ATOM      2  C2  IND d   1      -1.535  -2.139   4.075  0.00  0.00     0.054 A 
ATOM      3  C3  IND d   1      -0.294  -1.871   3.611  0.00  0.00    -0.031 A 
ATOM      4  C4  IND d   1       0.592   0.244   2.441  0.00  0.00     0.051 A 
ATOM      5  C5  IND d   1       0.183   1.443   1.928  0.00  0.00    -0.031 A 
ATOM      6  C6  IND d   1      -1.129   1.863   2.013  0.00  0.00     0.015 A 
ATOM      7  C7  IND d   1      -2.082   1.101   2.627  0.00  0.00    -0.016 A 
ATOM      8  C8  IND d   1      -1.672  -0.120   3.142  0.00  0.00    -0.047 A 
ATOM      9  C9  IND d   1      -0.351  -0.571   3.021  0.00  0.00    -0.096 A 
ATOM     10  HN1 IND d   1      -3.222  -1.079   3.978  0.00  0.00     0.298 HD
ENDROOT
TORSDOF 0
ENDMDL
