MODEL 1
REMARK minimizedAffinity 8.96772385
REMARK minimizedRMSD -1
REMARK  0 active torsions:
REMARK  status: ('A' for Active; 'I' for Inactive)
ROOT
ATOM      1  N1  IND d   1      -1.626   3.133   1.891  0.00  0.00    -0.196 N 
ATOM      2  C2  IND d   1      -2.519   2.307   1.266  0.00  0.00     0.054 A 
ATOM      3  C3  IND d   1      -2.256   1.016   1.568  0.00  0.00    -0.031 A 
ATOM      4  C4  IND d   1      -0.476   0.036   3.149  0.00  0.00     0.051 A 
ATOM      5  C5  IND d   1       0.594   0.393   3.920  0.00  0.00    -0.031 A 
ATOM      6  C6  IND d   1       0.985   1.709   4.059  0.00  0.00     0.015 A 
ATOM      7  C7  IND d   1       0.311   2.722   3.439  0.00  0.00    -0.016 A 
ATOM      8  C8  IND d   1      -0.772   2.362   2.649  0.00  0.00    -0.047 A 
ATOM      9  C9  IND d   1      -1.148   1.025   2.470  0.00  0.00    -0.096 A 
ATOM     10  HN1 IND d   1      -1.602   3.990   1.822  0.00  0.00     0.298 HD
ENDROOT
TORSDOF 0
ENDMDL
