MODEL 1
REMARK minimizedAffinity 14.1437445
REMARK minimizedRMSD -1
REMARK  0 active torsions:
REMARK  status: ('A' for Active; 'I' for Inactive)
ROOT
ATOM      1  N1  IND d   1      -2.309  -0.399  -3.076  0.00  0.00    -0.196 N 
ATOM      2  C2  IND d   1      -3.113   0.705  -3.047  0.00  0.00     0.054 A 
ATOM      3  C3  IND d   1      -2.470   1.740  -2.462  0.00  0.00    -0.031 A 
ATOM      4  C4  IND d   1      -0.058   1.874  -1.571  0.00  0.00     0.051 A 
ATOM      5  C5  IND d   1       1.051   1.108  -1.346  0.00  0.00    -0.031 A 
ATOM      6  C6  IND d   1       1.099  -0.226  -1.695  0.00  0.00     0.015 A 
ATOM      7  C7  IND d   1       0.039  -0.843  -2.296  0.00  0.00    -0.016 A 
ATOM      8  C8  IND d   1      -1.092  -0.070  -2.520  0.00  0.00    -0.047 A 
ATOM      9  C9  IND d   1      -1.162   1.273  -2.129  0.00  0.00    -0.096 A 
ATOM     10  HN1 IND d   1      -2.526  -1.170  -3.389  0.00  0.00     0.298 HD
ENDROOT
TORSDOF 0
ENDMDL
