MODEL 1
REMARK minimizedAffinity 13.9448633
REMARK minimizedRMSD -1
REMARK  0 active torsions:
REMARK  status: ('A' for Active; 'I' for Inactive)
ROOT
ATOM      1  N1  IND d   1      -4.493   2.593  -4.228  0.00  0.00    -0.196 N 
ATOM      2  C2  IND d   1      -3.663   1.531  -4.004  0.00  0.00     0.054 A 
ATOM      3  C3  IND d   1      -2.383   1.951  -3.890  0.00  0.00    -0.031 A 
ATOM      4  C4  IND d   1      -1.436   4.344  -3.937  0.00  0.00     0.051 A 
ATOM      5  C5  IND d   1      -1.802   5.644  -4.152  0.00  0.00    -0.031 A 
ATOM      6  C6  IND d   1      -3.111   6.000  -4.406  0.00  0.00     0.015 A 
ATOM      7  C7  IND d   1      -4.109   5.067  -4.443  0.00  0.00    -0.016 A 
ATOM      8  C8  IND d   1      -3.739   3.746  -4.232  0.00  0.00    -0.047 A 
ATOM      9  C9  IND d   1      -2.406   3.374  -4.016  0.00  0.00    -0.096 A 
ATOM     10  HN1 IND d   1      -5.344   2.549  -4.347  0.00  0.00     0.298 HD
ENDROOT
TORSDOF 0
ENDMDL
