MODEL 1
REMARK minimizedAffinity -2.97379756
REMARK minimizedRMSD -1
REMARK  0 active torsions:
REMARK  status: ('A' for Active; 'I' for Inactive)
ROOT
ATOM      1  C   UNL d   1       1.636   2.573   0.648  0.00  0.00     0.077 C 
ATOM      2  C1  UNL d   1       1.276   1.141   0.384  0.00  0.00    -0.074 A 
ATOM      3  C2  UNL d   1      -0.017   0.787  -0.015  0.00  0.00    -0.005 A 
ATOM      4  C3  UNL d   1      -0.335  -0.548  -0.265  0.00  0.00     0.006 A 
ATOM      5  C4  UNL d   1       0.635  -1.540  -0.120  0.00  0.00    -0.005 A 
ATOM      6  C5  UNL d   1       1.934  -1.205   0.277  0.00  0.00    -0.074 A 
ATOM      7  C6  UNL d   1       2.991  -2.258   0.429  0.00  0.00     0.077 C 
ATOM      8  C7  UNL d   1       2.247   0.140   0.521  0.00  0.00    -0.001 A 
ENDROOT
TORSDOF 0
ENDMDL
