MODEL 1
REMARK minimizedAffinity -1.95761466
REMARK minimizedRMSD -1
REMARK  0 active torsions:
REMARK  status: ('A' for Active; 'I' for Inactive)
ROOT
ATOM      1  C   UNL d   1       2.212  -1.390   0.981  0.00  0.00     0.077 C 
ATOM      2  C1  UNL d   1       1.313  -0.233   0.661  0.00  0.00    -0.074 A 
ATOM      3  C2  UNL d   1       1.778   1.083   0.746  0.00  0.00    -0.005 A 
ATOM      4  C3  UNL d   1       0.934   2.149   0.436  0.00  0.00     0.006 A 
ATOM      5  C4  UNL d   1      -0.382   1.910   0.039  0.00  0.00    -0.005 A 
ATOM      6  C5  UNL d   1      -0.865   0.601  -0.053  0.00  0.00    -0.074 A 
ATOM      7  C6  UNL d   1      -2.274   0.326  -0.487  0.00  0.00     0.077 C 
ATOM      8  C7  UNL d   1      -0.008  -0.465   0.254  0.00  0.00    -0.001 A 
ENDROOT
TORSDOF 0
ENDMDL
