MODEL 1
REMARK minimizedAffinity -4.33996296
REMARK minimizedRMSD -1
REMARK  0 active torsions:
REMARK  status: ('A' for Active; 'I' for Inactive)
ROOT
ATOM      1  C   UNL d   1       2.489  -1.859   1.411  0.00  0.00     0.077 C 
ATOM      2  C1  UNL d   1       1.810  -0.645   0.849  0.00  0.00    -0.074 A 
ATOM      3  C2  UNL d   1       2.466   0.589   0.804  0.00  0.00    -0.005 A 
ATOM      4  C3  UNL d   1       1.825   1.707   0.270  0.00  0.00     0.006 A 
ATOM      5  C4  UNL d   1       0.523   1.602  -0.223  0.00  0.00    -0.005 A 
ATOM      6  C5  UNL d   1      -0.148   0.376  -0.186  0.00  0.00    -0.074 A 
ATOM      7  C6  UNL d   1      -1.543   0.243  -0.721  0.00  0.00     0.077 C 
ATOM      8  C7  UNL d   1       0.505  -0.745   0.345  0.00  0.00    -0.001 A 
ENDROOT
TORSDOF 0
ENDMDL
