MODEL 1
REMARK minimizedAffinity -5.90792274
REMARK minimizedRMSD -1
REMARK  0 active torsions:
REMARK  status: ('A' for Active; 'I' for Inactive)
ROOT
ATOM      1  C   UNL d   1       2.946  -1.165   1.396  0.00  0.00     0.077 C 
ATOM      2  C1  UNL d   1       1.770  -1.094   0.469  0.00  0.00    -0.074 A 
ATOM      3  C2  UNL d   1       1.243  -2.251  -0.114  0.00  0.00    -0.005 A 
ATOM      4  C3  UNL d   1       0.142  -2.170  -0.967  0.00  0.00     0.006 A 
ATOM      5  C4  UNL d   1      -0.442  -0.934  -1.246  0.00  0.00    -0.005 A 
ATOM      6  C5  UNL d   1       0.071   0.233  -0.671  0.00  0.00    -0.074 A 
ATOM      7  C6  UNL d   1      -0.551   1.569  -0.952  0.00  0.00     0.077 C 
ATOM      8  C7  UNL d   1       1.173   0.143   0.190  0.00  0.00    -0.001 A 
ENDROOT
TORSDOF 0
ENDMDL
