MODEL 1
REMARK minimizedAffinity -1.31831849
REMARK minimizedRMSD -1
REMARK  0 active torsions:
REMARK  status: ('A' for Active; 'I' for Inactive)
ROOT
ATOM      1  C   UNL d   1       3.434  -1.235  -0.067  0.00  0.00     0.077 C 
ATOM      2  C1  UNL d   1       2.493  -0.067  -0.033  0.00  0.00    -0.074 A 
ATOM      3  C2  UNL d   1       2.974   1.245  -0.072  0.00  0.00    -0.005 A 
ATOM      4  C3  UNL d   1       2.086   2.321  -0.049  0.00  0.00     0.006 A 
ATOM      5  C4  UNL d   1       0.711   2.095   0.012  0.00  0.00    -0.005 A 
ATOM      6  C5  UNL d   1       0.211   0.790   0.050  0.00  0.00    -0.074 A 
ATOM      7  C6  UNL d   1      -1.265   0.529   0.105  0.00  0.00     0.077 C 
ATOM      8  C7  UNL d   1       1.109  -0.286   0.020  0.00  0.00    -0.001 A 
ENDROOT
TORSDOF 0
ENDMDL
