MODEL 1
REMARK minimizedAffinity -3.91315508
REMARK minimizedRMSD -1
REMARK  0 active torsions:
REMARK  status: ('A' for Active; 'I' for Inactive)
ROOT
ATOM      1  C   UNL d   1      -2.014   0.632  -0.127  0.00  0.00     0.077 C 
ATOM      2  C1  UNL d   1      -0.582   0.250   0.106  0.00  0.00    -0.074 A 
ATOM      3  C2  UNL d   1       0.195   0.920   1.056  0.00  0.00    -0.005 A 
ATOM      4  C3  UNL d   1       1.522   0.547   1.268  0.00  0.00     0.006 A 
ATOM      5  C4  UNL d   1       2.085  -0.498   0.534  0.00  0.00    -0.005 A 
ATOM      6  C5  UNL d   1       1.323  -1.180  -0.419  0.00  0.00    -0.074 A 
ATOM      7  C6  UNL d   1       1.909  -2.312  -1.210  0.00  0.00     0.077 C 
ATOM      8  C7  UNL d   1      -0.012  -0.804  -0.622  0.00  0.00    -0.001 A 
ENDROOT
TORSDOF 0
ENDMDL
