MODEL 1
REMARK minimizedAffinity -2.44692159
REMARK minimizedRMSD -1
REMARK  0 active torsions:
REMARK  status: ('A' for Active; 'I' for Inactive)
ROOT
ATOM      1  C   UNL d   1      -0.006  -1.864  -1.071  0.00  0.00     0.077 C 
ATOM      2  C1  UNL d   1       0.983  -1.126  -0.219  0.00  0.00    -0.074 A 
ATOM      3  C2  UNL d   1       1.991  -1.810   0.468  0.00  0.00    -0.005 A 
ATOM      4  C3  UNL d   1       2.910  -1.109   1.249  0.00  0.00     0.006 A 
ATOM      5  C4  UNL d   1       2.830   0.280   1.351  0.00  0.00    -0.005 A 
ATOM      6  C5  UNL d   1       1.829   0.981   0.671  0.00  0.00    -0.074 A 
ATOM      7  C6  UNL d   1       1.735   2.475   0.762  0.00  0.00     0.077 C 
ATOM      8  C7  UNL d   1       0.914   0.271  -0.118  0.00  0.00    -0.001 A 
ENDROOT
TORSDOF 0
ENDMDL
