MODEL 1
REMARK minimizedAffinity -1.50344515
REMARK minimizedRMSD -1
REMARK  0 active torsions:
REMARK  status: ('A' for Active; 'I' for Inactive)
ROOT
ATOM      1  C   UNL d   1       1.563  -0.716   0.607  0.00  0.00     0.077 C 
ATOM      2  C1  UNL d   1       0.216  -0.237   0.155  0.00  0.00    -0.074 A 
ATOM      3  C2  UNL d   1      -0.217  -0.444  -1.158  0.00  0.00    -0.005 A 
ATOM      4  C3  UNL d   1      -1.477  -0.001  -1.561  0.00  0.00     0.006 A 
ATOM      5  C4  UNL d   1      -2.315   0.652  -0.657  0.00  0.00    -0.005 A 
ATOM      6  C5  UNL d   1      -1.900   0.867   0.661  0.00  0.00    -0.074 A 
ATOM      7  C6  UNL d   1      -2.792   1.558   1.649  0.00  0.00     0.077 C 
ATOM      8  C7  UNL d   1      -0.635   0.413   1.061  0.00  0.00    -0.001 A 
ENDROOT
TORSDOF 0
ENDMDL
