MODEL 1
REMARK minimizedAffinity 6.1182375
REMARK minimizedRMSD -1
REMARK  1 active torsions:
REMARK  status: ('A' for Active; 'I' for Inactive)
REMARK    1  A    between atoms: C1_2  and  C2_3 
ROOT
ATOM      1  C2  UNL d   1       4.094  -2.868  -4.501  0.00  0.00    -0.076 A 
ATOM      2  C3  UNL d   1       3.550  -1.821  -3.738  0.00  0.00     0.004 A 
ATOM      3  C4  UNL d   1       4.215  -1.331  -2.615  0.00  0.00    -0.003 A 
ATOM      4  C5  UNL d   1       5.436  -1.879  -2.239  0.00  0.00     0.000 A 
ATOM      5  C6  UNL d   1       5.999  -2.906  -2.995  0.00  0.00     0.000 A 
ATOM      6  C7  UNL d   1       5.350  -3.401  -4.139  0.00  0.00    -0.073 A 
ATOM      7  C8  UNL d   1       6.000  -4.514  -4.913  0.00  0.00     0.078 C 
ENDROOT
BRANCH   1   8
ATOM      8  C1  UNL d   1       3.314  -3.377  -5.693  0.00  0.00     0.053 C 
ATOM      9  C   UNL d   1       2.049  -4.118  -5.287  0.00  0.00     0.018 C 
ENDBRANCH   1   8
TORSDOF 1
ENDMDL
