MODEL 1
REMARK minimizedAffinity 7.87474918
REMARK minimizedRMSD -1
REMARK  1 active torsions:
REMARK  status: ('A' for Active; 'I' for Inactive)
REMARK    1  A    between atoms: C1_2  and  C2_3 
ROOT
ATOM      1  C2  UNL d   1      -1.240   3.044  -1.497  0.00  0.00    -0.076 A 
ATOM      2  C3  UNL d   1      -0.391   2.082  -0.923  0.00  0.00     0.004 A 
ATOM      3  C4  UNL d   1       0.964   2.346  -0.730  0.00  0.00    -0.003 A 
ATOM      4  C5  UNL d   1       1.492   3.576  -1.109  0.00  0.00     0.000 A 
ATOM      5  C6  UNL d   1       0.660   4.548  -1.664  0.00  0.00     0.000 A 
ATOM      6  C7  UNL d   1      -0.712   4.304  -1.849  0.00  0.00    -0.073 A 
ATOM      7  C8  UNL d   1      -1.562   5.386  -2.458  0.00  0.00     0.078 C 
ENDROOT
BRANCH   1   8
ATOM      8  C1  UNL d   1      -2.696   2.691  -1.706  0.00  0.00     0.053 C 
ATOM      9  C   UNL d   1      -3.044   1.311  -1.171  0.00  0.00     0.018 C 
ENDBRANCH   1   8
TORSDOF 1
ENDMDL
