MODEL 1
REMARK minimizedAffinity -0.304818332
REMARK minimizedRMSD -1
REMARK  1 active torsions:
REMARK  status: ('A' for Active; 'I' for Inactive)
REMARK    1  A    between atoms: C1_2  and  C2_3 
ROOT
ATOM      1  C2  UNL d   1       0.776   3.828   0.007  0.00  0.00    -0.076 A 
ATOM      2  C3  UNL d   1       0.282   3.516  -1.272  0.00  0.00     0.004 A 
ATOM      3  C4  UNL d   1      -0.127   2.222  -1.588  0.00  0.00    -0.003 A 
ATOM      4  C5  UNL d   1      -0.049   1.217  -0.629  0.00  0.00     0.000 A 
ATOM      5  C6  UNL d   1       0.422   1.512   0.650  0.00  0.00     0.000 A 
ATOM      6  C7  UNL d   1       0.823   2.816   0.989  0.00  0.00    -0.073 A 
ATOM      7  C8  UNL d   1       1.328   3.076   2.382  0.00  0.00     0.078 C 
ENDROOT
BRANCH   1   8
ATOM      8  C1  UNL d   1       1.229   5.244   0.283  0.00  0.00     0.053 C 
ATOM      9  C   UNL d   1       2.744   5.368   0.346  0.00  0.00     0.018 C 
ENDBRANCH   1   8
TORSDOF 1
ENDMDL
