MODEL 1
REMARK minimizedAffinity -2.97612381
REMARK minimizedRMSD -1
REMARK  1 active torsions:
REMARK  status: ('A' for Active; 'I' for Inactive)
REMARK    1  A    between atoms: C1_2  and  C2_3 
ROOT
ATOM      1  C2  UNL d   1       0.163   2.867  -0.519  0.00  0.00    -0.076 A 
ATOM      2  C3  UNL d   1       0.319   2.235   0.727  0.00  0.00     0.004 A 
ATOM      3  C4  UNL d   1       1.379   2.562   1.570  0.00  0.00    -0.003 A 
ATOM      4  C5  UNL d   1       2.300   3.529   1.182  0.00  0.00     0.000 A 
ATOM      5  C6  UNL d   1       2.151   4.179  -0.042  0.00  0.00     0.000 A 
ATOM      6  C7  UNL d   1       1.078   3.872  -0.897  0.00  0.00    -0.073 A 
ATOM      7  C8  UNL d   1       0.970   4.601  -2.209  0.00  0.00     0.078 C 
ENDROOT
BRANCH   1   8
ATOM      8  C1  UNL d   1      -0.991   2.451  -1.403  0.00  0.00     0.053 C 
ATOM      9  C   UNL d   1      -1.603   1.126  -0.977  0.00  0.00     0.018 C 
ENDBRANCH   1   8
TORSDOF 1
ENDMDL
