MODEL 1
REMARK minimizedAffinity -1.36035442
REMARK minimizedRMSD -1
REMARK  1 active torsions:
REMARK  status: ('A' for Active; 'I' for Inactive)
REMARK    1  A    between atoms: C1_2  and  C2_3 
ROOT
ATOM      1  C2  UNL d   1       3.517  -3.388  -1.603  0.00  0.00    -0.076 A 
ATOM      2  C3  UNL d   1       4.410  -4.423  -1.929  0.00  0.00     0.004 A 
ATOM      3  C4  UNL d   1       5.612  -4.155  -2.582  0.00  0.00    -0.003 A 
ATOM      4  C5  UNL d   1       5.941  -2.847  -2.919  0.00  0.00     0.000 A 
ATOM      5  C6  UNL d   1       5.075  -1.805  -2.588  0.00  0.00     0.000 A 
ATOM      6  C7  UNL d   1       3.867  -2.056  -1.916  0.00  0.00    -0.073 A 
ATOM      7  C8  UNL d   1       2.968  -0.896  -1.589  0.00  0.00     0.078 C 
ENDROOT
BRANCH   1   8
ATOM      8  C1  UNL d   1       2.216  -3.742  -0.920  0.00  0.00     0.053 C 
ATOM      9  C   UNL d   1       2.270  -5.096  -0.230  0.00  0.00     0.018 C 
ENDBRANCH   1   8
TORSDOF 1
ENDMDL
