MODEL 1
REMARK minimizedAffinity 3.17324781
REMARK minimizedRMSD -1
REMARK  1 active torsions:
REMARK  status: ('A' for Active; 'I' for Inactive)
REMARK    1  A    between atoms: C1_2  and  C2_3 
ROOT
ATOM      1  C2  UNL d   1       0.809   2.632  -0.128  0.00  0.00    -0.076 A 
ATOM      2  C3  UNL d   1       1.902   3.157   0.583  0.00  0.00     0.004 A 
ATOM      3  C4  UNL d   1       2.588   4.279   0.119  0.00  0.00    -0.003 A 
ATOM      4  C5  UNL d   1       2.191   4.894  -1.063  0.00  0.00     0.000 A 
ATOM      5  C6  UNL d   1       1.097   4.397  -1.772  0.00  0.00     0.000 A 
ATOM      6  C7  UNL d   1       0.385   3.277  -1.310  0.00  0.00    -0.073 A 
ATOM      7  C8  UNL d   1      -0.782   2.780  -2.118  0.00  0.00     0.078 C 
ENDROOT
BRANCH   1   8
ATOM      8  C1  UNL d   1       0.121   1.397   0.409  0.00  0.00     0.053 C 
ATOM      9  C   UNL d   1       0.121   1.345   1.929  0.00  0.00     0.018 C 
ENDBRANCH   1   8
TORSDOF 1
ENDMDL
