MODEL 1
REMARK minimizedAffinity 5.16634655
REMARK minimizedRMSD -1
REMARK  1 active torsions:
REMARK  status: ('A' for Active; 'I' for Inactive)
REMARK    1  A    between atoms: C1_2  and  C2_3 
ROOT
ATOM      1  C2  UNL d   1       3.865  -4.446  -1.499  0.00  0.00    -0.076 A 
ATOM      2  C3  UNL d   1       4.677  -4.249  -2.630  0.00  0.00     0.004 A 
ATOM      3  C4  UNL d   1       4.419  -4.921  -3.823  0.00  0.00    -0.003 A 
ATOM      4  C5  UNL d   1       3.345  -5.801  -3.906  0.00  0.00     0.000 A 
ATOM      5  C6  UNL d   1       2.519  -5.995  -2.800  0.00  0.00     0.000 A 
ATOM      6  C7  UNL d   1       2.755  -5.312  -1.594  0.00  0.00    -0.073 A 
ATOM      7  C8  UNL d   1       1.835  -5.564  -0.430  0.00  0.00     0.078 C 
ENDROOT
BRANCH   1   8
ATOM      8  C1  UNL d   1       4.209  -3.710  -0.224  0.00  0.00     0.053 C 
ATOM      9  C   UNL d   1       4.489  -2.234  -0.460  0.00  0.00     0.018 C 
ENDBRANCH   1   8
TORSDOF 1
ENDMDL
