MODEL 1
REMARK minimizedAffinity 9.73052883
REMARK minimizedRMSD -1
REMARK  1 active torsions:
REMARK  status: ('A' for Active; 'I' for Inactive)
REMARK    1  A    between atoms: C1_2  and  C2_3 
ROOT
ATOM      1  C2  UNL d   1       2.164  -2.259   4.828  0.00  0.00    -0.076 A 
ATOM      2  C3  UNL d   1       2.427  -3.117   5.909  0.00  0.00     0.004 A 
ATOM      3  C4  UNL d   1       3.632  -3.811   5.998  0.00  0.00    -0.003 A 
ATOM      4  C5  UNL d   1       4.595  -3.657   5.007  0.00  0.00     0.000 A 
ATOM      5  C6  UNL d   1       4.359  -2.796   3.936  0.00  0.00     0.000 A 
ATOM      6  C7  UNL d   1       3.155  -2.076   3.840  0.00  0.00    -0.073 A 
ATOM      7  C8  UNL d   1       2.950  -1.166   2.660  0.00  0.00     0.078 C 
ENDROOT
BRANCH   1   8
ATOM      8  C1  UNL d   1       0.827  -1.553   4.771  0.00  0.00     0.053 C 
ATOM      9  C   UNL d   1      -0.027  -1.824   6.000  0.00  0.00     0.018 C 
ENDBRANCH   1   8
TORSDOF 1
ENDMDL
