MODEL 1
REMARK minimizedAffinity -0.93533814
REMARK minimizedRMSD -1
REMARK  1 active torsions:
REMARK  status: ('A' for Active; 'I' for Inactive)
REMARK    1  A    between atoms: C1_2  and  C2_3 
ROOT
ATOM      1  C2  UNL d   1       4.525  -3.138  -1.502  0.00  0.00    -0.076 A 
ATOM      2  C3  UNL d   1       3.949  -2.616  -2.673  0.00  0.00     0.004 A 
ATOM      3  C4  UNL d   1       3.549  -3.455  -3.712  0.00  0.00    -0.003 A 
ATOM      4  C5  UNL d   1       3.717  -4.830  -3.596  0.00  0.00     0.000 A 
ATOM      5  C6  UNL d   1       4.270  -5.367  -2.434  0.00  0.00     0.000 A 
ATOM      6  C7  UNL d   1       4.664  -4.537  -1.371  0.00  0.00    -0.073 A 
ATOM      7  C8  UNL d   1       5.261  -5.169  -0.143  0.00  0.00     0.078 C 
ENDROOT
BRANCH   1   8
ATOM      8  C1  UNL d   1       4.965  -2.178  -0.420  0.00  0.00     0.053 C 
ATOM      9  C   UNL d   1       3.809  -1.366   0.143  0.00  0.00     0.018 C 
ENDBRANCH   1   8
TORSDOF 1
ENDMDL
