MODEL 1
REMARK minimizedAffinity 4.18762589
REMARK minimizedRMSD -1
REMARK  1 active torsions:
REMARK  status: ('A' for Active; 'I' for Inactive)
REMARK    1  A    between atoms: C1_2  and  C2_3 
ROOT
ATOM      1  C2  UNL d   1       0.414   2.673   0.930  0.00  0.00    -0.076 A 
ATOM      2  C3  UNL d   1       1.773   2.930   1.182  0.00  0.00     0.004 A 
ATOM      3  C4  UNL d   1       2.361   2.563   2.391  0.00  0.00    -0.003 A 
ATOM      4  C5  UNL d   1       1.599   1.932   3.368  0.00  0.00     0.000 A 
ATOM      5  C6  UNL d   1       0.254   1.653   3.129  0.00  0.00     0.000 A 
ATOM      6  C7  UNL d   1      -0.350   2.002   1.909  0.00  0.00    -0.073 A 
ATOM      7  C8  UNL d   1      -1.806   1.684   1.707  0.00  0.00     0.078 C 
ENDROOT
BRANCH   1   8
ATOM      8  C1  UNL d   1      -0.175   3.119  -0.389  0.00  0.00     0.053 C 
ATOM      9  C   UNL d   1       0.576   4.294  -0.995  0.00  0.00     0.018 C 
ENDBRANCH   1   8
TORSDOF 1
ENDMDL
