MODEL 1
REMARK minimizedAffinity -4.1053772
REMARK minimizedRMSD -1
REMARK  1 active torsions:
REMARK  status: ('A' for Active; 'I' for Inactive)
REMARK    1  A    between atoms: C3_4  and  O_7 
ROOT
ATOM      1  C   UNL d   1       0.660  -0.300  -1.016  0.00  0.00    -0.033 A 
ATOM      2  C1  UNL d   1       1.794  -0.958  -1.496  0.00  0.00     0.039 A 
ATOM      3  C2  UNL d   1       2.190  -2.172  -0.930  0.00  0.00    -0.080 A 
ATOM      4  C3  UNL d   1       1.445  -2.715   0.113  0.00  0.00     0.150 A 
ATOM      5  C4  UNL d   1       0.313  -2.066   0.593  0.00  0.00    -0.007 A 
ATOM      6  C5  UNL d   1      -0.081  -0.854   0.028  0.00  0.00     0.039 A 
ENDROOT
BRANCH   4   7
ATOM      7  O   UNL d   1       1.796  -3.894   0.701  0.00  0.00    -0.526 OA
ATOM      8  H5  UNL d   1       2.614  -4.213   0.285  0.00  0.00     0.418 HD
ENDBRANCH   4   7
TORSDOF 1
ENDMDL
