MODEL 1
REMARK minimizedAffinity -5.03177452
REMARK minimizedRMSD -1
REMARK  1 active torsions:
REMARK  status: ('A' for Active; 'I' for Inactive)
REMARK    1  A    between atoms: C3_4  and  O_7 
ROOT
ATOM      1  C   UNL d   1      -0.176  -0.114  -0.599  0.00  0.00    -0.033 A 
ATOM      2  C1  UNL d   1      -0.897  -1.226  -0.160  0.00  0.00     0.039 A 
ATOM      3  C2  UNL d   1      -0.283  -2.478  -0.095  0.00  0.00    -0.080 A 
ATOM      4  C3  UNL d   1       1.052  -2.604  -0.469  0.00  0.00     0.150 A 
ATOM      5  C4  UNL d   1       1.778  -1.500  -0.904  0.00  0.00    -0.007 A 
ATOM      6  C5  UNL d   1       1.162  -0.251  -0.970  0.00  0.00     0.039 A 
ENDROOT
BRANCH   4   7
ATOM      7  O   UNL d   1       1.693  -3.806  -0.427  0.00  0.00    -0.526 OA
ATOM      8  H5  UNL d   1       1.060  -4.483  -0.135  0.00  0.00     0.418 HD
ENDBRANCH   4   7
TORSDOF 1
ENDMDL
