MODEL 1
REMARK minimizedAffinity -2.7836597
REMARK minimizedRMSD -1
REMARK  1 active torsions:
REMARK  status: ('A' for Active; 'I' for Inactive)
REMARK    1  A    between atoms: C3_4  and  O_7 
ROOT
ATOM      1  C   UNL d   1       1.281  -3.289   0.122  0.00  0.00    -0.033 A 
ATOM      2  C1  UNL d   1       2.251  -2.542  -0.548  0.00  0.00     0.039 A 
ATOM      3  C2  UNL d   1       1.931  -1.287  -1.070  0.00  0.00    -0.080 A 
ATOM      4  C3  UNL d   1       0.639  -0.792  -0.915  0.00  0.00     0.150 A 
ATOM      5  C4  UNL d   1      -0.332  -1.530  -0.245  0.00  0.00    -0.007 A 
ATOM      6  C5  UNL d   1      -0.010  -2.783   0.275  0.00  0.00     0.039 A 
ENDROOT
BRANCH   4   7
ATOM      7  O   UNL d   1       0.278   0.425  -1.412  0.00  0.00    -0.526 OA
ATOM      8  H5  UNL d   1       1.042   0.808  -1.874  0.00  0.00     0.418 HD
ENDBRANCH   4   7
TORSDOF 1
ENDMDL
