MODEL 1
REMARK minimizedAffinity -5.43770838
REMARK minimizedRMSD -1
REMARK  1 active torsions:
REMARK  status: ('A' for Active; 'I' for Inactive)
REMARK    1  A    between atoms: C3_4  and  O_7 
ROOT
ATOM      1  C   UNL d   1       0.631  -1.427  -0.548  0.00  0.00    -0.033 A 
ATOM      2  C1  UNL d   1      -0.533  -2.036  -0.074  0.00  0.00     0.039 A 
ATOM      3  C2  UNL d   1      -0.489  -3.343   0.417  0.00  0.00    -0.080 A 
ATOM      4  C3  UNL d   1       0.723  -4.027   0.431  0.00  0.00     0.150 A 
ATOM      5  C4  UNL d   1       1.887  -3.425  -0.036  0.00  0.00    -0.007 A 
ATOM      6  C5  UNL d   1       1.841  -2.121  -0.527  0.00  0.00     0.039 A 
ENDROOT
BRANCH   4   7
ATOM      7  O   UNL d   1       0.815  -5.305   0.897  0.00  0.00    -0.526 OA
ATOM      8  H5  UNL d   1      -0.073  -5.601   1.159  0.00  0.00     0.418 HD
ENDBRANCH   4   7
TORSDOF 1
ENDMDL
