MODEL 1
REMARK minimizedAffinity 4.0368309
REMARK minimizedRMSD -1
REMARK  1 active torsions:
REMARK  status: ('A' for Active; 'I' for Inactive)
REMARK    1  A    between atoms: C3_4  and  O_7 
ROOT
ATOM      1  C   UNL d   1       0.011  -0.417  -1.243  0.00  0.00    -0.033 A 
ATOM      2  C1  UNL d   1      -0.219  -1.790  -1.147  0.00  0.00     0.039 A 
ATOM      3  C2  UNL d   1       0.795  -2.641  -0.703  0.00  0.00    -0.080 A 
ATOM      4  C3  UNL d   1       2.033  -2.106  -0.358  0.00  0.00     0.150 A 
ATOM      5  C4  UNL d   1       2.269  -0.738  -0.448  0.00  0.00    -0.007 A 
ATOM      6  C5  UNL d   1       1.255   0.110  -0.892  0.00  0.00     0.039 A 
ENDROOT
BRANCH   4   7
ATOM      7  O   UNL d   1       3.055  -2.898   0.075  0.00  0.00    -0.526 OA
ATOM      8  H5  UNL d   1       2.757  -3.822   0.059  0.00  0.00     0.418 HD
ENDBRANCH   4   7
TORSDOF 1
ENDMDL
