MODEL 1
REMARK minimizedAffinity -3.29066157
REMARK minimizedRMSD -1
REMARK  1 active torsions:
REMARK  status: ('A' for Active; 'I' for Inactive)
REMARK    1  A    between atoms: C3_4  and  O_7 
ROOT
ATOM      1  C   UNL d   1       0.906  -1.061  -1.302  0.00  0.00    -0.033 A 
ATOM      2  C1  UNL d   1       1.687  -2.053  -0.706  0.00  0.00     0.039 A 
ATOM      3  C2  UNL d   1       1.078  -3.108  -0.025  0.00  0.00    -0.080 A 
ATOM      4  C3  UNL d   1      -0.312  -3.160   0.052  0.00  0.00     0.150 A 
ATOM      5  C4  UNL d   1      -1.096  -2.177  -0.543  0.00  0.00    -0.007 A 
ATOM      6  C5  UNL d   1      -0.485  -1.124  -1.222  0.00  0.00     0.039 A 
ENDROOT
BRANCH   4   7
ATOM      7  O   UNL d   1      -0.952  -4.168   0.710  0.00  0.00    -0.526 OA
ATOM      8  H5  UNL d   1      -0.282  -4.758   1.095  0.00  0.00     0.418 HD
ENDBRANCH   4   7
TORSDOF 1
ENDMDL
