MODEL 1
REMARK minimizedAffinity -4.80833101
REMARK minimizedRMSD -1
REMARK  1 active torsions:
REMARK  status: ('A' for Active; 'I' for Inactive)
REMARK    1  A    between atoms: C3_4  and  O_7 
ROOT
ATOM      1  C   UNL d   1       1.526  -0.039  -0.680  0.00  0.00    -0.033 A 
ATOM      2  C1  UNL d   1       2.688  -0.621  -0.168  0.00  0.00     0.039 A 
ATOM      3  C2  UNL d   1       2.691  -1.968   0.201  0.00  0.00    -0.080 A 
ATOM      4  C3  UNL d   1       1.529  -2.720   0.053  0.00  0.00     0.150 A 
ATOM      5  C4  UNL d   1       0.369  -2.147  -0.459  0.00  0.00    -0.007 A 
ATOM      6  C5  UNL d   1       0.368  -0.802  -0.827  0.00  0.00     0.039 A 
ENDROOT
BRANCH   4   7
ATOM      7  O   UNL d   1       1.482  -4.036   0.404  0.00  0.00    -0.526 OA
ATOM      8  H5  UNL d   1       2.347  -4.288   0.769  0.00  0.00     0.418 HD
ENDBRANCH   4   7
TORSDOF 1
ENDMDL
