MODEL 1
REMARK minimizedAffinity -5.76804209
REMARK minimizedRMSD -1
REMARK  1 active torsions:
REMARK  status: ('A' for Active; 'I' for Inactive)
REMARK    1  A    between atoms: C3_4  and  O_7 
ROOT
ATOM      1  C   UNL d   1       0.663  -0.833  -0.161  0.00  0.00    -0.033 A 
ATOM      2  C1  UNL d   1       1.958  -1.171   0.236  0.00  0.00     0.039 A 
ATOM      3  C2  UNL d   1       2.330  -2.512   0.346  0.00  0.00    -0.080 A 
ATOM      4  C3  UNL d   1       1.398  -3.505   0.055  0.00  0.00     0.150 A 
ATOM      5  C4  UNL d   1       0.107  -3.176  -0.345  0.00  0.00    -0.007 A 
ATOM      6  C5  UNL d   1      -0.262  -1.836  -0.453  0.00  0.00     0.039 A 
ENDROOT
BRANCH   4   7
ATOM      7  O   UNL d   1       1.713  -4.828   0.152  0.00  0.00    -0.526 OA
ATOM      8  H5  UNL d   1       2.630  -4.904   0.467  0.00  0.00     0.418 HD
ENDBRANCH   4   7
TORSDOF 1
ENDMDL
