MODEL 1
REMARK minimizedAffinity -3.46840215
REMARK minimizedRMSD -1
REMARK  1 active torsions:
REMARK  status: ('A' for Active; 'I' for Inactive)
REMARK    1  A    between atoms: C3_4  and  O_7 
ROOT
ATOM      1  C   UNL d   1       0.195  -0.919  -0.438  0.00  0.00    -0.033 A 
ATOM      2  C1  UNL d   1       1.548  -1.236  -0.583  0.00  0.00     0.039 A 
ATOM      3  C2  UNL d   1       2.010  -2.506  -0.234  0.00  0.00    -0.080 A 
ATOM      4  C3  UNL d   1       1.112  -3.450   0.257  0.00  0.00     0.150 A 
ATOM      5  C4  UNL d   1      -0.237  -3.142   0.400  0.00  0.00    -0.007 A 
ATOM      6  C5  UNL d   1      -0.697  -1.873   0.052  0.00  0.00     0.039 A 
ENDROOT
BRANCH   4   7
ATOM      7  O   UNL d   1       1.517  -4.701   0.615  0.00  0.00    -0.526 OA
ATOM      8  H5  UNL d   1       2.479  -4.761   0.489  0.00  0.00     0.418 HD
ENDBRANCH   4   7
TORSDOF 1
ENDMDL
