MODEL 1
REMARK minimizedAffinity 0.23403953
REMARK minimizedRMSD -1
REMARK  1 active torsions:
REMARK  status: ('A' for Active; 'I' for Inactive)
REMARK    1  A    between atoms: C3_4  and  O_7 
ROOT
ATOM      1  C   UNL d   1       0.301  -3.963   0.715  0.00  0.00    -0.033 A 
ATOM      2  C1  UNL d   1       1.668  -3.680   0.719  0.00  0.00     0.039 A 
ATOM      3  C2  UNL d   1       2.177  -2.678  -0.109  0.00  0.00    -0.080 A 
ATOM      4  C3  UNL d   1       1.310  -1.966  -0.933  0.00  0.00     0.150 A 
ATOM      5  C4  UNL d   1      -0.054  -2.240  -0.939  0.00  0.00    -0.007 A 
ATOM      6  C5  UNL d   1      -0.560  -3.242  -0.112  0.00  0.00     0.039 A 
ENDROOT
BRANCH   4   7
ATOM      7  O   UNL d   1       1.761  -0.981  -1.761  0.00  0.00    -0.526 OA
ATOM      8  H5  UNL d   1       2.727  -0.923  -1.672  0.00  0.00     0.418 HD
ENDBRANCH   4   7
TORSDOF 1
ENDMDL
