MODEL 1
REMARK minimizedAffinity -4.65802956
REMARK minimizedRMSD -1
REMARK  1 active torsions:
REMARK  status: ('A' for Active; 'I' for Inactive)
REMARK    1  A    between atoms: C3_4  and  O_7 
ROOT
ATOM      1  C   UNL d   1      -0.987  -1.497  -0.231  0.00  0.00    -0.033 A 
ATOM      2  C1  UNL d   1      -0.552  -2.765   0.161  0.00  0.00     0.039 A 
ATOM      3  C2  UNL d   1       0.813  -3.057   0.200  0.00  0.00    -0.080 A 
ATOM      4  C3  UNL d   1       1.732  -2.073  -0.153  0.00  0.00     0.150 A 
ATOM      5  C4  UNL d   1       1.306  -0.806  -0.541  0.00  0.00    -0.007 A 
ATOM      6  C5  UNL d   1      -0.057  -0.517  -0.580  0.00  0.00     0.039 A 
ENDROOT
BRANCH   4   7
ATOM      7  O   UNL d   1       3.074  -2.312  -0.135  0.00  0.00    -0.526 OA
ATOM      8  H5  UNL d   1       3.218  -3.237   0.124  0.00  0.00     0.418 HD
ENDBRANCH   4   7
TORSDOF 1
ENDMDL
