MODEL 1
REMARK minimizedAffinity -2.95053315
REMARK minimizedRMSD -1
REMARK  1 active torsions:
REMARK  status: ('A' for Active; 'I' for Inactive)
REMARK    1  A    between atoms: C3_4  and  O_7 
ROOT
ATOM      1  C   UNL d   1       0.543  -3.980   0.905  0.00  0.00    -0.033 A 
ATOM      2  C1  UNL d   1      -0.644  -3.259   0.769  0.00  0.00     0.039 A 
ATOM      3  C2  UNL d   1      -0.626  -1.981   0.207  0.00  0.00    -0.080 A 
ATOM      4  C3  UNL d   1       0.584  -1.437  -0.216  0.00  0.00     0.150 A 
ATOM      5  C4  UNL d   1       1.770  -2.151  -0.087  0.00  0.00    -0.007 A 
ATOM      6  C5  UNL d   1       1.750  -3.427   0.475  0.00  0.00     0.039 A 
ENDROOT
BRANCH   4   7
ATOM      7  O   UNL d   1       0.652  -0.191  -0.766  0.00  0.00    -0.526 OA
ATOM      8  H5  UNL d   1      -0.240   0.195  -0.765  0.00  0.00     0.418 HD
ENDBRANCH   4   7
TORSDOF 1
ENDMDL
