MODEL 1
REMARK minimizedAffinity 15.5571566
REMARK minimizedRMSD -1
REMARK  1 active torsions:
REMARK  status: ('A' for Active; 'I' for Inactive)
REMARK    1  A    between atoms: C1_2  and  C2_3 
ROOT
ATOM      1  C2  UNL d   1       4.161  -0.924  -4.044  0.00  0.00    -0.081 A 
ATOM      2  C3  UNL d   1       4.312  -1.234  -2.687  0.00  0.00     0.006 A 
ATOM      3  C4  UNL d   1       4.348  -2.565  -2.265  0.00  0.00     0.002 A 
ATOM      4  C5  UNL d   1       4.242  -3.607  -3.192  0.00  0.00    -0.080 A 
ATOM      5  C6  UNL d   1       4.310  -5.040  -2.756  0.00  0.00     0.076 C 
ATOM      6  C7  UNL d   1       4.074  -3.297  -4.546  0.00  0.00     0.002 A 
ATOM      7  C8  UNL d   1       4.037  -1.967  -4.969  0.00  0.00     0.006 A 
ENDROOT
BRANCH   1   8
ATOM      8  C1  UNL d   1       4.187   0.510  -4.510  0.00  0.00     0.054 C 
ATOM      9  C   UNL d   1       5.610   0.980  -4.775  0.00  0.00     0.018 C 
ENDBRANCH   1   8
TORSDOF 1
ENDMDL
