MODEL 1
REMARK minimizedAffinity 25.8059006
REMARK minimizedRMSD -1
REMARK  1 active torsions:
REMARK  status: ('A' for Active; 'I' for Inactive)
REMARK    1  A    between atoms: C1_2  and  C2_3 
ROOT
ATOM      1  C2  UNL d   1      -2.302   2.132   0.801  0.00  0.00    -0.081 A 
ATOM      2  C3  UNL d   1      -1.613   2.362   1.998  0.00  0.00     0.006 A 
ATOM      3  C4  UNL d   1      -0.500   3.206   2.024  0.00  0.00     0.002 A 
ATOM      4  C5  UNL d   1      -0.061   3.838   0.856  0.00  0.00    -0.080 A 
ATOM      5  C6  UNL d   1       1.114   4.770   0.876  0.00  0.00     0.076 C 
ATOM      6  C7  UNL d   1      -0.739   3.594  -0.344  0.00  0.00     0.002 A 
ATOM      7  C8  UNL d   1      -1.851   2.751  -0.370  0.00  0.00     0.006 A 
ENDROOT
BRANCH   1   8
ATOM      8  C1  UNL d   1      -3.541   1.274   0.783  0.00  0.00     0.054 C 
ATOM      9  C   UNL d   1      -3.194  -0.202   0.913  0.00  0.00     0.018 C 
ENDBRANCH   1   8
TORSDOF 1
ENDMDL
