MODEL 1
REMARK minimizedAffinity 11.0709238
REMARK minimizedRMSD -1
REMARK  1 active torsions:
REMARK  status: ('A' for Active; 'I' for Inactive)
REMARK    1  A    between atoms: C1_2  and  C2_3 
ROOT
ATOM      1  C2  UNL d   1      -4.523   0.014   5.709  0.00  0.00    -0.081 A 
ATOM      2  C3  UNL d   1      -3.569   0.850   5.117  0.00  0.00     0.006 A 
ATOM      3  C4  UNL d   1      -2.299   0.363   4.800  0.00  0.00     0.002 A 
ATOM      4  C5  UNL d   1      -1.964  -0.970   5.063  0.00  0.00    -0.080 A 
ATOM      5  C6  UNL d   1      -0.614  -1.514   4.701  0.00  0.00     0.076 C 
ATOM      6  C7  UNL d   1      -2.911  -1.801   5.671  0.00  0.00     0.002 A 
ATOM      7  C8  UNL d   1      -4.181  -1.314   5.988  0.00  0.00     0.006 A 
ENDROOT
BRANCH   1   8
ATOM      8  C1  UNL d   1      -5.915   0.519   5.992  0.00  0.00     0.054 C 
ATOM      9  C   UNL d   1      -5.964   2.040   5.985  0.00  0.00     0.018 C 
ENDBRANCH   1   8
TORSDOF 1
ENDMDL
