MODEL 1
REMARK minimizedAffinity 2.84306431
REMARK minimizedRMSD -1
REMARK  1 active torsions:
REMARK  status: ('A' for Active; 'I' for Inactive)
REMARK    1  A    between atoms: C1_2  and  C2_3 
ROOT
ATOM      1  C2  UNL d   1       2.671  -2.132   5.775  0.00  0.00    -0.081 A 
ATOM      2  C3  UNL d   1       3.893  -1.602   5.343  0.00  0.00     0.006 A 
ATOM      3  C4  UNL d   1       4.976  -2.443   5.077  0.00  0.00     0.002 A 
ATOM      4  C5  UNL d   1       4.853  -3.828   5.231  0.00  0.00    -0.080 A 
ATOM      5  C6  UNL d   1       5.999  -4.744   4.920  0.00  0.00     0.076 C 
ATOM      6  C7  UNL d   1       3.638  -4.357   5.680  0.00  0.00     0.002 A 
ATOM      7  C8  UNL d   1       2.555  -3.516   5.946  0.00  0.00     0.006 A 
ENDROOT
BRANCH   1   8
ATOM      8  C1  UNL d   1       1.482  -1.234   6.000  0.00  0.00     0.054 C 
ATOM      9  C   UNL d   1       0.180  -2.022   5.978  0.00  0.00     0.018 C 
ENDBRANCH   1   8
TORSDOF 1
ENDMDL
