MODEL 1
REMARK minimizedAffinity 17.9041805
REMARK minimizedRMSD -1
REMARK  1 active torsions:
REMARK  status: ('A' for Active; 'I' for Inactive)
REMARK    1  A    between atoms: C1_2  and  C2_3 
ROOT
ATOM      1  C2  UNL d   1      -3.601   0.232   5.586  0.00  0.00    -0.081 A 
ATOM      2  C3  UNL d   1      -3.010  -1.033   5.479  0.00  0.00     0.006 A 
ATOM      3  C4  UNL d   1      -3.781  -2.189   5.624  0.00  0.00     0.002 A 
ATOM      4  C5  UNL d   1      -5.155  -2.099   5.871  0.00  0.00    -0.080 A 
ATOM      5  C6  UNL d   1      -6.000  -3.332   5.999  0.00  0.00     0.076 C 
ATOM      6  C7  UNL d   1      -5.742  -0.835   5.996  0.00  0.00     0.002 A 
ATOM      7  C8  UNL d   1      -4.972   0.321   5.851  0.00  0.00     0.006 A 
ENDROOT
BRANCH   1   8
ATOM      8  C1  UNL d   1      -2.784   1.480   5.366  0.00  0.00     0.054 C 
ATOM      9  C   UNL d   1      -1.734   1.271   4.284  0.00  0.00     0.018 C 
ENDBRANCH   1   8
TORSDOF 1
ENDMDL
