MODEL 1
REMARK minimizedAffinity 10.4312057
REMARK minimizedRMSD -1
REMARK  1 active torsions:
REMARK  status: ('A' for Active; 'I' for Inactive)
REMARK    1  A    between atoms: C1_2  and  C2_3 
ROOT
ATOM      1  C2  UNL d   1       4.050  -2.490   4.247  0.00  0.00    -0.081 A 
ATOM      2  C3  UNL d   1       3.357  -3.705   4.294  0.00  0.00     0.006 A 
ATOM      3  C4  UNL d   1       3.953  -4.840   4.849  0.00  0.00     0.002 A 
ATOM      4  C5  UNL d   1       5.249  -4.776   5.373  0.00  0.00    -0.080 A 
ATOM      5  C6  UNL d   1       5.890  -5.980   5.998  0.00  0.00     0.076 C 
ATOM      6  C7  UNL d   1       5.949  -3.567   5.310  0.00  0.00     0.002 A 
ATOM      7  C8  UNL d   1       5.353  -2.432   4.755  0.00  0.00     0.006 A 
ENDROOT
BRANCH   1   8
ATOM      8  C1  UNL d   1       3.386  -1.249   3.708  0.00  0.00     0.054 C 
ATOM      9  C   UNL d   1       3.647  -1.084   2.218  0.00  0.00     0.018 C 
ENDBRANCH   1   8
TORSDOF 1
ENDMDL
