MODEL 1
REMARK minimizedAffinity 16.7487869
REMARK minimizedRMSD -1
REMARK  1 active torsions:
REMARK  status: ('A' for Active; 'I' for Inactive)
REMARK    1  A    between atoms: C1_2  and  C2_3 
ROOT
ATOM      1  C2  UNL d   1      -2.901  -1.480   3.900  0.00  0.00    -0.081 A 
ATOM      2  C3  UNL d   1      -2.228  -2.677   3.623  0.00  0.00     0.006 A 
ATOM      3  C4  UNL d   1      -1.810  -2.970   2.323  0.00  0.00     0.002 A 
ATOM      4  C5  UNL d   1      -2.050  -2.070   1.280  0.00  0.00    -0.080 A 
ATOM      5  C6  UNL d   1      -1.580  -2.359  -0.114  0.00  0.00     0.076 C 
ATOM      6  C7  UNL d   1      -2.738  -0.882   1.553  0.00  0.00     0.002 A 
ATOM      7  C8  UNL d   1      -3.157  -0.589   2.852  0.00  0.00     0.006 A 
ENDROOT
BRANCH   1   8
ATOM      8  C1  UNL d   1      -3.296  -1.132   5.312  0.00  0.00     0.054 C 
ATOM      9  C   UNL d   1      -2.608   0.142   5.781  0.00  0.00     0.018 C 
ENDBRANCH   1   8
TORSDOF 1
ENDMDL
