MODEL 1
REMARK minimizedAffinity 7.54125977
REMARK minimizedRMSD -1
REMARK  1 active torsions:
REMARK  status: ('A' for Active; 'I' for Inactive)
REMARK    1  A    between atoms: C1_2  and  C2_3 
ROOT
ATOM      1  C2  UNL d   1       4.571  -1.418  -4.412  0.00  0.00    -0.081 A 
ATOM      2  C3  UNL d   1       3.487  -2.190  -3.977  0.00  0.00     0.006 A 
ATOM      3  C4  UNL d   1       3.274  -3.468  -4.496  0.00  0.00     0.002 A 
ATOM      4  C5  UNL d   1       4.145  -4.000  -5.454  0.00  0.00    -0.080 A 
ATOM      5  C6  UNL d   1       3.945  -5.383  -5.998  0.00  0.00     0.076 C 
ATOM      6  C7  UNL d   1       5.218  -3.222  -5.902  0.00  0.00     0.002 A 
ATOM      7  C8  UNL d   1       5.431  -1.943  -5.383  0.00  0.00     0.006 A 
ENDROOT
BRANCH   1   8
ATOM      8  C1  UNL d   1       4.841  -0.064  -3.806  0.00  0.00     0.054 C 
ATOM      9  C   UNL d   1       4.535   1.054  -4.792  0.00  0.00     0.018 C 
ENDBRANCH   1   8
TORSDOF 1
ENDMDL
