MODEL 1
REMARK minimizedAffinity 2.63690162
REMARK minimizedRMSD -1
REMARK  1 active torsions:
REMARK  status: ('A' for Active; 'I' for Inactive)
REMARK    1  A    between atoms: C1_2  and  C2_3 
ROOT
ATOM      1  C2  UNL d   1       4.725   5.139  -2.158  0.00  0.00    -0.081 A 
ATOM      2  C3  UNL d   1       3.550   4.778  -2.829  0.00  0.00     0.006 A 
ATOM      3  C4  UNL d   1       3.600   3.934  -3.941  0.00  0.00     0.002 A 
ATOM      4  C5  UNL d   1       4.824   3.431  -4.396  0.00  0.00    -0.080 A 
ATOM      5  C6  UNL d   1       4.889   2.500  -5.570  0.00  0.00     0.076 C 
ATOM      6  C7  UNL d   1       6.000   3.806  -3.736  0.00  0.00     0.002 A 
ATOM      7  C8  UNL d   1       5.950   4.650  -2.625  0.00  0.00     0.006 A 
ENDROOT
BRANCH   1   8
ATOM      8  C1  UNL d   1       4.667   5.996  -0.920  0.00  0.00     0.054 C 
ATOM      9  C   UNL d   1       6.000   5.997  -0.185  0.00  0.00     0.018 C 
ENDBRANCH   1   8
TORSDOF 1
ENDMDL
