MODEL 1
REMARK minimizedAffinity -1.80704212
REMARK minimizedRMSD -1
REMARK  0 active torsions:
REMARK  status: ('A' for Active; 'I' for Inactive)
ROOT
ATOM      1  C   UNL d   1       1.679   1.335   1.319  0.00  0.00     0.124 A 
ATOM      2  C1  UNL d   1       2.121   0.481   0.318  0.00  0.00     0.062 A 
ATOM      3  C2  UNL d   1       1.237  -0.413  -0.279  0.00  0.00     0.162 A 
ATOM      4  C3  UNL d   1      -0.098  -0.458   0.123  0.00  0.00    -0.034 A 
ATOM      5  C4  UNL d   1      -0.534   0.404   1.131  0.00  0.00     0.162 A 
ATOM      6  C5  UNL d   1       0.353   1.296   1.724  0.00  0.00     0.062 A 
ATOM      7  F   UNL d   1      -0.075   2.120   2.692  0.00  0.00    -0.097 F 
ATOM      8  F1  UNL d   1      -1.811   0.388   1.542  0.00  0.00    -0.096 F 
ATOM      9  I   UNL d   1      -1.423  -1.794  -0.767  0.00  0.00    -0.060 I 
ATOM     10  F2  UNL d   1       1.691  -1.227  -1.244  0.00  0.00    -0.096 F 
ATOM     11  F3  UNL d   1       3.402   0.517  -0.075  0.00  0.00    -0.097 F 
ATOM     12  F4  UNL d   1       2.532   2.194   1.892  0.00  0.00    -0.092 F 
ENDROOT
TORSDOF 0
ENDMDL
