MODEL 1
REMARK minimizedAffinity 5.8403573
REMARK minimizedRMSD -1
REMARK  0 active torsions:
REMARK  status: ('A' for Active; 'I' for Inactive)
ROOT
ATOM      1  C   UNL d   1       2.242   1.298   1.278  0.00  0.00     0.124 A 
ATOM      2  C1  UNL d   1       2.666   0.330   0.378  0.00  0.00     0.062 A 
ATOM      3  C2  UNL d   1       1.735  -0.444  -0.309  0.00  0.00     0.162 A 
ATOM      4  C3  UNL d   1       0.369  -0.252  -0.099  0.00  0.00    -0.034 A 
ATOM      5  C4  UNL d   1      -0.050   0.723   0.808  0.00  0.00     0.162 A 
ATOM      6  C5  UNL d   1       0.885   1.493   1.492  0.00  0.00     0.062 A 
ATOM      7  F   UNL d   1       0.473   2.428   2.361  0.00  0.00    -0.097 F 
ATOM      8  F1  UNL d   1      -1.355   0.933   1.034  0.00  0.00    -0.096 F 
ATOM      9  I   UNL d   1      -1.027  -1.407  -1.124  0.00  0.00    -0.060 I 
ATOM     10  F2  UNL d   1       2.173  -1.372  -1.173  0.00  0.00    -0.096 F 
ATOM     11  F3  UNL d   1       3.976   0.138   0.170  0.00  0.00    -0.097 F 
ATOM     12  F4  UNL d   1       3.140   2.040   1.938  0.00  0.00    -0.092 F 
ENDROOT
TORSDOF 0
ENDMDL
