MODEL 1
REMARK minimizedAffinity -1.47930408
REMARK minimizedRMSD -1
REMARK  0 active torsions:
REMARK  status: ('A' for Active; 'I' for Inactive)
ROOT
ATOM      1  C   UNL d   1      -0.328   0.725   1.519  0.00  0.00     0.124 A 
ATOM      2  C1  UNL d   1       0.526   1.291   0.582  0.00  0.00     0.062 A 
ATOM      3  C2  UNL d   1       0.651   0.724  -0.683  0.00  0.00     0.162 A 
ATOM      4  C3  UNL d   1      -0.079  -0.416  -1.019  0.00  0.00    -0.034 A 
ATOM      5  C4  UNL d   1      -0.935  -0.980  -0.071  0.00  0.00     0.162 A 
ATOM      6  C5  UNL d   1      -1.057  -0.410   1.192  0.00  0.00     0.062 A 
ATOM      7  F   UNL d   1      -1.882  -0.958   2.096  0.00  0.00    -0.097 F 
ATOM      8  F1  UNL d   1      -1.652  -2.075  -0.361  0.00  0.00    -0.096 F 
ATOM      9  I   UNL d   1       0.106  -1.266  -2.910  0.00  0.00    -0.060 I 
ATOM     10  F2  UNL d   1       1.484   1.292  -1.568  0.00  0.00    -0.096 F 
ATOM     11  F3  UNL d   1       1.232   2.386   0.896  0.00  0.00    -0.097 F 
ATOM     12  F4  UNL d   1      -0.446   1.272   2.736  0.00  0.00    -0.092 F 
ENDROOT
TORSDOF 0
ENDMDL
