MODEL 1
REMARK minimizedAffinity -1.34988666
REMARK minimizedRMSD -1
REMARK  0 active torsions:
REMARK  status: ('A' for Active; 'I' for Inactive)
ROOT
ATOM      1  C   UNL d   1      -2.786  -1.629  -2.280  0.00  0.00     0.124 A 
ATOM      2  C1  UNL d   1      -2.123  -0.654  -3.014  0.00  0.00     0.062 A 
ATOM      3  C2  UNL d   1      -0.940  -0.100  -2.534  0.00  0.00     0.162 A 
ATOM      4  C3  UNL d   1      -0.410  -0.520  -1.313  0.00  0.00    -0.034 A 
ATOM      5  C4  UNL d   1      -1.083  -1.500  -0.581  0.00  0.00     0.162 A 
ATOM      6  C5  UNL d   1      -2.265  -2.050  -1.065  0.00  0.00     0.062 A 
ATOM      7  F   UNL d   1      -2.904  -2.991  -0.355  0.00  0.00    -0.097 F 
ATOM      8  F1  UNL d   1      -0.602  -1.927   0.596  0.00  0.00    -0.096 F 
ATOM      9  I   UNL d   1       1.359   0.305  -0.592  0.00  0.00    -0.060 I 
ATOM     10  F2  UNL d   1      -0.321   0.839  -3.264  0.00  0.00    -0.096 F 
ATOM     11  F3  UNL d   1      -2.624  -0.244  -4.188  0.00  0.00    -0.097 F 
ATOM     12  F4  UNL d   1      -3.925  -2.159  -2.744  0.00  0.00    -0.092 F 
ENDROOT
TORSDOF 0
ENDMDL
