MODEL 1
REMARK minimizedAffinity -4.45757914
REMARK minimizedRMSD -1
REMARK  0 active torsions:
REMARK  status: ('A' for Active; 'I' for Inactive)
ROOT
ATOM      1  C   UNL d   1      -2.758  -2.037  -2.274  0.00  0.00     0.124 A 
ATOM      2  C1  UNL d   1      -2.295  -2.308  -0.994  0.00  0.00     0.062 A 
ATOM      3  C2  UNL d   1      -1.238  -1.575  -0.463  0.00  0.00     0.162 A 
ATOM      4  C3  UNL d   1      -0.636  -0.563  -1.211  0.00  0.00    -0.034 A 
ATOM      5  C4  UNL d   1      -1.107  -0.297  -2.499  0.00  0.00     0.162 A 
ATOM      6  C5  UNL d   1      -2.164  -1.033  -3.025  0.00  0.00     0.062 A 
ATOM      7  F   UNL d   1      -2.610  -0.770  -4.262  0.00  0.00    -0.097 F 
ATOM      8  F1  UNL d   1      -0.552   0.668  -3.246  0.00  0.00    -0.096 F 
ATOM      9  I   UNL d   1       0.945   0.535  -0.421  0.00  0.00    -0.060 I 
ATOM     10  F2  UNL d   1      -0.811  -1.858   0.777  0.00  0.00    -0.096 F 
ATOM     11  F3  UNL d   1      -2.867  -3.278  -0.267  0.00  0.00    -0.097 F 
ATOM     12  F4  UNL d   1      -3.775  -2.744  -2.783  0.00  0.00    -0.092 F 
ENDROOT
TORSDOF 0
ENDMDL
