MODEL 1
REMARK minimizedAffinity -0.512332261
REMARK minimizedRMSD -1
REMARK  0 active torsions:
REMARK  status: ('A' for Active; 'I' for Inactive)
ROOT
ATOM      1  C   UNL d   1      -4.103  -2.464  -2.201  0.00  0.00     0.124 A 
ATOM      2  C1  UNL d   1      -3.710  -2.684  -0.887  0.00  0.00     0.062 A 
ATOM      3  C2  UNL d   1      -2.478  -2.217  -0.438  0.00  0.00     0.162 A 
ATOM      4  C3  UNL d   1      -1.630  -1.525  -1.303  0.00  0.00    -0.034 A 
ATOM      5  C4  UNL d   1      -2.032  -1.309  -2.622  0.00  0.00     0.162 A 
ATOM      6  C5  UNL d   1      -3.264  -1.778  -3.066  0.00  0.00     0.062 A 
ATOM      7  F   UNL d   1      -3.642  -1.565  -4.335  0.00  0.00    -0.097 F 
ATOM      8  F1  UNL d   1      -1.241  -0.648  -3.480  0.00  0.00    -0.096 F 
ATOM      9  I   UNL d   1       0.213  -0.826  -0.635  0.00  0.00    -0.060 I 
ATOM     10  F2  UNL d   1      -2.125  -2.443   0.836  0.00  0.00    -0.096 F 
ATOM     11  F3  UNL d   1      -4.519  -3.348  -0.049  0.00  0.00    -0.097 F 
ATOM     12  F4  UNL d   1      -5.289  -2.916  -2.630  0.00  0.00    -0.092 F 
ENDROOT
TORSDOF 0
ENDMDL
