MODEL 1
REMARK minimizedAffinity -5.52812481
REMARK minimizedRMSD -1
REMARK  0 active torsions:
REMARK  status: ('A' for Active; 'I' for Inactive)
ROOT
ATOM      1  C   UNL d   1       1.655   1.132   0.281  0.00  0.00     0.124 A 
ATOM      2  C1  UNL d   1       0.865   0.006   0.093  0.00  0.00     0.062 A 
ATOM      3  C2  UNL d   1      -0.306  -0.157   0.828  0.00  0.00     0.162 A 
ATOM      4  C3  UNL d   1      -0.695   0.809   1.756  0.00  0.00    -0.034 A 
ATOM      5  C4  UNL d   1       0.105   1.938   1.939  0.00  0.00     0.162 A 
ATOM      6  C5  UNL d   1       1.275   2.096   1.203  0.00  0.00     0.062 A 
ATOM      7  F   UNL d   1       2.037   3.184   1.385  0.00  0.00    -0.097 F 
ATOM      8  F1  UNL d   1      -0.240   2.886   2.823  0.00  0.00    -0.096 F 
ATOM      9  I   UNL d   1      -2.446   0.569   2.855  0.00  0.00    -0.060 I 
ATOM     10  F2  UNL d   1      -1.050  -1.255   0.626  0.00  0.00    -0.096 F 
ATOM     11  F3  UNL d   1       1.231  -0.928  -0.796  0.00  0.00    -0.097 F 
ATOM     12  F4  UNL d   1       2.782   1.285  -0.426  0.00  0.00    -0.092 F 
ENDROOT
TORSDOF 0
ENDMDL
