MODEL 1
REMARK minimizedAffinity -1.42879689
REMARK minimizedRMSD -1
REMARK  0 active torsions:
REMARK  status: ('A' for Active; 'I' for Inactive)
ROOT
ATOM      1  C   UNL d   1      -0.356   1.390   2.001  0.00  0.00     0.124 A 
ATOM      2  C1  UNL d   1       0.839   1.354   1.296  0.00  0.00     0.062 A 
ATOM      3  C2  UNL d   1       0.985   0.499   0.208  0.00  0.00     0.162 A 
ATOM      4  C3  UNL d   1      -0.068  -0.327  -0.184  0.00  0.00    -0.034 A 
ATOM      5  C4  UNL d   1      -1.267  -0.287   0.530  0.00  0.00     0.162 A 
ATOM      6  C5  UNL d   1      -1.408   0.569   1.617  0.00  0.00     0.062 A 
ATOM      7  F   UNL d   1      -2.564   0.602   2.297  0.00  0.00    -0.097 F 
ATOM      8  F1  UNL d   1      -2.300  -1.068   0.180  0.00  0.00    -0.096 F 
ATOM      9  I   UNL d   1       0.146  -1.607  -1.812  0.00  0.00    -0.060 I 
ATOM     10  F2  UNL d   1       2.151   0.486  -0.455  0.00  0.00    -0.096 F 
ATOM     11  F3  UNL d   1       1.857   2.145   1.666  0.00  0.00    -0.097 F 
ATOM     12  F4  UNL d   1      -0.494   2.212   3.049  0.00  0.00    -0.092 F 
ENDROOT
TORSDOF 0
ENDMDL
