MODEL 1
REMARK minimizedAffinity -0.900482893
REMARK minimizedRMSD -1
REMARK  0 active torsions:
REMARK  status: ('A' for Active; 'I' for Inactive)
ROOT
ATOM      1  C   UNL d   1       0.902   1.897   0.941  0.00  0.00     0.124 A 
ATOM      2  C1  UNL d   1      -0.250   1.566   1.640  0.00  0.00     0.062 A 
ATOM      3  C2  UNL d   1      -1.105   0.580   1.154  0.00  0.00     0.162 A 
ATOM      4  C3  UNL d   1      -0.809  -0.084  -0.037  0.00  0.00    -0.034 A 
ATOM      5  C4  UNL d   1       0.351   0.255  -0.735  0.00  0.00     0.162 A 
ATOM      6  C5  UNL d   1       1.202   1.242  -0.246  0.00  0.00     0.062 A 
ATOM      7  F   UNL d   1       2.315   1.560  -0.923  0.00  0.00    -0.097 F 
ATOM      8  F1  UNL d   1       0.665  -0.362  -1.883  0.00  0.00    -0.096 F 
ATOM      9  I   UNL d   1      -2.084  -1.559  -0.765  0.00  0.00    -0.060 I 
ATOM     10  F2  UNL d   1      -2.211   0.280   1.851  0.00  0.00    -0.096 F 
ATOM     11  F3  UNL d   1      -0.543   2.198   2.785  0.00  0.00    -0.097 F 
ATOM     12  F4  UNL d   1       1.722   2.846   1.409  0.00  0.00    -0.092 F 
ENDROOT
TORSDOF 0
ENDMDL
