MODEL 1
REMARK minimizedAffinity -1.92448545
REMARK minimizedRMSD -1
REMARK  0 active torsions:
REMARK  status: ('A' for Active; 'I' for Inactive)
ROOT
ATOM      1  C   UNL d   1      -1.080  -0.353   1.222  0.00  0.00     0.124 A 
ATOM      2  C1  UNL d   1      -0.371   0.728   1.727  0.00  0.00     0.062 A 
ATOM      3  C2  UNL d   1       0.819   1.127   1.124  0.00  0.00     0.162 A 
ATOM      4  C3  UNL d   1       1.307   0.445   0.010  0.00  0.00    -0.034 A 
ATOM      5  C4  UNL d   1       0.588  -0.642  -0.492  0.00  0.00     0.162 A 
ATOM      6  C5  UNL d   1      -0.600  -1.037   0.114  0.00  0.00     0.062 A 
ATOM      7  F   UNL d   1      -1.285  -2.081  -0.375  0.00  0.00    -0.097 F 
ATOM      8  F1  UNL d   1       1.028  -1.320  -1.562  0.00  0.00    -0.096 F 
ATOM      9  I   UNL d   1       3.085   1.039  -0.894  0.00  0.00    -0.060 I 
ATOM     10  F2  UNL d   1       1.484   2.175   1.633  0.00  0.00    -0.096 F 
ATOM     11  F3  UNL d   1      -0.832   1.390   2.798  0.00  0.00    -0.097 F 
ATOM     12  F4  UNL d   1      -2.224  -0.735   1.804  0.00  0.00    -0.092 F 
ENDROOT
TORSDOF 0
ENDMDL
