MODEL 1
REMARK minimizedAffinity -2.09286618
REMARK minimizedRMSD -1
REMARK  0 active torsions:
REMARK  status: ('A' for Active; 'I' for Inactive)
ROOT
ATOM      1  C   UNL d   1       1.917   2.451   1.122  0.00  0.00     0.124 A 
ATOM      2  C1  UNL d   1       0.538   2.386   1.271  0.00  0.00     0.062 A 
ATOM      3  C2  UNL d   1      -0.184   1.365   0.661  0.00  0.00     0.162 A 
ATOM      4  C3  UNL d   1       0.470   0.399  -0.103  0.00  0.00    -0.034 A 
ATOM      5  C4  UNL d   1       1.857   0.471  -0.249  0.00  0.00     0.162 A 
ATOM      6  C5  UNL d   1       2.574   1.494   0.363  0.00  0.00     0.062 A 
ATOM      7  F   UNL d   1       3.906   1.555   0.218  0.00  0.00    -0.097 F 
ATOM      8  F1  UNL d   1       2.518  -0.441  -0.976  0.00  0.00    -0.096 F 
ATOM      9  I   UNL d   1      -0.607  -1.130  -1.016  0.00  0.00    -0.060 I 
ATOM     10  F2  UNL d   1      -1.516   1.327   0.822  0.00  0.00    -0.096 F 
ATOM     11  F3  UNL d   1      -0.100   3.311   2.003  0.00  0.00    -0.097 F 
ATOM     12  F4  UNL d   1       2.609   3.435   1.709  0.00  0.00    -0.092 F 
ENDROOT
TORSDOF 0
ENDMDL
