MODEL 1
REMARK minimizedAffinity 1.49229646
REMARK minimizedRMSD -1
REMARK  0 active torsions:
REMARK  status: ('A' for Active; 'I' for Inactive)
ROOT
ATOM      1  C   UNL d   1       1.457   1.297   1.326  0.00  0.00     0.124 A 
ATOM      2  C1  UNL d   1       1.667   0.798   0.048  0.00  0.00     0.062 A 
ATOM      3  C2  UNL d   1       0.689   0.026  -0.571  0.00  0.00     0.162 A 
ATOM      4  C3  UNL d   1      -0.510  -0.251   0.086  0.00  0.00    -0.034 A 
ATOM      5  C4  UNL d   1      -0.714   0.254   1.372  0.00  0.00     0.162 A 
ATOM      6  C5  UNL d   1       0.267   1.025   1.986  0.00  0.00     0.062 A 
ATOM      7  F   UNL d   1       0.063   1.507   3.221  0.00  0.00    -0.097 F 
ATOM      8  F1  UNL d   1      -1.855   0.008   2.032  0.00  0.00    -0.096 F 
ATOM      9  I   UNL d   1      -1.976  -1.405  -0.837  0.00  0.00    -0.060 I 
ATOM     10  F2  UNL d   1       0.919  -0.444  -1.806  0.00  0.00    -0.096 F 
ATOM     11  F3  UNL d   1       2.817   1.058  -0.591  0.00  0.00    -0.097 F 
ATOM     12  F4  UNL d   1       2.401   2.039   1.920  0.00  0.00    -0.092 F 
ENDROOT
TORSDOF 0
ENDMDL
