MODEL 1
REMARK minimizedAffinity 5.69393063
REMARK minimizedRMSD -1
REMARK  0 active torsions:
REMARK  status: ('A' for Active; 'I' for Inactive)
ROOT
ATOM      1  C   UNL d   1       1.230   0.649   1.700  0.00  0.00     0.124 A 
ATOM      2  C1  UNL d   1      -0.132   0.707   1.964  0.00  0.00     0.062 A 
ATOM      3  C2  UNL d   1      -1.040   0.117   1.090  0.00  0.00     0.162 A 
ATOM      4  C3  UNL d   1      -0.589  -0.538  -0.057  0.00  0.00    -0.034 A 
ATOM      5  C4  UNL d   1       0.782  -0.591  -0.316  0.00  0.00     0.162 A 
ATOM      6  C5  UNL d   1       1.685   0.000   0.561  0.00  0.00     0.062 A 
ATOM      7  F   UNL d   1       3.000  -0.057   0.305  0.00  0.00    -0.097 F 
ATOM      8  F1  UNL d   1       1.249  -1.213  -1.408  0.00  0.00    -0.096 F 
ATOM      9  I   UNL d   1      -1.944  -1.422  -1.366  0.00  0.00    -0.060 I 
ATOM     10  F2  UNL d   1      -2.350   0.188   1.370  0.00  0.00    -0.096 F 
ATOM     11  F3  UNL d   1      -0.574   1.334   3.063  0.00  0.00    -0.097 F 
ATOM     12  F4  UNL d   1       2.101   1.219   2.543  0.00  0.00    -0.092 F 
ENDROOT
TORSDOF 0
ENDMDL
