MODEL 1
REMARK minimizedAffinity 0.928846359
REMARK minimizedRMSD -1
REMARK  0 active torsions:
REMARK  status: ('A' for Active; 'I' for Inactive)
ROOT
ATOM      1  C   UNL d   1       1.312   2.380   1.390  0.00  0.00     0.124 A 
ATOM      2  C1  UNL d   1       0.416   1.576   2.081  0.00  0.00     0.062 A 
ATOM      3  C2  UNL d   1      -0.041   0.389   1.514  0.00  0.00     0.162 A 
ATOM      4  C3  UNL d   1       0.399  -0.001   0.249  0.00  0.00    -0.034 A 
ATOM      5  C4  UNL d   1       1.299   0.814  -0.440  0.00  0.00     0.162 A 
ATOM      6  C5  UNL d   1       1.752   1.998   0.131  0.00  0.00     0.062 A 
ATOM      7  F   UNL d   1       2.618   2.774  -0.538  0.00  0.00    -0.097 F 
ATOM      8  F1  UNL d   1       1.742   0.468  -1.658  0.00  0.00    -0.096 F 
ATOM      9  I   UNL d   1      -0.281  -1.774  -0.602  0.00  0.00    -0.060 I 
ATOM     10  F2  UNL d   1      -0.906  -0.368   2.204  0.00  0.00    -0.096 F 
ATOM     11  F3  UNL d   1      -0.012   1.943   3.298  0.00  0.00    -0.097 F 
ATOM     12  F4  UNL d   1       1.748   3.522   1.938  0.00  0.00    -0.092 F 
ENDROOT
TORSDOF 0
ENDMDL
