MODEL 1
REMARK minimizedAffinity -0.520786166
REMARK minimizedRMSD -1
REMARK  0 active torsions:
REMARK  status: ('A' for Active; 'I' for Inactive)
ROOT
ATOM      1  C   UNL d   1      -0.371   1.508   2.334  0.00  0.00     0.124 A 
ATOM      2  C1  UNL d   1       0.722   1.774   1.520  0.00  0.00     0.062 A 
ATOM      3  C2  UNL d   1       0.883   1.090   0.319  0.00  0.00     0.162 A 
ATOM      4  C3  UNL d   1      -0.053   0.134  -0.078  0.00  0.00    -0.034 A 
ATOM      5  C4  UNL d   1      -1.149  -0.128   0.747  0.00  0.00     0.162 A 
ATOM      6  C5  UNL d   1      -1.305   0.558   1.947  0.00  0.00     0.062 A 
ATOM      7  F   UNL d   1      -2.361   0.300   2.732  0.00  0.00    -0.097 F 
ATOM      8  F1  UNL d   1      -2.067  -1.041   0.396  0.00  0.00    -0.096 F 
ATOM      9  I   UNL d   1       0.184  -0.890  -1.874  0.00  0.00    -0.060 I 
ATOM     10  F2  UNL d   1       1.948   1.367  -0.448  0.00  0.00    -0.096 F 
ATOM     11  F3  UNL d   1       1.626   2.691   1.893  0.00  0.00    -0.097 F 
ATOM     12  F4  UNL d   1      -0.522   2.167   3.490  0.00  0.00    -0.092 F 
ENDROOT
TORSDOF 0
ENDMDL
