MODEL 1
REMARK minimizedAffinity -0.408450723
REMARK minimizedRMSD -1
REMARK  0 active torsions:
REMARK  status: ('A' for Active; 'I' for Inactive)
ROOT
ATOM      1  O1  BZF d   1       0.922   0.667  -0.493  0.00  0.00    -0.204 OA
ATOM      2  C2  BZF d   1       0.002  -0.197   0.070  0.00  0.00     0.174 A 
ATOM      3  C3  BZF d   1      -0.699  -0.838  -0.887  0.00  0.00    -0.012 A 
ATOM      4  C3A BZF d   1      -0.122  -0.413  -2.125  0.00  0.00    -0.107 A 
ATOM      5  C4  BZF d   1      -0.377  -0.714  -3.433  0.00  0.00     0.055 A 
ATOM      6  C5  BZF d   1       0.319  -0.071  -4.407  0.00  0.00    -0.016 A 
ATOM      7  C6  BZF d   1       1.272   0.881  -4.110  0.00  0.00     0.022 A 
ATOM      8  C7  BZF d   1       1.563   1.210  -2.828  0.00  0.00     0.029 A 
ATOM      9  C7A BZF d   1       0.885   0.538  -1.841  0.00  0.00     0.058 A 
ENDROOT
TORSDOF 0
ENDMDL
