MODEL 1
REMARK minimizedAffinity -3.33236694
REMARK minimizedRMSD -1
REMARK  0 active torsions:
REMARK  status: ('A' for Active; 'I' for Inactive)
ROOT
ATOM      1  O1  BZF d   1      -1.474  -0.565   0.040  0.00  0.00    -0.204 OA
ATOM      2  C2  BZF d   1      -0.463  -0.459  -0.895  0.00  0.00     0.174 A 
ATOM      3  C3  BZF d   1       0.570   0.256  -0.405  0.00  0.00    -0.012 A 
ATOM      4  C3A BZF d   1       0.219   0.542   0.952  0.00  0.00    -0.107 A 
ATOM      5  C4  BZF d   1       0.848   1.209   1.965  0.00  0.00     0.055 A 
ATOM      6  C5  BZF d   1       0.203   1.373   3.149  0.00  0.00    -0.016 A 
ATOM      7  C6  BZF d   1      -1.073   0.890   3.354  0.00  0.00     0.022 A 
ATOM      8  C7  BZF d   1      -1.736   0.218   2.381  0.00  0.00     0.029 A 
ATOM      9  C7A BZF d   1      -1.074   0.021   1.194  0.00  0.00     0.058 A 
ENDROOT
TORSDOF 0
ENDMDL
