MODEL 1
REMARK minimizedAffinity -4.06585741
REMARK minimizedRMSD -1
REMARK  0 active torsions:
REMARK  status: ('A' for Active; 'I' for Inactive)
ROOT
ATOM      1  O1  BZF d   1       1.444  -0.879  -0.494  0.00  0.00    -0.204 OA
ATOM      2  C2  BZF d   1       0.371  -0.803  -1.360  0.00  0.00     0.174 A 
ATOM      3  C3  BZF d   1      -0.606  -0.028  -0.846  0.00  0.00    -0.012 A 
ATOM      4  C3A BZF d   1      -0.074   0.482   0.381  0.00  0.00    -0.107 A 
ATOM      5  C4  BZF d   1      -0.564   1.322   1.339  0.00  0.00     0.055 A 
ATOM      6  C5  BZF d   1       0.180   1.562   2.451  0.00  0.00    -0.016 A 
ATOM      7  C6  BZF d   1       1.414   0.974   2.639  0.00  0.00     0.022 A 
ATOM      8  C7  BZF d   1       1.944   0.137   1.714  0.00  0.00     0.029 A 
ATOM      9  C7A BZF d   1       1.209  -0.081   0.575  0.00  0.00     0.058 A 
ENDROOT
TORSDOF 0
ENDMDL
