MODEL 1
REMARK minimizedAffinity -5.07731104
REMARK minimizedRMSD -1
REMARK  0 active torsions:
REMARK  status: ('A' for Active; 'I' for Inactive)
ROOT
ATOM      1  O1  BZF d   1       1.250  -0.838   0.209  0.00  0.00    -0.204 OA
ATOM      2  C2  BZF d   1       0.334  -0.689  -0.815  0.00  0.00     0.174 A 
ATOM      3  C3  BZF d   1      -0.759  -0.026  -0.387  0.00  0.00    -0.012 A 
ATOM      4  C3A BZF d   1      -0.472   0.338   0.966  0.00  0.00    -0.107 A 
ATOM      5  C4  BZF d   1      -1.166   1.027   1.921  0.00  0.00     0.055 A 
ATOM      6  C5  BZF d   1      -0.635   1.146   3.166  0.00  0.00    -0.016 A 
ATOM      7  C6  BZF d   1       0.583   0.586   3.493  0.00  0.00     0.022 A 
ATOM      8  C7  BZF d   1       1.310  -0.102   2.578  0.00  0.00     0.029 A 
ATOM      9  C7A BZF d   1       0.791  -0.196   1.310  0.00  0.00     0.058 A 
ENDROOT
TORSDOF 0
ENDMDL
