MODEL 1
REMARK minimizedAffinity -5.24514723
REMARK minimizedRMSD -1
REMARK  0 active torsions:
REMARK  status: ('A' for Active; 'I' for Inactive)
ROOT
ATOM      1  O1  BZF d   1       1.186  -0.561   0.125  0.00  0.00    -0.204 OA
ATOM      2  C2  BZF d   1       0.046  -0.447  -0.647  0.00  0.00     0.174 A 
ATOM      3  C3  BZF d   1      -0.954   0.122   0.056  0.00  0.00    -0.012 A 
ATOM      4  C3A BZF d   1      -0.377   0.464   1.320  0.00  0.00    -0.107 A 
ATOM      5  C4  BZF d   1      -0.865   1.071   2.442  0.00  0.00     0.055 A 
ATOM      6  C5  BZF d   1      -0.062   1.190   3.532  0.00  0.00    -0.016 A 
ATOM      7  C6  BZF d   1       1.231   0.709   3.537  0.00  0.00     0.022 A 
ATOM      8  C7  BZF d   1       1.761   0.104   2.446  0.00  0.00     0.029 A 
ATOM      9  C7A BZF d   1       0.963   0.012   1.332  0.00  0.00     0.058 A 
ENDROOT
TORSDOF 0
ENDMDL
