MODEL 1
REMARK minimizedAffinity 5.87167311
REMARK minimizedRMSD -1
REMARK  0 active torsions:
REMARK  status: ('A' for Active; 'I' for Inactive)
ROOT
ATOM      1  C   UNL d   1       2.695  -2.386   3.206  0.00  0.00     0.023 A 
ATOM      2  C1  UNL d   1       1.836  -1.315   2.961  0.00  0.00     0.003 A 
ATOM      3  C2  UNL d   1       0.785  -1.454   2.052  0.00  0.00     0.048 A 
ATOM      4  C3  UNL d   1       0.598  -2.669   1.393  0.00  0.00     0.023 A 
ATOM      5  C4  UNL d   1       1.454  -3.744   1.636  0.00  0.00     0.048 A 
ATOM      6  C5  UNL d   1       2.504  -3.599   2.545  0.00  0.00     0.003 A 
ATOM      7  I   UNL d   1      -0.966  -2.880   0.040  0.00  0.00    -0.146 I 
ENDROOT
TORSDOF 0
ENDMDL
