MODEL 1
REMARK minimizedAffinity 3.35464835
REMARK minimizedRMSD -1
REMARK  0 active torsions:
REMARK  status: ('A' for Active; 'I' for Inactive)
ROOT
ATOM      1  C   UNL d   1       1.935  -2.534   3.213  0.00  0.00     0.023 A 
ATOM      2  C1  UNL d   1       2.883  -1.610   3.652  0.00  0.00     0.003 A 
ATOM      3  C2  UNL d   1       3.050  -0.402   2.971  0.00  0.00     0.048 A 
ATOM      4  C3  UNL d   1       2.264  -0.125   1.853  0.00  0.00     0.023 A 
ATOM      5  C4  UNL d   1       1.314  -1.046   1.411  0.00  0.00     0.048 A 
ATOM      6  C5  UNL d   1       1.151  -2.253   2.094  0.00  0.00     0.003 A 
ATOM      7  I   UNL d   1       2.510   1.672   0.838  0.00  0.00    -0.146 I 
ENDROOT
TORSDOF 0
ENDMDL
