MODEL 1
REMARK minimizedAffinity 10.5470457
REMARK minimizedRMSD -1
REMARK  0 active torsions:
REMARK  status: ('A' for Active; 'I' for Inactive)
ROOT
ATOM      1  C   UNL d   1      -0.920  -1.412  -1.100  0.00  0.00     0.023 A 
ATOM      2  C1  UNL d   1      -1.386  -0.591  -0.074  0.00  0.00     0.003 A 
ATOM      3  C2  UNL d   1      -0.537  -0.231   0.975  0.00  0.00     0.048 A 
ATOM      4  C3  UNL d   1       0.778  -0.695   0.990  0.00  0.00     0.023 A 
ATOM      5  C4  UNL d   1       1.249  -1.516  -0.036  0.00  0.00     0.048 A 
ATOM      6  C5  UNL d   1       0.396  -1.874  -1.081  0.00  0.00     0.003 A 
ATOM      7  I   UNL d   1       2.044  -0.161   2.549  0.00  0.00    -0.146 I 
ENDROOT
TORSDOF 0
ENDMDL
