MODEL 1
REMARK minimizedAffinity 7.78746748
REMARK minimizedRMSD -1
REMARK  0 active torsions:
REMARK  status: ('A' for Active; 'I' for Inactive)
ROOT
ATOM      1  C   UNL d   1       2.434   2.080   3.297  0.00  0.00     0.023 A 
ATOM      2  C1  UNL d   1       2.480   1.073   2.333  0.00  0.00     0.003 A 
ATOM      3  C2  UNL d   1       2.424  -0.268   2.718  0.00  0.00     0.048 A 
ATOM      4  C3  UNL d   1       2.320  -0.595   4.070  0.00  0.00     0.023 A 
ATOM      5  C4  UNL d   1       2.272   0.409   5.038  0.00  0.00     0.048 A 
ATOM      6  C5  UNL d   1       2.329   1.749   4.648  0.00  0.00     0.003 A 
ATOM      7  I   UNL d   1       2.236  -2.590   4.646  0.00  0.00    -0.146 I 
ENDROOT
TORSDOF 0
ENDMDL
