MODEL 1
REMARK minimizedAffinity 2.59008646
REMARK minimizedRMSD -1
REMARK  0 active torsions:
REMARK  status: ('A' for Active; 'I' for Inactive)
ROOT
ATOM      1  C   UNL d   1       1.863  -1.891   3.219  0.00  0.00     0.023 A 
ATOM      2  C1  UNL d   1       2.891  -0.965   3.035  0.00  0.00     0.003 A 
ATOM      3  C2  UNL d   1       4.078  -1.085   3.761  0.00  0.00     0.048 A 
ATOM      4  C3  UNL d   1       4.231  -2.133   4.668  0.00  0.00     0.023 A 
ATOM      5  C4  UNL d   1       3.206  -3.062   4.854  0.00  0.00     0.048 A 
ATOM      6  C5  UNL d   1       2.020  -2.937   4.127  0.00  0.00     0.003 A 
ATOM      7  I   UNL d   1       5.997  -2.313   5.749  0.00  0.00    -0.146 I 
ENDROOT
TORSDOF 0
ENDMDL
