MODEL 1
REMARK minimizedAffinity 1.31775045
REMARK minimizedRMSD -1
REMARK  0 active torsions:
REMARK  status: ('A' for Active; 'I' for Inactive)
ROOT
ATOM      1  C   UNL d   1       1.630  -1.935   3.307  0.00  0.00     0.023 A 
ATOM      2  C1  UNL d   1       1.868  -2.919   4.266  0.00  0.00     0.003 A 
ATOM      3  C2  UNL d   1       3.122  -3.015   4.873  0.00  0.00     0.048 A 
ATOM      4  C3  UNL d   1       4.133  -2.123   4.517  0.00  0.00     0.023 A 
ATOM      5  C4  UNL d   1       3.898  -1.136   3.558  0.00  0.00     0.048 A 
ATOM      6  C5  UNL d   1       2.643  -1.045   2.953  0.00  0.00     0.003 A 
ATOM      7  I   UNL d   1       6.000  -2.264   5.419  0.00  0.00    -0.146 I 
ENDROOT
TORSDOF 0
ENDMDL
