MODEL 1
REMARK minimizedAffinity 3.07788944
REMARK minimizedRMSD -1
REMARK  0 active torsions:
REMARK  status: ('A' for Active; 'I' for Inactive)
ROOT
ATOM      1  C   UNL d   1       1.951  -1.302   2.902  0.00  0.00     0.023 A 
ATOM      2  C1  UNL d   1       3.194  -1.108   2.298  0.00  0.00     0.003 A 
ATOM      3  C2  UNL d   1       4.355  -1.562   2.926  0.00  0.00     0.048 A 
ATOM      4  C3  UNL d   1       4.267  -2.211   4.157  0.00  0.00     0.023 A 
ATOM      5  C4  UNL d   1       3.026  -2.408   4.764  0.00  0.00     0.048 A 
ATOM      6  C5  UNL d   1       1.868  -1.951   4.133  0.00  0.00     0.003 A 
ATOM      7  I   UNL d   1       5.995  -2.888   5.093  0.00  0.00    -0.146 I 
ENDROOT
TORSDOF 0
ENDMDL
