MODEL 1
REMARK minimizedAffinity 10.5707941
REMARK minimizedRMSD -1
REMARK  0 active torsions:
REMARK  status: ('A' for Active; 'I' for Inactive)
ROOT
ATOM      1  C   UNL d   1       0.438   3.734  -0.068  0.00  0.00     0.023 A 
ATOM      2  C1  UNL d   1       0.043   4.014   1.240  0.00  0.00     0.003 A 
ATOM      3  C2  UNL d   1       0.671   3.376   2.312  0.00  0.00     0.048 A 
ATOM      4  C3  UNL d   1       1.694   2.460   2.068  0.00  0.00     0.023 A 
ATOM      5  C4  UNL d   1       2.092   2.177   0.761  0.00  0.00     0.048 A 
ATOM      6  C5  UNL d   1       1.461   2.817  -0.308  0.00  0.00     0.003 A 
ATOM      7  I   UNL d   1       2.630   1.509   3.662  0.00  0.00    -0.146 I 
ENDROOT
TORSDOF 0
ENDMDL
