MODEL 1
REMARK minimizedAffinity 5.41680765
REMARK minimizedRMSD -1
REMARK  0 active torsions:
REMARK  status: ('A' for Active; 'I' for Inactive)
ROOT
ATOM      1  C   UNL d   1       1.660  -2.204   3.803  0.00  0.00     0.023 A 
ATOM      2  C1  UNL d   1       1.849  -2.981   4.946  0.00  0.00     0.003 A 
ATOM      3  C2  UNL d   1       3.094  -3.004   5.578  0.00  0.00     0.048 A 
ATOM      4  C3  UNL d   1       4.146  -2.248   5.061  0.00  0.00     0.023 A 
ATOM      5  C4  UNL d   1       3.961  -1.468   3.918  0.00  0.00     0.048 A 
ATOM      6  C5  UNL d   1       2.714  -1.449   3.290  0.00  0.00     0.003 A 
ATOM      7  I   UNL d   1       6.000  -2.281   6.000  0.00  0.00    -0.146 I 
ENDROOT
TORSDOF 0
ENDMDL
