MODEL 1
REMARK minimizedAffinity -4.11338949
REMARK minimizedRMSD -1
REMARK  0 active torsions:
REMARK  status: ('A' for Active; 'I' for Inactive)
ROOT
ATOM      1  O1  BZF d   1      -1.631   2.417   0.686  0.00  0.00    -0.204 OA
ATOM      2  C2  BZF d   1      -1.505   2.773   2.015  0.00  0.00     0.174 A 
ATOM      3  C3  BZF d   1      -0.688   1.919   2.664  0.00  0.00    -0.012 A 
ATOM      4  C3A BZF d   1      -0.203   1.024   1.658  0.00  0.00    -0.107 A 
ATOM      5  C4  BZF d   1       0.657  -0.036   1.680  0.00  0.00     0.055 A 
ATOM      6  C5  BZF d   1       0.862  -0.744   0.538  0.00  0.00    -0.016 A 
ATOM      7  C6  BZF d   1       0.219  -0.424  -0.640  0.00  0.00     0.022 A 
ATOM      8  C7  BZF d   1      -0.640   0.622  -0.712  0.00  0.00     0.029 A 
ATOM      9  C7A BZF d   1      -0.823   1.360   0.432  0.00  0.00     0.058 A 
ENDROOT
TORSDOF 0
ENDMDL
