MODEL 1
REMARK minimizedAffinity -5.50433254
REMARK minimizedRMSD -1
REMARK  0 active torsions:
REMARK  status: ('A' for Active; 'I' for Inactive)
ROOT
ATOM      1  O1  BZF d   1      -0.520   1.828  -1.357  0.00  0.00    -0.204 OA
ATOM      2  C2  BZF d   1       0.147   0.920  -2.156  0.00  0.00     0.174 A 
ATOM      3  C3  BZF d   1       0.775  -0.008  -1.406  0.00  0.00    -0.012 A 
ATOM      4  C3A BZF d   1       0.406   0.288  -0.055  0.00  0.00    -0.107 A 
ATOM      5  C4  BZF d   1       0.700  -0.290   1.146  0.00  0.00     0.055 A 
ATOM      6  C5  BZF d   1       0.240   0.287   2.287  0.00  0.00    -0.016 A 
ATOM      7  C6  BZF d   1      -0.513   1.443   2.264  0.00  0.00     0.022 A 
ATOM      8  C7  BZF d   1      -0.835   2.050   1.095  0.00  0.00     0.029 A 
ATOM      9  C7A BZF d   1      -0.398   1.451  -0.061  0.00  0.00     0.058 A 
ENDROOT
TORSDOF 0
ENDMDL
