MODEL 1
REMARK minimizedAffinity -3.43166518
REMARK minimizedRMSD -1
REMARK  0 active torsions:
REMARK  status: ('A' for Active; 'I' for Inactive)
ROOT
ATOM      1  O1  BZF d   1      -0.734  -3.568   0.931  0.00  0.00    -0.204 OA
ATOM      2  C2  BZF d   1      -0.434  -4.018  -0.340  0.00  0.00     0.174 A 
ATOM      3  C3  BZF d   1      -0.024  -3.001  -1.124  0.00  0.00    -0.012 A 
ATOM      4  C3A BZF d   1       0.018  -1.857  -0.265  0.00  0.00    -0.107 A 
ATOM      5  C4  BZF d   1       0.364  -0.550  -0.457  0.00  0.00     0.055 A 
ATOM      6  C5  BZF d   1       0.223   0.329   0.570  0.00  0.00    -0.016 A 
ATOM      7  C6  BZF d   1      -0.264  -0.063   1.799  0.00  0.00     0.022 A 
ATOM      8  C7  BZF d   1      -0.616  -1.350   2.040  0.00  0.00     0.029 A 
ATOM      9  C7A BZF d   1      -0.444  -2.247   1.014  0.00  0.00     0.058 A 
ENDROOT
TORSDOF 0
ENDMDL
