MODEL 1
REMARK minimizedAffinity -2.88656545
REMARK minimizedRMSD -1
REMARK  0 active torsions:
REMARK  status: ('A' for Active; 'I' for Inactive)
ROOT
ATOM      1  O1  BZF d   1       0.222   1.649  -1.473  0.00  0.00    -0.204 OA
ATOM      2  C2  BZF d   1       0.597   0.487  -2.120  0.00  0.00     0.174 A 
ATOM      3  C3  BZF d   1       0.811  -0.506  -1.233  0.00  0.00    -0.012 A 
ATOM      4  C3A BZF d   1       0.464   0.046   0.041  0.00  0.00    -0.107 A 
ATOM      5  C4  BZF d   1       0.452  -0.458   1.310  0.00  0.00     0.055 A 
ATOM      6  C5  BZF d   1       0.131   0.364   2.344  0.00  0.00    -0.016 A 
ATOM      7  C6  BZF d   1      -0.177   1.694   2.145  0.00  0.00     0.022 A 
ATOM      8  C7  BZF d   1      -0.182   2.238   0.904  0.00  0.00     0.029 A 
ATOM      9  C7A BZF d   1       0.109   1.402  -0.146  0.00  0.00     0.058 A 
ENDROOT
TORSDOF 0
ENDMDL
