MODEL 1
REMARK minimizedAffinity -3.24107718
REMARK minimizedRMSD -1
REMARK  0 active torsions:
REMARK  status: ('A' for Active; 'I' for Inactive)
ROOT
ATOM      1  O1  BZF d   1      -0.187  -1.932  -0.060  0.00  0.00    -0.204 OA
ATOM      2  C2  BZF d   1       0.366  -1.552  -1.268  0.00  0.00     0.174 A 
ATOM      3  C3  BZF d   1       0.583  -0.221  -1.297  0.00  0.00    -0.012 A 
ATOM      4  C3A BZF d   1       0.223   0.248   0.006  0.00  0.00    -0.107 A 
ATOM      5  C4  BZF d   1       0.235   1.479   0.597  0.00  0.00     0.055 A 
ATOM      6  C5  BZF d   1      -0.249   1.609   1.861  0.00  0.00    -0.016 A 
ATOM      7  C6  BZF d   1      -0.755   0.532   2.559  0.00  0.00     0.022 A 
ATOM      8  C7  BZF d   1      -0.783  -0.709   2.016  0.00  0.00     0.029 A 
ATOM      9  C7A BZF d   1      -0.264  -0.850   0.752  0.00  0.00     0.058 A 
ENDROOT
TORSDOF 0
ENDMDL
