MODEL 1
REMARK minimizedAffinity -5.31116056
REMARK minimizedRMSD -1
REMARK  0 active torsions:
REMARK  status: ('A' for Active; 'I' for Inactive)
ROOT
ATOM      1  O1  BZF d   1      -1.219  -0.497  -0.182  0.00  0.00    -0.204 OA
ATOM      2  C2  BZF d   1      -0.125   0.291   0.116  0.00  0.00     0.174 A 
ATOM      3  C3  BZF d   1       1.019  -0.414   0.003  0.00  0.00    -0.012 A 
ATOM      4  C3A BZF d   1       0.621  -1.701  -0.480  0.00  0.00    -0.107 A 
ATOM      5  C4  BZF d   1       1.308  -2.835  -0.806  0.00  0.00     0.055 A 
ATOM      6  C5  BZF d   1       0.615  -3.943  -1.177  0.00  0.00    -0.016 A 
ATOM      7  C6  BZF d   1      -0.764  -3.955  -1.228  0.00  0.00     0.022 A 
ATOM      8  C7  BZF d   1      -1.489  -2.852  -0.919  0.00  0.00     0.029 A 
ATOM      9  C7A BZF d   1      -0.790  -1.721  -0.575  0.00  0.00     0.058 A 
ENDROOT
TORSDOF 0
ENDMDL
