MODEL 1
REMARK minimizedAffinity 5.10836506
REMARK minimizedRMSD -1
REMARK  0 active torsions:
REMARK  status: ('A' for Active; 'I' for Inactive)
ROOT
ATOM      1  O1  BZF d   1       1.125   0.601   0.290  0.00  0.00    -0.204 OA
ATOM      2  C2  BZF d   1       0.765  -0.315   1.260  0.00  0.00     0.174 A 
ATOM      3  C3  BZF d   1      -0.490  -0.762   1.053  0.00  0.00    -0.012 A 
ATOM      4  C3A BZF d   1      -0.910  -0.152  -0.171  0.00  0.00    -0.107 A 
ATOM      5  C4  BZF d   1      -2.058  -0.220  -0.908  0.00  0.00     0.055 A 
ATOM      6  C5  BZF d   1      -2.177   0.556  -2.018  0.00  0.00    -0.016 A 
ATOM      7  C6  BZF d   1      -1.172   1.413  -2.416  0.00  0.00     0.022 A 
ATOM      8  C7  BZF d   1      -0.013   1.510  -1.720  0.00  0.00     0.029 A 
ATOM      9  C7A BZF d   1       0.124   0.703  -0.617  0.00  0.00     0.058 A 
ENDROOT
TORSDOF 0
ENDMDL
