MODEL 1
REMARK minimizedAffinity -2.37423921
REMARK minimizedRMSD -1
REMARK  0 active torsions:
REMARK  status: ('A' for Active; 'I' for Inactive)
ROOT
ATOM      1  O1  BZF d   1       0.339  -1.276   0.247  0.00  0.00    -0.204 OA
ATOM      2  C2  BZF d   1       0.211  -0.128  -0.509  0.00  0.00     0.174 A 
ATOM      3  C3  BZF d   1      -0.303  -0.409  -1.724  0.00  0.00    -0.012 A 
ATOM      4  C3A BZF d   1      -0.595  -1.810  -1.694  0.00  0.00    -0.107 A 
ATOM      5  C4  BZF d   1      -1.136  -2.676  -2.600  0.00  0.00     0.055 A 
ATOM      6  C5  BZF d   1      -1.218  -3.995  -2.286  0.00  0.00    -0.016 A 
ATOM      7  C6  BZF d   1      -0.764  -4.483  -1.078  0.00  0.00     0.022 A 
ATOM      8  C7  BZF d   1      -0.225  -3.662  -0.144  0.00  0.00     0.029 A 
ATOM      9  C7A BZF d   1      -0.170  -2.323  -0.446  0.00  0.00     0.058 A 
ENDROOT
TORSDOF 0
ENDMDL
