MODEL 1
REMARK minimizedAffinity -4.49234438
REMARK minimizedRMSD -1
REMARK  0 active torsions:
REMARK  status: ('A' for Active; 'I' for Inactive)
ROOT
ATOM      1  O1  BZF d   1       0.538   0.392  -1.187  0.00  0.00    -0.204 OA
ATOM      2  C2  BZF d   1       0.031   1.253  -2.141  0.00  0.00     0.174 A 
ATOM      3  C3  BZF d   1      -0.791   2.161  -1.578  0.00  0.00    -0.012 A 
ATOM      4  C3A BZF d   1      -0.726   1.906  -0.172  0.00  0.00    -0.107 A 
ATOM      5  C4  BZF d   1      -1.311   2.489   0.916  0.00  0.00     0.055 A 
ATOM      6  C5  BZF d   1      -1.097   1.955   2.147  0.00  0.00    -0.016 A 
ATOM      7  C6  BZF d   1      -0.309   0.837   2.326  0.00  0.00     0.022 A 
ATOM      8  C7  BZF d   1       0.297   0.227   1.278  0.00  0.00     0.029 A 
ATOM      9  C7A BZF d   1       0.109   0.784   0.037  0.00  0.00     0.058 A 
ENDROOT
TORSDOF 0
ENDMDL
