MODEL 1
REMARK minimizedAffinity 1.56820893
REMARK minimizedRMSD -1
REMARK  0 active torsions:
REMARK  status: ('A' for Active; 'I' for Inactive)
ROOT
ATOM      1  O1  BZF d   1       0.266  -0.732  -3.423  0.00  0.00    -0.204 OA
ATOM      2  C2  BZF d   1       0.970  -0.331  -2.304  0.00  0.00     0.174 A 
ATOM      3  C3  BZF d   1       0.781  -1.195  -1.286  0.00  0.00    -0.012 A 
ATOM      4  C3A BZF d   1      -0.021  -2.248  -1.829  0.00  0.00    -0.107 A 
ATOM      5  C4  BZF d   1      -0.527  -3.405  -1.311  0.00  0.00     0.055 A 
ATOM      6  C5  BZF d   1      -1.333  -4.179  -2.085  0.00  0.00    -0.016 A 
ATOM      7  C6  BZF d   1      -1.657  -3.823  -3.378  0.00  0.00     0.022 A 
ATOM      8  C7  BZF d   1      -1.174  -2.686  -3.937  0.00  0.00     0.029 A 
ATOM      9  C7A BZF d   1      -0.333  -1.919  -3.169  0.00  0.00     0.058 A 
ENDROOT
TORSDOF 0
ENDMDL
