MODEL 1
REMARK minimizedAffinity -3.33603406
REMARK minimizedRMSD -1
REMARK  2 active torsions:
REMARK  status: ('A' for Active; 'I' for Inactive)
REMARK    1  A    between atoms: C2'_3  and  C1'_4 
REMARK    2  A    between atoms: C1'_4  and  C1_5 
ROOT
ATOM      1  C1  I4B d   1      -5.012   1.718  -0.133  0.00  0.00    -0.075 A 
ATOM      2  C2  I4B d   1      -3.715   1.861   0.292  0.00  0.00     0.003 A 
ATOM      3  C3  I4B d   1      -3.371   2.894   1.197  0.00  0.00     0.002 A 
ATOM      4  C4  I4B d   1      -4.339   3.787   1.609  0.00  0.00    -0.004 A 
ATOM      5  C5  I4B d   1      -5.658   3.627   1.195  0.00  0.00     0.002 A 
ATOM      6  C6  I4B d   1      -6.000   2.579   0.328  0.00  0.00     0.003 A 
ENDROOT
BRANCH   1   7
ATOM      7  C1' I4B d   1      -5.334   0.637  -1.115  0.00  0.00     0.060 C 
BRANCH   7   8
ATOM      8  C2' I4B d   1      -5.099   1.185  -2.507  0.00  0.00    -0.013 C 
ATOM      9  C4' I4B d   1      -6.000   2.358  -2.791  0.00  0.00     0.013 C 
ATOM     10  C3' I4B d   1      -3.654   1.573  -2.614  0.00  0.00     0.013 C 
ENDBRANCH   7   8
ENDBRANCH   1   7
TORSDOF 2
ENDMDL
