MODEL 1
REMARK minimizedAffinity 8.87905788
REMARK minimizedRMSD -1
REMARK  2 active torsions:
REMARK  status: ('A' for Active; 'I' for Inactive)
REMARK    1  A    between atoms: C2'_3  and  C1'_4 
REMARK    2  A    between atoms: C1'_4  and  C1_5 
ROOT
ATOM      1  C1  I4B d   1       3.143  -5.926  -3.001  0.00  0.00    -0.075 A 
ATOM      2  C2  I4B d   1       2.747  -5.934  -4.315  0.00  0.00     0.003 A 
ATOM      3  C3  I4B d   1       3.712  -5.990  -5.350  0.00  0.00     0.002 A 
ATOM      4  C4  I4B d   1       5.054  -5.985  -5.029  0.00  0.00    -0.004 A 
ATOM      5  C5  I4B d   1       5.453  -6.000  -3.695  0.00  0.00     0.002 A 
ATOM      6  C6  I4B d   1       4.491  -5.982  -2.674  0.00  0.00     0.003 A 
ENDROOT
BRANCH   1   7
ATOM      7  C1' I4B d   1       2.098  -5.833  -1.934  0.00  0.00     0.060 C 
BRANCH   7   8
ATOM      8  C2' I4B d   1       2.775  -5.379  -0.657  0.00  0.00    -0.013 C 
ATOM      9  C4' I4B d   1       2.000  -5.821   0.557  0.00  0.00     0.013 C 
ATOM     10  C3' I4B d   1       4.165  -5.940  -0.645  0.00  0.00     0.013 C 
ENDBRANCH   7   8
ENDBRANCH   1   7
TORSDOF 2
ENDMDL
