MODEL 1
REMARK minimizedAffinity 11.7255487
REMARK minimizedRMSD -1
REMARK  2 active torsions:
REMARK  status: ('A' for Active; 'I' for Inactive)
REMARK    1  A    between atoms: C2'_3  and  C1'_4 
REMARK    2  A    between atoms: C1'_4  and  C1_5 
ROOT
ATOM      1  C1  I4B d   1       4.073  -5.926  -3.592  0.00  0.00    -0.075 A 
ATOM      2  C2  I4B d   1       2.701  -5.971  -3.598  0.00  0.00     0.003 A 
ATOM      3  C3  I4B d   1       1.990  -5.872  -4.819  0.00  0.00     0.002 A 
ATOM      4  C4  I4B d   1       2.684  -5.680  -5.996  0.00  0.00    -0.004 A 
ATOM      5  C5  I4B d   1       4.075  -5.658  -5.991  0.00  0.00     0.002 A 
ATOM      6  C6  I4B d   1       4.775  -5.793  -4.783  0.00  0.00     0.003 A 
ENDROOT
BRANCH   1   7
ATOM      7  C1' I4B d   1       4.790  -6.000  -2.282  0.00  0.00     0.060 C 
BRANCH   7   8
ATOM      8  C2' I4B d   1       4.213  -4.934  -1.373  0.00  0.00    -0.013 C 
ATOM      9  C4' I4B d   1       2.839  -4.517  -1.826  0.00  0.00     0.013 C 
ATOM     10  C3' I4B d   1       4.180  -5.484   0.022  0.00  0.00     0.013 C 
ENDBRANCH   7   8
ENDBRANCH   1   7
TORSDOF 2
ENDMDL
