MODEL 1
REMARK minimizedAffinity 3.05674839
REMARK minimizedRMSD -1
REMARK  2 active torsions:
REMARK  status: ('A' for Active; 'I' for Inactive)
REMARK    1  A    between atoms: C2'_3  and  C1'_4 
REMARK    2  A    between atoms: C1'_4  and  C1_5 
ROOT
ATOM      1  C1  I4B d   1       4.790  -5.961  -3.212  0.00  0.00    -0.075 A 
ATOM      2  C2  I4B d   1       3.419  -5.964  -3.266  0.00  0.00     0.003 A 
ATOM      3  C3  I4B d   1       2.754  -5.996  -4.516  0.00  0.00     0.002 A 
ATOM      4  C4  I4B d   1       3.495  -5.974  -5.680  0.00  0.00    -0.004 A 
ATOM      5  C5  I4B d   1       4.886  -5.994  -5.624  0.00  0.00     0.002 A 
ATOM      6  C6  I4B d   1       5.538  -6.000  -4.382  0.00  0.00     0.003 A 
ENDROOT
BRANCH   1   7
ATOM      7  C1' I4B d   1       5.459  -5.893  -1.876  0.00  0.00     0.060 C 
BRANCH   7   8
ATOM      8  C2' I4B d   1       4.381  -5.927  -0.812  0.00  0.00    -0.013 C 
ATOM      9  C4' I4B d   1       4.979  -6.000   0.568  0.00  0.00     0.013 C 
ATOM     10  C3' I4B d   1       3.533  -4.701  -0.972  0.00  0.00     0.013 C 
ENDBRANCH   7   8
ENDBRANCH   1   7
TORSDOF 2
ENDMDL
