MODEL 1
REMARK minimizedAffinity 12.8990946
REMARK minimizedRMSD -1
REMARK  2 active torsions:
REMARK  status: ('A' for Active; 'I' for Inactive)
REMARK    1  A    between atoms: C2'_3  and  C1'_4 
REMARK    2  A    between atoms: C1'_4  and  C1_5 
ROOT
ATOM      1  C1  I4B d   1       1.571  -1.423   4.024  0.00  0.00    -0.075 A 
ATOM      2  C2  I4B d   1       1.388  -0.222   4.662  0.00  0.00     0.003 A 
ATOM      3  C3  I4B d   1       1.311   0.979   3.915  0.00  0.00     0.002 A 
ATOM      4  C4  I4B d   1       1.470   0.937   2.545  0.00  0.00    -0.004 A 
ATOM      5  C5  I4B d   1       1.632  -0.284   1.897  0.00  0.00     0.002 A 
ATOM      6  C6  I4B d   1       1.671  -1.473   2.640  0.00  0.00     0.003 A 
ENDROOT
BRANCH   1   7
ATOM      7  C1' I4B d   1       1.681  -2.667   4.847  0.00  0.00     0.060 C 
BRANCH   7   8
ATOM      8  C2' I4B d   1       1.297  -3.842   3.971  0.00  0.00    -0.013 C 
ATOM      9  C4' I4B d   1       2.472  -4.328   3.163  0.00  0.00     0.013 C 
ATOM     10  C3' I4B d   1       0.764  -4.927   4.859  0.00  0.00     0.013 C 
ENDBRANCH   7   8
ENDBRANCH   1   7
TORSDOF 2
ENDMDL
