MODEL 1
REMARK minimizedAffinity 1.47289622
REMARK minimizedRMSD -1
REMARK  2 active torsions:
REMARK  status: ('A' for Active; 'I' for Inactive)
REMARK    1  A    between atoms: C2'_3  and  C1'_4 
REMARK    2  A    between atoms: C1'_4  and  C1_5 
ROOT
ATOM      1  C1  I4B d   1       1.994  -1.713   3.287  0.00  0.00    -0.075 A 
ATOM      2  C2  I4B d   1       1.345  -2.876   2.951  0.00  0.00     0.003 A 
ATOM      3  C3  I4B d   1       1.636  -4.079   3.639  0.00  0.00     0.002 A 
ATOM      4  C4  I4B d   1       2.611  -4.085   4.615  0.00  0.00    -0.004 A 
ATOM      5  C5  I4B d   1       3.251  -2.901   4.970  0.00  0.00     0.002 A 
ATOM      6  C6  I4B d   1       2.932  -1.705   4.311  0.00  0.00     0.003 A 
ENDROOT
BRANCH   1   7
ATOM      7  C1' I4B d   1       1.686  -0.468   2.518  0.00  0.00     0.060 C 
BRANCH   7   8
ATOM      8  C2' I4B d   1       2.791   0.533   2.788  0.00  0.00    -0.013 C 
ATOM      9  C4' I4B d   1       3.457   0.969   1.510  0.00  0.00     0.013 C 
ATOM     10  C3' I4B d   1       2.191   1.701   3.512  0.00  0.00     0.013 C 
ENDBRANCH   7   8
ENDBRANCH   1   7
TORSDOF 2
ENDMDL
