MODEL 1
REMARK minimizedAffinity -1.25864661
REMARK minimizedRMSD -1
REMARK  0 active torsions:
REMARK  status: ('A' for Active; 'I' for Inactive)
ROOT
ATOM      1  C4' PXY d   1       4.053  -4.603  -0.491  0.00  0.00     0.077 C 
ATOM      2  C1' PXY d   1      -0.470  -1.376   1.101  0.00  0.00     0.077 C 
ATOM      3  C1  PXY d   1       0.722  -2.212   0.678  0.00  0.00    -0.082 A 
ATOM      4  C2  PXY d   1       0.575  -3.514   0.495  0.00  0.00     0.003 A 
ATOM      5  C3  PXY d   1       1.650  -4.290   0.144  0.00  0.00     0.003 A 
ATOM      6  C4  PXY d   1       2.875  -3.719  -0.074  0.00  0.00    -0.082 A 
ATOM      7  C5  PXY d   1       3.030  -2.389   0.101  0.00  0.00     0.003 A 
ATOM      8  C6  PXY d   1       1.936  -1.625   0.498  0.00  0.00     0.003 A 
ENDROOT
TORSDOF 0
ENDMDL
