MODEL 1
REMARK minimizedAffinity 8.70282936
REMARK minimizedRMSD -1
REMARK  0 active torsions:
REMARK  status: ('A' for Active; 'I' for Inactive)
ROOT
ATOM      1  C4' PXY d   1       3.649   0.020   1.868  0.00  0.00     0.077 C 
ATOM      2  C1' PXY d   1      -1.699  -1.536   0.321  0.00  0.00     0.077 C 
ATOM      3  C1  PXY d   1      -0.301  -1.118   0.735  0.00  0.00    -0.082 A 
ATOM      4  C2  PXY d   1       0.720  -1.368  -0.068  0.00  0.00     0.003 A 
ATOM      5  C3  PXY d   1       1.995  -1.026   0.304  0.00  0.00     0.003 A 
ATOM      6  C4  PXY d   1       2.220  -0.374   1.487  0.00  0.00    -0.082 A 
ATOM      7  C5  PXY d   1       1.181  -0.107   2.307  0.00  0.00     0.003 A 
ATOM      8  C6  PXY d   1      -0.100  -0.499   1.929  0.00  0.00     0.003 A 
ENDROOT
TORSDOF 0
ENDMDL
