MODEL 1
REMARK minimizedAffinity 2.97655964
REMARK minimizedRMSD -1
REMARK  0 active torsions:
REMARK  status: ('A' for Active; 'I' for Inactive)
ROOT
ATOM      1  C4' PXY d   1       4.045  -1.076   0.322  0.00  0.00     0.077 C 
ATOM      2  C1' PXY d   1      -1.674  -1.886   0.545  0.00  0.00     0.077 C 
ATOM      3  C1  PXY d   1      -0.176  -1.661   0.484  0.00  0.00    -0.082 A 
ATOM      4  C2  PXY d   1       0.624  -2.665   0.163  0.00  0.00     0.003 A 
ATOM      5  C3  PXY d   1       1.984  -2.487   0.135  0.00  0.00     0.003 A 
ATOM      6  C4  PXY d   1       2.526  -1.255   0.386  0.00  0.00    -0.082 A 
ATOM      7  C5  PXY d   1       1.716  -0.223   0.704  0.00  0.00     0.003 A 
ATOM      8  C6  PXY d   1       0.342  -0.435   0.767  0.00  0.00     0.003 A 
ENDROOT
TORSDOF 0
ENDMDL
