MODEL 1
REMARK minimizedAffinity -3.17175484
REMARK minimizedRMSD -1
REMARK  0 active torsions:
REMARK  status: ('A' for Active; 'I' for Inactive)
ROOT
ATOM      1  C4' PXY d   1       3.355  -1.707   0.000  0.00  0.00     0.077 C 
ATOM      2  C1' PXY d   1      -2.289  -2.250   1.125  0.00  0.00     0.077 C 
ATOM      3  C1  PXY d   1      -0.811  -2.098   0.822  0.00  0.00    -0.082 A 
ATOM      4  C2  PXY d   1       0.000  -3.129   0.989  0.00  0.00     0.003 A 
ATOM      5  C3  PXY d   1       1.344  -3.000   0.750  0.00  0.00     0.003 A 
ATOM      6  C4  PXY d   1       1.855  -1.818   0.285  0.00  0.00    -0.082 A 
ATOM      7  C5  PXY d   1       1.031  -0.764   0.102  0.00  0.00     0.003 A 
ATOM      8  C6  PXY d   1      -0.323  -0.904   0.389  0.00  0.00     0.003 A 
ENDROOT
TORSDOF 0
ENDMDL
