MODEL 1
REMARK minimizedAffinity -2.44608521
REMARK minimizedRMSD -1
REMARK  0 active torsions:
REMARK  status: ('A' for Active; 'I' for Inactive)
ROOT
ATOM      1  C4' PXY d   1       3.693  -4.385  -0.143  0.00  0.00     0.077 C 
ATOM      2  C1' PXY d   1      -0.827  -0.909   0.803  0.00  0.00     0.077 C 
ATOM      3  C1  PXY d   1       0.365  -1.810   0.550  0.00  0.00    -0.082 A 
ATOM      4  C2  PXY d   1       0.182  -3.114   0.413  0.00  0.00     0.003 A 
ATOM      5  C3  PXY d   1       1.253  -3.947   0.216  0.00  0.00     0.003 A 
ATOM      6  C4  PXY d   1       2.518  -3.436   0.104  0.00  0.00    -0.082 A 
ATOM      7  C5  PXY d   1       2.712  -2.106   0.232  0.00  0.00     0.003 A 
ATOM      8  C6  PXY d   1       1.617  -1.281   0.473  0.00  0.00     0.003 A 
ENDROOT
TORSDOF 0
ENDMDL
