MODEL 1
REMARK minimizedAffinity 1.37541914
REMARK minimizedRMSD -1
REMARK  0 active torsions:
REMARK  status: ('A' for Active; 'I' for Inactive)
ROOT
ATOM      1  C4' PXY d   1       4.378  -3.772  -0.578  0.00  0.00     0.077 C 
ATOM      2  C1' PXY d   1      -0.652  -1.540   1.190  0.00  0.00     0.077 C 
ATOM      3  C1  PXY d   1       0.671  -2.114   0.724  0.00  0.00    -0.082 A 
ATOM      4  C2  PXY d   1       0.731  -3.370   0.313  0.00  0.00     0.003 A 
ATOM      5  C3  PXY d   1       1.926  -3.914  -0.082  0.00  0.00     0.003 A 
ATOM      6  C4  PXY d   1       3.061  -3.149  -0.107  0.00  0.00    -0.082 A 
ATOM      7  C5  PXY d   1       3.006  -1.863   0.299  0.00  0.00     0.003 A 
ATOM      8  C6  PXY d   1       1.791  -1.341   0.736  0.00  0.00     0.003 A 
ENDROOT
TORSDOF 0
ENDMDL
