MODEL 1
REMARK minimizedAffinity -4.1273098
REMARK minimizedRMSD -1
REMARK  0 active torsions:
REMARK  status: ('A' for Active; 'I' for Inactive)
ROOT
ATOM      1  C4' PXY d   1      -1.164  -0.360   0.712  0.00  0.00     0.077 C 
ATOM      2  C1' PXY d   1       3.165  -4.161   0.233  0.00  0.00     0.077 C 
ATOM      3  C1  PXY d   1       2.036  -3.158   0.368  0.00  0.00    -0.082 A 
ATOM      4  C2  PXY d   1       0.820  -3.483  -0.038  0.00  0.00     0.003 A 
ATOM      5  C3  PXY d   1      -0.206  -2.577   0.048  0.00  0.00     0.003 A 
ATOM      6  C4  PXY d   1       0.004  -1.344   0.604  0.00  0.00    -0.082 A 
ATOM      7  C5  PXY d   1       1.240  -1.008   1.030  0.00  0.00     0.003 A 
ATOM      8  C6  PXY d   1       2.277  -1.927   0.896  0.00  0.00     0.003 A 
ENDROOT
TORSDOF 0
ENDMDL
