MODEL 1
REMARK minimizedAffinity -0.00886078645
REMARK minimizedRMSD -1
REMARK  0 active torsions:
REMARK  status: ('A' for Active; 'I' for Inactive)
ROOT
ATOM      1  C4' PXY d   1       3.031  -4.205   0.387  0.00  0.00     0.077 C 
ATOM      2  C1' PXY d   1      -1.115  -0.185   0.627  0.00  0.00     0.077 C 
ATOM      3  C1  PXY d   1      -0.019  -1.230   0.560  0.00  0.00    -0.082 A 
ATOM      4  C2  PXY d   1      -0.338  -2.502   0.383  0.00  0.00     0.003 A 
ATOM      5  C3  PXY d   1       0.638  -3.464   0.352  0.00  0.00     0.003 A 
ATOM      6  C4  PXY d   1       1.958  -3.115   0.451  0.00  0.00    -0.082 A 
ATOM      7  C5  PXY d   1       2.292  -1.818   0.621  0.00  0.00     0.003 A 
ATOM      8  C6  PXY d   1       1.284  -0.861   0.691  0.00  0.00     0.003 A 
ENDROOT
TORSDOF 0
ENDMDL
