MODEL 1
REMARK minimizedAffinity -0.182553411
REMARK minimizedRMSD -1
REMARK  0 active torsions:
REMARK  status: ('A' for Active; 'I' for Inactive)
ROOT
ATOM      1  C4' PXY d   1      -1.005  -0.010   0.764  0.00  0.00     0.077 C 
ATOM      2  C1' PXY d   1       2.592  -4.531   0.570  0.00  0.00     0.077 C 
ATOM      3  C1  PXY d   1       1.658  -3.338   0.627  0.00  0.00    -0.082 A 
ATOM      4  C2  PXY d   1       0.349  -3.531   0.619  0.00  0.00     0.003 A 
ATOM      5  C3  PXY d   1      -0.510  -2.463   0.637  0.00  0.00     0.003 A 
ATOM      6  C4  PXY d   1      -0.024  -1.185   0.718  0.00  0.00    -0.082 A 
ATOM      7  C5  PXY d   1       1.310  -0.980   0.737  0.00  0.00     0.003 A 
ATOM      8  C6  PXY d   1       2.165  -2.076   0.676  0.00  0.00     0.003 A 
ENDROOT
TORSDOF 0
ENDMDL
