MODEL 1
REMARK minimizedAffinity -2.0173347
REMARK minimizedRMSD -1
REMARK  0 active torsions:
REMARK  status: ('A' for Active; 'I' for Inactive)
ROOT
ATOM      1  C4' PXY d   1      -0.614  -1.434   1.174  0.00  0.00     0.077 C 
ATOM      2  C1' PXY d   1       4.159  -4.225  -0.514  0.00  0.00     0.077 C 
ATOM      3  C1  PXY d   1       2.914  -3.484  -0.066  0.00  0.00    -0.082 A 
ATOM      4  C2  PXY d   1       1.781  -4.147   0.098  0.00  0.00     0.003 A 
ATOM      5  C3  PXY d   1       0.639  -3.487   0.472  0.00  0.00     0.003 A 
ATOM      6  C4  PXY d   1       0.669  -2.143   0.732  0.00  0.00    -0.082 A 
ATOM      7  C5  PXY d   1       1.824  -1.461   0.578  0.00  0.00     0.003 A 
ATOM      8  C6  PXY d   1       2.963  -2.142   0.158  0.00  0.00     0.003 A 
ENDROOT
TORSDOF 0
ENDMDL
