MODEL 1
REMARK minimizedAffinity -5.78119326
REMARK minimizedRMSD -1
REMARK  0 active torsions:
REMARK  status: ('A' for Active; 'I' for Inactive)
ROOT
ATOM      1  C4' PXY d   1       3.169  -4.116  -0.488  0.00  0.00     0.077 C 
ATOM      2  C1' PXY d   1      -0.745  -0.199   1.173  0.00  0.00     0.077 C 
ATOM      3  C1  PXY d   1       0.287  -1.217   0.730  0.00  0.00    -0.082 A 
ATOM      4  C2  PXY d   1      -0.005  -2.507   0.775  0.00  0.00     0.003 A 
ATOM      5  C3  PXY d   1       0.928  -3.443   0.409  0.00  0.00     0.003 A 
ATOM      6  C4  PXY d   1       2.154  -3.052  -0.059  0.00  0.00    -0.082 A 
ATOM      7  C5  PXY d   1       2.456  -1.738  -0.119  0.00  0.00     0.003 A 
ATOM      8  C6  PXY d   1       1.509  -0.805   0.297  0.00  0.00     0.003 A 
ENDROOT
TORSDOF 0
ENDMDL
