MODEL 1
REMARK minimizedAffinity -4.32497931
REMARK minimizedRMSD -1
REMARK  0 active torsions:
REMARK  status: ('A' for Active; 'I' for Inactive)
ROOT
ATOM      1  C4' PXY d   1       3.494  -3.762  -0.545  0.00  0.00     0.077 C 
ATOM      2  C1' PXY d   1      -1.061  -0.522   0.929  0.00  0.00     0.077 C 
ATOM      3  C1  PXY d   1       0.128  -1.382   0.548  0.00  0.00    -0.082 A 
ATOM      4  C2  PXY d   1       1.302  -0.814   0.328  0.00  0.00     0.003 A 
ATOM      5  C3  PXY d   1       2.380  -1.573  -0.048  0.00  0.00     0.003 A 
ATOM      6  C4  PXY d   1       2.268  -2.934  -0.149  0.00  0.00    -0.082 A 
ATOM      7  C5  PXY d   1       1.076  -3.522   0.085  0.00  0.00     0.003 A 
ATOM      8  C6  PXY d   1      -0.016  -2.730   0.425  0.00  0.00     0.003 A 
ENDROOT
TORSDOF 0
ENDMDL
