MODEL 1
REMARK minimizedAffinity -2.50325012
REMARK minimizedRMSD -1
REMARK  0 active torsions:
REMARK  status: ('A' for Active; 'I' for Inactive)
ROOT
ATOM      1  C4' PXY d   1       3.718  -3.971  -0.460  0.00  0.00     0.077 C 
ATOM      2  C1' PXY d   1      -0.509  -0.256   0.861  0.00  0.00     0.077 C 
ATOM      3  C1  PXY d   1       0.606  -1.220   0.509  0.00  0.00    -0.082 A 
ATOM      4  C2  PXY d   1       0.347  -2.514   0.415  0.00  0.00     0.003 A 
ATOM      5  C3  PXY d   1       1.350  -3.404   0.129  0.00  0.00     0.003 A 
ATOM      6  C4  PXY d   1       2.621  -2.960  -0.116  0.00  0.00    -0.082 A 
ATOM      7  C5  PXY d   1       2.892  -1.640  -0.033  0.00  0.00     0.003 A 
ATOM      8  C6  PXY d   1       1.869  -0.757   0.299  0.00  0.00     0.003 A 
ENDROOT
TORSDOF 0
ENDMDL
