MODEL 1
REMARK minimizedAffinity 3.75668263
REMARK minimizedRMSD -1
REMARK  0 active torsions:
REMARK  status: ('A' for Active; 'I' for Inactive)
ROOT
ATOM      1  C4' PXY d   1      -0.219  -2.967   0.054  0.00  0.00     0.077 C 
ATOM      2  C1' PXY d   1      -2.172   1.680   2.884  0.00  0.00     0.077 C 
ATOM      3  C1  PXY d   1      -1.648   0.466   2.144  0.00  0.00    -0.082 A 
ATOM      4  C2  PXY d   1      -2.435  -0.172   1.293  0.00  0.00     0.003 A 
ATOM      5  C3  PXY d   1      -1.988  -1.291   0.639  0.00  0.00     0.003 A 
ATOM      6  C4  PXY d   1      -0.703  -1.730   0.817  0.00  0.00    -0.082 A 
ATOM      7  C5  PXY d   1       0.110  -1.079   1.675  0.00  0.00     0.003 A 
ATOM      8  C6  PXY d   1      -0.377   0.031   2.361  0.00  0.00     0.003 A 
ENDROOT
TORSDOF 0
ENDMDL
