MODEL 1
REMARK minimizedAffinity -4.91743755
REMARK minimizedRMSD -1
REMARK  0 active torsions:
REMARK  status: ('A' for Active; 'I' for Inactive)
ROOT
ATOM      1  C4' PXY d   1      -0.786  -0.411   0.806  0.00  0.00     0.077 C 
ATOM      2  C1' PXY d   1       3.462  -4.249   0.008  0.00  0.00     0.077 C 
ATOM      3  C1  PXY d   1       2.356  -3.235   0.225  0.00  0.00    -0.082 A 
ATOM      4  C2  PXY d   1       1.093  -3.603   0.075  0.00  0.00     0.003 A 
ATOM      5  C3  PXY d   1       0.082  -2.691   0.236  0.00  0.00     0.003 A 
ATOM      6  C4  PXY d   1       0.363  -1.403   0.606  0.00  0.00    -0.082 A 
ATOM      7  C5  PXY d   1       1.648  -1.023   0.771  0.00  0.00     0.003 A 
ATOM      8  C6  PXY d   1       2.662  -1.953   0.563  0.00  0.00     0.003 A 
ENDROOT
TORSDOF 0
ENDMDL
