MODEL 1
REMARK minimizedAffinity -4.33907127
REMARK minimizedRMSD -1
REMARK  0 active torsions:
REMARK  status: ('A' for Active; 'I' for Inactive)
ROOT
ATOM      1  C4' PXY d   1      -1.150  -0.316   1.332  0.00  0.00     0.077 C 
ATOM      2  C1' PXY d   1       3.360  -3.554  -0.275  0.00  0.00     0.077 C 
ATOM      3  C1  PXY d   1       2.185  -2.697   0.154  0.00  0.00    -0.082 A 
ATOM      4  C2  PXY d   1       0.962  -3.199   0.115  0.00  0.00     0.003 A 
ATOM      5  C3  PXY d   1      -0.116  -2.428   0.469  0.00  0.00     0.003 A 
ATOM      6  C4  PXY d   1       0.067  -1.147   0.918  0.00  0.00    -0.082 A 
ATOM      7  C5  PXY d   1       1.313  -0.632   0.970  0.00  0.00     0.003 A 
ATOM      8  C6  PXY d   1       2.389  -1.417   0.567  0.00  0.00     0.003 A 
ENDROOT
TORSDOF 0
ENDMDL
