MODEL 1
REMARK minimizedAffinity 1.91402745
REMARK minimizedRMSD -1
REMARK  0 active torsions:
REMARK  status: ('A' for Active; 'I' for Inactive)
ROOT
ATOM      1  C4' PXY d   1       2.534  -4.314  -0.177  0.00  0.00     0.077 C 
ATOM      2  C1' PXY d   1      -0.840   0.194   1.129  0.00  0.00     0.077 C 
ATOM      3  C1  PXY d   1       0.052  -0.981   0.779  0.00  0.00    -0.082 A 
ATOM      4  C2  PXY d   1      -0.408  -2.214   0.913  0.00  0.00     0.003 A 
ATOM      5  C3  PXY d   1       0.396  -3.289   0.632  0.00  0.00     0.003 A 
ATOM      6  C4  PXY d   1       1.666  -3.098   0.156  0.00  0.00    -0.082 A 
ATOM      7  C5  PXY d   1       2.138  -1.842   0.006  0.00  0.00     0.003 A 
ATOM      8  C6  PXY d   1       1.320  -0.766   0.337  0.00  0.00     0.003 A 
ENDROOT
TORSDOF 0
ENDMDL
