MODEL 1
REMARK minimizedAffinity -5.01812363
REMARK minimizedRMSD -1
REMARK  0 active torsions:
REMARK  status: ('A' for Active; 'I' for Inactive)
ROOT
ATOM      1  C4' PXY d   1      -0.976  -0.288   1.088  0.00  0.00     0.077 C 
ATOM      2  C1' PXY d   1       3.329  -3.967  -0.070  0.00  0.00     0.077 C 
ATOM      3  C1  PXY d   1       2.209  -2.993   0.237  0.00  0.00    -0.082 A 
ATOM      4  C2  PXY d   1       0.997  -3.453   0.501  0.00  0.00     0.003 A 
ATOM      5  C3  PXY d   1      -0.035  -2.585   0.750  0.00  0.00     0.003 A 
ATOM      6  C4  PXY d   1       0.188  -1.235   0.781  0.00  0.00    -0.082 A 
ATOM      7  C5  PXY d   1       1.424  -0.758   0.524  0.00  0.00     0.003 A 
ATOM      8  C6  PXY d   1       2.449  -1.654   0.233  0.00  0.00     0.003 A 
ENDROOT
TORSDOF 0
ENDMDL
