MODEL 1
REMARK minimizedAffinity -2.63784575
REMARK minimizedRMSD -1
REMARK  0 active torsions:
REMARK  status: ('A' for Active; 'I' for Inactive)
ROOT
ATOM      1  C4' PXY d   1       3.346  -3.712  -0.717  0.00  0.00     0.077 C 
ATOM      2  C1' PXY d   1      -0.781  -0.147   1.201  0.00  0.00     0.077 C 
ATOM      3  C1  PXY d   1       0.297  -1.091   0.706  0.00  0.00    -0.082 A 
ATOM      4  C2  PXY d   1       1.398  -0.599   0.161  0.00  0.00     0.003 A 
ATOM      5  C3  PXY d   1       2.369  -1.439  -0.320  0.00  0.00     0.003 A 
ATOM      6  C4  PXY d   1       2.235  -2.796  -0.195  0.00  0.00    -0.082 A 
ATOM      7  C5  PXY d   1       1.120  -3.306   0.369  0.00  0.00     0.003 A 
ATOM      8  C6  PXY d   1       0.128  -2.437   0.814  0.00  0.00     0.003 A 
ENDROOT
TORSDOF 0
ENDMDL
