MODEL 1
REMARK minimizedAffinity 0.455286354
REMARK minimizedRMSD -1
REMARK  0 active torsions:
REMARK  status: ('A' for Active; 'I' for Inactive)
ROOT
ATOM      1  C4' PXY d   1      -2.295  -2.815   1.213  0.00  0.00     0.077 C 
ATOM      2  C1' PXY d   1       3.003  -0.871  -0.041  0.00  0.00     0.077 C 
ATOM      3  C1  PXY d   1       1.615  -1.376   0.300  0.00  0.00    -0.082 A 
ATOM      4  C2  PXY d   1       1.098  -2.383  -0.386  0.00  0.00     0.003 A 
ATOM      5  C3  PXY d   1      -0.169  -2.831  -0.112  0.00  0.00     0.003 A 
ATOM      6  C4  PXY d   1      -0.893  -2.278   0.909  0.00  0.00    -0.082 A 
ATOM      7  C5  PXY d   1      -0.369  -1.258   1.621  0.00  0.00     0.003 A 
ATOM      8  C6  PXY d   1       0.902  -0.790   1.300  0.00  0.00     0.003 A 
ENDROOT
TORSDOF 0
ENDMDL
