MODEL 1
REMARK minimizedAffinity -3.03301215
REMARK minimizedRMSD -1
REMARK  0 active torsions:
REMARK  status: ('A' for Active; 'I' for Inactive)
ROOT
ATOM      1  C   UNL d   1       2.204  -1.677   0.669  0.00  0.00     0.023 A 
ATOM      2  C1  UNL d   1       2.612  -0.580  -0.090  0.00  0.00     0.003 A 
ATOM      3  C2  UNL d   1       1.672   0.354  -0.532  0.00  0.00     0.048 A 
ATOM      4  C3  UNL d   1       0.326   0.185  -0.209  0.00  0.00     0.023 A 
ATOM      5  C4  UNL d   1      -0.087  -0.910   0.551  0.00  0.00     0.048 A 
ATOM      6  C5  UNL d   1       0.856  -1.842   0.989  0.00  0.00     0.003 A 
ATOM      7  I   UNL d   1      -1.074   1.574  -0.865  0.00  0.00    -0.146 I 
ENDROOT
TORSDOF 0
ENDMDL
