MODEL 1
REMARK minimizedAffinity -2.46511364
REMARK minimizedRMSD -1
REMARK  0 active torsions:
REMARK  status: ('A' for Active; 'I' for Inactive)
ROOT
ATOM      1  C   UNL d   1       2.188  -1.707   1.682  0.00  0.00     0.023 A 
ATOM      2  C1  UNL d   1       0.905  -1.469   2.174  0.00  0.00     0.003 A 
ATOM      3  C2  UNL d   1      -0.016  -0.751   1.409  0.00  0.00     0.048 A 
ATOM      4  C3  UNL d   1       0.352  -0.275   0.151  0.00  0.00     0.023 A 
ATOM      5  C4  UNL d   1       1.635  -0.512  -0.346  0.00  0.00     0.048 A 
ATOM      6  C5  UNL d   1       2.552  -1.229   0.423  0.00  0.00     0.003 A 
ATOM      7  I   UNL d   1      -1.017   0.793  -0.991  0.00  0.00    -0.146 I 
ENDROOT
TORSDOF 0
ENDMDL
