MODEL 1
REMARK minimizedAffinity -2.26411891
REMARK minimizedRMSD -1
REMARK  0 active torsions:
REMARK  status: ('A' for Active; 'I' for Inactive)
ROOT
ATOM      1  C   UNL d   1       2.100  -1.269   1.064  0.00  0.00     0.023 A 
ATOM      2  C1  UNL d   1       2.616  -0.179   0.363  0.00  0.00     0.003 A 
ATOM      3  C2  UNL d   1       1.754   0.715  -0.274  0.00  0.00     0.048 A 
ATOM      4  C3  UNL d   1       0.376   0.514  -0.206  0.00  0.00     0.023 A 
ATOM      5  C4  UNL d   1      -0.146  -0.574   0.495  0.00  0.00     0.048 A 
ATOM      6  C5  UNL d   1       0.721  -1.466   1.130  0.00  0.00     0.003 A 
ATOM      7  I   UNL d   1      -0.910   1.844  -1.153  0.00  0.00    -0.146 I 
ENDROOT
TORSDOF 0
ENDMDL
