MODEL 1
REMARK minimizedAffinity 0.0803017169
REMARK minimizedRMSD -1
REMARK  0 active torsions:
REMARK  status: ('A' for Active; 'I' for Inactive)
ROOT
ATOM      1  C   UNL d   1      -2.682   1.350  -2.915  0.00  0.00     0.023 A 
ATOM      2  C1  UNL d   1      -2.840   0.449  -1.862  0.00  0.00     0.003 A 
ATOM      3  C2  UNL d   1      -1.793   0.231  -0.964  0.00  0.00     0.048 A 
ATOM      4  C3  UNL d   1      -0.591   0.919  -1.125  0.00  0.00     0.023 A 
ATOM      5  C4  UNL d   1      -0.429   1.822  -2.177  0.00  0.00     0.048 A 
ATOM      6  C5  UNL d   1      -1.478   2.036  -3.072  0.00  0.00     0.003 A 
ATOM      7  I   UNL d   1       0.969   0.597   0.210  0.00  0.00    -0.146 I 
ENDROOT
TORSDOF 0
ENDMDL
