MODEL 1
REMARK minimizedAffinity -2.18475199
REMARK minimizedRMSD -1
REMARK  0 active torsions:
REMARK  status: ('A' for Active; 'I' for Inactive)
ROOT
ATOM      1  C   UNL d   1       0.282  -0.149   0.369  0.00  0.00     0.023 A 
ATOM      2  C1  UNL d   1      -0.388   1.075   0.378  0.00  0.00     0.003 A 
ATOM      3  C2  UNL d   1      -1.325   1.367  -0.615  0.00  0.00     0.048 A 
ATOM      4  C3  UNL d   1      -1.588   0.430  -1.614  0.00  0.00     0.023 A 
ATOM      5  C4  UNL d   1      -0.921  -0.796  -1.627  0.00  0.00     0.048 A 
ATOM      6  C5  UNL d   1       0.016  -1.083  -0.632  0.00  0.00     0.003 A 
ATOM      7  I   UNL d   1      -2.982   0.862  -3.093  0.00  0.00    -0.146 I 
ENDROOT
TORSDOF 0
ENDMDL
