MODEL 1
REMARK minimizedAffinity -3.3658452
REMARK minimizedRMSD -1
REMARK  0 active torsions:
REMARK  status: ('A' for Active; 'I' for Inactive)
ROOT
ATOM      1  C   UNL d   1       2.179  -1.206   0.399  0.00  0.00     0.023 A 
ATOM      2  C1  UNL d   1       2.224  -0.950  -0.972  0.00  0.00     0.003 A 
ATOM      3  C2  UNL d   1       1.140  -0.338  -1.605  0.00  0.00     0.048 A 
ATOM      4  C3  UNL d   1       0.015   0.016  -0.861  0.00  0.00     0.023 A 
ATOM      5  C4  UNL d   1      -0.034  -0.237   0.511  0.00  0.00     0.048 A 
ATOM      6  C5  UNL d   1       1.052  -0.850   1.139  0.00  0.00     0.003 A 
ATOM      7  I   UNL d   1      -1.600   0.927  -1.800  0.00  0.00    -0.146 I 
ENDROOT
TORSDOF 0
ENDMDL
