MODEL 1
REMARK minimizedAffinity -2.77894044
REMARK minimizedRMSD -1
REMARK  0 active torsions:
REMARK  status: ('A' for Active; 'I' for Inactive)
ROOT
ATOM      1  C   UNL d   1      -0.378  -1.119   3.151  0.00  0.00     0.023 A 
ATOM      2  C1  UNL d   1      -0.836  -0.414   2.037  0.00  0.00     0.003 A 
ATOM      3  C2  UNL d   1      -0.018  -0.272   0.915  0.00  0.00     0.048 A 
ATOM      4  C3  UNL d   1       1.256  -0.838   0.911  0.00  0.00     0.023 A 
ATOM      5  C4  UNL d   1       1.718  -1.545   2.023  0.00  0.00     0.048 A 
ATOM      6  C5  UNL d   1       0.898  -1.684   3.143  0.00  0.00     0.003 A 
ATOM      7  I   UNL d   1       2.475  -0.628  -0.759  0.00  0.00    -0.146 I 
ENDROOT
TORSDOF 0
ENDMDL
