MODEL 1
REMARK minimizedAffinity -0.799032211
REMARK minimizedRMSD -1
REMARK  0 active torsions:
REMARK  status: ('A' for Active; 'I' for Inactive)
ROOT
ATOM      1  C   UNL d   1       3.132  -0.072  -0.361  0.00  0.00     0.023 A 
ATOM      2  C1  UNL d   1       2.198   0.864  -0.804  0.00  0.00     0.003 A 
ATOM      3  C2  UNL d   1       0.909   0.874  -0.267  0.00  0.00     0.048 A 
ATOM      4  C3  UNL d   1       0.561  -0.054   0.713  0.00  0.00     0.023 A 
ATOM      5  C4  UNL d   1       1.492  -0.992   1.161  0.00  0.00     0.048 A 
ATOM      6  C5  UNL d   1       2.780  -0.999   0.620  0.00  0.00     0.003 A 
ATOM      7  I   UNL d   1      -1.357  -0.040   1.514  0.00  0.00    -0.146 I 
ENDROOT
TORSDOF 0
ENDMDL
