MODEL 1
REMARK minimizedAffinity -3.35365319
REMARK minimizedRMSD -1
REMARK  0 active torsions:
REMARK  status: ('A' for Active; 'I' for Inactive)
ROOT
ATOM      1  C   UNL d   1       2.175  -1.879   0.542  0.00  0.00     0.023 A 
ATOM      2  C1  UNL d   1       2.437  -0.973  -0.485  0.00  0.00     0.003 A 
ATOM      3  C2  UNL d   1       1.453  -0.068  -0.889  0.00  0.00     0.048 A 
ATOM      4  C3  UNL d   1       0.208  -0.075  -0.260  0.00  0.00     0.023 A 
ATOM      5  C4  UNL d   1      -0.058  -0.979   0.769  0.00  0.00     0.048 A 
ATOM      6  C5  UNL d   1       0.929  -1.882   1.169  0.00  0.00     0.003 A 
ATOM      7  I   UNL d   1      -1.259   1.270  -0.859  0.00  0.00    -0.146 I 
ENDROOT
TORSDOF 0
ENDMDL
