MODEL 1
REMARK minimizedAffinity -3.2009182
REMARK minimizedRMSD -1
REMARK  0 active torsions:
REMARK  status: ('A' for Active; 'I' for Inactive)
ROOT
ATOM      1  C   UNL d   1       2.289  -1.615   0.980  0.00  0.00     0.023 A 
ATOM      2  C1  UNL d   1       2.700  -0.690   0.019  0.00  0.00     0.003 A 
ATOM      3  C2  UNL d   1       1.763   0.139  -0.601  0.00  0.00     0.048 A 
ATOM      4  C3  UNL d   1       0.416   0.039  -0.255  0.00  0.00     0.023 A 
ATOM      5  C4  UNL d   1      -0.001  -0.884   0.706  0.00  0.00     0.048 A 
ATOM      6  C5  UNL d   1       0.940  -1.712   1.322  0.00  0.00     0.003 A 
ATOM      7  I   UNL d   1      -0.981   1.271  -1.176  0.00  0.00    -0.146 I 
ENDROOT
TORSDOF 0
ENDMDL
