MODEL 1
REMARK minimizedAffinity -2.89795589
REMARK minimizedRMSD -1
REMARK  0 active torsions:
REMARK  status: ('A' for Active; 'I' for Inactive)
ROOT
ATOM      1  C   UNL d   1       3.261  -1.081   0.782  0.00  0.00     0.023 A 
ATOM      2  C1  UNL d   1       2.056  -1.659   1.181  0.00  0.00     0.003 A 
ATOM      3  C2  UNL d   1       0.844  -1.061   0.831  0.00  0.00     0.048 A 
ATOM      4  C3  UNL d   1       0.844   0.114   0.079  0.00  0.00     0.023 A 
ATOM      5  C4  UNL d   1       2.048   0.694  -0.324  0.00  0.00     0.048 A 
ATOM      6  C5  UNL d   1       3.257   0.094   0.030  0.00  0.00     0.003 A 
ATOM      7  I   UNL d   1      -0.959   1.005  -0.445  0.00  0.00    -0.146 I 
ENDROOT
TORSDOF 0
ENDMDL
