MODEL 1
REMARK minimizedAffinity -0.195287138
REMARK minimizedRMSD -1
REMARK  0 active torsions:
REMARK  status: ('A' for Active; 'I' for Inactive)
ROOT
ATOM      1  C   UNL d   1      -0.106  -1.022   1.722  0.00  0.00     0.023 A 
ATOM      2  C1  UNL d   1      -0.497   0.066   0.942  0.00  0.00     0.003 A 
ATOM      3  C2  UNL d   1       0.429   0.702   0.113  0.00  0.00     0.048 A 
ATOM      4  C3  UNL d   1       1.745   0.244   0.068  0.00  0.00     0.023 A 
ATOM      5  C4  UNL d   1       2.142  -0.845   0.847  0.00  0.00     0.048 A 
ATOM      6  C5  UNL d   1       1.212  -1.476   1.675  0.00  0.00     0.003 A 
ATOM      7  I   UNL d   1       3.126   1.188  -1.165  0.00  0.00    -0.146 I 
ENDROOT
TORSDOF 0
ENDMDL
