MODEL 1
REMARK minimizedAffinity -0.798227131
REMARK minimizedRMSD -1
REMARK  0 active torsions:
REMARK  status: ('A' for Active; 'I' for Inactive)
ROOT
ATOM      1  C   UNL d   1      -3.048   0.822  -2.729  0.00  0.00     0.023 A 
ATOM      2  C1  UNL d   1      -1.975   1.709  -2.825  0.00  0.00     0.003 A 
ATOM      3  C2  UNL d   1      -0.867   1.559  -1.988  0.00  0.00     0.048 A 
ATOM      4  C3  UNL d   1      -0.838   0.520  -1.059  0.00  0.00     0.023 A 
ATOM      5  C4  UNL d   1      -1.909  -0.370  -0.960  0.00  0.00     0.048 A 
ATOM      6  C5  UNL d   1      -3.015  -0.216  -1.798  0.00  0.00     0.003 A 
ATOM      7  I   UNL d   1       0.811   0.294   0.187  0.00  0.00    -0.146 I 
ENDROOT
TORSDOF 0
ENDMDL
