MODEL 1
REMARK minimizedAffinity -3.99846721
REMARK minimizedRMSD -1
REMARK  0 active torsions:
REMARK  status: ('A' for Active; 'I' for Inactive)
ROOT
ATOM      1  C   UNL d   1      -3.757   0.871   4.299  0.00  0.00     0.023 A 
ATOM      2  C1  UNL d   1      -5.127   1.129   4.252  0.00  0.00     0.003 A 
ATOM      3  C2  UNL d   1      -5.772   1.261   3.021  0.00  0.00     0.048 A 
ATOM      4  C3  UNL d   1      -5.042   1.134   1.840  0.00  0.00     0.023 A 
ATOM      5  C4  UNL d   1      -3.671   0.876   1.882  0.00  0.00     0.048 A 
ATOM      6  C5  UNL d   1      -3.030   0.745   3.115  0.00  0.00     0.003 A 
ATOM      7  I   UNL d   1      -6.000   1.331   0.006  0.00  0.00    -0.146 I 
ENDROOT
TORSDOF 0
ENDMDL
