MODEL 1
REMARK minimizedAffinity 7.21935225
REMARK minimizedRMSD -1
REMARK  0 active torsions:
REMARK  status: ('A' for Active; 'I' for Inactive)
ROOT
ATOM      1  C   UNL d   1       5.996   4.515  -3.756  0.00  0.00     0.023 A 
ATOM      2  C1  UNL d   1       5.503   5.198  -2.644  0.00  0.00     0.003 A 
ATOM      3  C2  UNL d   1       4.146   5.126  -2.323  0.00  0.00     0.048 A 
ATOM      4  C3  UNL d   1       3.287   4.367  -3.118  0.00  0.00     0.023 A 
ATOM      5  C4  UNL d   1       3.776   3.681  -4.231  0.00  0.00     0.048 A 
ATOM      6  C5  UNL d   1       5.134   3.758  -4.548  0.00  0.00     0.003 A 
ATOM      7  I   UNL d   1       1.267   4.257  -2.643  0.00  0.00    -0.146 I 
ENDROOT
TORSDOF 0
ENDMDL
