MODEL 1
REMARK minimizedAffinity 4.85259342
REMARK minimizedRMSD -1
REMARK  0 active torsions:
REMARK  status: ('A' for Active; 'I' for Inactive)
ROOT
ATOM      1  C   UNL d   1      -4.282   1.441   2.261  0.00  0.00     0.023 A 
ATOM      2  C1  UNL d   1      -4.341   0.720   1.069  0.00  0.00     0.003 A 
ATOM      3  C2  UNL d   1      -3.389  -0.267   0.801  0.00  0.00     0.048 A 
ATOM      4  C3  UNL d   1      -2.383  -0.528   1.730  0.00  0.00     0.023 A 
ATOM      5  C4  UNL d   1      -2.321   0.191   2.925  0.00  0.00     0.048 A 
ATOM      6  C5  UNL d   1      -3.274   1.177   3.188  0.00  0.00     0.003 A 
ATOM      7  I   UNL d   1      -0.966  -1.996   1.333  0.00  0.00    -0.146 I 
ENDROOT
TORSDOF 0
ENDMDL
