MODEL 1
REMARK minimizedAffinity 5.58064985
REMARK minimizedRMSD -1
REMARK  0 active torsions:
REMARK  status: ('A' for Active; 'I' for Inactive)
ROOT
ATOM      1  C   UNL d   1      -1.865   0.384   3.141  0.00  0.00     0.023 A 
ATOM      2  C1  UNL d   1      -2.985   1.169   2.866  0.00  0.00     0.003 A 
ATOM      3  C2  UNL d   1      -3.724   0.950   1.702  0.00  0.00     0.048 A 
ATOM      4  C3  UNL d   1      -3.339  -0.057   0.817  0.00  0.00     0.023 A 
ATOM      5  C4  UNL d   1      -2.220  -0.846   1.089  0.00  0.00     0.048 A 
ATOM      6  C5  UNL d   1      -1.483  -0.622   2.254  0.00  0.00     0.003 A 
ATOM      7  I   UNL d   1      -4.438  -0.385  -0.916  0.00  0.00    -0.146 I 
ENDROOT
TORSDOF 0
ENDMDL
