MODEL 1
REMARK minimizedAffinity 9.28779507
REMARK minimizedRMSD -1
REMARK  0 active torsions:
REMARK  status: ('A' for Active; 'I' for Inactive)
ROOT
ATOM      1  C   UNL d   1       4.517   3.596  -4.963  0.00  0.00     0.023 A 
ATOM      2  C1  UNL d   1       3.695   3.386  -3.855  0.00  0.00     0.003 A 
ATOM      3  C2  UNL d   1       3.937   4.074  -2.664  0.00  0.00     0.048 A 
ATOM      4  C3  UNL d   1       5.001   4.972  -2.588  0.00  0.00     0.023 A 
ATOM      5  C4  UNL d   1       5.825   5.186  -3.694  0.00  0.00     0.048 A 
ATOM      6  C5  UNL d   1       5.581   4.495  -4.882  0.00  0.00     0.003 A 
ATOM      7  I   UNL d   1       5.361   5.998  -0.817  0.00  0.00    -0.146 I 
ENDROOT
TORSDOF 0
ENDMDL
