MODEL 1
REMARK minimizedAffinity -2.3152349
REMARK minimizedRMSD -1
REMARK  0 active torsions:
REMARK  status: ('A' for Active; 'I' for Inactive)
ROOT
ATOM      1  C   UNL d   1      -2.822  -4.943  -4.709  0.00  0.00     0.023 A 
ATOM      2  C1  UNL d   1      -2.422  -5.698  -5.812  0.00  0.00     0.003 A 
ATOM      3  C2  UNL d   1      -1.072  -6.000  -6.000  0.00  0.00     0.048 A 
ATOM      4  C3  UNL d   1      -0.127  -5.546  -5.081  0.00  0.00     0.023 A 
ATOM      5  C4  UNL d   1      -0.522  -4.791  -3.975  0.00  0.00     0.048 A 
ATOM      6  C5  UNL d   1      -1.873  -4.491  -3.791  0.00  0.00     0.003 A 
ATOM      7  I   UNL d   1       1.883  -5.994  -5.358  0.00  0.00    -0.146 I 
ENDROOT
TORSDOF 0
ENDMDL
