MODEL 1
REMARK minimizedAffinity 3.42292547
REMARK minimizedRMSD -1
REMARK  0 active torsions:
REMARK  status: ('A' for Active; 'I' for Inactive)
ROOT
ATOM      1  C   UNL d   1      -1.808   0.026   3.230  0.00  0.00     0.023 A 
ATOM      2  C1  UNL d   1      -1.709  -0.660   2.019  0.00  0.00     0.003 A 
ATOM      3  C2  UNL d   1      -2.511  -0.290   0.938  0.00  0.00     0.048 A 
ATOM      4  C3  UNL d   1      -3.409   0.768   1.073  0.00  0.00     0.023 A 
ATOM      5  C4  UNL d   1      -3.511   1.459   2.282  0.00  0.00     0.048 A 
ATOM      6  C5  UNL d   1      -2.708   1.084   3.361  0.00  0.00     0.003 A 
ATOM      7  I   UNL d   1      -4.603   1.321  -0.535  0.00  0.00    -0.146 I 
ENDROOT
TORSDOF 0
ENDMDL
