MODEL 1
REMARK minimizedAffinity 7.81002855
REMARK minimizedRMSD -1
REMARK  0 active torsions:
REMARK  status: ('A' for Active; 'I' for Inactive)
ROOT
ATOM      1  C   UNL d   1       2.941   1.756  -1.266  0.00  0.00     0.023 A 
ATOM      2  C1  UNL d   1       1.600   1.782  -1.651  0.00  0.00     0.003 A 
ATOM      3  C2  UNL d   1       0.616   1.286  -0.793  0.00  0.00     0.048 A 
ATOM      4  C3  UNL d   1       0.980   0.766   0.449  0.00  0.00     0.023 A 
ATOM      5  C4  UNL d   1       2.320   0.738   0.838  0.00  0.00     0.048 A 
ATOM      6  C5  UNL d   1       3.300   1.234  -0.023  0.00  0.00     0.003 A 
ATOM      7  I   UNL d   1      -0.482   0.026   1.728  0.00  0.00    -0.146 I 
ENDROOT
TORSDOF 0
ENDMDL
