MODEL 1
REMARK minimizedAffinity 6.0205164
REMARK minimizedRMSD -1
REMARK  0 active torsions:
REMARK  status: ('A' for Active; 'I' for Inactive)
ROOT
ATOM      1  C   UNL d   1       5.710   5.770  -3.624  0.00  0.00     0.023 A 
ATOM      2  C1  UNL d   1       4.897   6.000  -2.515  0.00  0.00     0.003 A 
ATOM      3  C2  UNL d   1       3.874   5.104  -2.200  0.00  0.00     0.048 A 
ATOM      4  C3  UNL d   1       3.669   3.979  -2.998  0.00  0.00     0.023 A 
ATOM      5  C4  UNL d   1       4.481   3.744  -4.109  0.00  0.00     0.048 A 
ATOM      6  C5  UNL d   1       5.503   4.644  -4.421  0.00  0.00     0.003 A 
ATOM      7  I   UNL d   1       2.147   2.644  -2.532  0.00  0.00    -0.146 I 
ENDROOT
TORSDOF 0
ENDMDL
