MODEL 1
REMARK minimizedAffinity 6.04481745
REMARK minimizedRMSD -1
REMARK  0 active torsions:
REMARK  status: ('A' for Active; 'I' for Inactive)
ROOT
ATOM      1  C   UNL d   1      -2.893   0.322   2.360  0.00  0.00     0.023 A 
ATOM      2  C1  UNL d   1      -2.184   0.609   3.527  0.00  0.00     0.003 A 
ATOM      3  C2  UNL d   1      -2.805   1.297   4.571  0.00  0.00     0.048 A 
ATOM      4  C3  UNL d   1      -4.136   1.694   4.443  0.00  0.00     0.023 A 
ATOM      5  C4  UNL d   1      -4.849   1.408   3.278  0.00  0.00     0.048 A 
ATOM      6  C5  UNL d   1      -4.224   0.721   2.236  0.00  0.00     0.003 A 
ATOM      7  I   UNL d   1      -5.062   2.718   5.997  0.00  0.00    -0.146 I 
ENDROOT
TORSDOF 0
ENDMDL
