MODEL 1
REMARK minimizedAffinity 14.7759848
REMARK minimizedRMSD -1
REMARK  0 active torsions:
REMARK  status: ('A' for Active; 'I' for Inactive)
ROOT
ATOM      1  C   UNL d   1       5.996   3.869  -4.771  0.00  0.00     0.023 A 
ATOM      2  C1  UNL d   1       5.003   3.152  -5.439  0.00  0.00     0.003 A 
ATOM      3  C2  UNL d   1       3.794   2.869  -4.799  0.00  0.00     0.048 A 
ATOM      4  C3  UNL d   1       3.585   3.307  -3.492  0.00  0.00     0.023 A 
ATOM      5  C4  UNL d   1       4.576   4.025  -2.820  0.00  0.00     0.048 A 
ATOM      6  C5  UNL d   1       5.783   4.304  -3.463  0.00  0.00     0.003 A 
ATOM      7  I   UNL d   1       1.787   2.887  -2.538  0.00  0.00    -0.146 I 
ENDROOT
TORSDOF 0
ENDMDL
