MODEL 1
REMARK minimizedAffinity 7.70321321
REMARK minimizedRMSD -1
REMARK  0 active torsions:
REMARK  status: ('A' for Active; 'I' for Inactive)
ROOT
ATOM      1  C   UNL d   1      -2.604  -0.447   1.278  0.00  0.00     0.023 A 
ATOM      2  C1  UNL d   1      -1.792  -1.505   0.867  0.00  0.00     0.003 A 
ATOM      3  C2  UNL d   1      -0.670  -1.858   1.618  0.00  0.00     0.048 A 
ATOM      4  C3  UNL d   1      -0.364  -1.150   2.780  0.00  0.00     0.023 A 
ATOM      5  C4  UNL d   1      -1.174  -0.091   3.196  0.00  0.00     0.048 A 
ATOM      6  C5  UNL d   1      -2.295   0.259   2.441  0.00  0.00     0.003 A 
ATOM      7  I   UNL d   1       1.306  -1.673   3.900  0.00  0.00    -0.146 I 
ENDROOT
TORSDOF 0
ENDMDL
