MODEL 1
REMARK minimizedAffinity 5.03692007
REMARK minimizedRMSD -1
REMARK  0 active torsions:
REMARK  status: ('A' for Active; 'I' for Inactive)
ROOT
ATOM      1  C   UNL d   1      -5.410   4.255  -1.010  0.00  0.00     0.023 A 
ATOM      2  C1  UNL d   1      -6.000   3.724  -2.157  0.00  0.00     0.003 A 
ATOM      3  C2  UNL d   1      -5.654   4.219  -3.416  0.00  0.00     0.048 A 
ATOM      4  C3  UNL d   1      -4.716   5.246  -3.520  0.00  0.00     0.023 A 
ATOM      5  C4  UNL d   1      -4.122   5.780  -2.376  0.00  0.00     0.048 A 
ATOM      6  C5  UNL d   1      -4.472   5.282  -1.119  0.00  0.00     0.003 A 
ATOM      7  I   UNL d   1      -4.198   5.985  -5.393  0.00  0.00    -0.146 I 
ENDROOT
TORSDOF 0
ENDMDL
