MODEL 1
REMARK minimizedAffinity 6.28978252
REMARK minimizedRMSD -1
REMARK  0 active torsions:
REMARK  status: ('A' for Active; 'I' for Inactive)
ROOT
ATOM      1  C   UNL d   1      -3.076   2.614   4.715  0.00  0.00     0.023 A 
ATOM      2  C1  UNL d   1      -4.132   2.629   5.626  0.00  0.00     0.003 A 
ATOM      3  C2  UNL d   1      -4.754   1.434   5.995  0.00  0.00     0.048 A 
ATOM      4  C3  UNL d   1      -4.314   0.228   5.450  0.00  0.00     0.023 A 
ATOM      5  C4  UNL d   1      -3.257   0.209   4.539  0.00  0.00     0.048 A 
ATOM      6  C5  UNL d   1      -2.639   1.405   4.172  0.00  0.00     0.003 A 
ATOM      7  I   UNL d   1      -5.238  -1.551   5.998  0.00  0.00    -0.146 I 
ENDROOT
TORSDOF 0
ENDMDL
