MODEL 1
REMARK minimizedAffinity 5.61368704
REMARK minimizedRMSD -1
REMARK  0 active torsions:
REMARK  status: ('A' for Active; 'I' for Inactive)
ROOT
ATOM      1  C   UNL d   1      -2.244  -0.217   2.254  0.00  0.00     0.023 A 
ATOM      2  C1  UNL d   1      -3.599   0.108   2.193  0.00  0.00     0.003 A 
ATOM      3  C2  UNL d   1      -4.212   0.755   3.267  0.00  0.00     0.048 A 
ATOM      4  C3  UNL d   1      -3.464   1.076   4.399  0.00  0.00     0.023 A 
ATOM      5  C4  UNL d   1      -2.107   0.754   4.465  0.00  0.00     0.048 A 
ATOM      6  C5  UNL d   1      -1.499   0.106   3.388  0.00  0.00     0.003 A 
ATOM      7  I   UNL d   1      -4.374   2.040   6.000  0.00  0.00    -0.146 I 
ENDROOT
TORSDOF 0
ENDMDL
