MODEL 1
REMARK minimizedAffinity -5.30459833
REMARK minimizedRMSD -1
REMARK  1 active torsions:
REMARK  status: ('A' for Active; 'I' for Inactive)
REMARK    1  A    between atoms: C1_2  and  C2_3 
ROOT
ATOM      1  C2  UNL d   1       0.465  -0.718  -0.458  0.00  0.00    -0.081 A 
ATOM      2  C3  UNL d   1      -0.152  -1.090   0.743  0.00  0.00     0.006 A 
ATOM      3  C4  UNL d   1      -0.993  -0.199   1.413  0.00  0.00     0.002 A 
ATOM      4  C5  UNL d   1      -1.237   1.076   0.891  0.00  0.00    -0.080 A 
ATOM      5  C6  UNL d   1      -2.161   2.032   1.586  0.00  0.00     0.076 C 
ATOM      6  C7  UNL d   1      -0.607   1.455  -0.299  0.00  0.00     0.002 A 
ATOM      7  C8  UNL d   1       0.234   0.564  -0.970  0.00  0.00     0.006 A 
ENDROOT
BRANCH   1   8
ATOM      8  C1  UNL d   1       1.320  -1.700  -1.217  0.00  0.00     0.054 C 
ATOM      9  C   UNL d   1       0.468  -2.655  -2.040  0.00  0.00     0.018 C 
ENDBRANCH   1   8
TORSDOF 1
ENDMDL
