MODEL 1
REMARK minimizedAffinity -4.962708
REMARK minimizedRMSD -1
REMARK  1 active torsions:
REMARK  status: ('A' for Active; 'I' for Inactive)
REMARK    1  A    between atoms: C1_2  and  C2_3 
ROOT
ATOM      1  C2  UNL d   1       0.344  -0.163  -0.611  0.00  0.00    -0.081 A 
ATOM      2  C3  UNL d   1      -0.031   1.100  -1.085  0.00  0.00     0.006 A 
ATOM      3  C4  UNL d   1      -0.884   1.914  -0.335  0.00  0.00     0.002 A 
ATOM      4  C5  UNL d   1      -1.370   1.481   0.903  0.00  0.00    -0.080 A 
ATOM      5  C6  UNL d   1      -2.262   2.357   1.732  0.00  0.00     0.076 C 
ATOM      6  C7  UNL d   1      -1.010   0.212   1.368  0.00  0.00     0.002 A 
ATOM      7  C8  UNL d   1      -0.158  -0.602   0.619  0.00  0.00     0.006 A 
ENDROOT
BRANCH   1   8
ATOM      8  C1  UNL d   1       1.315  -1.016  -1.387  0.00  0.00     0.054 C 
ATOM      9  C   UNL d   1       0.595  -2.111  -2.160  0.00  0.00     0.018 C 
ENDBRANCH   1   8
TORSDOF 1
ENDMDL
