MODEL 1
REMARK minimizedAffinity -1.99579036
REMARK minimizedRMSD -1
REMARK  1 active torsions:
REMARK  status: ('A' for Active; 'I' for Inactive)
REMARK    1  A    between atoms: C1_2  and  C2_3 
ROOT
ATOM      1  C2  UNL d   1      -0.115   0.133   0.461  0.00  0.00    -0.081 A 
ATOM      2  C3  UNL d   1       0.721   0.524  -0.592  0.00  0.00     0.006 A 
ATOM      3  C4  UNL d   1       0.577   1.782  -1.180  0.00  0.00     0.002 A 
ATOM      4  C5  UNL d   1      -0.399   2.673  -0.721  0.00  0.00    -0.080 A 
ATOM      5  C6  UNL d   1      -0.544   4.039  -1.324  0.00  0.00     0.076 C 
ATOM      6  C7  UNL d   1      -1.245   2.276   0.319  0.00  0.00     0.002 A 
ATOM      7  C8  UNL d   1      -1.103   1.018   0.908  0.00  0.00     0.006 A 
ENDROOT
BRANCH   1   8
ATOM      8  C1  UNL d   1       0.080  -1.199   1.141  0.00  0.00     0.054 C 
ATOM      9  C   UNL d   1       0.138  -1.044   2.654  0.00  0.00     0.018 C 
ENDBRANCH   1   8
TORSDOF 1
ENDMDL
