MODEL 1
REMARK minimizedAffinity -4.03352547
REMARK minimizedRMSD -1
REMARK  1 active torsions:
REMARK  status: ('A' for Active; 'I' for Inactive)
REMARK    1  A    between atoms: C1_2  and  C2_3 
ROOT
ATOM      1  C2  UNL d   1       0.626  -0.762  -0.155  0.00  0.00    -0.081 A 
ATOM      2  C3  UNL d   1       0.093  -0.865   1.135  0.00  0.00     0.006 A 
ATOM      3  C4  UNL d   1      -0.827   0.078   1.600  0.00  0.00     0.002 A 
ATOM      4  C5  UNL d   1      -1.234   1.136   0.779  0.00  0.00    -0.080 A 
ATOM      5  C6  UNL d   1      -2.243   2.138   1.255  0.00  0.00     0.076 C 
ATOM      6  C7  UNL d   1      -0.689   1.249  -0.504  0.00  0.00     0.002 A 
ATOM      7  C8  UNL d   1       0.231   0.306  -0.969  0.00  0.00     0.006 A 
ENDROOT
BRANCH   1   8
ATOM      8  C1  UNL d   1       1.568  -1.814  -0.682  0.00  0.00     0.054 C 
ATOM      9  C   UNL d   1       0.819  -2.890  -1.455  0.00  0.00     0.018 C 
ENDBRANCH   1   8
TORSDOF 1
ENDMDL
