MODEL 1
REMARK minimizedAffinity -3.85040307
REMARK minimizedRMSD -1
REMARK  1 active torsions:
REMARK  status: ('A' for Active; 'I' for Inactive)
REMARK    1  A    between atoms: C1_2  and  C2_3 
ROOT
ATOM      1  C2  UNL d   1       0.499  -0.741  -0.288  0.00  0.00    -0.081 A 
ATOM      2  C3  UNL d   1      -0.040  -0.854   1.000  0.00  0.00     0.006 A 
ATOM      3  C4  UNL d   1      -0.898   0.129   1.497  0.00  0.00     0.002 A 
ATOM      4  C5  UNL d   1      -1.237   1.238   0.714  0.00  0.00    -0.080 A 
ATOM      5  C6  UNL d   1      -2.181   2.285   1.225  0.00  0.00     0.076 C 
ATOM      6  C7  UNL d   1      -0.685   1.360  -0.565  0.00  0.00     0.002 A 
ATOM      7  C8  UNL d   1       0.174   0.377  -1.063  0.00  0.00     0.006 A 
ENDROOT
BRANCH   1   8
ATOM      8  C1  UNL d   1       1.373  -1.832  -0.852  0.00  0.00     0.054 C 
ATOM      9  C   UNL d   1       0.623  -2.665  -1.881  0.00  0.00     0.018 C 
ENDBRANCH   1   8
TORSDOF 1
ENDMDL
