MODEL 1
REMARK minimizedAffinity -3.40398717
REMARK minimizedRMSD -1
REMARK  1 active torsions:
REMARK  status: ('A' for Active; 'I' for Inactive)
REMARK    1  A    between atoms: C1_2  and  C2_3 
ROOT
ATOM      1  C2  UNL d   1       0.548  -1.264  -0.544  0.00  0.00    -0.081 A 
ATOM      2  C3  UNL d   1       0.085  -1.395   0.771  0.00  0.00     0.006 A 
ATOM      3  C4  UNL d   1      -0.457  -0.297   1.444  0.00  0.00     0.002 A 
ATOM      4  C5  UNL d   1      -0.550   0.948   0.811  0.00  0.00    -0.080 A 
ATOM      5  C6  UNL d   1      -1.157   2.127   1.512  0.00  0.00     0.076 C 
ATOM      6  C7  UNL d   1      -0.071   1.083  -0.496  0.00  0.00     0.002 A 
ATOM      7  C8  UNL d   1       0.471  -0.014  -1.169  0.00  0.00     0.006 A 
ENDROOT
BRANCH   1   8
ATOM      8  C1  UNL d   1       1.073  -2.461  -1.294  0.00  0.00     0.054 C 
ATOM      9  C   UNL d   1       0.394  -2.606  -2.648  0.00  0.00     0.018 C 
ENDBRANCH   1   8
TORSDOF 1
ENDMDL
