MODEL 1
REMARK minimizedAffinity -0.504184306
REMARK minimizedRMSD -1
REMARK  1 active torsions:
REMARK  status: ('A' for Active; 'I' for Inactive)
REMARK    1  A    between atoms: C1_2  and  C2_3 
ROOT
ATOM      1  C2  UNL d   1       0.404  -1.073  -0.226  0.00  0.00    -0.081 A 
ATOM      2  C3  UNL d   1      -0.032  -1.165   1.101  0.00  0.00     0.006 A 
ATOM      3  C4  UNL d   1      -0.872  -0.187   1.640  0.00  0.00     0.002 A 
ATOM      4  C5  UNL d   1      -1.296   0.893   0.859  0.00  0.00    -0.080 A 
ATOM      5  C6  UNL d   1      -2.222   1.934   1.415  0.00  0.00     0.076 C 
ATOM      6  C7  UNL d   1      -0.846   0.994  -0.462  0.00  0.00     0.002 A 
ATOM      7  C8  UNL d   1      -0.005   0.018  -1.001  0.00  0.00     0.006 A 
ENDROOT
BRANCH   1   8
ATOM      8  C1  UNL d   1       1.258  -2.159  -0.829  0.00  0.00     0.054 C 
ATOM      9  C   UNL d   1       0.458  -3.016  -1.801  0.00  0.00     0.018 C 
ENDBRANCH   1   8
TORSDOF 1
ENDMDL
