MODEL 1
REMARK minimizedAffinity -4.87450027
REMARK minimizedRMSD -1
REMARK  1 active torsions:
REMARK  status: ('A' for Active; 'I' for Inactive)
REMARK    1  A    between atoms: C1_2  and  C2_3 
ROOT
ATOM      1  C2  UNL d   1       0.165  -0.284  -0.521  0.00  0.00    -0.081 A 
ATOM      2  C3  UNL d   1      -0.098  -0.406   0.849  0.00  0.00     0.006 A 
ATOM      3  C4  UNL d   1      -0.810   0.589   1.524  0.00  0.00     0.002 A 
ATOM      4  C5  UNL d   1      -1.277   1.716   0.840  0.00  0.00    -0.080 A 
ATOM      5  C6  UNL d   1      -2.068   2.776   1.547  0.00  0.00     0.076 C 
ATOM      6  C7  UNL d   1      -0.999   1.846  -0.525  0.00  0.00     0.002 A 
ATOM      7  C8  UNL d   1      -0.287   0.853  -1.200  0.00  0.00     0.006 A 
ENDROOT
BRANCH   1   8
ATOM      8  C1  UNL d   1       0.876  -1.385  -1.266  0.00  0.00     0.054 C 
ATOM      9  C   UNL d   1      -0.027  -2.015  -2.317  0.00  0.00     0.018 C 
ENDBRANCH   1   8
TORSDOF 1
ENDMDL
