MODEL 1
REMARK minimizedAffinity -1.98267341
REMARK minimizedRMSD -1
REMARK  1 active torsions:
REMARK  status: ('A' for Active; 'I' for Inactive)
REMARK    1  A    between atoms: C1_2  and  C2_3 
ROOT
ATOM      1  C2  UNL d   1      -0.358   0.047  -0.842  0.00  0.00    -0.081 A 
ATOM      2  C3  UNL d   1      -0.722  -0.441  -2.103  0.00  0.00     0.006 A 
ATOM      3  C4  UNL d   1      -0.279  -1.694  -2.533  0.00  0.00     0.002 A 
ATOM      4  C5  UNL d   1       0.529  -2.483  -1.706  0.00  0.00    -0.080 A 
ATOM      5  C6  UNL d   1       0.987  -3.843  -2.143  0.00  0.00     0.076 C 
ATOM      6  C7  UNL d   1       0.908  -1.988  -0.454  0.00  0.00     0.002 A 
ATOM      7  C8  UNL d   1       0.465  -0.735  -0.024  0.00  0.00     0.006 A 
ENDROOT
BRANCH   1   8
ATOM      8  C1  UNL d   1      -0.888   1.370  -0.350  0.00  0.00     0.054 C 
ATOM      9  C   UNL d   1      -0.443   2.513  -1.250  0.00  0.00     0.018 C 
ENDBRANCH   1   8
TORSDOF 1
ENDMDL
