MODEL 1
REMARK minimizedAffinity -0.426554203
REMARK minimizedRMSD -1
REMARK  1 active torsions:
REMARK  status: ('A' for Active; 'I' for Inactive)
REMARK    1  A    between atoms: C1_2  and  C2_3 
ROOT
ATOM      1  C2  UNL d   1       0.043   0.210  -0.496  0.00  0.00    -0.081 A 
ATOM      2  C3  UNL d   1       0.888   1.126  -1.133  0.00  0.00     0.006 A 
ATOM      3  C4  UNL d   1       0.416   2.389  -1.500  0.00  0.00     0.002 A 
ATOM      4  C5  UNL d   1      -0.905   2.759  -1.229  0.00  0.00    -0.080 A 
ATOM      5  C6  UNL d   1      -1.416   4.122  -1.590  0.00  0.00     0.076 C 
ATOM      6  C7  UNL d   1      -1.755   1.837  -0.608  0.00  0.00     0.002 A 
ATOM      7  C8  UNL d   1      -1.284   0.574  -0.241  0.00  0.00     0.006 A 
ENDROOT
BRANCH   1   8
ATOM      8  C1  UNL d   1       0.567  -1.128  -0.041  0.00  0.00     0.054 C 
ATOM      9  C   UNL d   1       0.412  -1.300   1.463  0.00  0.00     0.018 C 
ENDBRANCH   1   8
TORSDOF 1
ENDMDL
