MODEL 1
REMARK minimizedAffinity -3.28329039
REMARK minimizedRMSD -1
REMARK  1 active torsions:
REMARK  status: ('A' for Active; 'I' for Inactive)
REMARK    1  A    between atoms: C1_2  and  C2_3 
ROOT
ATOM      1  C2  UNL d   1       0.223  -0.523  -0.173  0.00  0.00    -0.081 A 
ATOM      2  C3  UNL d   1      -0.284  -0.610   1.129  0.00  0.00     0.006 A 
ATOM      3  C4  UNL d   1      -0.992   0.458   1.686  0.00  0.00     0.002 A 
ATOM      4  C5  UNL d   1      -1.211   1.626   0.949  0.00  0.00    -0.080 A 
ATOM      5  C6  UNL d   1      -1.995   2.768   1.524  0.00  0.00     0.076 C 
ATOM      6  C7  UNL d   1      -0.689   1.720  -0.346  0.00  0.00     0.002 A 
ATOM      7  C8  UNL d   1       0.019   0.653  -0.903  0.00  0.00     0.006 A 
ENDROOT
BRANCH   1   8
ATOM      8  C1  UNL d   1       0.930  -1.697  -0.800  0.00  0.00     0.054 C 
ATOM      9  C   UNL d   1       0.097  -2.315  -1.914  0.00  0.00     0.018 C 
ENDBRANCH   1   8
TORSDOF 1
ENDMDL
