MODEL 1
REMARK minimizedAffinity 1.51982582
REMARK minimizedRMSD -1
REMARK  1 active torsions:
REMARK  status: ('A' for Active; 'I' for Inactive)
REMARK    1  A    between atoms: C1_2  and  C2_3 
ROOT
ATOM      1  C2  UNL d   1       0.361  -1.818  -1.081  0.00  0.00    -0.081 A 
ATOM      2  C3  UNL d   1       0.802  -1.291   0.138  0.00  0.00     0.006 A 
ATOM      3  C4  UNL d   1       0.429  -0.002   0.529  0.00  0.00     0.002 A 
ATOM      4  C5  UNL d   1      -0.397   0.776  -0.290  0.00  0.00    -0.080 A 
ATOM      5  C6  UNL d   1      -0.829   2.150   0.131  0.00  0.00     0.076 C 
ATOM      6  C7  UNL d   1      -0.823   0.256  -1.516  0.00  0.00     0.002 A 
ATOM      7  C8  UNL d   1      -0.450  -1.032  -1.907  0.00  0.00     0.006 A 
ENDROOT
BRANCH   1   8
ATOM      8  C1  UNL d   1       0.708  -3.231  -1.475  0.00  0.00     0.054 C 
ATOM      9  C   UNL d   1      -0.182  -3.724  -2.608  0.00  0.00     0.018 C 
ENDBRANCH   1   8
TORSDOF 1
ENDMDL
