MODEL 1
REMARK minimizedAffinity -0.940100551
REMARK minimizedRMSD -1
REMARK  1 active torsions:
REMARK  status: ('A' for Active; 'I' for Inactive)
REMARK    1  A    between atoms: C1_2  and  C2_3 
ROOT
ATOM      1  C2  UNL d   1      -0.125  -0.623  -0.175  0.00  0.00    -0.081 A 
ATOM      2  C3  UNL d   1      -1.415  -0.132  -0.408  0.00  0.00     0.006 A 
ATOM      3  C4  UNL d   1      -1.602   1.157  -0.914  0.00  0.00     0.002 A 
ATOM      4  C5  UNL d   1      -0.502   1.972  -1.203  0.00  0.00    -0.080 A 
ATOM      5  C6  UNL d   1      -0.687   3.346  -1.775  0.00  0.00     0.076 C 
ATOM      6  C7  UNL d   1       0.787   1.487  -0.954  0.00  0.00     0.002 A 
ATOM      7  C8  UNL d   1       0.974   0.199  -0.448  0.00  0.00     0.006 A 
ENDROOT
BRANCH   1   8
ATOM      8  C1  UNL d   1       0.081  -2.036   0.309  0.00  0.00     0.054 C 
ATOM      9  C   UNL d   1       0.293  -2.994  -0.854  0.00  0.00     0.018 C 
ENDBRANCH   1   8
TORSDOF 1
ENDMDL
