MODEL 1
REMARK minimizedAffinity -5.67040157
REMARK minimizedRMSD -1
REMARK  0 active torsions:
REMARK  status: ('A' for Active; 'I' for Inactive)
ROOT
ATOM      1  C2' OXE d   1       2.117  -1.204   1.002  0.00  0.00     0.078 C 
ATOM      2  C1' OXE d   1      -0.028  -0.368  -0.603  0.00  0.00     0.078 C 
ATOM      3  C1  OXE d   1      -0.030   0.049   0.846  0.00  0.00    -0.078 A 
ATOM      4  C2  OXE d   1       1.000  -0.403   1.635  0.00  0.00    -0.078 A 
ATOM      5  C3  OXE d   1       1.076  -0.003   2.966  0.00  0.00     0.003 A 
ATOM      6  C4  OXE d   1       0.033   0.730   3.546  0.00  0.00    -0.002 A 
ATOM      7  C5  OXE d   1      -1.045   1.167   2.770  0.00  0.00    -0.002 A 
ATOM      8  C6  OXE d   1      -1.070   0.872   1.411  0.00  0.00     0.003 A 
ENDROOT
TORSDOF 0
ENDMDL
