MODEL 1
REMARK minimizedAffinity 2.47095704
REMARK minimizedRMSD -1
REMARK  0 active torsions:
REMARK  status: ('A' for Active; 'I' for Inactive)
ROOT
ATOM      1  C2' OXE d   1       0.551  -1.192  -1.579  0.00  0.00     0.078 C 
ATOM      2  C1' OXE d   1       2.947  -0.999  -0.129  0.00  0.00     0.078 C 
ATOM      3  C1  OXE d   1       1.680  -0.531   0.541  0.00  0.00    -0.078 A 
ATOM      4  C2  OXE d   1       0.519  -0.586  -0.193  0.00  0.00    -0.078 A 
ATOM      5  C3  OXE d   1      -0.687  -0.218   0.396  0.00  0.00     0.003 A 
ATOM      6  C4  OXE d   1      -0.707   0.352   1.675  0.00  0.00    -0.002 A 
ATOM      7  C5  OXE d   1       0.470   0.453   2.425  0.00  0.00    -0.002 A 
ATOM      8  C6  OXE d   1       1.662  -0.022   1.890  0.00  0.00     0.003 A 
ENDROOT
TORSDOF 0
ENDMDL
