MODEL 1
REMARK minimizedAffinity 2.57135105
REMARK minimizedRMSD -1
REMARK  0 active torsions:
REMARK  status: ('A' for Active; 'I' for Inactive)
ROOT
ATOM      1  C2' OXE d   1      -0.463  -1.054  -0.186  0.00  0.00     0.078 C 
ATOM      2  C1' OXE d   1       1.826   0.485   0.335  0.00  0.00     0.078 C 
ATOM      3  C1  OXE d   1       0.750   0.443   1.392  0.00  0.00    -0.078 A 
ATOM      4  C2  OXE d   1      -0.387  -0.275   1.109  0.00  0.00    -0.078 A 
ATOM      5  C3  OXE d   1      -1.386  -0.391   2.070  0.00  0.00     0.003 A 
ATOM      6  C4  OXE d   1      -1.312   0.342   3.261  0.00  0.00    -0.002 A 
ATOM      7  C5  OXE d   1      -0.181   1.111   3.553  0.00  0.00    -0.002 A 
ATOM      8  C6  OXE d   1       0.876   1.138   2.649  0.00  0.00     0.003 A 
ENDROOT
TORSDOF 0
ENDMDL
