MODEL 1
REMARK minimizedAffinity -3.27121997
REMARK minimizedRMSD -1
REMARK  0 active torsions:
REMARK  status: ('A' for Active; 'I' for Inactive)
ROOT
ATOM      1  C2' OXE d   1       1.663   0.531   1.510  0.00  0.00     0.078 C 
ATOM      2  C1' OXE d   1      -0.440   1.698   2.958  0.00  0.00     0.078 C 
ATOM      3  C1  OXE d   1      -0.797   0.748   1.842  0.00  0.00    -0.078 A 
ATOM      4  C2  OXE d   1       0.237   0.218   1.109  0.00  0.00    -0.078 A 
ATOM      5  C3  OXE d   1      -0.033  -0.706   0.104  0.00  0.00     0.003 A 
ATOM      6  C4  OXE d   1      -1.354  -0.983  -0.268  0.00  0.00    -0.002 A 
ATOM      7  C5  OXE d   1      -2.423  -0.423   0.440  0.00  0.00    -0.002 A 
ATOM      8  C6  OXE d   1      -2.162   0.410   1.522  0.00  0.00     0.003 A 
ENDROOT
TORSDOF 0
ENDMDL
