MODEL 1
REMARK minimizedAffinity -2.18064117
REMARK minimizedRMSD -1
REMARK  0 active torsions:
REMARK  status: ('A' for Active; 'I' for Inactive)
ROOT
ATOM      1  C2' OXE d   1       1.261  -0.007  -2.829  0.00  0.00     0.078 C 
ATOM      2  C1' OXE d   1      -0.028   1.955  -1.290  0.00  0.00     0.078 C 
ATOM      3  C1  OXE d   1       0.800   0.924  -0.565  0.00  0.00    -0.078 A 
ATOM      4  C2  OXE d   1       1.389  -0.060  -1.321  0.00  0.00    -0.078 A 
ATOM      5  C3  OXE d   1       2.208  -1.004  -0.708  0.00  0.00     0.003 A 
ATOM      6  C4  OXE d   1       2.313  -1.052   0.687  0.00  0.00    -0.002 A 
ATOM      7  C5  OXE d   1       1.689  -0.083   1.480  0.00  0.00    -0.002 A 
ATOM      8  C6  OXE d   1       0.965   0.935   0.868  0.00  0.00     0.003 A 
ENDROOT
TORSDOF 0
ENDMDL
