MODEL 1
REMARK minimizedAffinity -3.14481378
REMARK minimizedRMSD -1
REMARK  0 active torsions:
REMARK  status: ('A' for Active; 'I' for Inactive)
ROOT
ATOM      1  C2' OXE d   1      -1.904   0.750   0.604  0.00  0.00     0.078 C 
ATOM      2  C1' OXE d   1      -0.858   1.675   3.039  0.00  0.00     0.078 C 
ATOM      3  C1  OXE d   1       0.075   0.948   2.103  0.00  0.00    -0.078 A 
ATOM      4  C2  OXE d   1      -0.456   0.458   0.935  0.00  0.00    -0.078 A 
ATOM      5  C3  OXE d   1       0.373  -0.173   0.012  0.00  0.00     0.003 A 
ATOM      6  C4  OXE d   1       1.708  -0.448   0.330  0.00  0.00    -0.002 A 
ATOM      7  C5  OXE d   1       2.260   0.008   1.532  0.00  0.00    -0.002 A 
ATOM      8  C6  OXE d   1       1.470   0.743   2.409  0.00  0.00     0.003 A 
ENDROOT
TORSDOF 0
ENDMDL
