MODEL 1
REMARK minimizedAffinity 3.51773739
REMARK minimizedRMSD -1
REMARK  0 active torsions:
REMARK  status: ('A' for Active; 'I' for Inactive)
ROOT
ATOM      1  C2' OXE d   1      -0.902  -1.124   6.000  0.00  0.00     0.078 C 
ATOM      2  C1' OXE d   1       1.512  -1.881   4.784  0.00  0.00     0.078 C 
ATOM      3  C1  OXE d   1       1.213  -0.407   4.897  0.00  0.00    -0.078 A 
ATOM      4  C2  OXE d   1       0.009  -0.046   5.452  0.00  0.00    -0.078 A 
ATOM      5  C3  OXE d   1      -0.293   1.301   5.630  0.00  0.00     0.003 A 
ATOM      6  C4  OXE d   1       0.550   2.291   5.111  0.00  0.00    -0.002 A 
ATOM      7  C5  OXE d   1       1.764   1.944   4.507  0.00  0.00    -0.002 A 
ATOM      8  C6  OXE d   1       2.129   0.605   4.430  0.00  0.00     0.003 A 
ENDROOT
TORSDOF 0
ENDMDL
