MODEL 1
REMARK minimizedAffinity 0.166177049
REMARK minimizedRMSD -1
REMARK  0 active torsions:
REMARK  status: ('A' for Active; 'I' for Inactive)
ROOT
ATOM      1  C2' OXE d   1      -0.779   1.975  -1.605  0.00  0.00     0.078 C 
ATOM      2  C1' OXE d   1       0.587  -0.209  -2.721  0.00  0.00     0.078 C 
ATOM      3  C1  OXE d   1       0.628  -0.045  -1.222  0.00  0.00    -0.078 A 
ATOM      4  C2  OXE d   1      -0.004   1.052  -0.689  0.00  0.00    -0.078 A 
ATOM      5  C3  OXE d   1      -0.044   1.221   0.692  0.00  0.00     0.003 A 
ATOM      6  C4  OXE d   1       0.683   0.369   1.532  0.00  0.00    -0.002 A 
ATOM      7  C5  OXE d   1       1.367  -0.733   1.005  0.00  0.00    -0.002 A 
ATOM      8  C6  OXE d   1       1.314  -0.977  -0.362  0.00  0.00     0.003 A 
ENDROOT
TORSDOF 0
ENDMDL
