MODEL 1
REMARK minimizedAffinity -2.8294313
REMARK minimizedRMSD -1
REMARK  0 active torsions:
REMARK  status: ('A' for Active; 'I' for Inactive)
ROOT
ATOM      1  C1  BNZ d   1      -0.024  -2.078  -3.210  0.00  0.00     0.000 A 
ATOM      2  C2  BNZ d   1       0.248  -1.006  -2.402  0.00  0.00     0.000 A 
ATOM      3  C3  BNZ d   1       0.864  -1.178  -1.194  0.00  0.00     0.000 A 
ATOM      4  C4  BNZ d   1       1.170  -2.424  -0.778  0.00  0.00     0.000 A 
ATOM      5  C5  BNZ d   1       0.893  -3.516  -1.576  0.00  0.00     0.000 A 
ATOM      6  C6  BNZ d   1       0.308  -3.335  -2.808  0.00  0.00     0.000 A 
ENDROOT
TORSDOF 0
ENDMDL
