MODEL 1
REMARK minimizedAffinity -2.11488914
REMARK minimizedRMSD -1
REMARK  0 active torsions:
REMARK  status: ('A' for Active; 'I' for Inactive)
ROOT
ATOM      1  C1  BNZ d   1       0.607  -2.026  -2.830  0.00  0.00     0.000 A 
ATOM      2  C2  BNZ d   1      -0.289  -3.041  -3.036  0.00  0.00     0.000 A 
ATOM      3  C3  BNZ d   1      -0.268  -4.162  -2.254  0.00  0.00     0.000 A 
ATOM      4  C4  BNZ d   1       0.672  -4.284  -1.295  0.00  0.00     0.000 A 
ATOM      5  C5  BNZ d   1       1.587  -3.272  -1.081  0.00  0.00     0.000 A 
ATOM      6  C6  BNZ d   1       1.539  -2.129  -1.844  0.00  0.00     0.000 A 
ENDROOT
TORSDOF 0
ENDMDL
