MODEL 1
REMARK minimizedAffinity -3.12231755
REMARK minimizedRMSD -1
REMARK  0 active torsions:
REMARK  status: ('A' for Active; 'I' for Inactive)
ROOT
ATOM      1  C1  BNZ d   1      -0.086  -0.264   1.053  0.00  0.00     0.000 A 
ATOM      2  C2  BNZ d   1       0.722  -0.278  -0.053  0.00  0.00     0.000 A 
ATOM      3  C3  BNZ d   1       0.944   0.862  -0.773  0.00  0.00     0.000 A 
ATOM      4  C4  BNZ d   1       0.327   2.005  -0.411  0.00  0.00     0.000 A 
ATOM      5  C5  BNZ d   1      -0.498   2.034   0.696  0.00  0.00     0.000 A 
ATOM      6  C6  BNZ d   1      -0.688   0.893   1.441  0.00  0.00     0.000 A 
ENDROOT
TORSDOF 0
ENDMDL
