MODEL 1
REMARK minimizedAffinity -2.61153173
REMARK minimizedRMSD -1
REMARK  0 active torsions:
REMARK  status: ('A' for Active; 'I' for Inactive)
ROOT
ATOM      1  C1  BNZ d   1       1.105  -0.194   0.559  0.00  0.00     0.000 A 
ATOM      2  C2  BNZ d   1       0.818  -0.747   1.779  0.00  0.00     0.000 A 
ATOM      3  C3  BNZ d   1      -0.181  -0.238   2.560  0.00  0.00     0.000 A 
ATOM      4  C4  BNZ d   1      -0.865   0.846   2.140  0.00  0.00     0.000 A 
ATOM      5  C5  BNZ d   1      -0.581   1.421   0.917  0.00  0.00     0.000 A 
ATOM      6  C6  BNZ d   1       0.399   0.882   0.116  0.00  0.00     0.000 A 
ENDROOT
TORSDOF 0
ENDMDL
