MODEL 1
REMARK minimizedAffinity -1.88213599
REMARK minimizedRMSD -1
REMARK  0 active torsions:
REMARK  status: ('A' for Active; 'I' for Inactive)
ROOT
ATOM      1  C1  BNZ d   1       0.058  -2.177  -2.884  0.00  0.00     0.000 A 
ATOM      2  C2  BNZ d   1       0.076  -0.982  -2.215  0.00  0.00     0.000 A 
ATOM      3  C3  BNZ d   1       0.505  -0.912  -0.919  0.00  0.00     0.000 A 
ATOM      4  C4  BNZ d   1       0.875  -2.041  -0.281  0.00  0.00     0.000 A 
ATOM      5  C5  BNZ d   1       0.853  -3.254  -0.939  0.00  0.00     0.000 A 
ATOM      6  C6  BNZ d   1       0.458  -3.315  -2.255  0.00  0.00     0.000 A 
ENDROOT
TORSDOF 0
ENDMDL
