MODEL 1
REMARK minimizedAffinity -3.34728932
REMARK minimizedRMSD -1
REMARK  0 active torsions:
REMARK  status: ('A' for Active; 'I' for Inactive)
ROOT
ATOM      1  C1  BNZ d   1      -0.872   0.908   2.083  0.00  0.00     0.000 A 
ATOM      2  C2  BNZ d   1      -0.462  -0.294   1.571  0.00  0.00     0.000 A 
ATOM      3  C3  BNZ d   1       0.294  -0.348   0.433  0.00  0.00     0.000 A 
ATOM      4  C4  BNZ d   1       0.605   0.795  -0.212  0.00  0.00     0.000 A 
ATOM      5  C5  BNZ d   1       0.191   2.013   0.287  0.00  0.00     0.000 A 
ATOM      6  C6  BNZ d   1      -0.537   2.067   1.453  0.00  0.00     0.000 A 
ENDROOT
TORSDOF 0
ENDMDL
