MODEL 1
REMARK minimizedAffinity -3.10601616
REMARK minimizedRMSD -1
REMARK  0 active torsions:
REMARK  status: ('A' for Active; 'I' for Inactive)
ROOT
ATOM      1  C1  BNZ d   1      -1.280   0.447   2.116  0.00  0.00     0.000 A 
ATOM      2  C2  BNZ d   1      -0.850  -0.708   1.519  0.00  0.00     0.000 A 
ATOM      3  C3  BNZ d   1      -0.115  -0.669   0.367  0.00  0.00     0.000 A 
ATOM      4  C4  BNZ d   1       0.155   0.521  -0.207  0.00  0.00     0.000 A 
ATOM      5  C5  BNZ d   1      -0.279   1.694   0.378  0.00  0.00     0.000 A 
ATOM      6  C6  BNZ d   1      -0.985   1.653   1.558  0.00  0.00     0.000 A 
ENDROOT
TORSDOF 0
ENDMDL
