MODEL 1
REMARK minimizedAffinity -2.69214272
REMARK minimizedRMSD -1
REMARK  0 active torsions:
REMARK  status: ('A' for Active; 'I' for Inactive)
ROOT
ATOM      1  C1  BNZ d   1       0.047  -2.025  -3.278  0.00  0.00     0.000 A 
ATOM      2  C2  BNZ d   1      -0.006  -1.017  -2.353  0.00  0.00     0.000 A 
ATOM      3  C3  BNZ d   1       0.604  -1.150  -1.137  0.00  0.00     0.000 A 
ATOM      4  C4  BNZ d   1       1.230  -2.305  -0.832  0.00  0.00     0.000 A 
ATOM      5  C5  BNZ d   1       1.284  -3.334  -1.750  0.00  0.00     0.000 A 
ATOM      6  C6  BNZ d   1       0.703  -3.182  -2.988  0.00  0.00     0.000 A 
ENDROOT
TORSDOF 0
ENDMDL
