MODEL 1
REMARK minimizedAffinity -1.72687316
REMARK minimizedRMSD -1
REMARK  0 active torsions:
REMARK  status: ('A' for Active; 'I' for Inactive)
ROOT
ATOM      1  C1  BNZ d   1       0.154  -4.157  -1.673  0.00  0.00     0.000 A 
ATOM      2  C2  BNZ d   1      -0.418  -3.934  -2.897  0.00  0.00     0.000 A 
ATOM      3  C3  BNZ d   1      -0.383  -2.693  -3.470  0.00  0.00     0.000 A 
ATOM      4  C4  BNZ d   1       0.189  -1.670  -2.803  0.00  0.00     0.000 A 
ATOM      5  C5  BNZ d   1       0.762  -1.878  -1.564  0.00  0.00     0.000 A 
ATOM      6  C6  BNZ d   1       0.759  -3.136  -1.007  0.00  0.00     0.000 A 
ENDROOT
TORSDOF 0
ENDMDL
