MODEL 1
REMARK minimizedAffinity -2.27748299
REMARK minimizedRMSD -1
REMARK  0 active torsions:
REMARK  status: ('A' for Active; 'I' for Inactive)
ROOT
ATOM      1  C1  BNZ d   1       1.071  -3.721  -1.776  0.00  0.00     0.000 A 
ATOM      2  C2  BNZ d   1       1.357  -2.712  -0.896  0.00  0.00     0.000 A 
ATOM      3  C3  BNZ d   1       0.940  -1.433  -1.138  0.00  0.00     0.000 A 
ATOM      4  C4  BNZ d   1       0.272  -1.158  -2.278  0.00  0.00     0.000 A 
ATOM      5  C5  BNZ d   1      -0.015  -2.163  -3.179  0.00  0.00     0.000 A 
ATOM      6  C6  BNZ d   1       0.373  -3.456  -2.914  0.00  0.00     0.000 A 
ENDROOT
TORSDOF 0
ENDMDL
