MODEL 1
REMARK minimizedAffinity -2.5634377
REMARK minimizedRMSD -1
REMARK  0 active torsions:
REMARK  status: ('A' for Active; 'I' for Inactive)
ROOT
ATOM      1  C1  BNZ d   1       0.170  -0.309   0.458  0.00  0.00     0.000 A 
ATOM      2  C2  BNZ d   1      -0.438  -0.099   1.667  0.00  0.00     0.000 A 
ATOM      3  C3  BNZ d   1      -0.929   1.133   1.998  0.00  0.00     0.000 A 
ATOM      4  C4  BNZ d   1      -0.778   2.161   1.138  0.00  0.00     0.000 A 
ATOM      5  C5  BNZ d   1      -0.159   1.966  -0.081  0.00  0.00     0.000 A 
ATOM      6  C6  BNZ d   1       0.299   0.716  -0.427  0.00  0.00     0.000 A 
ENDROOT
TORSDOF 0
ENDMDL
