MODEL 1
REMARK minimizedAffinity -3.69279218
REMARK minimizedRMSD -1
REMARK  0 active torsions:
REMARK  status: ('A' for Active; 'I' for Inactive)
ROOT
ATOM      1  C1  BNZ d   1       0.838  -1.786  -3.030  0.00  0.00     0.000 A 
ATOM      2  C2  BNZ d   1      -0.016  -2.686  -3.609  0.00  0.00     0.000 A 
ATOM      3  C3  BNZ d   1      -0.276  -3.888  -3.013  0.00  0.00     0.000 A 
ATOM      4  C4  BNZ d   1       0.347  -4.205  -1.859  0.00  0.00     0.000 A 
ATOM      5  C5  BNZ d   1       1.218  -3.311  -1.267  0.00  0.00     0.000 A 
ATOM      6  C6  BNZ d   1       1.447  -2.086  -1.851  0.00  0.00     0.000 A 
ENDROOT
TORSDOF 0
ENDMDL
