MODEL 1
REMARK minimizedAffinity -1.01225638
REMARK minimizedRMSD -1
REMARK  0 active torsions:
REMARK  status: ('A' for Active; 'I' for Inactive)
ROOT
ATOM      1  C1  BNZ d   1       0.597  -2.022  -3.525  0.00  0.00     0.000 A 
ATOM      2  C2  BNZ d   1       1.149  -1.097  -2.679  0.00  0.00     0.000 A 
ATOM      3  C3  BNZ d   1       1.421  -1.414  -1.378  0.00  0.00     0.000 A 
ATOM      4  C4  BNZ d   1       1.106  -2.641  -0.914  0.00  0.00     0.000 A 
ATOM      5  C5  BNZ d   1       0.541  -3.581  -1.752  0.00  0.00     0.000 A 
ATOM      6  C6  BNZ d   1       0.304  -3.271  -3.072  0.00  0.00     0.000 A 
ENDROOT
TORSDOF 0
ENDMDL
