MODEL 1
REMARK minimizedAffinity -3.7127986
REMARK minimizedRMSD -1
REMARK  0 active torsions:
REMARK  status: ('A' for Active; 'I' for Inactive)
ROOT
ATOM      1  C1  BNZ d   1       0.290  -1.483  -2.133  0.00  0.00     0.000 A 
ATOM      2  C2  BNZ d   1      -0.598  -2.447  -2.530  0.00  0.00     0.000 A 
ATOM      3  C3  BNZ d   1      -0.387  -3.762  -2.222  0.00  0.00     0.000 A 
ATOM      4  C4  BNZ d   1       0.730  -4.116  -1.554  0.00  0.00     0.000 A 
ATOM      5  C5  BNZ d   1       1.639  -3.156  -1.155  0.00  0.00     0.000 A 
ATOM      6  C6  BNZ d   1       1.404  -1.829  -1.433  0.00  0.00     0.000 A 
ENDROOT
TORSDOF 0
ENDMDL
