MODEL 1
REMARK minimizedAffinity -2.9923296
REMARK minimizedRMSD -1
REMARK  0 active torsions:
REMARK  status: ('A' for Active; 'I' for Inactive)
ROOT
ATOM      1  C1  BNZ d   1      -0.379   1.535  -0.283  0.00  0.00     0.000 A 
ATOM      2  C2  BNZ d   1       0.231   0.364  -0.646  0.00  0.00     0.000 A 
ATOM      3  C3  BNZ d   1       0.313  -0.683   0.228  0.00  0.00     0.000 A 
ATOM      4  C4  BNZ d   1      -0.179  -0.545   1.476  0.00  0.00     0.000 A 
ATOM      5  C5  BNZ d   1      -0.789   0.633   1.861  0.00  0.00     0.000 A 
ATOM      6  C6  BNZ d   1      -0.904   1.671   0.965  0.00  0.00     0.000 A 
ENDROOT
TORSDOF 0
ENDMDL
