MODEL 1
REMARK minimizedAffinity -0.746881902
REMARK minimizedRMSD -1
REMARK  0 active torsions:
REMARK  status: ('A' for Active; 'I' for Inactive)
ROOT
ATOM      1  C1  BNZ d   1      -0.018  -0.726   0.432  0.00  0.00     0.000 A 
ATOM      2  C2  BNZ d   1      -0.807  -0.965   1.525  0.00  0.00     0.000 A 
ATOM      3  C3  BNZ d   1      -1.268   0.066   2.295  0.00  0.00     0.000 A 
ATOM      4  C4  BNZ d   1      -0.908   1.330   1.993  0.00  0.00     0.000 A 
ATOM      5  C5  BNZ d   1      -0.106   1.587   0.900  0.00  0.00     0.000 A 
ATOM      6  C6  BNZ d   1       0.325   0.550   0.105  0.00  0.00     0.000 A 
ENDROOT
TORSDOF 0
ENDMDL
