MODEL 1
REMARK minimizedAffinity -3.95520449
REMARK minimizedRMSD -1
REMARK  0 active torsions:
REMARK  status: ('A' for Active; 'I' for Inactive)
ROOT
ATOM      1  C1  BNZ d   1      -0.137   1.290  -0.325  0.00  0.00     0.000 A 
ATOM      2  C2  BNZ d   1      -0.745   2.374   0.248  0.00  0.00     0.000 A 
ATOM      3  C3  BNZ d   1      -1.455   2.246   1.409  0.00  0.00     0.000 A 
ATOM      4  C4  BNZ d   1      -1.590   1.028   1.973  0.00  0.00     0.000 A 
ATOM      5  C5  BNZ d   1      -0.990  -0.077   1.401  0.00  0.00     0.000 A 
ATOM      6  C6  BNZ d   1      -0.243   0.063   0.254  0.00  0.00     0.000 A 
ENDROOT
TORSDOF 0
ENDMDL
