MODEL 1
REMARK minimizedAffinity -1.84458911
REMARK minimizedRMSD -1
REMARK  3 active torsions:
REMARK  status: ('A' for Active; 'I' for Inactive)
REMARK    1  A    between atoms: C3'_2  and  C2'_3 
REMARK    2  A    between atoms: C2'_3  and  C1'_4 
REMARK    3  A    between atoms: C1'_4  and  C1_5 
ROOT
ATOM      1  C1  N4B d   1      -0.151   0.047  -0.386  0.00  0.00    -0.075 A 
ATOM      2  C2  N4B d   1       0.798  -0.954  -0.085  0.00  0.00     0.002 A 
ATOM      3  C3  N4B d   1       0.904  -1.436   1.197  0.00  0.00     0.002 A 
ATOM      4  C4  N4B d   1       0.090  -0.919   2.193  0.00  0.00    -0.004 A 
ATOM      5  C5  N4B d   1      -0.842   0.030   1.889  0.00  0.00     0.002 A 
ATOM      6  C6  N4B d   1      -0.963   0.520   0.604  0.00  0.00     0.002 A 
ENDROOT
BRANCH   1   7
ATOM      7  C1' N4B d   1      -0.246   0.665  -1.754  0.00  0.00     0.057 C 
BRANCH   7   8
ATOM      8  C2' N4B d   1      -1.474   1.570  -1.811  0.00  0.00     0.009 C 
BRANCH   8   9
ATOM      9  C3' N4B d   1      -1.336   2.650  -2.871  0.00  0.00     0.004 C 
ATOM     10  C4' N4B d   1       0.094   2.961  -3.200  0.00  0.00     0.003 C 
ENDBRANCH   8   9
ENDBRANCH   7   8
ENDBRANCH   1   7
TORSDOF 3
ENDMDL
