MODEL 1
REMARK minimizedAffinity -0.889781773
REMARK minimizedRMSD -1
REMARK  3 active torsions:
REMARK  status: ('A' for Active; 'I' for Inactive)
REMARK    1  A    between atoms: C3'_2  and  C2'_3 
REMARK    2  A    between atoms: C2'_3  and  C1'_4 
REMARK    3  A    between atoms: C1'_4  and  C1_5 
ROOT
ATOM      1  C1  N4B d   1      -0.624   1.440  -1.856  0.00  0.00    -0.075 A 
ATOM      2  C2  N4B d   1      -1.944   1.941  -1.850  0.00  0.00     0.002 A 
ATOM      3  C3  N4B d   1      -2.193   3.226  -2.268  0.00  0.00     0.002 A 
ATOM      4  C4  N4B d   1      -1.139   4.030  -2.677  0.00  0.00    -0.004 A 
ATOM      5  C5  N4B d   1       0.129   3.530  -2.704  0.00  0.00     0.002 A 
ATOM      6  C6  N4B d   1       0.393   2.239  -2.291  0.00  0.00     0.002 A 
ENDROOT
BRANCH   1   7
ATOM      7  C1' N4B d   1      -0.292   0.071  -1.328  0.00  0.00     0.057 C 
BRANCH   7   8
ATOM      8  C2' N4B d   1       0.076   0.181   0.149  0.00  0.00     0.009 C 
BRANCH   8   9
ATOM      9  C3' N4B d   1      -1.067  -0.247   1.053  0.00  0.00     0.004 C 
ATOM     10  C4' N4B d   1      -0.608  -1.065   2.223  0.00  0.00     0.003 C 
ENDBRANCH   8   9
ENDBRANCH   7   8
ENDBRANCH   1   7
TORSDOF 3
ENDMDL
