MODEL 1
REMARK minimizedAffinity 9.03329086
REMARK minimizedRMSD -1
REMARK  3 active torsions:
REMARK  status: ('A' for Active; 'I' for Inactive)
REMARK    1  A    between atoms: C3'_2  and  C2'_3 
REMARK    2  A    between atoms: C2'_3  and  C1'_4 
REMARK    3  A    between atoms: C1'_4  and  C1_5 
ROOT
ATOM      1  C1  N4B d   1      -4.790   1.803  -3.756  0.00  0.00    -0.075 A 
ATOM      2  C2  N4B d   1      -6.000   1.493  -4.415  0.00  0.00     0.002 A 
ATOM      3  C3  N4B d   1      -5.999   0.622  -5.478  0.00  0.00     0.002 A 
ATOM      4  C4  N4B d   1      -4.804   0.067  -5.908  0.00  0.00    -0.004 A 
ATOM      5  C5  N4B d   1      -3.643   0.352  -5.250  0.00  0.00     0.002 A 
ATOM      6  C6  N4B d   1      -3.630   1.222  -4.179  0.00  0.00     0.002 A 
ENDROOT
BRANCH   1   7
ATOM      7  C1' N4B d   1      -4.728   2.816  -2.645  0.00  0.00     0.057 C 
BRANCH   7   8
ATOM      8  C2' N4B d   1      -3.578   3.782  -2.911  0.00  0.00     0.009 C 
BRANCH   8   9
ATOM      9  C3' N4B d   1      -2.251   3.237  -2.410  0.00  0.00     0.004 C 
ATOM     10  C4' N4B d   1      -1.072   3.846  -3.109  0.00  0.00     0.003 C 
ENDBRANCH   8   9
ENDBRANCH   7   8
ENDBRANCH   1   7
TORSDOF 3
ENDMDL
