MODEL 1
REMARK minimizedAffinity -6.29098082
REMARK minimizedRMSD -1
REMARK  3 active torsions:
REMARK  status: ('A' for Active; 'I' for Inactive)
REMARK    1  A    between atoms: C3'_2  and  C2'_3 
REMARK    2  A    between atoms: C2'_3  and  C1'_4 
REMARK    3  A    between atoms: C1'_4  and  C1_5 
ROOT
ATOM      1  C1  N4B d   1       0.580  -0.084   1.352  0.00  0.00    -0.075 A 
ATOM      2  C2  N4B d   1       0.160  -0.770   2.512  0.00  0.00     0.002 A 
ATOM      3  C3  N4B d   1       1.013  -1.645   3.139  0.00  0.00     0.002 A 
ATOM      4  C4  N4B d   1       2.279  -1.861   2.617  0.00  0.00    -0.004 A 
ATOM      5  C5  N4B d   1       2.687  -1.175   1.511  0.00  0.00     0.002 A 
ATOM      6  C6  N4B d   1       1.841  -0.290   0.872  0.00  0.00     0.002 A 
ENDROOT
BRANCH   1   7
ATOM      7  C1' N4B d   1      -0.347   0.817   0.582  0.00  0.00     0.057 C 
BRANCH   7   8
ATOM      8  C2' N4B d   1       0.014   0.759  -0.899  0.00  0.00     0.009 C 
BRANCH   8   9
ATOM      9  C3' N4B d   1      -1.087   1.332  -1.775  0.00  0.00     0.004 C 
ATOM     10  C4' N4B d   1      -0.748   2.686  -2.324  0.00  0.00     0.003 C 
ENDBRANCH   8   9
ENDBRANCH   7   8
ENDBRANCH   1   7
TORSDOF 3
ENDMDL
