MODEL 1
REMARK minimizedAffinity -6.89374018
REMARK minimizedRMSD -1
REMARK  3 active torsions:
REMARK  status: ('A' for Active; 'I' for Inactive)
REMARK    1  A    between atoms: C3'_2  and  C2'_3 
REMARK    2  A    between atoms: C2'_3  and  C1'_4 
REMARK    3  A    between atoms: C1'_4  and  C1_5 
ROOT
ATOM      1  C1  N4B d   1       0.557  -0.370   0.978  0.00  0.00    -0.075 A 
ATOM      2  C2  N4B d   1       0.652  -0.488   2.383  0.00  0.00     0.002 A 
ATOM      3  C3  N4B d   1       1.702  -1.172   2.945  0.00  0.00     0.002 A 
ATOM      4  C4  N4B d   1       2.654  -1.760   2.126  0.00  0.00    -0.004 A 
ATOM      5  C5  N4B d   1       2.569  -1.620   0.771  0.00  0.00     0.002 A 
ATOM      6  C6  N4B d   1       1.522  -0.932   0.193  0.00  0.00     0.002 A 
ENDROOT
BRANCH   1   7
ATOM      7  C1' N4B d   1      -0.618   0.295   0.315  0.00  0.00     0.057 C 
BRANCH   7   8
ATOM      8  C2' N4B d   1      -0.494   0.138  -1.197  0.00  0.00     0.009 C 
BRANCH   8   9
ATOM      9  C3' N4B d   1      -0.351   1.478  -1.898  0.00  0.00     0.004 C 
ATOM     10  C4' N4B d   1      -1.562   1.844  -2.704  0.00  0.00     0.003 C 
ENDBRANCH   8   9
ENDBRANCH   7   8
ENDBRANCH   1   7
TORSDOF 3
ENDMDL
