MODEL 1
REMARK minimizedAffinity -3.40626812
REMARK minimizedRMSD -1
REMARK  3 active torsions:
REMARK  status: ('A' for Active; 'I' for Inactive)
REMARK    1  A    between atoms: C3'_2  and  C2'_3 
REMARK    2  A    between atoms: C2'_3  and  C1'_4 
REMARK    3  A    between atoms: C1'_4  and  C1_5 
ROOT
ATOM      1  C1  N4B d   1       0.821  -0.741   1.929  0.00  0.00    -0.075 A 
ATOM      2  C2  N4B d   1       0.746   0.128   0.819  0.00  0.00     0.002 A 
ATOM      3  C3  N4B d   1      -0.476   0.568   0.372  0.00  0.00     0.002 A 
ATOM      4  C4  N4B d   1      -1.633   0.138   1.005  0.00  0.00    -0.004 A 
ATOM      5  C5  N4B d   1      -1.550  -0.681   2.093  0.00  0.00     0.002 A 
ATOM      6  C6  N4B d   1      -0.329  -1.127   2.556  0.00  0.00     0.002 A 
ENDROOT
BRANCH   1   7
ATOM      7  C1' N4B d   1       2.128  -1.316   2.401  0.00  0.00     0.057 C 
BRANCH   7   8
ATOM      8  C2' N4B d   1       2.858  -1.940   1.215  0.00  0.00     0.009 C 
BRANCH   8   9
ATOM      9  C3' N4B d   1       1.994  -2.954   0.486  0.00  0.00     0.004 C 
ATOM     10  C4' N4B d   1       2.332  -4.370   0.845  0.00  0.00     0.003 C 
ENDBRANCH   8   9
ENDBRANCH   7   8
ENDBRANCH   1   7
TORSDOF 3
ENDMDL
