MODEL 1
REMARK minimizedAffinity 1.22083294
REMARK minimizedRMSD -1
REMARK  2 active torsions:
REMARK  status: ('A' for Active; 'I' for Inactive)
REMARK    1  A    between atoms: C2'_3  and  C1'_4 
REMARK    2  A    between atoms: C1'_4  and  C1_5 
ROOT
ATOM      1  C1  I4B d   1      -1.450  -0.364   0.147  0.00  0.00    -0.075 A 
ATOM      2  C2  I4B d   1      -1.568  -1.002   1.356  0.00  0.00     0.003 A 
ATOM      3  C3  I4B d   1      -0.433  -1.176   2.185  0.00  0.00     0.002 A 
ATOM      4  C4  I4B d   1       0.802  -0.743   1.745  0.00  0.00    -0.004 A 
ATOM      5  C5  I4B d   1       0.915  -0.076   0.529  0.00  0.00     0.002 A 
ATOM      6  C6  I4B d   1      -0.219   0.127  -0.270  0.00  0.00     0.003 A 
ENDROOT
BRANCH   1   7
ATOM      7  C1' I4B d   1      -2.663  -0.227  -0.717  0.00  0.00     0.060 C 
BRANCH   7   8
ATOM      8  C2' I4B d   1      -3.299  -1.596  -0.850  0.00  0.00    -0.013 C 
ATOM      9  C4' I4B d   1      -4.717  -1.590  -0.344  0.00  0.00     0.013 C 
ATOM     10  C3' I4B d   1      -3.241  -1.995  -2.295  0.00  0.00     0.013 C 
ENDBRANCH   7   8
ENDBRANCH   1   7
TORSDOF 2
ENDMDL
