MODEL 1
REMARK minimizedAffinity -5.73943281
REMARK minimizedRMSD -1
REMARK  2 active torsions:
REMARK  status: ('A' for Active; 'I' for Inactive)
REMARK    1  A    between atoms: C2'_3  and  C1'_4 
REMARK    2  A    between atoms: C1'_4  and  C1_5 
ROOT
ATOM      1  C1  I4B d   1      -0.799  -0.556   0.112  0.00  0.00    -0.075 A 
ATOM      2  C2  I4B d   1      -0.053   0.045   1.095  0.00  0.00     0.003 A 
ATOM      3  C3  I4B d   1       1.361   0.027   1.029  0.00  0.00     0.002 A 
ATOM      4  C4  I4B d   1       1.985  -0.642  -0.005  0.00  0.00    -0.004 A 
ATOM      5  C5  I4B d   1       1.227  -1.231  -1.013  0.00  0.00     0.002 A 
ATOM      6  C6  I4B d   1      -0.174  -1.177  -0.961  0.00  0.00     0.003 A 
ENDROOT
BRANCH   1   7
ATOM      7  C1' I4B d   1      -2.290  -0.547   0.231  0.00  0.00     0.060 C 
BRANCH   7   8
ATOM      8  C2' I4B d   1      -2.863  -1.167  -1.027  0.00  0.00    -0.013 C 
ATOM      9  C4' I4B d   1      -3.976  -2.128  -0.703  0.00  0.00     0.013 C 
ATOM     10  C3' I4B d   1      -3.346  -0.057  -1.911  0.00  0.00     0.013 C 
ENDBRANCH   7   8
ENDBRANCH   1   7
TORSDOF 2
ENDMDL
