MODEL 1
REMARK minimizedAffinity -5.09627056
REMARK minimizedRMSD -1
REMARK  2 active torsions:
REMARK  status: ('A' for Active; 'I' for Inactive)
REMARK    1  A    between atoms: C2'_3  and  C1'_4 
REMARK    2  A    between atoms: C1'_4  and  C1_5 
ROOT
ATOM      1  C1  I4B d   1      -1.210  -0.679   1.167  0.00  0.00    -0.075 A 
ATOM      2  C2  I4B d   1      -0.334   0.038   0.391  0.00  0.00     0.003 A 
ATOM      3  C3  I4B d   1       1.040   0.088   0.729  0.00  0.00     0.002 A 
ATOM      4  C4  I4B d   1       1.483  -0.546   1.872  0.00  0.00    -0.004 A 
ATOM      5  C5  I4B d   1       0.597  -1.291   2.645  0.00  0.00     0.002 A 
ATOM      6  C6  I4B d   1      -0.756  -1.369   2.284  0.00  0.00     0.003 A 
ENDROOT
BRANCH   1   7
ATOM      7  C1' I4B d   1      -2.660  -0.684   0.799  0.00  0.00     0.060 C 
BRANCH   7   8
ATOM      8  C2' I4B d   1      -2.946  -1.968   0.047  0.00  0.00    -0.013 C 
ATOM      9  C4' I4B d   1      -4.381  -2.392   0.219  0.00  0.00     0.013 C 
ATOM     10  C3' I4B d   1      -2.618  -1.741  -1.398  0.00  0.00     0.013 C 
ENDBRANCH   7   8
ENDBRANCH   1   7
TORSDOF 2
ENDMDL
