MODEL 1
REMARK minimizedAffinity -2.55004048
REMARK minimizedRMSD -1
REMARK  2 active torsions:
REMARK  status: ('A' for Active; 'I' for Inactive)
REMARK    1  A    between atoms: C2'_3  and  C1'_4 
REMARK    2  A    between atoms: C1'_4  and  C1_5 
ROOT
ATOM      1  C1  I4B d   1       0.952  -0.473   0.393  0.00  0.00    -0.075 A 
ATOM      2  C2  I4B d   1      -0.068  -0.738   1.272  0.00  0.00     0.003 A 
ATOM      3  C3  I4B d   1       0.182  -0.768   2.666  0.00  0.00     0.002 A 
ATOM      4  C4  I4B d   1       1.467  -0.578   3.130  0.00  0.00    -0.004 A 
ATOM      5  C5  I4B d   1       2.496  -0.287   2.239  0.00  0.00     0.002 A 
ATOM      6  C6  I4B d   1       2.235  -0.222   0.863  0.00  0.00     0.003 A 
ENDROOT
BRANCH   1   7
ATOM      7  C1' I4B d   1       0.660  -0.482  -1.074  0.00  0.00     0.060 C 
BRANCH   7   8
ATOM      8  C2' I4B d   1      -0.707   0.139  -1.281  0.00  0.00    -0.013 C 
ATOM      9  C4' I4B d   1      -0.607   1.437  -2.039  0.00  0.00     0.013 C 
ATOM     10  C3' I4B d   1      -1.559  -0.853  -2.016  0.00  0.00     0.013 C 
ENDBRANCH   7   8
ENDBRANCH   1   7
TORSDOF 2
ENDMDL
