MODEL 1
REMARK minimizedAffinity -2.97002602
REMARK minimizedRMSD -1
REMARK  2 active torsions:
REMARK  status: ('A' for Active; 'I' for Inactive)
REMARK    1  A    between atoms: C2'_3  and  C1'_4 
REMARK    2  A    between atoms: C1'_4  and  C1_5 
ROOT
ATOM      1  C1  I4B d   1      -0.025   0.448  -1.613  0.00  0.00    -0.075 A 
ATOM      2  C2  I4B d   1       0.905  -0.359  -2.218  0.00  0.00     0.003 A 
ATOM      3  C3  I4B d   1       1.744  -1.190  -1.436  0.00  0.00     0.002 A 
ATOM      4  C4  I4B d   1       1.653  -1.145  -0.060  0.00  0.00    -0.004 A 
ATOM      5  C5  I4B d   1       0.694  -0.343   0.551  0.00  0.00     0.002 A 
ATOM      6  C6  I4B d   1      -0.160   0.450  -0.231  0.00  0.00     0.003 A 
ENDROOT
BRANCH   1   7
ATOM      7  C1' I4B d   1      -0.872   1.338  -2.467  0.00  0.00     0.060 C 
BRANCH   7   8
ATOM      8  C2' I4B d   1      -0.296   2.738  -2.398  0.00  0.00    -0.013 C 
ATOM      9  C4' I4B d   1       0.698   2.974  -3.505  0.00  0.00     0.013 C 
ATOM     10  C3' I4B d   1      -1.434   3.711  -2.475  0.00  0.00     0.013 C 
ENDBRANCH   7   8
ENDBRANCH   1   7
TORSDOF 2
ENDMDL
