MODEL 1
REMARK minimizedAffinity -5.68736219
REMARK minimizedRMSD -1
REMARK  0 active torsions:
REMARK  status: ('A' for Active; 'I' for Inactive)
ROOT
ATOM      1  C   UNL d   1      -1.307   0.602  -0.044  0.00  0.00     0.078 C 
ATOM      2  C1  UNL d   1      -0.026  -0.176  -0.002  0.00  0.00    -0.077 A 
ATOM      3  C2  UNL d   1       0.124  -1.359  -0.735  0.00  0.00    -0.001 A 
ATOM      4  C3  UNL d   1       1.319  -2.078  -0.679  0.00  0.00     0.003 A 
ATOM      5  C4  UNL d   1       2.373  -1.623   0.111  0.00  0.00    -0.005 A 
ATOM      6  C5  UNL d   1       2.232  -0.448   0.846  0.00  0.00     0.003 A 
ATOM      7  C6  UNL d   1       1.038   0.273   0.791  0.00  0.00    -0.001 A 
ENDROOT
TORSDOF 0
ENDMDL
