MODEL 1
REMARK minimizedAffinity -4.06387568
REMARK minimizedRMSD -1
REMARK  0 active torsions:
REMARK  status: ('A' for Active; 'I' for Inactive)
ROOT
ATOM      1  C   UNL d   1      -1.055   0.845  -0.129  0.00  0.00     0.078 C 
ATOM      2  C1  UNL d   1       0.073  -0.121   0.081  0.00  0.00    -0.077 A 
ATOM      3  C2  UNL d   1       1.132   0.184   0.945  0.00  0.00    -0.001 A 
ATOM      4  C3  UNL d   1       2.180  -0.721   1.124  0.00  0.00     0.003 A 
ATOM      5  C4  UNL d   1       2.179  -1.936   0.442  0.00  0.00    -0.005 A 
ATOM      6  C5  UNL d   1       1.130  -2.248  -0.420  0.00  0.00     0.003 A 
ATOM      7  C6  UNL d   1       0.082  -1.344  -0.601  0.00  0.00    -0.001 A 
ENDROOT
TORSDOF 0
ENDMDL
