MODEL 1
REMARK minimizedAffinity -5.39431143
REMARK minimizedRMSD -1
REMARK  0 active torsions:
REMARK  status: ('A' for Active; 'I' for Inactive)
ROOT
ATOM      1  C   UNL d   1       3.050  -1.468   1.301  0.00  0.00     0.078 C 
ATOM      2  C1  UNL d   1       1.767  -1.157   0.590  0.00  0.00    -0.077 A 
ATOM      3  C2  UNL d   1       1.179   0.110   0.684  0.00  0.00    -0.001 A 
ATOM      4  C3  UNL d   1      -0.021   0.382   0.025  0.00  0.00     0.003 A 
ATOM      5  C4  UNL d   1      -0.643  -0.608  -0.733  0.00  0.00    -0.005 A 
ATOM      6  C5  UNL d   1      -0.066  -1.872  -0.831  0.00  0.00     0.003 A 
ATOM      7  C6  UNL d   1       1.133  -2.146  -0.172  0.00  0.00    -0.001 A 
ENDROOT
TORSDOF 0
ENDMDL
