MODEL 1
REMARK minimizedAffinity -3.52117229
REMARK minimizedRMSD -1
REMARK  0 active torsions:
REMARK  status: ('A' for Active; 'I' for Inactive)
ROOT
ATOM      1  C   UNL d   1      -1.605   1.559  -0.760  0.00  0.00     0.078 C 
ATOM      2  C1  UNL d   1      -0.687   0.397  -0.528  0.00  0.00    -0.077 A 
ATOM      3  C2  UNL d   1       0.274   0.429   0.490  0.00  0.00    -0.001 A 
ATOM      4  C3  UNL d   1       1.129  -0.656   0.688  0.00  0.00     0.003 A 
ATOM      5  C4  UNL d   1       1.033  -1.781  -0.128  0.00  0.00    -0.005 A 
ATOM      6  C5  UNL d   1       0.082  -1.821  -1.145  0.00  0.00     0.003 A 
ATOM      7  C6  UNL d   1      -0.774  -0.737  -1.345  0.00  0.00    -0.001 A 
ENDROOT
TORSDOF 0
ENDMDL
