MODEL 1
REMARK minimizedAffinity -2.7019527
REMARK minimizedRMSD -1
REMARK  0 active torsions:
REMARK  status: ('A' for Active; 'I' for Inactive)
ROOT
ATOM      1  C   UNL d   1      -0.023  -3.722  -0.343  0.00  0.00     0.078 C 
ATOM      2  C1  UNL d   1       0.495  -2.315  -0.309  0.00  0.00    -0.077 A 
ATOM      3  C2  UNL d   1       1.869  -2.051  -0.350  0.00  0.00    -0.001 A 
ATOM      4  C3  UNL d   1       2.337  -0.736  -0.308  0.00  0.00     0.003 A 
ATOM      5  C4  UNL d   1       1.437   0.324  -0.224  0.00  0.00    -0.005 A 
ATOM      6  C5  UNL d   1       0.067   0.071  -0.181  0.00  0.00     0.003 A 
ATOM      7  C6  UNL d   1      -0.402  -1.243  -0.223  0.00  0.00    -0.001 A 
ENDROOT
TORSDOF 0
ENDMDL
