MODEL 1
REMARK minimizedAffinity -2.59069943
REMARK minimizedRMSD -1
REMARK  0 active torsions:
REMARK  status: ('A' for Active; 'I' for Inactive)
ROOT
ATOM      1  C   UNL d   1       3.197   0.124   0.674  0.00  0.00     0.078 C 
ATOM      2  C1  UNL d   1       1.806  -0.299   0.306  0.00  0.00    -0.077 A 
ATOM      3  C2  UNL d   1       1.576  -1.144  -0.787  0.00  0.00    -0.001 A 
ATOM      4  C3  UNL d   1       0.275  -1.522  -1.125  0.00  0.00     0.003 A 
ATOM      5  C4  UNL d   1      -0.805  -1.060  -0.375  0.00  0.00    -0.005 A 
ATOM      6  C5  UNL d   1      -0.585  -0.217   0.712  0.00  0.00     0.003 A 
ATOM      7  C6  UNL d   1       0.714   0.162   1.051  0.00  0.00    -0.001 A 
ENDROOT
TORSDOF 0
ENDMDL
