MODEL 1
REMARK minimizedAffinity -3.3499639
REMARK minimizedRMSD -1
REMARK  0 active torsions:
REMARK  status: ('A' for Active; 'I' for Inactive)
ROOT
ATOM      1  C   UNL d   1      -1.229   0.720  -0.400  0.00  0.00     0.078 C 
ATOM      2  C1  UNL d   1       0.014  -0.083  -0.159  0.00  0.00    -0.077 A 
ATOM      3  C2  UNL d   1       1.133   0.490   0.457  0.00  0.00    -0.001 A 
ATOM      4  C3  UNL d   1       2.287  -0.267   0.667  0.00  0.00     0.003 A 
ATOM      5  C4  UNL d   1       2.334  -1.600   0.263  0.00  0.00    -0.005 A 
ATOM      6  C5  UNL d   1       1.225  -2.177  -0.353  0.00  0.00     0.003 A 
ATOM      7  C6  UNL d   1       0.070  -1.422  -0.564  0.00  0.00    -0.001 A 
ENDROOT
TORSDOF 0
ENDMDL
