MODEL 1
REMARK minimizedAffinity -2.44646454
REMARK minimizedRMSD -1
REMARK  0 active torsions:
REMARK  status: ('A' for Active; 'I' for Inactive)
ROOT
ATOM      1  C   UNL d   1      -1.004  -0.017  -1.522  0.00  0.00     0.078 C 
ATOM      2  C1  UNL d   1       0.071  -1.021  -1.232  0.00  0.00    -0.077 A 
ATOM      3  C2  UNL d   1      -0.221  -2.388  -1.153  0.00  0.00    -0.001 A 
ATOM      4  C3  UNL d   1       0.788  -3.311  -0.873  0.00  0.00     0.003 A 
ATOM      5  C4  UNL d   1       2.097  -2.876  -0.669  0.00  0.00    -0.005 A 
ATOM      6  C5  UNL d   1       2.397  -1.518  -0.744  0.00  0.00     0.003 A 
ATOM      7  C6  UNL d   1       1.389  -0.594  -1.024  0.00  0.00    -0.001 A 
ENDROOT
TORSDOF 0
ENDMDL
