MODEL 1
REMARK minimizedAffinity -3.86109304
REMARK minimizedRMSD -1
REMARK  1 active torsions:
REMARK  status: ('A' for Active; 'I' for Inactive)
REMARK    1  A    between atoms: C1_2  and  C2_3 
ROOT
ATOM      1  C2  UNL d   1      -3.278  -4.813  -5.368  0.00  0.00    -0.077 A 
ATOM      2  C3  UNL d   1      -4.558  -5.263  -5.017  0.00  0.00     0.002 A 
ATOM      3  C4  UNL d   1      -5.527  -4.360  -4.576  0.00  0.00     0.002 A 
ATOM      4  C5  UNL d   1      -5.228  -3.002  -4.486  0.00  0.00    -0.004 A 
ATOM      5  C6  UNL d   1      -3.956  -2.545  -4.831  0.00  0.00     0.002 A 
ATOM      6  C7  UNL d   1      -2.986  -3.447  -5.271  0.00  0.00     0.002 A 
ENDROOT
BRANCH   1   7
ATOM      7  C1  UNL d   1      -2.246  -5.779  -5.891  0.00  0.00     0.055 C 
ATOM      8  C   UNL d   1      -1.132  -6.000  -4.879  0.00  0.00     0.019 C 
ENDBRANCH   1   7
TORSDOF 1
ENDMDL
