MODEL 1
REMARK minimizedAffinity -4.30508184
REMARK minimizedRMSD -1
REMARK  1 active torsions:
REMARK  status: ('A' for Active; 'I' for Inactive)
REMARK    1  A    between atoms: C1_2  and  C2_3 
ROOT
ATOM      1  C2  UNL d   1      -3.148  -4.578  -5.407  0.00  0.00    -0.077 A 
ATOM      2  C3  UNL d   1      -3.711  -5.744  -4.869  0.00  0.00     0.002 A 
ATOM      3  C4  UNL d   1      -5.051  -5.765  -4.476  0.00  0.00     0.002 A 
ATOM      4  C5  UNL d   1      -5.839  -4.626  -4.620  0.00  0.00    -0.004 A 
ATOM      5  C6  UNL d   1      -5.288  -3.460  -5.152  0.00  0.00     0.002 A 
ATOM      6  C7  UNL d   1      -3.949  -3.437  -5.544  0.00  0.00     0.002 A 
ENDROOT
BRANCH   1   7
ATOM      7  C1  UNL d   1      -1.717  -4.568  -5.877  0.00  0.00     0.055 C 
ATOM      8  C   UNL d   1      -1.064  -5.930  -5.692  0.00  0.00     0.019 C 
ENDBRANCH   1   7
TORSDOF 1
ENDMDL
