MODEL 1
REMARK minimizedAffinity -3.69560242
REMARK minimizedRMSD -1
REMARK  1 active torsions:
REMARK  status: ('A' for Active; 'I' for Inactive)
REMARK    1  A    between atoms: C1_2  and  C2_3 
ROOT
ATOM      1  C2  UNL d   1      -4.719  -4.181  -4.389  0.00  0.00    -0.077 A 
ATOM      2  C3  UNL d   1      -3.354  -4.223  -4.074  0.00  0.00     0.002 A 
ATOM      3  C4  UNL d   1      -2.508  -5.130  -4.716  0.00  0.00     0.002 A 
ATOM      4  C5  UNL d   1      -3.017  -5.997  -5.680  0.00  0.00    -0.004 A 
ATOM      5  C6  UNL d   1      -4.374  -5.964  -6.000  0.00  0.00     0.002 A 
ATOM      6  C7  UNL d   1      -5.221  -5.060  -5.358  0.00  0.00     0.002 A 
ENDROOT
BRANCH   1   7
ATOM      7  C1  UNL d   1      -5.623  -3.170  -3.734  0.00  0.00     0.055 C 
ATOM      8  C   UNL d   1      -6.000  -2.056  -4.699  0.00  0.00     0.019 C 
ENDBRANCH   1   7
TORSDOF 1
ENDMDL
