MODEL 1
REMARK minimizedAffinity -4.0712595
REMARK minimizedRMSD -1
REMARK  1 active torsions:
REMARK  status: ('A' for Active; 'I' for Inactive)
REMARK    1  A    between atoms: C1_2  and  C2_3 
ROOT
ATOM      1  C2  UNL d   1      -3.294  -4.183  -5.098  0.00  0.00    -0.077 A 
ATOM      2  C3  UNL d   1      -3.976  -5.386  -4.865  0.00  0.00     0.002 A 
ATOM      3  C4  UNL d   1      -5.303  -5.372  -4.431  0.00  0.00     0.002 A 
ATOM      4  C5  UNL d   1      -5.960  -4.160  -4.230  0.00  0.00    -0.004 A 
ATOM      5  C6  UNL d   1      -5.289  -2.958  -4.457  0.00  0.00     0.002 A 
ATOM      6  C7  UNL d   1      -3.963  -2.970  -4.890  0.00  0.00     0.002 A 
ENDROOT
BRANCH   1   7
ATOM      7  C1  UNL d   1      -1.879  -4.196  -5.614  0.00  0.00     0.055 C 
ATOM      8  C   UNL d   1      -1.396  -5.616  -5.870  0.00  0.00     0.019 C 
ENDBRANCH   1   7
TORSDOF 1
ENDMDL
