MODEL 1
REMARK minimizedAffinity -2.26097798
REMARK minimizedRMSD -1
REMARK  1 active torsions:
REMARK  status: ('A' for Active; 'I' for Inactive)
REMARK    1  A    between atoms: C1_2  and  C2_3 
ROOT
ATOM      1  C2  UNL d   1      -5.365  -3.456  -5.227  0.00  0.00    -0.077 A 
ATOM      2  C3  UNL d   1      -5.920  -4.531  -4.519  0.00  0.00     0.002 A 
ATOM      3  C4  UNL d   1      -5.313  -5.787  -4.552  0.00  0.00     0.002 A 
ATOM      4  C5  UNL d   1      -4.146  -5.980  -5.288  0.00  0.00    -0.004 A 
ATOM      5  C6  UNL d   1      -3.587  -4.918  -5.998  0.00  0.00     0.002 A 
ATOM      6  C7  UNL d   1      -4.194  -3.661  -5.967  0.00  0.00     0.002 A 
ENDROOT
BRANCH   1   7
ATOM      7  C1  UNL d   1      -5.992  -2.088  -5.153  0.00  0.00     0.055 C 
ATOM      8  C   UNL d   1      -5.994  -1.557  -3.727  0.00  0.00     0.019 C 
ENDBRANCH   1   7
TORSDOF 1
ENDMDL
