MODEL 1
REMARK minimizedAffinity -3.08879447
REMARK minimizedRMSD -1
REMARK  1 active torsions:
REMARK  status: ('A' for Active; 'I' for Inactive)
REMARK    1  A    between atoms: C1_2  and  C2_3 
ROOT
ATOM      1  C2  UNL d   1      -4.600  -4.448  -4.915  0.00  0.00    -0.077 A 
ATOM      2  C3  UNL d   1      -3.700  -4.244  -5.970  0.00  0.00     0.002 A 
ATOM      3  C4  UNL d   1      -2.469  -4.901  -5.986  0.00  0.00     0.002 A 
ATOM      4  C5  UNL d   1      -2.127  -5.769  -4.951  0.00  0.00    -0.004 A 
ATOM      5  C6  UNL d   1      -3.014  -5.978  -3.896  0.00  0.00     0.002 A 
ATOM      6  C7  UNL d   1      -4.245  -5.321  -3.878  0.00  0.00     0.002 A 
ENDROOT
BRANCH   1   7
ATOM      7  C1  UNL d   1      -5.950  -3.779  -4.921  0.00  0.00     0.055 C 
ATOM      8  C   UNL d   1      -6.000  -2.645  -5.934  0.00  0.00     0.019 C 
ENDBRANCH   1   7
TORSDOF 1
ENDMDL
