MODEL 1
REMARK minimizedAffinity -4.28475523
REMARK minimizedRMSD -1
REMARK  1 active torsions:
REMARK  status: ('A' for Active; 'I' for Inactive)
REMARK    1  A    between atoms: C1_2  and  C2_3 
ROOT
ATOM      1  C2  UNL d   1      -3.814  -4.440  -4.677  0.00  0.00    -0.077 A 
ATOM      2  C3  UNL d   1      -3.311  -3.132  -4.722  0.00  0.00     0.002 A 
ATOM      3  C4  UNL d   1      -4.148  -2.044  -4.463  0.00  0.00     0.002 A 
ATOM      4  C5  UNL d   1      -5.490  -2.253  -4.154  0.00  0.00    -0.004 A 
ATOM      5  C6  UNL d   1      -6.000  -3.550  -4.108  0.00  0.00     0.002 A 
ATOM      6  C7  UNL d   1      -5.166  -4.638  -4.368  0.00  0.00     0.002 A 
ENDROOT
BRANCH   1   7
ATOM      7  C1  UNL d   1      -2.903  -5.617  -4.908  0.00  0.00     0.055 C 
ATOM      8  C   UNL d   1      -1.884  -5.322  -6.000  0.00  0.00     0.019 C 
ENDBRANCH   1   7
TORSDOF 1
ENDMDL
