MODEL 1
REMARK minimizedAffinity -3.7737174
REMARK minimizedRMSD -1
REMARK  1 active torsions:
REMARK  status: ('A' for Active; 'I' for Inactive)
REMARK    1  A    between atoms: C1_2  and  C2_3 
ROOT
ATOM      1  C2  UNL d   1      -4.176  -4.604  -5.396  0.00  0.00    -0.077 A 
ATOM      2  C3  UNL d   1      -3.378  -3.489  -5.103  0.00  0.00     0.002 A 
ATOM      3  C4  UNL d   1      -3.887  -2.198  -5.247  0.00  0.00     0.002 A 
ATOM      4  C5  UNL d   1      -5.198  -2.008  -5.680  0.00  0.00    -0.004 A 
ATOM      5  C6  UNL d   1      -6.000  -3.110  -5.976  0.00  0.00     0.002 A 
ATOM      6  C7  UNL d   1      -5.491  -4.402  -5.834  0.00  0.00     0.002 A 
ENDROOT
BRANCH   1   7
ATOM      7  C1  UNL d   1      -3.644  -5.999  -5.194  0.00  0.00     0.055 C 
ATOM      8  C   UNL d   1      -2.410  -5.997  -4.303  0.00  0.00     0.019 C 
ENDBRANCH   1   7
TORSDOF 1
ENDMDL
