MODEL 1
REMARK minimizedAffinity -2.24915385
REMARK minimizedRMSD -1
REMARK  1 active torsions:
REMARK  status: ('A' for Active; 'I' for Inactive)
REMARK    1  A    between atoms: C1_2  and  C2_3 
ROOT
ATOM      1  C2  UNL d   1      -5.346  -3.193  -4.871  0.00  0.00    -0.077 A 
ATOM      2  C3  UNL d   1      -4.094  -3.474  -4.306  0.00  0.00     0.002 A 
ATOM      3  C4  UNL d   1      -3.490  -4.716  -4.511  0.00  0.00     0.002 A 
ATOM      4  C5  UNL d   1      -4.127  -5.684  -5.285  0.00  0.00    -0.004 A 
ATOM      5  C6  UNL d   1      -5.373  -5.415  -5.849  0.00  0.00     0.002 A 
ATOM      6  C7  UNL d   1      -5.980  -4.175  -5.644  0.00  0.00     0.002 A 
ENDROOT
BRANCH   1   7
ATOM      7  C1  UNL d   1      -5.978  -1.838  -4.692  0.00  0.00     0.055 C 
ATOM      8  C   UNL d   1      -6.000  -1.060  -6.000  0.00  0.00     0.019 C 
ENDBRANCH   1   7
TORSDOF 1
ENDMDL
