MODEL 1
REMARK minimizedAffinity -3.48528242
REMARK minimizedRMSD -1
REMARK  1 active torsions:
REMARK  status: ('A' for Active; 'I' for Inactive)
REMARK    1  A    between atoms: C1_2  and  C2_3 
ROOT
ATOM      1  C2  UNL d   1      -3.603  -4.990  -5.483  0.00  0.00    -0.077 A 
ATOM      2  C3  UNL d   1      -3.614  -3.693  -4.950  0.00  0.00     0.002 A 
ATOM      3  C4  UNL d   1      -4.793  -2.946  -4.937  0.00  0.00     0.002 A 
ATOM      4  C5  UNL d   1      -5.969  -3.487  -5.450  0.00  0.00    -0.004 A 
ATOM      5  C6  UNL d   1      -5.968  -4.775  -5.984  0.00  0.00     0.002 A 
ATOM      6  C7  UNL d   1      -4.790  -5.524  -6.000  0.00  0.00     0.002 A 
ENDROOT
BRANCH   1   7
ATOM      7  C1  UNL d   1      -2.343  -5.817  -5.453  0.00  0.00     0.055 C 
ATOM      8  C   UNL d   1      -1.149  -5.024  -5.963  0.00  0.00     0.019 C 
ENDBRANCH   1   7
TORSDOF 1
ENDMDL
