MODEL 1
REMARK minimizedAffinity -3.61496377
REMARK minimizedRMSD -1
REMARK  1 active torsions:
REMARK  status: ('A' for Active; 'I' for Inactive)
REMARK    1  A    between atoms: C1_2  and  C2_3 
ROOT
ATOM      1  C2  UNL d   1      -5.393  -3.192  -5.153  0.00  0.00    -0.077 A 
ATOM      2  C3  UNL d   1      -5.950  -4.107  -4.248  0.00  0.00     0.002 A 
ATOM      3  C4  UNL d   1      -5.419  -5.392  -4.126  0.00  0.00     0.002 A 
ATOM      4  C5  UNL d   1      -4.326  -5.773  -4.901  0.00  0.00    -0.004 A 
ATOM      5  C6  UNL d   1      -3.765  -4.871  -5.805  0.00  0.00     0.002 A 
ATOM      6  C7  UNL d   1      -4.296  -3.586  -5.930  0.00  0.00     0.002 A 
ENDROOT
BRANCH   1   7
ATOM      7  C1  UNL d   1      -5.933  -1.790  -5.251  0.00  0.00     0.055 C 
ATOM      8  C   UNL d   1      -6.000  -1.125  -3.884  0.00  0.00     0.019 C 
ENDBRANCH   1   7
TORSDOF 1
ENDMDL
