MODEL 1
REMARK minimizedAffinity -3.16878891
REMARK minimizedRMSD -1
REMARK  1 active torsions:
REMARK  status: ('A' for Active; 'I' for Inactive)
REMARK    1  A    between atoms: C1_2  and  C2_3 
ROOT
ATOM      1  C2  UNL d   1      -4.179  -4.487  -5.698  0.00  0.00    -0.077 A 
ATOM      2  C3  UNL d   1      -3.281  -3.413  -5.625  0.00  0.00     0.002 A 
ATOM      3  C4  UNL d   1      -1.907  -3.632  -5.737  0.00  0.00     0.002 A 
ATOM      4  C5  UNL d   1      -1.419  -4.923  -5.927  0.00  0.00    -0.004 A 
ATOM      5  C6  UNL d   1      -2.304  -5.998  -5.999  0.00  0.00     0.002 A 
ATOM      6  C7  UNL d   1      -3.678  -5.781  -5.886  0.00  0.00     0.002 A 
ENDROOT
BRANCH   1   7
ATOM      7  C1  UNL d   1      -5.664  -4.246  -5.627  0.00  0.00     0.055 C 
ATOM      8  C   UNL d   1      -5.974  -2.800  -5.270  0.00  0.00     0.019 C 
ENDBRANCH   1   7
TORSDOF 1
ENDMDL
