MODEL 1
REMARK minimizedAffinity -2.72771215
REMARK minimizedRMSD -1
REMARK  1 active torsions:
REMARK  status: ('A' for Active; 'I' for Inactive)
REMARK    1  A    between atoms: C1_2  and  C2_3 
ROOT
ATOM      1  C2  UNL d   1      -3.695  -5.268  -4.959  0.00  0.00    -0.077 A 
ATOM      2  C3  UNL d   1      -4.740  -5.943  -5.604  0.00  0.00     0.002 A 
ATOM      3  C4  UNL d   1      -5.888  -5.254  -6.000  0.00  0.00     0.002 A 
ATOM      4  C5  UNL d   1      -6.000  -3.886  -5.758  0.00  0.00    -0.004 A 
ATOM      5  C6  UNL d   1      -4.966  -3.206  -5.115  0.00  0.00     0.002 A 
ATOM      6  C7  UNL d   1      -3.818  -3.893  -4.718  0.00  0.00     0.002 A 
ENDROOT
BRANCH   1   7
ATOM      7  C1  UNL d   1      -2.435  -5.999  -4.576  0.00  0.00     0.055 C 
ATOM      8  C   UNL d   1      -1.243  -5.513  -5.388  0.00  0.00     0.019 C 
ENDBRANCH   1   7
TORSDOF 1
ENDMDL
