MODEL 1
REMARK minimizedAffinity -3.15451455
REMARK minimizedRMSD -1
REMARK  1 active torsions:
REMARK  status: ('A' for Active; 'I' for Inactive)
REMARK    1  A    between atoms: C1_2  and  C2_3 
ROOT
ATOM      1  C2  UNL d   1      -3.732  -4.684  -5.344  0.00  0.00    -0.077 A 
ATOM      2  C3  UNL d   1      -4.349  -5.147  -4.174  0.00  0.00     0.002 A 
ATOM      3  C4  UNL d   1      -5.478  -4.500  -3.668  0.00  0.00     0.002 A 
ATOM      4  C5  UNL d   1      -6.000  -3.389  -4.326  0.00  0.00    -0.004 A 
ATOM      5  C6  UNL d   1      -5.391  -2.919  -5.490  0.00  0.00     0.002 A 
ATOM      6  C7  UNL d   1      -4.263  -3.564  -5.997  0.00  0.00     0.002 A 
ENDROOT
BRANCH   1   7
ATOM      7  C1  UNL d   1      -2.544  -5.411  -5.920  0.00  0.00     0.055 C 
ATOM      8  C   UNL d   1      -1.325  -4.504  -5.999  0.00  0.00     0.019 C 
ENDBRANCH   1   7
TORSDOF 1
ENDMDL
