MODEL 1
REMARK minimizedAffinity -2.27797675
REMARK minimizedRMSD -1
REMARK  1 active torsions:
REMARK  status: ('A' for Active; 'I' for Inactive)
REMARK    1  A    between atoms: C1_2  and  C2_3 
ROOT
ATOM      1  C2  UNL d   1      -4.894  -3.807  -4.862  0.00  0.00    -0.077 A 
ATOM      2  C3  UNL d   1      -3.561  -3.605  -4.480  0.00  0.00     0.002 A 
ATOM      3  C4  UNL d   1      -2.573  -4.517  -4.856  0.00  0.00     0.002 A 
ATOM      4  C5  UNL d   1      -2.907  -5.635  -5.617  0.00  0.00    -0.004 A 
ATOM      5  C6  UNL d   1      -4.231  -5.846  -6.000  0.00  0.00     0.002 A 
ATOM      6  C7  UNL d   1      -5.220  -4.936  -5.624  0.00  0.00     0.002 A 
ENDROOT
BRANCH   1   7
ATOM      7  C1  UNL d   1      -5.953  -2.799  -4.500  0.00  0.00     0.055 C 
ATOM      8  C   UNL d   1      -6.000  -2.560  -2.997  0.00  0.00     0.019 C 
ENDBRANCH   1   7
TORSDOF 1
ENDMDL
