MODEL 1
REMARK minimizedAffinity -3.61405158
REMARK minimizedRMSD -1
REMARK  1 active torsions:
REMARK  status: ('A' for Active; 'I' for Inactive)
REMARK    1  A    between atoms: C1_2  and  C2_3 
ROOT
ATOM      1  C2  UNL d   1      -3.573  -5.162  -5.559  0.00  0.00    -0.077 A 
ATOM      2  C3  UNL d   1      -4.876  -5.673  -5.644  0.00  0.00     0.002 A 
ATOM      3  C4  UNL d   1      -5.970  -4.880  -5.294  0.00  0.00     0.002 A 
ATOM      4  C5  UNL d   1      -5.773  -3.570  -4.862  0.00  0.00    -0.004 A 
ATOM      5  C6  UNL d   1      -4.481  -3.053  -4.772  0.00  0.00     0.002 A 
ATOM      6  C7  UNL d   1      -3.386  -3.845  -5.120  0.00  0.00     0.002 A 
ENDROOT
BRANCH   1   7
ATOM      7  C1  UNL d   1      -2.395  -6.000  -5.983  0.00  0.00     0.055 C 
ATOM      8  C   UNL d   1      -1.104  -5.195  -5.953  0.00  0.00     0.019 C 
ENDBRANCH   1   7
TORSDOF 1
ENDMDL
