MODEL 1
REMARK minimizedAffinity 6.54117727
REMARK minimizedRMSD -1
REMARK  1 active torsions:
REMARK  status: ('A' for Active; 'I' for Inactive)
REMARK    1  A    between atoms: C1_2  and  C2_3 
ROOT
ATOM      1  C2  UNL d   1      -2.734  -1.758   1.428  0.00  0.00    -0.077 A 
ATOM      2  C3  UNL d   1      -1.653  -1.594   2.306  0.00  0.00     0.002 A 
ATOM      3  C4  UNL d   1      -0.413  -1.168   1.827  0.00  0.00     0.002 A 
ATOM      4  C5  UNL d   1      -0.243  -0.898   0.471  0.00  0.00    -0.004 A 
ATOM      5  C6  UNL d   1      -1.311  -1.060  -0.411  0.00  0.00     0.002 A 
ATOM      6  C7  UNL d   1      -2.551  -1.487   0.066  0.00  0.00     0.002 A 
ENDROOT
BRANCH   1   7
ATOM      7  C1  UNL d   1      -4.085  -2.170   1.950  0.00  0.00     0.055 C 
ATOM      8  C   UNL d   1      -4.508  -1.310   3.132  0.00  0.00     0.019 C 
ENDBRANCH   1   7
TORSDOF 1
ENDMDL
