MODEL 1
REMARK minimizedAffinity 0.963807344
REMARK minimizedRMSD -1
REMARK  1 active torsions:
REMARK  status: ('A' for Active; 'I' for Inactive)
REMARK    1  A    between atoms: C1_2  and  C2_3 
ROOT
ATOM      1  C2  UNL d   1      -3.558  -3.602  -5.596  0.00  0.00    -0.077 A 
ATOM      2  C3  UNL d   1      -2.209  -3.620  -5.216  0.00  0.00     0.002 A 
ATOM      3  C4  UNL d   1      -1.487  -4.815  -5.226  0.00  0.00     0.002 A 
ATOM      4  C5  UNL d   1      -2.104  -6.000  -5.621  0.00  0.00    -0.004 A 
ATOM      5  C6  UNL d   1      -3.446  -5.993  -5.999  0.00  0.00     0.002 A 
ATOM      6  C7  UNL d   1      -4.170  -4.800  -5.987  0.00  0.00     0.002 A 
ENDROOT
BRANCH   1   7
ATOM      7  C1  UNL d   1      -4.324  -2.306  -5.632  0.00  0.00     0.055 C 
ATOM      8  C   UNL d   1      -4.671  -1.829  -4.229  0.00  0.00     0.019 C 
ENDBRANCH   1   7
TORSDOF 1
ENDMDL
