MODEL 1
REMARK minimizedAffinity -3.06182694
REMARK minimizedRMSD -1
REMARK  0 active torsions:
REMARK  status: ('A' for Active; 'I' for Inactive)
ROOT
ATOM      1  C   UNL d   1       2.061  -0.963  -1.957  0.00  0.00     0.124 A 
ATOM      2  C1  UNL d   1       1.645   0.304  -1.569  0.00  0.00     0.062 A 
ATOM      3  C2  UNL d   1       0.700   0.451  -0.558  0.00  0.00     0.162 A 
ATOM      4  C3  UNL d   1       0.164  -0.672   0.073  0.00  0.00    -0.034 A 
ATOM      5  C4  UNL d   1       0.587  -1.942  -0.323  0.00  0.00     0.162 A 
ATOM      6  C5  UNL d   1       1.532  -2.084  -1.334  0.00  0.00     0.062 A 
ATOM      7  F   UNL d   1       1.932  -3.308  -1.707  0.00  0.00    -0.097 F 
ATOM      8  F1  UNL d   1       0.093  -3.043   0.263  0.00  0.00    -0.096 F 
ATOM      9  I   UNL d   1      -1.249  -0.456   1.585  0.00  0.00    -0.060 I 
ATOM     10  F2  UNL d   1       0.317   1.686  -0.204  0.00  0.00    -0.096 F 
ATOM     11  F3  UNL d   1       2.155   1.388  -2.171  0.00  0.00    -0.097 F 
ATOM     12  F4  UNL d   1       2.970  -1.101  -2.931  0.00  0.00    -0.092 F 
ENDROOT
TORSDOF 0
ENDMDL
