MODEL 1
REMARK minimizedAffinity -1.99078786
REMARK minimizedRMSD -1
REMARK  0 active torsions:
REMARK  status: ('A' for Active; 'I' for Inactive)
ROOT
ATOM      1  C   UNL d   1       1.591   0.028  -2.324  0.00  0.00     0.124 A 
ATOM      2  C1  UNL d   1       1.532   1.278  -1.724  0.00  0.00     0.062 A 
ATOM      3  C2  UNL d   1       0.614   1.523  -0.706  0.00  0.00     0.162 A 
ATOM      4  C3  UNL d   1      -0.251   0.514  -0.281  0.00  0.00    -0.034 A 
ATOM      5  C4  UNL d   1      -0.186  -0.740  -0.891  0.00  0.00     0.162 A 
ATOM      6  C5  UNL d   1       0.733  -0.979  -1.908  0.00  0.00     0.062 A 
ATOM      7  F   UNL d   1       0.789  -2.187  -2.487  0.00  0.00    -0.097 F 
ATOM      8  F1  UNL d   1      -1.003  -1.732  -0.507  0.00  0.00    -0.096 F 
ATOM      9  I   UNL d   1      -1.624   0.876   1.240  0.00  0.00    -0.060 I 
ATOM     10  F2  UNL d   1       0.579   2.740  -0.143  0.00  0.00    -0.096 F 
ATOM     11  F3  UNL d   1       2.360   2.253  -2.125  0.00  0.00    -0.097 F 
ATOM     12  F4  UNL d   1       2.474  -0.204  -3.304  0.00  0.00    -0.092 F 
ENDROOT
TORSDOF 0
ENDMDL
