MODEL 1
REMARK minimizedAffinity -2.01986098
REMARK minimizedRMSD -1
REMARK  0 active torsions:
REMARK  status: ('A' for Active; 'I' for Inactive)
ROOT
ATOM      1  C   UNL d   1      -1.403  -0.069   1.985  0.00  0.00     0.124 A 
ATOM      2  C1  UNL d   1      -1.467   1.115   1.262  0.00  0.00     0.062 A 
ATOM      3  C2  UNL d   1      -0.793   1.232   0.050  0.00  0.00     0.162 A 
ATOM      4  C3  UNL d   1      -0.049   0.163  -0.448  0.00  0.00    -0.034 A 
ATOM      5  C4  UNL d   1       0.012  -1.024   0.285  0.00  0.00     0.162 A 
ATOM      6  C5  UNL d   1      -0.664  -1.136   1.496  0.00  0.00     0.062 A 
ATOM      7  F   UNL d   1      -0.600  -2.280   2.193  0.00  0.00    -0.097 F 
ATOM      8  F1  UNL d   1       0.718  -2.072  -0.165  0.00  0.00    -0.096 F 
ATOM      9  I   UNL d   1       0.960   0.334  -2.260  0.00  0.00    -0.060 I 
ATOM     10  F2  UNL d   1      -0.873   2.387  -0.627  0.00  0.00    -0.096 F 
ATOM     11  F3  UNL d   1      -2.180   2.148   1.733  0.00  0.00    -0.097 F 
ATOM     12  F4  UNL d   1      -2.051  -0.179   3.151  0.00  0.00    -0.092 F 
ENDROOT
TORSDOF 0
ENDMDL
