MODEL 1
REMARK minimizedAffinity -4.49387741
REMARK minimizedRMSD -1
REMARK  0 active torsions:
REMARK  status: ('A' for Active; 'I' for Inactive)
ROOT
ATOM      1  C   UNL d   1       1.523  -1.069  -2.201  0.00  0.00     0.124 A 
ATOM      2  C1  UNL d   1       1.230  -2.017  -1.230  0.00  0.00     0.062 A 
ATOM      3  C2  UNL d   1       0.467  -1.669  -0.119  0.00  0.00     0.162 A 
ATOM      4  C3  UNL d   1      -0.010  -0.366   0.026  0.00  0.00    -0.034 A 
ATOM      5  C4  UNL d   1       0.289   0.582  -0.954  0.00  0.00     0.162 A 
ATOM      6  C5  UNL d   1       1.053   0.229  -2.062  0.00  0.00     0.062 A 
ATOM      7  F   UNL d   1       1.334   1.146  -2.999  0.00  0.00    -0.097 F 
ATOM      8  F1  UNL d   1      -0.154   1.843  -0.846  0.00  0.00    -0.096 F 
ATOM      9  I   UNL d   1      -1.152   0.159   1.685  0.00  0.00    -0.060 I 
ATOM     10  F2  UNL d   1       0.199  -2.605   0.803  0.00  0.00    -0.096 F 
ATOM     11  F3  UNL d   1       1.685  -3.272  -1.361  0.00  0.00    -0.097 F 
ATOM     12  F4  UNL d   1       2.259  -1.407  -3.268  0.00  0.00    -0.092 F 
ENDROOT
TORSDOF 0
ENDMDL
