MODEL 1
REMARK minimizedAffinity 0.593044519
REMARK minimizedRMSD -1
REMARK  0 active torsions:
REMARK  status: ('A' for Active; 'I' for Inactive)
ROOT
ATOM      1  C   UNL d   1       0.003  -1.667  -1.012  0.00  0.00     0.124 A 
ATOM      2  C1  UNL d   1      -0.434  -1.267   0.244  0.00  0.00     0.062 A 
ATOM      3  C2  UNL d   1       0.006  -0.065   0.789  0.00  0.00     0.162 A 
ATOM      4  C3  UNL d   1       0.889   0.749   0.077  0.00  0.00    -0.034 A 
ATOM      5  C4  UNL d   1       1.325   0.340  -1.184  0.00  0.00     0.162 A 
ATOM      6  C5  UNL d   1       0.882  -0.863  -1.724  0.00  0.00     0.062 A 
ATOM      7  F   UNL d   1       1.305  -1.247  -2.937  0.00  0.00    -0.097 F 
ATOM      8  F1  UNL d   1       2.173   1.098  -1.895  0.00  0.00    -0.096 F 
ATOM      9  I   UNL d   1       1.550   2.548   0.888  0.00  0.00    -0.060 I 
ATOM     10  F2  UNL d   1      -0.432   0.296   2.004  0.00  0.00    -0.096 F 
ATOM     11  F3  UNL d   1      -1.282  -2.042   0.935  0.00  0.00    -0.097 F 
ATOM     12  F4  UNL d   1      -0.422  -2.825  -1.533  0.00  0.00    -0.092 F 
ENDROOT
TORSDOF 0
ENDMDL
