MODEL 1
REMARK minimizedAffinity -3.41401315
REMARK minimizedRMSD -1
REMARK  0 active torsions:
REMARK  status: ('A' for Active; 'I' for Inactive)
ROOT
ATOM      1  C   UNL d   1       1.153   0.591  -0.780  0.00  0.00     0.124 A 
ATOM      2  C1  UNL d   1       0.859   0.943   0.530  0.00  0.00     0.062 A 
ATOM      3  C2  UNL d   1      -0.445   0.847   1.006  0.00  0.00     0.162 A 
ATOM      4  C3  UNL d   1      -1.467   0.395   0.171  0.00  0.00    -0.034 A 
ATOM      5  C4  UNL d   1      -1.165   0.044  -1.146  0.00  0.00     0.162 A 
ATOM      6  C5  UNL d   1       0.141   0.142  -1.617  0.00  0.00     0.062 A 
ATOM      7  F   UNL d   1       0.422  -0.199  -2.883  0.00  0.00    -0.097 F 
ATOM      8  F1  UNL d   1      -2.123  -0.395  -1.976  0.00  0.00    -0.096 F 
ATOM      9  I   UNL d   1      -3.419   0.249   0.878  0.00  0.00    -0.060 I 
ATOM     10  F2  UNL d   1      -0.699   1.194   2.276  0.00  0.00    -0.096 F 
ATOM     11  F3  UNL d   1       1.835   1.379   1.340  0.00  0.00    -0.097 F 
ATOM     12  F4  UNL d   1       2.408   0.686  -1.235  0.00  0.00    -0.092 F 
ENDROOT
TORSDOF 0
ENDMDL
