MODEL 1
REMARK minimizedAffinity -1.25240576
REMARK minimizedRMSD -1
REMARK  0 active torsions:
REMARK  status: ('A' for Active; 'I' for Inactive)
ROOT
ATOM      1  C   UNL d   1       1.340   0.531  -1.088  0.00  0.00     0.124 A 
ATOM      2  C1  UNL d   1       0.333  -0.149  -1.759  0.00  0.00     0.062 A 
ATOM      3  C2  UNL d   1      -0.910  -0.328  -1.160  0.00  0.00     0.162 A 
ATOM      4  C3  UNL d   1      -1.154   0.175   0.118  0.00  0.00    -0.034 A 
ATOM      5  C4  UNL d   1      -0.136   0.857   0.787  0.00  0.00     0.162 A 
ATOM      6  C5  UNL d   1       1.105   1.033   0.184  0.00  0.00     0.062 A 
ATOM      7  F   UNL d   1       2.077   1.689   0.834  0.00  0.00    -0.097 F 
ATOM      8  F1  UNL d   1      -0.337   1.353   2.017  0.00  0.00    -0.096 F 
ATOM      9  I   UNL d   1      -3.012  -0.090   1.018  0.00  0.00    -0.060 I 
ATOM     10  F2  UNL d   1      -1.865  -0.989  -1.832  0.00  0.00    -0.096 F 
ATOM     11  F3  UNL d   1       0.559  -0.636  -2.988  0.00  0.00    -0.097 F 
ATOM     12  F4  UNL d   1       2.536   0.700  -1.666  0.00  0.00    -0.092 F 
ENDROOT
TORSDOF 0
ENDMDL
