MODEL 1
REMARK minimizedAffinity -2.59745026
REMARK minimizedRMSD -1
REMARK  0 active torsions:
REMARK  status: ('A' for Active; 'I' for Inactive)
ROOT
ATOM      1  C   UNL d   1      -3.499   0.307   1.483  0.00  0.00     0.124 A 
ATOM      2  C1  UNL d   1      -3.702   0.071   0.130  0.00  0.00     0.062 A 
ATOM      3  C2  UNL d   1      -2.615  -0.089  -0.724  0.00  0.00     0.162 A 
ATOM      4  C3  UNL d   1      -1.313  -0.014  -0.227  0.00  0.00    -0.034 A 
ATOM      5  C4  UNL d   1      -1.117   0.224   1.134  0.00  0.00     0.162 A 
ATOM      6  C5  UNL d   1      -2.207   0.383   1.983  0.00  0.00     0.062 A 
ATOM      7  F   UNL d   1      -2.009   0.611   3.290  0.00  0.00    -0.097 F 
ATOM      8  F1  UNL d   1       0.121   0.302   1.645  0.00  0.00    -0.096 F 
ATOM      9  I   UNL d   1       0.316  -0.253  -1.500  0.00  0.00    -0.060 I 
ATOM     10  F2  UNL d   1      -2.841  -0.316  -2.026  0.00  0.00    -0.096 F 
ATOM     11  F3  UNL d   1      -4.950  -0.002  -0.356  0.00  0.00    -0.097 F 
ATOM     12  F4  UNL d   1      -4.547   0.462   2.302  0.00  0.00    -0.092 F 
ENDROOT
TORSDOF 0
ENDMDL
