MODEL 1
REMARK minimizedAffinity 1.13665664
REMARK minimizedRMSD -1
REMARK  0 active torsions:
REMARK  status: ('A' for Active; 'I' for Inactive)
ROOT
ATOM      1  C   UNL d   1      -1.830   0.244   1.322  0.00  0.00     0.124 A 
ATOM      2  C1  UNL d   1      -1.577   1.493   0.773  0.00  0.00     0.062 A 
ATOM      3  C2  UNL d   1      -0.564   1.651  -0.169  0.00  0.00     0.162 A 
ATOM      4  C3  UNL d   1       0.203   0.556  -0.568  0.00  0.00    -0.034 A 
ATOM      5  C4  UNL d   1      -0.057  -0.697  -0.010  0.00  0.00     0.162 A 
ATOM      6  C5  UNL d   1      -1.071  -0.849   0.931  0.00  0.00     0.062 A 
ATOM      7  F   UNL d   1      -1.314  -2.057   1.461  0.00  0.00    -0.097 F 
ATOM      8  F1  UNL d   1       0.661  -1.770  -0.371  0.00  0.00    -0.096 F 
ATOM      9  I   UNL d   1       1.719   0.788  -1.975  0.00  0.00    -0.060 I 
ATOM     10  F2  UNL d   1      -0.341   2.870  -0.683  0.00  0.00    -0.096 F 
ATOM     11  F3  UNL d   1      -2.309   2.551   1.150  0.00  0.00    -0.097 F 
ATOM     12  F4  UNL d   1      -2.805   0.095   2.229  0.00  0.00    -0.092 F 
ENDROOT
TORSDOF 0
ENDMDL
