MODEL 1
REMARK minimizedAffinity 2.31592226
REMARK minimizedRMSD -1
REMARK  0 active torsions:
REMARK  status: ('A' for Active; 'I' for Inactive)
ROOT
ATOM      1  C   UNL d   1       1.203  -0.225  -1.357  0.00  0.00     0.124 A 
ATOM      2  C1  UNL d   1       0.315  -1.142  -0.812  0.00  0.00     0.062 A 
ATOM      3  C2  UNL d   1      -0.514  -0.773   0.243  0.00  0.00     0.162 A 
ATOM      4  C3  UNL d   1      -0.461   0.521   0.760  0.00  0.00    -0.034 A 
ATOM      5  C4  UNL d   1       0.435   1.439   0.207  0.00  0.00     0.162 A 
ATOM      6  C5  UNL d   1       1.262   1.065  -0.847  0.00  0.00     0.062 A 
ATOM      7  F   UNL d   1       2.119   1.953  -1.372  0.00  0.00    -0.097 F 
ATOM      8  F1  UNL d   1       0.512   2.692   0.680  0.00  0.00    -0.096 F 
ATOM      9  I   UNL d   1      -1.700   1.078   2.337  0.00  0.00    -0.060 I 
ATOM     10  F2  UNL d   1      -1.362  -1.680   0.750  0.00  0.00    -0.096 F 
ATOM     11  F3  UNL d   1       0.257  -2.389  -1.302  0.00  0.00    -0.097 F 
ATOM     12  F4  UNL d   1       2.001  -0.583  -2.371  0.00  0.00    -0.092 F 
ENDROOT
TORSDOF 0
ENDMDL
