MODEL 1
REMARK minimizedAffinity -2.40097642
REMARK minimizedRMSD -1
REMARK  0 active torsions:
REMARK  status: ('A' for Active; 'I' for Inactive)
ROOT
ATOM      1  C   UNL d   1       1.637  -0.100  -2.280  0.00  0.00     0.124 A 
ATOM      2  C1  UNL d   1       1.620   1.099  -1.581  0.00  0.00     0.062 A 
ATOM      3  C2  UNL d   1       0.824   1.236  -0.447  0.00  0.00     0.162 A 
ATOM      4  C3  UNL d   1       0.039   0.171  -0.005  0.00  0.00    -0.034 A 
ATOM      5  C4  UNL d   1       0.061  -1.031  -0.715  0.00  0.00     0.162 A 
ATOM      6  C5  UNL d   1       0.858  -1.163  -1.847  0.00  0.00     0.062 A 
ATOM      7  F   UNL d   1       0.874  -2.322  -2.522  0.00  0.00    -0.097 F 
ATOM      8  F1  UNL d   1      -0.682  -2.075  -0.317  0.00  0.00    -0.096 F 
ATOM      9  I   UNL d   1      -1.153   0.372   1.689  0.00  0.00    -0.060 I 
ATOM     10  F2  UNL d   1       0.826   2.406   0.209  0.00  0.00    -0.096 F 
ATOM     11  F3  UNL d   1       2.371   2.128  -1.998  0.00  0.00    -0.097 F 
ATOM     12  F4  UNL d   1       2.403  -0.229  -3.371  0.00  0.00    -0.092 F 
ENDROOT
TORSDOF 0
ENDMDL
