MODEL 1
REMARK minimizedAffinity 1.60033798
REMARK minimizedRMSD -1
REMARK  0 active torsions:
REMARK  status: ('A' for Active; 'I' for Inactive)
ROOT
ATOM      1  C   UNL d   1       1.097  -0.394  -1.180  0.00  0.00     0.124 A 
ATOM      2  C1  UNL d   1       0.303  -1.332  -0.535  0.00  0.00     0.062 A 
ATOM      3  C2  UNL d   1      -0.649  -0.922   0.393  0.00  0.00     0.162 A 
ATOM      4  C3  UNL d   1      -0.813   0.433   0.682  0.00  0.00    -0.034 A 
ATOM      5  C4  UNL d   1      -0.010   1.370   0.030  0.00  0.00     0.162 A 
ATOM      6  C5  UNL d   1       0.940   0.955  -0.897  0.00  0.00     0.062 A 
ATOM      7  F   UNL d   1       1.707   1.863  -1.519  0.00  0.00    -0.097 F 
ATOM      8  F1  UNL d   1      -0.141   2.680   0.285  0.00  0.00    -0.096 F 
ATOM      9  I   UNL d   1      -2.236   1.049   2.070  0.00  0.00    -0.060 I 
ATOM     10  F2  UNL d   1      -1.403  -1.850   1.001  0.00  0.00    -0.096 F 
ATOM     11  F3  UNL d   1       0.453  -2.636  -0.807  0.00  0.00    -0.097 F 
ATOM     12  F4  UNL d   1       2.014  -0.791  -2.073  0.00  0.00    -0.092 F 
ENDROOT
TORSDOF 0
ENDMDL
