MODEL 1
REMARK minimizedAffinity -1.66199934
REMARK minimizedRMSD -1
REMARK  0 active torsions:
REMARK  status: ('A' for Active; 'I' for Inactive)
ROOT
ATOM      1  C   UNL d   1       0.385   0.124   1.089  0.00  0.00     0.124 A 
ATOM      2  C1  UNL d   1       0.992   1.176   0.418  0.00  0.00     0.062 A 
ATOM      3  C2  UNL d   1       1.292   1.062  -0.936  0.00  0.00     0.162 A 
ATOM      4  C3  UNL d   1       0.986  -0.109  -1.629  0.00  0.00    -0.034 A 
ATOM      5  C4  UNL d   1       0.377  -1.164  -0.947  0.00  0.00     0.162 A 
ATOM      6  C5  UNL d   1       0.079  -1.045   0.407  0.00  0.00     0.062 A 
ATOM      7  F   UNL d   1      -0.507  -2.063   1.054  0.00  0.00    -0.097 F 
ATOM      8  F1  UNL d   1       0.069  -2.304  -1.582  0.00  0.00    -0.096 F 
ATOM      9  I   UNL d   1       1.434  -0.283  -3.654  0.00  0.00    -0.060 I 
ATOM     10  F2  UNL d   1       1.878   2.096  -1.559  0.00  0.00    -0.096 F 
ATOM     11  F3  UNL d   1       1.290   2.306   1.076  0.00  0.00    -0.097 F 
ATOM     12  F4  UNL d   1       0.098   0.236   2.393  0.00  0.00    -0.092 F 
ENDROOT
TORSDOF 0
ENDMDL
