MODEL 1
REMARK minimizedAffinity 1.31623602
REMARK minimizedRMSD -1
REMARK  0 active torsions:
REMARK  status: ('A' for Active; 'I' for Inactive)
ROOT
ATOM      1  C   UNL d   1      -3.074   0.030   2.039  0.00  0.00     0.124 A 
ATOM      2  C1  UNL d   1      -3.196  -0.704   0.868  0.00  0.00     0.062 A 
ATOM      3  C2  UNL d   1      -2.102  -0.861   0.022  0.00  0.00     0.162 A 
ATOM      4  C3  UNL d   1      -0.875  -0.282   0.345  0.00  0.00    -0.034 A 
ATOM      5  C4  UNL d   1      -0.760   0.456   1.524  0.00  0.00     0.162 A 
ATOM      6  C5  UNL d   1      -1.856   0.610   2.366  0.00  0.00     0.062 A 
ATOM      7  F   UNL d   1      -1.736   1.320   3.497  0.00  0.00    -0.097 F 
ATOM      8  F1  UNL d   1       0.406   1.026   1.865  0.00  0.00    -0.096 F 
ATOM      9  I   UNL d   1       0.764  -0.513  -0.917  0.00  0.00    -0.060 I 
ATOM     10  F2  UNL d   1      -2.249  -1.576  -1.103  0.00  0.00    -0.096 F 
ATOM     11  F3  UNL d   1      -4.372  -1.265   0.549  0.00  0.00    -0.097 F 
ATOM     12  F4  UNL d   1      -4.129   0.180   2.851  0.00  0.00    -0.092 F 
ENDROOT
TORSDOF 0
ENDMDL
