MODEL 1
REMARK minimizedAffinity -3.40190506
REMARK minimizedRMSD -1
REMARK  0 active torsions:
REMARK  status: ('A' for Active; 'I' for Inactive)
ROOT
ATOM      1  C   UNL d   1      -0.209   0.835   0.605  0.00  0.00     0.124 A 
ATOM      2  C1  UNL d   1      -0.268  -0.540   0.421  0.00  0.00     0.062 A 
ATOM      3  C2  UNL d   1       0.476  -1.143  -0.588  0.00  0.00     0.162 A 
ATOM      4  C3  UNL d   1       1.287  -0.373  -1.422  0.00  0.00    -0.034 A 
ATOM      5  C4  UNL d   1       1.341   1.009  -1.231  0.00  0.00     0.162 A 
ATOM      6  C5  UNL d   1       0.595   1.608  -0.221  0.00  0.00     0.062 A 
ATOM      7  F   UNL d   1       0.653   2.936  -0.045  0.00  0.00    -0.097 F 
ATOM      8  F1  UNL d   1       2.110   1.780  -2.015  0.00  0.00    -0.096 F 
ATOM      9  I   UNL d   1       2.401  -1.272  -2.933  0.00  0.00    -0.060 I 
ATOM     10  F2  UNL d   1       0.400  -2.474  -0.743  0.00  0.00    -0.096 F 
ATOM     11  F3  UNL d   1      -1.044  -1.288   1.218  0.00  0.00    -0.097 F 
ATOM     12  F4  UNL d   1      -0.926   1.413   1.577  0.00  0.00    -0.092 F 
ENDROOT
TORSDOF 0
ENDMDL
