MODEL 1
REMARK minimizedAffinity 0.459310979
REMARK minimizedRMSD -1
REMARK  0 active torsions:
REMARK  status: ('A' for Active; 'I' for Inactive)
ROOT
ATOM      1  C   UNL d   1       0.359  -0.593  -1.459  0.00  0.00     0.124 A 
ATOM      2  C1  UNL d   1      -0.271   0.642  -1.525  0.00  0.00     0.062 A 
ATOM      3  C2  UNL d   1      -0.914   1.161  -0.404  0.00  0.00     0.162 A 
ATOM      4  C3  UNL d   1      -0.928   0.444   0.793  0.00  0.00    -0.034 A 
ATOM      5  C4  UNL d   1      -0.293  -0.797   0.851  0.00  0.00     0.162 A 
ATOM      6  C5  UNL d   1       0.348  -1.311  -0.272  0.00  0.00     0.062 A 
ATOM      7  F   UNL d   1       0.956  -2.504  -0.207  0.00  0.00    -0.097 F 
ATOM      8  F1  UNL d   1      -0.288  -1.512   1.986  0.00  0.00    -0.096 F 
ATOM      9  I   UNL d   1      -1.888   1.216   2.471  0.00  0.00    -0.060 I 
ATOM     10  F2  UNL d   1      -1.515   2.356  -0.496  0.00  0.00    -0.096 F 
ATOM     11  F3  UNL d   1      -0.262   1.338  -2.671  0.00  0.00    -0.097 F 
ATOM     12  F4  UNL d   1       0.976  -1.089  -2.539  0.00  0.00    -0.092 F 
ENDROOT
TORSDOF 0
ENDMDL
