MODEL 1
REMARK minimizedAffinity -2.14120674
REMARK minimizedRMSD -1
REMARK  0 active torsions:
REMARK  status: ('A' for Active; 'I' for Inactive)
ROOT
ATOM      1  C   UNL d   1      -1.821  -0.371   1.584  0.00  0.00     0.124 A 
ATOM      2  C1  UNL d   1      -0.818  -1.290   1.308  0.00  0.00     0.062 A 
ATOM      3  C2  UNL d   1       0.099  -1.041   0.292  0.00  0.00     0.162 A 
ATOM      4  C3  UNL d   1       0.020   0.133  -0.456  0.00  0.00    -0.034 A 
ATOM      5  C4  UNL d   1      -0.992   1.053  -0.174  0.00  0.00     0.162 A 
ATOM      6  C5  UNL d   1      -1.907   0.799   0.843  0.00  0.00     0.062 A 
ATOM      7  F   UNL d   1      -2.875   1.689   1.108  0.00  0.00    -0.097 F 
ATOM      8  F1  UNL d   1      -1.098   2.192  -0.873  0.00  0.00    -0.096 F 
ATOM      9  I   UNL d   1       1.390   0.510  -1.977  0.00  0.00    -0.060 I 
ATOM     10  F2  UNL d   1       1.058  -1.947   0.047  0.00  0.00    -0.096 F 
ATOM     11  F3  UNL d   1      -0.734  -2.422   2.022  0.00  0.00    -0.097 F 
ATOM     12  F4  UNL d   1      -2.703  -0.614   2.562  0.00  0.00    -0.092 F 
ENDROOT
TORSDOF 0
ENDMDL
