MODEL 1
REMARK minimizedAffinity 10.7734442
REMARK minimizedRMSD -1
REMARK  0 active torsions:
REMARK  status: ('A' for Active; 'I' for Inactive)
ROOT
ATOM      1  N1  IND d   1       1.622  -5.566   2.645  0.00  0.00    -0.196 N 
ATOM      2  C2  IND d   1       1.909  -4.890   1.492  0.00  0.00     0.054 A 
ATOM      3  C3  IND d   1       1.594  -3.582   1.623  0.00  0.00    -0.031 A 
ATOM      4  C4  IND d   1       0.690  -2.314   3.673  0.00  0.00     0.051 A 
ATOM      5  C5  IND d   1       0.236  -2.511   4.947  0.00  0.00    -0.031 A 
ATOM      6  C6  IND d   1       0.224  -3.761   5.532  0.00  0.00     0.015 A 
ATOM      7  C7  IND d   1       0.677  -4.864   4.865  0.00  0.00    -0.016 A 
ATOM      8  C8  IND d   1       1.132  -4.669   3.569  0.00  0.00    -0.047 A 
ATOM      9  C9  IND d   1       1.107  -3.410   2.955  0.00  0.00    -0.096 A 
ATOM     10  HN1 IND d   1       1.730  -6.409   2.772  0.00  0.00     0.298 HD
ENDROOT
TORSDOF 0
ENDMDL
