MODEL 1
REMARK minimizedAffinity 20.0647984
REMARK minimizedRMSD -1
REMARK  0 active torsions:
REMARK  status: ('A' for Active; 'I' for Inactive)
ROOT
ATOM      1  N1  IND d   1       0.724   5.410  -1.567  0.00  0.00    -0.196 N 
ATOM      2  C2  IND d   1       1.811   5.526  -2.388  0.00  0.00     0.054 A 
ATOM      3  C3  IND d   1       2.771   4.646  -2.026  0.00  0.00    -0.031 A 
ATOM      4  C4  IND d   1       2.731   2.850  -0.182  0.00  0.00     0.051 A 
ATOM      5  C5  IND d   1       1.969   2.385   0.853  0.00  0.00    -0.031 A 
ATOM      6  C6  IND d   1       0.726   2.914   1.138  0.00  0.00     0.015 A 
ATOM      7  C7  IND d   1       0.193   3.924   0.389  0.00  0.00    -0.016 A 
ATOM      8  C8  IND d   1       0.967   4.403  -0.659  0.00  0.00    -0.047 A 
ATOM      9  C9  IND d   1       2.246   3.899  -0.927  0.00  0.00    -0.096 A 
ATOM     10  HN1 IND d   1       0.009   5.885  -1.610  0.00  0.00     0.298 HD
ENDROOT
TORSDOF 0
ENDMDL
