MODEL 1
REMARK minimizedAffinity 18.7759209
REMARK minimizedRMSD -1
REMARK  0 active torsions:
REMARK  status: ('A' for Active; 'I' for Inactive)
ROOT
ATOM      1  N1  IND d   1      -2.576   1.969  -2.155  0.00  0.00    -0.196 N 
ATOM      2  C2  IND d   1      -3.080   0.778  -2.599  0.00  0.00     0.054 A 
ATOM      3  C3  IND d   1      -4.419   0.734  -2.411  0.00  0.00    -0.031 A 
ATOM      4  C4  IND d   1      -6.000   2.543  -1.486  0.00  0.00     0.051 A 
ATOM      5  C5  IND d   1      -6.000   3.785  -0.916  0.00  0.00    -0.031 A 
ATOM      6  C6  IND d   1      -4.835   4.501  -0.729  0.00  0.00     0.015 A 
ATOM      7  C7  IND d   1      -3.623   4.004  -1.117  0.00  0.00    -0.016 A 
ATOM      8  C8  IND d   1      -3.619   2.739  -1.689  0.00  0.00    -0.047 A 
ATOM      9  C9  IND d   1      -4.793   1.990  -1.843  0.00  0.00    -0.096 A 
ATOM     10  HN1 IND d   1      -1.748   2.197  -2.165  0.00  0.00     0.298 HD
ENDROOT
TORSDOF 0
ENDMDL
