MODEL 1
REMARK minimizedAffinity 13.5830851
REMARK minimizedRMSD -1
REMARK  0 active torsions:
REMARK  status: ('A' for Active; 'I' for Inactive)
ROOT
ATOM      1  N1  IND d   1      -4.871   3.892   2.379  0.00  0.00    -0.196 N 
ATOM      2  C2  IND d   1      -5.998   4.131   1.642  0.00  0.00     0.054 A 
ATOM      3  C3  IND d   1      -5.693   4.205   0.327  0.00  0.00    -0.031 A 
ATOM      4  C4  IND d   1      -3.428   3.865  -0.849  0.00  0.00     0.051 A 
ATOM      5  C5  IND d   1      -2.101   3.662  -0.592  0.00  0.00    -0.031 A 
ATOM      6  C6  IND d   1      -1.620   3.521   0.693  0.00  0.00     0.015 A 
ATOM      7  C7  IND d   1      -2.454   3.565   1.775  0.00  0.00    -0.016 A 
ATOM      8  C8  IND d   1      -3.801   3.777   1.519  0.00  0.00    -0.047 A 
ATOM      9  C9  IND d   1      -4.289   3.964   0.219  0.00  0.00    -0.096 A 
ATOM     10  HN1 IND d   1      -4.836   3.825   3.235  0.00  0.00     0.298 HD
ENDROOT
TORSDOF 0
ENDMDL
