MODEL 1
REMARK minimizedAffinity 1.75588143
REMARK minimizedRMSD -1
REMARK  0 active torsions:
REMARK  status: ('A' for Active; 'I' for Inactive)
ROOT
ATOM      1  N1  IND d   1       0.467  -1.805   3.961  0.00  0.00    -0.196 N 
ATOM      2  C2  IND d   1       0.554  -2.521   2.800  0.00  0.00     0.054 A 
ATOM      3  C3  IND d   1       1.195  -1.803   1.851  0.00  0.00    -0.031 A 
ATOM      4  C4  IND d   1       2.275   0.528   2.015  0.00  0.00     0.051 A 
ATOM      5  C5  IND d   1       2.422   1.590   2.863  0.00  0.00    -0.031 A 
ATOM      6  C6  IND d   1       1.918   1.573   4.147  0.00  0.00     0.015 A 
ATOM      7  C7  IND d   1       1.254   0.484   4.637  0.00  0.00    -0.016 A 
ATOM      8  C8  IND d   1       1.096  -0.593   3.777  0.00  0.00    -0.047 A 
ATOM      9  C9  IND d   1       1.569  -0.565   2.459  0.00  0.00    -0.096 A 
ATOM     10  HN1 IND d   1       0.084  -2.067   4.685  0.00  0.00     0.298 HD
ENDROOT
TORSDOF 0
ENDMDL
