MODEL 1
REMARK minimizedAffinity 12.2711477
REMARK minimizedRMSD -1
REMARK  0 active torsions:
REMARK  status: ('A' for Active; 'I' for Inactive)
ROOT
ATOM      1  N1  IND d   1       3.547  -0.100  -0.372  0.00  0.00    -0.196 N 
ATOM      2  C2  IND d   1       3.732   1.210  -0.718  0.00  0.00     0.054 A 
ATOM      3  C3  IND d   1       3.044   2.019   0.119  0.00  0.00    -0.031 A 
ATOM      4  C4  IND d   1       1.631   1.415   2.184  0.00  0.00     0.051 A 
ATOM      5  C5  IND d   1       1.138   0.344   2.877  0.00  0.00    -0.031 A 
ATOM      6  C6  IND d   1       1.431  -0.955   2.516  0.00  0.00     0.015 A 
ATOM      7  C7  IND d   1       2.241  -1.233   1.452  0.00  0.00    -0.016 A 
ATOM      8  C8  IND d   1       2.737  -0.149   0.742  0.00  0.00    -0.047 A 
ATOM      9  C9  IND d   1       2.409   1.171   1.077  0.00  0.00    -0.096 A 
ATOM     10  HN1 IND d   1       3.880  -0.779  -0.781  0.00  0.00     0.298 HD
ENDROOT
TORSDOF 0
ENDMDL
