MODEL 1
REMARK minimizedAffinity -1.07317388
REMARK minimizedRMSD -1
REMARK  1 active torsions:
REMARK  status: ('A' for Active; 'I' for Inactive)
REMARK    1  A    between atoms: N_2  and  C1_3 
ROOT
ATOM      1  C1  UNL d   1       1.022   0.786  -0.781  0.00  0.00     0.143 A 
ATOM      2  C2  UNL d   1       1.017   1.043   0.595  0.00  0.00    -0.057 A 
ATOM      3  C3  UNL d   1       0.865   2.344   1.090  0.00  0.00     0.033 A 
ATOM      4  C4  UNL d   1       0.743   3.418   0.214  0.00  0.00    -0.042 A 
ATOM      5  C5  UNL d   1       0.770   3.189  -1.157  0.00  0.00     0.033 A 
ATOM      6  C6  UNL d   1       0.916   1.887  -1.645  0.00  0.00    -0.057 A 
ENDROOT
BRANCH   1   7
ATOM      7  N   UNL d   1       1.268  -0.472  -1.336  0.00  0.00    -0.732 N 
ATOM      8  C   UNL d   1       1.623  -0.604  -2.733  0.00  0.00     0.284 C 
ATOM      9  H3  UNL d   1       1.801  -1.074  -0.713  0.00  0.00     0.395 HD
ENDBRANCH   1   7
TORSDOF 1
ENDMDL
