MODEL 1
REMARK minimizedAffinity -1.22763944
REMARK minimizedRMSD -1
REMARK  1 active torsions:
REMARK  status: ('A' for Active; 'I' for Inactive)
REMARK    1  A    between atoms: N_2  and  C1_3 
ROOT
ATOM      1  C1  UNL d   1       0.833   1.261   0.131  0.00  0.00     0.143 A 
ATOM      2  C2  UNL d   1       1.038   2.194  -0.891  0.00  0.00    -0.057 A 
ATOM      3  C3  UNL d   1       1.198   1.790  -2.222  0.00  0.00     0.033 A 
ATOM      4  C4  UNL d   1       1.185   0.439  -2.551  0.00  0.00    -0.042 A 
ATOM      5  C5  UNL d   1       1.008  -0.508  -1.548  0.00  0.00     0.033 A 
ATOM      6  C6  UNL d   1       0.842  -0.098  -0.222  0.00  0.00    -0.057 A 
ENDROOT
BRANCH   1   7
ATOM      7  N   UNL d   1       0.765   1.594   1.486  0.00  0.00    -0.732 N 
ATOM      8  C   UNL d   1       1.968   1.679   2.285  0.00  0.00     0.284 C 
ATOM      9  H3  UNL d   1       0.090   2.332   1.671  0.00  0.00     0.395 HD
ENDBRANCH   1   7
TORSDOF 1
ENDMDL
