MODEL 1
REMARK minimizedAffinity -0.715530992
REMARK minimizedRMSD -1
REMARK  1 active torsions:
REMARK  status: ('A' for Active; 'I' for Inactive)
REMARK    1  A    between atoms: N_2  and  C1_3 
ROOT
ATOM      1  C1  UNL d   1       1.180   2.663  -0.993  0.00  0.00     0.143 A 
ATOM      2  C2  UNL d   1       1.494   2.512   0.362  0.00  0.00    -0.057 A 
ATOM      3  C3  UNL d   1       1.444   1.259   0.984  0.00  0.00     0.033 A 
ATOM      4  C4  UNL d   1       1.050   0.135   0.266  0.00  0.00    -0.042 A 
ATOM      5  C5  UNL d   1       0.709   0.265  -1.076  0.00  0.00     0.033 A 
ATOM      6  C6  UNL d   1       0.767   1.518  -1.693  0.00  0.00    -0.057 A 
ENDROOT
BRANCH   1   7
ATOM      7  N   UNL d   1       1.115   3.897  -1.644  0.00  0.00    -0.732 N 
ATOM      8  C   UNL d   1       1.485   5.115  -0.954  0.00  0.00     0.284 C 
ATOM      9  H3  UNL d   1       1.444   3.848  -2.605  0.00  0.00     0.395 HD
ENDBRANCH   1   7
TORSDOF 1
ENDMDL
