MODEL 1
REMARK minimizedAffinity 10.7626953
REMARK minimizedRMSD -1
REMARK  1 active torsions:
REMARK  status: ('A' for Active; 'I' for Inactive)
REMARK    1  A    between atoms: N_2  and  C1_3 
ROOT
ATOM      1  C1  UNL d   1       2.065   0.767  -0.258  0.00  0.00     0.143 A 
ATOM      2  C2  UNL d   1       1.408   0.013  -1.236  0.00  0.00    -0.057 A 
ATOM      3  C3  UNL d   1       0.643   0.628  -2.235  0.00  0.00     0.033 A 
ATOM      4  C4  UNL d   1       0.499   2.012  -2.256  0.00  0.00    -0.042 A 
ATOM      5  C5  UNL d   1       1.123   2.779  -1.279  0.00  0.00     0.033 A 
ATOM      6  C6  UNL d   1       1.891   2.160  -0.288  0.00  0.00    -0.057 A 
ENDROOT
BRANCH   1   7
ATOM      7  N   UNL d   1       2.759   0.209   0.819  0.00  0.00    -0.732 N 
ATOM      8  C   UNL d   1       4.180   0.435   0.977  0.00  0.00     0.284 C 
ATOM      9  H3  UNL d   1       2.231   0.257   1.687  0.00  0.00     0.395 HD
ENDBRANCH   1   7
TORSDOF 1
ENDMDL
