MODEL 1
REMARK minimizedAffinity -3.91963363
REMARK minimizedRMSD -1
REMARK  1 active torsions:
REMARK  status: ('A' for Active; 'I' for Inactive)
REMARK    1  A    between atoms: N_2  and  C1_3 
ROOT
ATOM      1  C1  UNL d   1       1.064   2.756  -0.666  0.00  0.00     0.143 A 
ATOM      2  C2  UNL d   1       0.972   2.687   0.728  0.00  0.00    -0.057 A 
ATOM      3  C3  UNL d   1       0.782   1.465   1.384  0.00  0.00     0.033 A 
ATOM      4  C4  UNL d   1       0.651   0.289   0.652  0.00  0.00    -0.042 A 
ATOM      5  C5  UNL d   1       0.714   0.337  -0.736  0.00  0.00     0.033 A 
ATOM      6  C6  UNL d   1       0.911   1.560  -1.385  0.00  0.00    -0.057 A 
ENDROOT
BRANCH   1   7
ATOM      7  N   UNL d   1       1.154   3.953  -1.382  0.00  0.00    -0.732 N 
ATOM      8  C   UNL d   1       1.243   5.220  -0.690  0.00  0.00     0.284 C 
ATOM      9  H3  UNL d   1       1.766   3.877  -2.191  0.00  0.00     0.395 HD
ENDBRANCH   1   7
TORSDOF 1
ENDMDL
