MODEL 1
REMARK minimizedAffinity 1.63802767
REMARK minimizedRMSD -1
REMARK  1 active torsions:
REMARK  status: ('A' for Active; 'I' for Inactive)
REMARK    1  A    between atoms: N_2  and  C1_3 
ROOT
ATOM      1  C1  UNL d   1       1.175   1.932  -1.443  0.00  0.00     0.143 A 
ATOM      2  C2  UNL d   1       1.884   0.754  -1.704  0.00  0.00    -0.057 A 
ATOM      3  C3  UNL d   1       1.844  -0.329  -0.817  0.00  0.00     0.033 A 
ATOM      4  C4  UNL d   1       1.115  -0.241   0.365  0.00  0.00    -0.042 A 
ATOM      5  C5  UNL d   1       0.423   0.929   0.656  0.00  0.00     0.033 A 
ATOM      6  C6  UNL d   1       0.461   2.005  -0.237  0.00  0.00    -0.057 A 
ENDROOT
BRANCH   1   7
ATOM      7  N   UNL d   1       1.254   3.079  -2.237  0.00  0.00    -0.732 N 
ATOM      8  C   UNL d   1       0.971   4.383  -1.678  0.00  0.00     0.284 C 
ATOM      9  H3  UNL d   1       2.053   3.061  -2.867  0.00  0.00     0.395 HD
ENDBRANCH   1   7
TORSDOF 1
ENDMDL
