MODEL 1
REMARK minimizedAffinity 1.07252276
REMARK minimizedRMSD -1
REMARK  1 active torsions:
REMARK  status: ('A' for Active; 'I' for Inactive)
REMARK    1  A    between atoms: N_2  and  C1_3 
ROOT
ATOM      1  C1  UNL d   1       0.657   1.860  -1.219  0.00  0.00     0.143 A 
ATOM      2  C2  UNL d   1       0.580   0.484  -1.455  0.00  0.00    -0.057 A 
ATOM      3  C3  UNL d   1       0.920  -0.444  -0.463  0.00  0.00     0.033 A 
ATOM      4  C4  UNL d   1       1.374  -0.009   0.777  0.00  0.00    -0.042 A 
ATOM      5  C5  UNL d   1       1.483   1.355   1.026  0.00  0.00     0.033 A 
ATOM      6  C6  UNL d   1       1.135   2.276   0.034  0.00  0.00    -0.057 A 
ENDROOT
BRANCH   1   7
ATOM      7  N   UNL d   1       0.427   2.831  -2.196  0.00  0.00    -0.732 N 
ATOM      8  C   UNL d   1       0.917   4.182  -2.024  0.00  0.00     0.284 C 
ATOM      9  H3  UNL d   1       0.537   2.467  -3.140  0.00  0.00     0.395 HD
ENDBRANCH   1   7
TORSDOF 1
ENDMDL
