MODEL 1
REMARK minimizedAffinity 2.92478228
REMARK minimizedRMSD -1
REMARK  1 active torsions:
REMARK  status: ('A' for Active; 'I' for Inactive)
REMARK    1  A    between atoms: N_2  and  C1_3 
ROOT
ATOM      1  C1  UNL d   1      -3.786   1.293   3.912  0.00  0.00     0.143 A 
ATOM      2  C2  UNL d   1      -3.691   0.423   5.004  0.00  0.00    -0.057 A 
ATOM      3  C3  UNL d   1      -2.723   0.610   5.998  0.00  0.00     0.033 A 
ATOM      4  C4  UNL d   1      -1.811   1.656   5.902  0.00  0.00    -0.042 A 
ATOM      5  C5  UNL d   1      -1.871   2.518   4.813  0.00  0.00     0.033 A 
ATOM      6  C6  UNL d   1      -2.845   2.330   3.826  0.00  0.00    -0.057 A 
ENDROOT
BRANCH   1   7
ATOM      7  N   UNL d   1      -4.663   1.103   2.841  0.00  0.00    -0.732 N 
ATOM      8  C   UNL d   1      -5.999   0.595   3.063  0.00  0.00     0.284 C 
ATOM      9  H3  UNL d   1      -4.613   1.857   2.160  0.00  0.00     0.395 HD
ENDBRANCH   1   7
TORSDOF 1
ENDMDL
