MODEL 1
REMARK minimizedAffinity 6.28683615
REMARK minimizedRMSD -1
REMARK  0 active torsions:
REMARK  status: ('A' for Active; 'I' for Inactive)
ROOT
ATOM      1  N1  IND d   1      -3.401   2.024  -0.752  0.00  0.00    -0.196 N 
ATOM      2  C2  IND d   1      -2.666   1.299   0.144  0.00  0.00     0.054 A 
ATOM      3  C3  IND d   1      -2.214   2.098   1.137  0.00  0.00    -0.031 A 
ATOM      4  C4  IND d   1      -2.646   4.603   1.544  0.00  0.00     0.051 A 
ATOM      5  C5  IND d   1      -3.229   5.702   0.978  0.00  0.00    -0.031 A 
ATOM      6  C6  IND d   1      -3.915   5.629  -0.217  0.00  0.00     0.015 A 
ATOM      7  C7  IND d   1      -4.054   4.446  -0.887  0.00  0.00    -0.016 A 
ATOM      8  C8  IND d   1      -3.458   3.330  -0.318  0.00  0.00    -0.047 A 
ATOM      9  C9  IND d   1      -2.723   3.407   0.872  0.00  0.00    -0.096 A 
ATOM     10  HN1 IND d   1      -3.766   1.715  -1.466  0.00  0.00     0.298 HD
ENDROOT
TORSDOF 0
ENDMDL
