MODEL 1
REMARK minimizedAffinity 23.4187202
REMARK minimizedRMSD -1
REMARK  0 active torsions:
REMARK  status: ('A' for Active; 'I' for Inactive)
ROOT
ATOM      1  N1  IND d   1       4.812   1.021  -3.807  0.00  0.00    -0.196 N 
ATOM      2  C2  IND d   1       5.183   1.504  -5.031  0.00  0.00     0.054 A 
ATOM      3  C3  IND d   1       4.887   0.610  -6.000  0.00  0.00    -0.031 A 
ATOM      4  C4  IND d   1       3.697  -1.666  -5.817  0.00  0.00     0.051 A 
ATOM      5  C5  IND d   1       3.201  -2.552  -4.902  0.00  0.00    -0.031 A 
ATOM      6  C6  IND d   1       3.215  -2.285  -3.548  0.00  0.00     0.015 A 
ATOM      7  C7  IND d   1       3.716  -1.113  -3.057  0.00  0.00    -0.016 A 
ATOM      8  C8  IND d   1       4.227  -0.214  -3.983  0.00  0.00    -0.047 A 
ATOM      9  C9  IND d   1       4.255  -0.497  -5.355  0.00  0.00    -0.096 A 
ATOM     10  HN1 IND d   1       4.924   1.420  -3.054  0.00  0.00     0.298 HD
ENDROOT
TORSDOF 0
ENDMDL
