MODEL 1
REMARK minimizedAffinity 13.9606228
REMARK minimizedRMSD -1
REMARK  0 active torsions:
REMARK  status: ('A' for Active; 'I' for Inactive)
ROOT
ATOM      1  N1  IND d   1       6.000  -3.754  -1.492  0.00  0.00    -0.196 N 
ATOM      2  C2  IND d   1       5.990  -2.578  -0.795  0.00  0.00     0.054 A 
ATOM      3  C3  IND d   1       5.092  -1.721  -1.329  0.00  0.00    -0.031 A 
ATOM      4  C4  IND d   1       3.457  -2.076  -3.286  0.00  0.00     0.051 A 
ATOM      5  C5  IND d   1       3.120  -2.975  -4.259  0.00  0.00    -0.031 A 
ATOM      6  C6  IND d   1       3.736  -4.206  -4.359  0.00  0.00     0.015 A 
ATOM      7  C7  IND d   1       4.709  -4.589  -3.480  0.00  0.00    -0.016 A 
ATOM      8  C8  IND d   1       5.059  -3.676  -2.495  0.00  0.00    -0.047 A 
ATOM      9  C9  IND d   1       4.467  -2.409  -2.414  0.00  0.00    -0.096 A 
ATOM     10  HN1 IND d   1       6.508  -4.429  -1.331  0.00  0.00     0.298 HD
ENDROOT
TORSDOF 0
ENDMDL
