MODEL 1
REMARK minimizedAffinity 16.2102718
REMARK minimizedRMSD -1
REMARK  0 active torsions:
REMARK  status: ('A' for Active; 'I' for Inactive)
ROOT
ATOM      1  N1  IND d   1       6.000   0.161  -6.000  0.00  0.00    -0.196 N 
ATOM      2  C2  IND d   1       6.000   1.246  -5.170  0.00  0.00     0.054 A 
ATOM      3  C3  IND d   1       5.115   1.069  -4.163  0.00  0.00    -0.031 A 
ATOM      4  C4  IND d   1       3.635  -0.968  -3.627  0.00  0.00     0.051 A 
ATOM      5  C5  IND d   1       3.262  -2.188  -4.118  0.00  0.00    -0.031 A 
ATOM      6  C6  IND d   1       3.795  -2.698  -5.283  0.00  0.00     0.015 A 
ATOM      7  C7  IND d   1       4.734  -2.010  -5.999  0.00  0.00    -0.016 A 
ATOM      8  C8  IND d   1       5.110  -0.768  -5.507  0.00  0.00    -0.047 A 
ATOM      9  C9  IND d   1       4.541  -0.226  -4.347  0.00  0.00    -0.096 A 
ATOM     10  HN1 IND d   1       6.476   0.073  -6.711  0.00  0.00     0.298 HD
ENDROOT
TORSDOF 0
ENDMDL
