MODEL 1
REMARK minimizedAffinity 16.8360271
REMARK minimizedRMSD -1
REMARK  0 active torsions:
REMARK  status: ('A' for Active; 'I' for Inactive)
ROOT
ATOM      1  N1  IND d   1       5.954   3.720  -2.418  0.00  0.00    -0.196 N 
ATOM      2  C2  IND d   1       5.998   5.019  -2.841  0.00  0.00     0.054 A 
ATOM      3  C3  IND d   1       5.999   5.073  -4.192  0.00  0.00    -0.031 A 
ATOM      4  C4  IND d   1       5.827   3.160  -5.906  0.00  0.00     0.051 A 
ATOM      5  C5  IND d   1       5.802   1.797  -6.000  0.00  0.00    -0.031 A 
ATOM      6  C6  IND d   1       5.824   0.989  -4.882  0.00  0.00     0.015 A 
ATOM      7  C7  IND d   1       5.860   1.516  -3.622  0.00  0.00    -0.016 A 
ATOM      8  C8  IND d   1       5.893   2.900  -3.523  0.00  0.00    -0.047 A 
ATOM      9  C9  IND d   1       5.914   3.725  -4.655  0.00  0.00    -0.096 A 
ATOM     10  HN1 IND d   1       5.963   3.459  -1.599  0.00  0.00     0.298 HD
ENDROOT
TORSDOF 0
ENDMDL
