MODEL 1
REMARK minimizedAffinity 10.247097
REMARK minimizedRMSD -1
REMARK  0 active torsions:
REMARK  status: ('A' for Active; 'I' for Inactive)
ROOT
ATOM      1  N1  IND d   1      -2.422   2.383  -0.522  0.00  0.00    -0.196 N 
ATOM      2  C2  IND d   1      -1.458   2.283   0.443  0.00  0.00     0.054 A 
ATOM      3  C3  IND d   1      -1.457   3.388   1.223  0.00  0.00    -0.031 A 
ATOM      4  C4  IND d   1      -3.014   5.437   1.159  0.00  0.00     0.051 A 
ATOM      5  C5  IND d   1      -4.025   5.999   0.431  0.00  0.00    -0.031 A 
ATOM      6  C6  IND d   1      -4.567   5.371  -0.671  0.00  0.00     0.015 A 
ATOM      7  C7  IND d   1      -4.123   4.146  -1.083  0.00  0.00    -0.016 A 
ATOM      8  C8  IND d   1      -3.091   3.576  -0.351  0.00  0.00    -0.047 A 
ATOM      9  C9  IND d   1      -2.509   4.228   0.743  0.00  0.00    -0.096 A 
ATOM     10  HN1 IND d   1      -2.583   1.800  -1.132  0.00  0.00     0.298 HD
ENDROOT
TORSDOF 0
ENDMDL
