MODEL 1
REMARK minimizedAffinity 18.78508
REMARK minimizedRMSD -1
REMARK  0 active torsions:
REMARK  status: ('A' for Active; 'I' for Inactive)
ROOT
ATOM      1  N1  IND d   1       5.859   5.327  -0.712  0.00  0.00    -0.196 N 
ATOM      2  C2  IND d   1       6.000   5.786  -1.992  0.00  0.00     0.054 A 
ATOM      3  C3  IND d   1       4.787   6.000  -2.551  0.00  0.00    -0.031 A 
ATOM      4  C4  IND d   1       2.443   5.760  -1.514  0.00  0.00     0.051 A 
ATOM      5  C5  IND d   1       1.804   5.336  -0.383  0.00  0.00    -0.031 A 
ATOM      6  C6  IND d   1       2.498   4.881   0.720  0.00  0.00     0.015 A 
ATOM      7  C7  IND d   1       3.863   4.843   0.737  0.00  0.00    -0.016 A 
ATOM      8  C8  IND d   1       4.516   5.266  -0.413  0.00  0.00    -0.047 A 
ATOM      9  C9  IND d   1       3.816   5.689  -1.550  0.00  0.00    -0.096 A 
ATOM     10  HN1 IND d   1       6.502   5.112  -0.182  0.00  0.00     0.298 HD
ENDROOT
TORSDOF 0
ENDMDL
