MODEL 1
REMARK minimizedAffinity 18.1519737
REMARK minimizedRMSD -1
REMARK  0 active torsions:
REMARK  status: ('A' for Active; 'I' for Inactive)
ROOT
ATOM      1  N1  IND d   1       5.494   4.926   0.073  0.00  0.00    -0.196 N 
ATOM      2  C2  IND d   1       5.997   5.546  -1.037  0.00  0.00     0.054 A 
ATOM      3  C3  IND d   1       4.991   5.999  -1.819  0.00  0.00    -0.031 A 
ATOM      4  C4  IND d   1       2.449   5.922  -1.422  0.00  0.00     0.051 A 
ATOM      5  C5  IND d   1       1.507   5.424  -0.566  0.00  0.00    -0.031 A 
ATOM      6  C6  IND d   1       1.853   4.723   0.571  0.00  0.00     0.015 A 
ATOM      7  C7  IND d   1       3.160   4.502   0.902  0.00  0.00    -0.016 A 
ATOM      8  C8  IND d   1       4.119   5.000   0.031  0.00  0.00    -0.047 A 
ATOM      9  C9  IND d   1       3.773   5.676  -1.146  0.00  0.00    -0.096 A 
ATOM     10  HN1 IND d   1       5.958   4.552   0.692  0.00  0.00     0.298 HD
ENDROOT
TORSDOF 0
ENDMDL
