MODEL 1
REMARK minimizedAffinity 16.1889381
REMARK minimizedRMSD -1
REMARK  0 active torsions:
REMARK  status: ('A' for Active; 'I' for Inactive)
ROOT
ATOM      1  N1  IND d   1      -5.340   0.354   5.944  0.00  0.00    -0.196 N 
ATOM      2  C2  IND d   1      -5.998  -0.843   5.999  0.00  0.00     0.054 A 
ATOM      3  C3  IND d   1      -5.114  -1.866   5.982  0.00  0.00    -0.031 A 
ATOM      4  C4  IND d   1      -2.541  -1.805   5.971  0.00  0.00     0.051 A 
ATOM      5  C5  IND d   1      -1.484  -0.942   5.884  0.00  0.00    -0.031 A 
ATOM      6  C6  IND d   1      -1.663   0.424   5.814  0.00  0.00     0.015 A 
ATOM      7  C7  IND d   1      -2.910   0.982   5.839  0.00  0.00    -0.016 A 
ATOM      8  C8  IND d   1      -3.985   0.109   5.921  0.00  0.00    -0.047 A 
ATOM      9  C9  IND d   1      -3.812  -1.281   5.949  0.00  0.00    -0.096 A 
ATOM     10  HN1 IND d   1      -5.711   1.130   5.926  0.00  0.00     0.298 HD
ENDROOT
TORSDOF 0
ENDMDL
