MODEL 1
REMARK minimizedAffinity 18.4202766
REMARK minimizedRMSD -1
REMARK  0 active torsions:
REMARK  status: ('A' for Active; 'I' for Inactive)
ROOT
ATOM      1  N1  IND d   1      -2.489  -2.104  -2.595  0.00  0.00    -0.196 N 
ATOM      2  C2  IND d   1      -3.660  -2.208  -1.898  0.00  0.00     0.054 A 
ATOM      3  C3  IND d   1      -3.410  -2.382  -0.581  0.00  0.00    -0.031 A 
ATOM      4  C4  IND d   1      -1.158  -2.422   0.665  0.00  0.00     0.051 A 
ATOM      5  C5  IND d   1       0.192  -2.402   0.451  0.00  0.00    -0.031 A 
ATOM      6  C6  IND d   1       0.728  -2.276  -0.814  0.00  0.00     0.015 A 
ATOM      7  C7  IND d   1      -0.070  -2.154  -1.917  0.00  0.00    -0.016 A 
ATOM      8  C8  IND d   1      -1.441  -2.181  -1.704  0.00  0.00    -0.047 A 
ATOM      9  C9  IND d   1      -1.991  -2.351  -0.427  0.00  0.00    -0.096 A 
ATOM     10  HN1 IND d   1      -2.418  -2.006  -3.446  0.00  0.00     0.298 HD
ENDROOT
TORSDOF 0
ENDMDL
