MODEL 1
REMARK minimizedAffinity 21.9820328
REMARK minimizedRMSD -1
REMARK  0 active torsions:
REMARK  status: ('A' for Active; 'I' for Inactive)
ROOT
ATOM      1  N1  IND d   1      -3.369  -1.503  -0.499  0.00  0.00    -0.196 N 
ATOM      2  C2  IND d   1      -3.743  -2.021   0.709  0.00  0.00     0.054 A 
ATOM      3  C3  IND d   1      -2.698  -2.643   1.299  0.00  0.00    -0.031 A 
ATOM      4  C4  IND d   1      -0.257  -2.846   0.506  0.00  0.00     0.051 A 
ATOM      5  C5  IND d   1       0.558  -2.564  -0.554  0.00  0.00    -0.031 A 
ATOM      6  C6  IND d   1       0.098  -1.898  -1.671  0.00  0.00     0.015 A 
ATOM      7  C7  IND d   1      -1.199  -1.478  -1.766  0.00  0.00    -0.016 A 
ATOM      8  C8  IND d   1      -2.031  -1.768  -0.694  0.00  0.00    -0.047 A 
ATOM      9  C9  IND d   1      -1.580  -2.481   0.424  0.00  0.00    -0.096 A 
ATOM     10  HN1 IND d   1      -3.883  -1.082  -1.045  0.00  0.00     0.298 HD
ENDROOT
TORSDOF 0
ENDMDL
