MODEL 1
REMARK minimizedAffinity 14.6363525
REMARK minimizedRMSD -1
REMARK  0 active torsions:
REMARK  status: ('A' for Active; 'I' for Inactive)
ROOT
ATOM      1  N1  IND d   1      -1.554  -3.465  -5.070  0.00  0.00    -0.196 N 
ATOM      2  C2  IND d   1      -1.815  -2.515  -4.122  0.00  0.00     0.054 A 
ATOM      3  C3  IND d   1      -3.059  -2.681  -3.620  0.00  0.00    -0.031 A 
ATOM      4  C4  IND d   1      -4.801  -4.505  -4.134  0.00  0.00     0.051 A 
ATOM      5  C5  IND d   1      -5.033  -5.571  -4.957  0.00  0.00    -0.031 A 
ATOM      6  C6  IND d   1      -4.098  -6.000  -5.877  0.00  0.00     0.015 A 
ATOM      7  C7  IND d   1      -2.886  -5.383  -6.000  0.00  0.00    -0.016 A 
ATOM      8  C8  IND d   1      -2.649  -4.296  -5.171  0.00  0.00    -0.047 A 
ATOM      9  C9  IND d   1      -3.610  -3.830  -4.265  0.00  0.00    -0.096 A 
ATOM     10  HN1 IND d   1      -0.829  -3.532  -5.527  0.00  0.00     0.298 HD
ENDROOT
TORSDOF 0
ENDMDL
