MODEL 1
REMARK minimizedAffinity 12.1789303
REMARK minimizedRMSD -1
REMARK  0 active torsions:
REMARK  status: ('A' for Active; 'I' for Inactive)
ROOT
ATOM      1  N1  IND d   1      -0.794  -1.323  -1.524  0.00  0.00    -0.196 N 
ATOM      2  C2  IND d   1      -0.701  -1.983  -0.330  0.00  0.00     0.054 A 
ATOM      3  C3  IND d   1       0.562  -2.422  -0.132  0.00  0.00    -0.031 A 
ATOM      4  C4  IND d   1       2.659  -2.082  -1.587  0.00  0.00     0.051 A 
ATOM      5  C5  IND d   1       3.065  -1.575  -2.789  0.00  0.00    -0.031 A 
ATOM      6  C6  IND d   1       2.188  -0.943  -3.648  0.00  0.00     0.015 A 
ATOM      7  C7  IND d   1       0.870  -0.783  -3.329  0.00  0.00    -0.016 A 
ATOM      8  C8  IND d   1       0.452  -1.303  -2.112  0.00  0.00    -0.047 A 
ATOM      9  C9  IND d   1       1.328  -1.983  -1.256  0.00  0.00    -0.096 A 
ATOM     10  HN1 IND d   1      -1.510  -0.978  -1.852  0.00  0.00     0.298 HD
ENDROOT
TORSDOF 0
ENDMDL
