MODEL 1
REMARK minimizedAffinity 20.8447552
REMARK minimizedRMSD -1
REMARK  0 active torsions:
REMARK  status: ('A' for Active; 'I' for Inactive)
ROOT
ATOM      1  N1  IND d   1       0.394  -1.772  -2.862  0.00  0.00    -0.196 N 
ATOM      2  C2  IND d   1      -0.579  -1.584  -1.921  0.00  0.00     0.054 A 
ATOM      3  C3  IND d   1      -0.025  -1.278  -0.726  0.00  0.00    -0.031 A 
ATOM      4  C4  IND d   1       2.452  -0.935  -0.112  0.00  0.00     0.051 A 
ATOM      5  C5  IND d   1       3.713  -1.034  -0.629  0.00  0.00    -0.031 A 
ATOM      6  C6  IND d   1       3.937  -1.389  -1.943  0.00  0.00     0.015 A 
ATOM      7  C7  IND d   1       2.903  -1.648  -2.797  0.00  0.00    -0.016 A 
ATOM      8  C8  IND d   1       1.621  -1.555  -2.275  0.00  0.00    -0.047 A 
ATOM      9  C9  IND d   1       1.389  -1.237  -0.930  0.00  0.00    -0.096 A 
ATOM     10  HN1 IND d   1       0.262  -1.990  -3.684  0.00  0.00     0.298 HD
ENDROOT
TORSDOF 0
ENDMDL
