MODEL 1
REMARK minimizedAffinity 13.1843204
REMARK minimizedRMSD -1
REMARK  0 active torsions:
REMARK  status: ('A' for Active; 'I' for Inactive)
ROOT
ATOM      1  N1  IND d   1       3.707  -5.983   5.046  0.00  0.00    -0.196 N 
ATOM      2  C2  IND d   1       4.892  -5.999   5.728  0.00  0.00     0.054 A 
ATOM      3  C3  IND d   1       5.296  -4.738   5.999  0.00  0.00    -0.031 A 
ATOM      4  C4  IND d   1       4.118  -2.502   5.506  0.00  0.00     0.051 A 
ATOM      5  C5  IND d   1       3.030  -1.975   4.869  0.00  0.00    -0.031 A 
ATOM      6  C6  IND d   1       2.091  -2.774   4.249  0.00  0.00     0.015 A 
ATOM      7  C7  IND d   1       2.200  -4.135   4.251  0.00  0.00    -0.016 A 
ATOM      8  C8  IND d   1       3.308  -4.673   4.891  0.00  0.00    -0.047 A 
ATOM      9  C9  IND d   1       4.286  -3.866   5.486  0.00  0.00    -0.096 A 
ATOM     10  HN1 IND d   1       3.283  -6.674   4.761  0.00  0.00     0.298 HD
ENDROOT
TORSDOF 0
ENDMDL
