MODEL 1
REMARK minimizedAffinity 13.1108303
REMARK minimizedRMSD -1
REMARK  0 active torsions:
REMARK  status: ('A' for Active; 'I' for Inactive)
ROOT
ATOM      1  N1  IND d   1       1.396  -1.361  -0.874  0.00  0.00    -0.196 N 
ATOM      2  C2  IND d   1       0.168  -1.795  -1.289  0.00  0.00     0.054 A 
ATOM      3  C3  IND d   1       0.261  -2.377  -2.506  0.00  0.00    -0.031 A 
ATOM      4  C4  IND d   1       2.344  -2.817  -3.954  0.00  0.00     0.051 A 
ATOM      5  C5  IND d   1       3.687  -2.570  -4.012  0.00  0.00    -0.031 A 
ATOM      6  C6  IND d   1       4.349  -1.897  -3.006  0.00  0.00     0.015 A 
ATOM      7  C7  IND d   1       3.691  -1.453  -1.893  0.00  0.00    -0.016 A 
ATOM      8  C8  IND d   1       2.326  -1.695  -1.834  0.00  0.00    -0.047 A 
ATOM      9  C9  IND d   1       1.641  -2.341  -2.872  0.00  0.00    -0.096 A 
ATOM     10  HN1 IND d   1       1.561  -0.950  -0.137  0.00  0.00     0.298 HD
ENDROOT
TORSDOF 0
ENDMDL
