MODEL 1
REMARK minimizedAffinity 5.88243628
REMARK minimizedRMSD -1
REMARK  0 active torsions:
REMARK  status: ('A' for Active; 'I' for Inactive)
ROOT
ATOM      1  N1  IND d   1       6.000  -4.980  -5.470  0.00  0.00    -0.196 N 
ATOM      2  C2  IND d   1       6.000  -5.864  -4.427  0.00  0.00     0.054 A 
ATOM      3  C3  IND d   1       5.923  -5.203  -3.251  0.00  0.00    -0.031 A 
ATOM      4  C4  IND d   1       5.684  -2.679  -2.805  0.00  0.00     0.051 A 
ATOM      5  C5  IND d   1       5.675  -1.469  -3.441  0.00  0.00    -0.031 A 
ATOM      6  C6  IND d   1       5.773  -1.366  -4.814  0.00  0.00     0.015 A 
ATOM      7  C7  IND d   1       5.873  -2.474  -5.606  0.00  0.00    -0.016 A 
ATOM      8  C8  IND d   1       5.889  -3.704  -4.963  0.00  0.00    -0.047 A 
ATOM      9  C9  IND d   1       5.833  -3.813  -3.568  0.00  0.00    -0.096 A 
ATOM     10  HN1 IND d   1       6.059  -5.187  -6.303  0.00  0.00     0.298 HD
ENDROOT
TORSDOF 0
ENDMDL
