MODEL 1
REMARK minimizedAffinity 8.88759327
REMARK minimizedRMSD -1
REMARK  1 active torsions:
REMARK  status: ('A' for Active; 'I' for Inactive)
REMARK    1  A    between atoms: C1_2  and  C2_3 
ROOT
ATOM      1  C2  UNL d   1      -2.903   0.632  -3.441  0.00  0.00    -0.073 A 
ATOM      2  C3  UNL d   1      -1.579   0.549  -2.996  0.00  0.00    -0.002 A 
ATOM      3  C4  UNL d   1      -1.036  -0.681  -2.624  0.00  0.00     0.004 A 
ATOM      4  C5  UNL d   1      -1.808  -1.841  -2.701  0.00  0.00    -0.004 A 
ATOM      5  C6  UNL d   1      -3.129  -1.780  -3.154  0.00  0.00    -0.075 A 
ATOM      6  C7  UNL d   1      -3.973  -3.018  -3.240  0.00  0.00     0.076 C 
ATOM      7  C8  UNL d   1      -3.668  -0.540  -3.523  0.00  0.00     0.001 A 
ENDROOT
BRANCH   1   8
ATOM      8  C1  UNL d   1      -3.492   1.958  -3.849  0.00  0.00     0.053 C 
ATOM      9  C   UNL d   1      -3.810   2.834  -2.648  0.00  0.00     0.018 C 
ENDBRANCH   1   8
TORSDOF 1
ENDMDL
