MODEL 1
REMARK minimizedAffinity 5.39901733
REMARK minimizedRMSD -1
REMARK  1 active torsions:
REMARK  status: ('A' for Active; 'I' for Inactive)
REMARK    1  A    between atoms: C1_2  and  C2_3 
ROOT
ATOM      1  C2  UNL d   1      -3.071   1.919  -3.017  0.00  0.00    -0.073 A 
ATOM      2  C3  UNL d   1      -2.766   0.849  -3.866  0.00  0.00    -0.002 A 
ATOM      3  C4  UNL d   1      -2.289  -0.353  -3.342  0.00  0.00     0.004 A 
ATOM      4  C5  UNL d   1      -2.120  -0.501  -1.966  0.00  0.00    -0.004 A 
ATOM      5  C6  UNL d   1      -2.430   0.553  -1.100  0.00  0.00    -0.075 A 
ATOM      6  C7  UNL d   1      -2.251   0.411   0.383  0.00  0.00     0.076 C 
ATOM      7  C8  UNL d   1      -2.905   1.758  -1.634  0.00  0.00     0.001 A 
ENDROOT
BRANCH   1   8
ATOM      8  C1  UNL d   1      -3.592   3.217  -3.578  0.00  0.00     0.053 C 
ATOM      9  C   UNL d   1      -4.224   4.089  -2.504  0.00  0.00     0.018 C 
ENDBRANCH   1   8
TORSDOF 1
ENDMDL
