MODEL 1
REMARK minimizedAffinity 6.47016382
REMARK minimizedRMSD -1
REMARK  1 active torsions:
REMARK  status: ('A' for Active; 'I' for Inactive)
REMARK    1  A    between atoms: C1_2  and  C2_3 
ROOT
ATOM      1  C2  UNL d   1      -2.554   1.661  -3.195  0.00  0.00    -0.073 A 
ATOM      2  C3  UNL d   1      -2.511   1.369  -1.827  0.00  0.00    -0.002 A 
ATOM      3  C4  UNL d   1      -1.968   0.163  -1.380  0.00  0.00     0.004 A 
ATOM      4  C5  UNL d   1      -1.456  -0.757  -2.294  0.00  0.00    -0.004 A 
ATOM      5  C6  UNL d   1      -1.479  -0.479  -3.664  0.00  0.00    -0.075 A 
ATOM      6  C7  UNL d   1      -0.935  -1.460  -4.661  0.00  0.00     0.076 C 
ATOM      7  C8  UNL d   1      -2.029   0.733  -4.106  0.00  0.00     0.001 A 
ENDROOT
BRANCH   1   8
ATOM      8  C1  UNL d   1      -3.134   2.963  -3.682  0.00  0.00     0.053 C 
ATOM      9  C   UNL d   1      -3.690   3.801  -2.541  0.00  0.00     0.018 C 
ENDBRANCH   1   8
TORSDOF 1
ENDMDL
