MODEL 1
REMARK minimizedAffinity 15.7673025
REMARK minimizedRMSD -1
REMARK  1 active torsions:
REMARK  status: ('A' for Active; 'I' for Inactive)
REMARK    1  A    between atoms: C1_2  and  C2_3 
ROOT
ATOM      1  C2  UNL d   1      -2.837   2.225  -3.038  0.00  0.00    -0.073 A 
ATOM      2  C3  UNL d   1      -2.592   2.229  -1.660  0.00  0.00    -0.002 A 
ATOM      3  C4  UNL d   1      -2.095   1.088  -1.029  0.00  0.00     0.004 A 
ATOM      4  C5  UNL d   1      -1.832  -0.065  -1.768  0.00  0.00    -0.004 A 
ATOM      5  C6  UNL d   1      -2.059  -0.085  -3.148  0.00  0.00    -0.075 A 
ATOM      6  C7  UNL d   1      -1.783  -1.318  -3.957  0.00  0.00     0.076 C 
ATOM      7  C8  UNL d   1      -2.561   1.064  -3.774  0.00  0.00     0.001 A 
ENDROOT
BRANCH   1   8
ATOM      8  C1  UNL d   1      -3.368   3.456  -3.725  0.00  0.00     0.053 C 
ATOM      9  C   UNL d   1      -4.292   4.259  -2.823  0.00  0.00     0.018 C 
ENDBRANCH   1   8
TORSDOF 1
ENDMDL
