MODEL 1
REMARK minimizedAffinity 4.38153696
REMARK minimizedRMSD -1
REMARK  1 active torsions:
REMARK  status: ('A' for Active; 'I' for Inactive)
REMARK    1  A    between atoms: C1_2  and  C2_3 
ROOT
ATOM      1  C2  UNL d   1       2.175   0.789   3.945  0.00  0.00    -0.073 A 
ATOM      2  C3  UNL d   1       1.895   0.797   2.573  0.00  0.00    -0.002 A 
ATOM      3  C4  UNL d   1       1.765  -0.403   1.873  0.00  0.00     0.004 A 
ATOM      4  C5  UNL d   1       1.906  -1.622   2.537  0.00  0.00    -0.004 A 
ATOM      5  C6  UNL d   1       2.175  -1.651   3.909  0.00  0.00    -0.075 A 
ATOM      6  C7  UNL d   1       2.332  -2.954   4.637  0.00  0.00     0.076 C 
ATOM      7  C8  UNL d   1       2.306  -0.441   4.605  0.00  0.00     0.001 A 
ENDROOT
BRANCH   1   8
ATOM      8  C1  UNL d   1       2.309   2.082   4.706  0.00  0.00     0.053 C 
ATOM      9  C   UNL d   1       3.089   1.904   5.999  0.00  0.00     0.018 C 
ENDBRANCH   1   8
TORSDOF 1
ENDMDL
