MODEL 1
REMARK minimizedAffinity 0.466178775
REMARK minimizedRMSD -1
REMARK  0 active torsions:
REMARK  status: ('A' for Active; 'I' for Inactive)
ROOT
ATOM      1  C   UNL d   1      -3.041  -0.959   0.010  0.00  0.00    -0.002 A 
ATOM      2  C1  UNL d   1      -2.923  -1.394  -1.303  0.00  0.00     0.010 A 
ATOM      3  C2  UNL d   1      -1.708  -1.284  -1.982  0.00  0.00     0.041 A 
ATOM      4  C3  UNL d   1      -0.601  -0.725  -1.312  0.00  0.00    -0.075 A 
ATOM      5  S   UNL d   1       0.986  -0.491  -1.942  0.00  0.00     0.015 SA
ATOM      6  C4  UNL d   1       1.546   0.191  -0.484  0.00  0.00     0.022 A 
ATOM      7  C5  UNL d   1       0.559   0.247   0.471  0.00  0.00     0.026 A 
ATOM      8  C6  UNL d   1      -0.695  -0.281   0.010  0.00  0.00    -0.082 A 
ATOM      9  C7  UNL d   1      -1.941  -0.406   0.671  0.00  0.00     0.045 A 
ENDROOT
TORSDOF 0
ENDMDL
