MODEL 1
REMARK minimizedAffinity -2.81705689
REMARK minimizedRMSD -1
REMARK  0 active torsions:
REMARK  status: ('A' for Active; 'I' for Inactive)
ROOT
ATOM      1  C   UNL d   1       3.537   4.090   0.893  0.00  0.00    -0.002 A 
ATOM      2  C1  UNL d   1       2.699   3.703   1.930  0.00  0.00     0.010 A 
ATOM      3  C2  UNL d   1       2.102   2.441   1.927  0.00  0.00     0.041 A 
ATOM      4  C3  UNL d   1       2.364   1.565   0.856  0.00  0.00    -0.075 A 
ATOM      5  S   UNL d   1       1.744  -0.029   0.641  0.00  0.00     0.015 SA
ATOM      6  C4  UNL d   1       2.577  -0.236  -0.831  0.00  0.00     0.022 A 
ATOM      7  C5  UNL d   1       3.315   0.875  -1.166  0.00  0.00     0.026 A 
ATOM      8  C6  UNL d   1       3.205   1.931  -0.199  0.00  0.00    -0.082 A 
ATOM      9  C7  UNL d   1       3.795   3.218  -0.168  0.00  0.00     0.045 A 
ENDROOT
TORSDOF 0
ENDMDL
