MODEL 1
REMARK minimizedAffinity -1.45915103
REMARK minimizedRMSD -1
REMARK  0 active torsions:
REMARK  status: ('A' for Active; 'I' for Inactive)
ROOT
ATOM      1  C   UNL d   1       3.022   3.451   1.395  0.00  0.00    -0.002 A 
ATOM      2  C1  UNL d   1       3.141   3.417   0.013  0.00  0.00     0.010 A 
ATOM      3  C2  UNL d   1       2.695   2.309  -0.711  0.00  0.00     0.041 A 
ATOM      4  C3  UNL d   1       2.120   1.227  -0.016  0.00  0.00    -0.075 A 
ATOM      5  S   UNL d   1       1.503  -0.233  -0.693  0.00  0.00     0.015 SA
ATOM      6  C4  UNL d   1       1.065  -0.845   0.836  0.00  0.00     0.022 A 
ATOM      7  C5  UNL d   1       1.375   0.030   1.850  0.00  0.00     0.026 A 
ATOM      8  C6  UNL d   1       1.988   1.239   1.375  0.00  0.00    -0.082 A 
ATOM      9  C7  UNL d   1       2.450   2.376   2.081  0.00  0.00     0.045 A 
ENDROOT
TORSDOF 0
ENDMDL
