MODEL 1
REMARK minimizedAffinity -2.7911582
REMARK minimizedRMSD -1
REMARK  0 active torsions:
REMARK  status: ('A' for Active; 'I' for Inactive)
ROOT
ATOM      1  C   UNL d   1       3.228   3.051   2.182  0.00  0.00    -0.002 A 
ATOM      2  C1  UNL d   1       3.695   2.101   3.080  0.00  0.00     0.010 A 
ATOM      3  C2  UNL d   1       3.212   0.792   3.043  0.00  0.00     0.041 A 
ATOM      4  C3  UNL d   1       2.245   0.449   2.078  0.00  0.00    -0.075 A 
ATOM      5  S   UNL d   1       1.510  -1.094   1.845  0.00  0.00     0.015 SA
ATOM      6  C4  UNL d   1       0.561  -0.529   0.547  0.00  0.00     0.022 A 
ATOM      7  C5  UNL d   1       0.786   0.802   0.285  0.00  0.00     0.026 A 
ATOM      8  C6  UNL d   1       1.760   1.387   1.163  0.00  0.00    -0.082 A 
ATOM      9  C7  UNL d   1       2.268   2.707   1.226  0.00  0.00     0.045 A 
ENDROOT
TORSDOF 0
ENDMDL
