MODEL 1
REMARK minimizedAffinity 2.09036779
REMARK minimizedRMSD -1
REMARK  0 active torsions:
REMARK  status: ('A' for Active; 'I' for Inactive)
ROOT
ATOM      1  C   UNL d   1       2.758  -0.797  -3.451  0.00  0.00    -0.002 A 
ATOM      2  C1  UNL d   1       3.685  -0.727  -2.420  0.00  0.00     0.010 A 
ATOM      3  C2  UNL d   1       3.275  -0.454  -1.114  0.00  0.00     0.041 A 
ATOM      4  C3  UNL d   1       1.905  -0.251  -0.857  0.00  0.00    -0.075 A 
ATOM      5  S   UNL d   1       1.173   0.096   0.664  0.00  0.00     0.015 SA
ATOM      6  C4  UNL d   1      -0.388   0.159  -0.017  0.00  0.00     0.022 A 
ATOM      7  C5  UNL d   1      -0.369  -0.076  -1.372  0.00  0.00     0.026 A 
ATOM      8  C6  UNL d   1       0.952  -0.317  -1.878  0.00  0.00    -0.082 A 
ATOM      9  C7  UNL d   1       1.399  -0.596  -3.192  0.00  0.00     0.045 A 
ENDROOT
TORSDOF 0
ENDMDL
