MODEL 1
REMARK minimizedAffinity 5.08805466
REMARK minimizedRMSD -1
REMARK  0 active torsions:
REMARK  status: ('A' for Active; 'I' for Inactive)
ROOT
ATOM      1  C   UNL d   1       2.371  -0.817  -3.953  0.00  0.00    -0.002 A 
ATOM      2  C1  UNL d   1       3.403  -0.805  -3.026  0.00  0.00     0.010 A 
ATOM      3  C2  UNL d   1       3.135  -0.634  -1.666  0.00  0.00     0.041 A 
ATOM      4  C3  UNL d   1       1.798  -0.475  -1.251  0.00  0.00    -0.075 A 
ATOM      5  S   UNL d   1       1.230  -0.252   0.362  0.00  0.00     0.015 SA
ATOM      6  C4  UNL d   1      -0.396  -0.168  -0.142  0.00  0.00     0.022 A 
ATOM      7  C5  UNL d   1      -0.521  -0.305  -1.505  0.00  0.00     0.026 A 
ATOM      8  C6  UNL d   1       0.741  -0.485  -2.166  0.00  0.00    -0.082 A 
ATOM      9  C7  UNL d   1       1.047  -0.660  -3.537  0.00  0.00     0.045 A 
ENDROOT
TORSDOF 0
ENDMDL
