MODEL 1
REMARK minimizedAffinity -3.81910896
REMARK minimizedRMSD -1
REMARK  0 active torsions:
REMARK  status: ('A' for Active; 'I' for Inactive)
ROOT
ATOM      1  C   UNL d   1       3.698   3.317  -1.975  0.00  0.00    -0.002 A 
ATOM      2  C1  UNL d   1       3.398   1.997  -2.280  0.00  0.00     0.010 A 
ATOM      3  C2  UNL d   1       2.772   1.175  -1.341  0.00  0.00     0.041 A 
ATOM      4  C3  UNL d   1       2.448   1.708  -0.078  0.00  0.00    -0.075 A 
ATOM      5  S   UNL d   1       1.677   0.889   1.229  0.00  0.00     0.015 SA
ATOM      6  C4  UNL d   1       1.728   2.272   2.224  0.00  0.00     0.022 A 
ATOM      7  C5  UNL d   1       2.315   3.342   1.590  0.00  0.00     0.026 A 
ATOM      8  C6  UNL d   1       2.739   3.035   0.253  0.00  0.00    -0.082 A 
ATOM      9  C7  UNL d   1       3.375   3.842  -0.721  0.00  0.00     0.045 A 
ENDROOT
TORSDOF 0
ENDMDL
