MODEL 1
REMARK minimizedAffinity -4.4793539
REMARK minimizedRMSD -1
REMARK  0 active torsions:
REMARK  status: ('A' for Active; 'I' for Inactive)
ROOT
ATOM      1  C   UNL d   1      -2.385  -0.397   0.389  0.00  0.00    -0.002 A 
ATOM      2  C1  UNL d   1      -2.583  -0.785  -0.929  0.00  0.00     0.010 A 
ATOM      3  C2  UNL d   1      -1.518  -0.806  -1.831  0.00  0.00     0.041 A 
ATOM      4  C3  UNL d   1      -0.237  -0.428  -1.382  0.00  0.00    -0.075 A 
ATOM      5  S   UNL d   1       1.216  -0.377  -2.308  0.00  0.00     0.015 SA
ATOM      6  C4  UNL d   1       2.134   0.159  -0.976  0.00  0.00     0.022 A 
ATOM      7  C5  UNL d   1       1.367   0.302   0.155  0.00  0.00     0.026 A 
ATOM      8  C6  UNL d   1      -0.013  -0.035  -0.059  0.00  0.00    -0.082 A 
ATOM      9  C7  UNL d   1      -1.113  -0.023   0.831  0.00  0.00     0.045 A 
ENDROOT
TORSDOF 0
ENDMDL
