MODEL 1
REMARK minimizedAffinity -0.552750528
REMARK minimizedRMSD -1
REMARK  0 active torsions:
REMARK  status: ('A' for Active; 'I' for Inactive)
ROOT
ATOM      1  C   UNL d   1       4.560   4.098  -1.575  0.00  0.00    -0.002 A 
ATOM      2  C1  UNL d   1       4.577   2.713  -1.658  0.00  0.00     0.010 A 
ATOM      3  C2  UNL d   1       3.986   1.934  -0.661  0.00  0.00     0.041 A 
ATOM      4  C3  UNL d   1       3.370   2.577   0.431  0.00  0.00    -0.075 A 
ATOM      5  S   UNL d   1       2.582   1.829   1.769  0.00  0.00     0.015 SA
ATOM      6  C4  UNL d   1       2.203   3.330   2.481  0.00  0.00     0.022 A 
ATOM      7  C5  UNL d   1       2.659   4.387   1.730  0.00  0.00     0.026 A 
ATOM      8  C6  UNL d   1       3.339   3.971   0.536  0.00  0.00    -0.082 A 
ATOM      9  C7  UNL d   1       3.948   4.732  -0.491  0.00  0.00     0.045 A 
ENDROOT
TORSDOF 0
ENDMDL
