MODEL 1
REMARK minimizedAffinity 0.620073974
REMARK minimizedRMSD -1
REMARK  0 active torsions:
REMARK  status: ('A' for Active; 'I' for Inactive)
ROOT
ATOM      1  C   UNL d   1      -1.892  -0.034  -2.310  0.00  0.00    -0.002 A 
ATOM      2  C1  UNL d   1      -2.412  -0.989  -1.448  0.00  0.00     0.010 A 
ATOM      3  C2  UNL d   1      -1.703  -1.379  -0.309  0.00  0.00     0.041 A 
ATOM      4  C3  UNL d   1      -0.452  -0.786  -0.049  0.00  0.00    -0.075 A 
ATOM      5  S   UNL d   1       0.593  -1.106   1.284  0.00  0.00     0.015 SA
ATOM      6  C4  UNL d   1       1.754   0.017   0.741  0.00  0.00     0.022 A 
ATOM      7  C5  UNL d   1       1.369   0.631  -0.428  0.00  0.00     0.026 A 
ATOM      8  C6  UNL d   1       0.092   0.179  -0.902  0.00  0.00    -0.082 A 
ATOM      9  C7  UNL d   1      -0.651   0.552  -2.048  0.00  0.00     0.045 A 
ENDROOT
TORSDOF 0
ENDMDL
