MODEL 1
REMARK minimizedAffinity -2.22996569
REMARK minimizedRMSD -1
REMARK  0 active torsions:
REMARK  status: ('A' for Active; 'I' for Inactive)
ROOT
ATOM      1  C   UNL d   1      -2.628  -1.161  -0.934  0.00  0.00    -0.002 A 
ATOM      2  C1  UNL d   1      -2.455  -1.101   0.442  0.00  0.00     0.010 A 
ATOM      3  C2  UNL d   1      -1.214  -0.771   0.988  0.00  0.00     0.041 A 
ATOM      4  C3  UNL d   1      -0.138  -0.497   0.120  0.00  0.00    -0.075 A 
ATOM      5  S   UNL d   1       1.472  -0.070   0.562  0.00  0.00     0.015 SA
ATOM      6  C4  UNL d   1       1.969   0.044  -1.064  0.00  0.00     0.022 A 
ATOM      7  C5  UNL d   1       0.943  -0.234  -1.937  0.00  0.00     0.026 A 
ATOM      8  C6  UNL d   1      -0.288  -0.550  -1.269  0.00  0.00    -0.082 A 
ATOM      9  C7  UNL d   1      -1.559  -0.889  -1.792  0.00  0.00     0.045 A 
ENDROOT
TORSDOF 0
ENDMDL
