MODEL 1
REMARK minimizedAffinity 9.23987484
REMARK minimizedRMSD -1
REMARK  2 active torsions:
REMARK  status: ('A' for Active; 'I' for Inactive)
REMARK    1  A    between atoms: C1_2  and  C2_3 
REMARK    2  A    between atoms: C2_3  and  C3_4 
ROOT
ATOM      1  C3  UNL d   1      -1.222  -1.851  -0.408  0.00  0.00    -0.075 A 
ATOM      2  C4  UNL d   1      -2.271  -1.557   0.475  0.00  0.00     0.002 A 
ATOM      3  C5  UNL d   1      -2.531  -2.387   1.566  0.00  0.00     0.002 A 
ATOM      4  C6  UNL d   1      -1.756  -3.524   1.782  0.00  0.00    -0.004 A 
ATOM      5  C7  UNL d   1      -0.722  -3.834   0.901  0.00  0.00     0.002 A 
ATOM      6  C8  UNL d   1      -0.456  -3.003  -0.189  0.00  0.00     0.002 A 
ENDROOT
BRANCH   1   7
ATOM      7  C2  UNL d   1      -0.916  -0.941  -1.574  0.00  0.00     0.056 C 
BRANCH   7   8
ATOM      8  C1  UNL d   1      -1.960  -0.991  -2.694  0.00  0.00     0.007 C 
ATOM      9  C   UNL d   1      -1.610  -1.981  -3.797  0.00  0.00     0.009 C 
ENDBRANCH   7   8
ENDBRANCH   1   7
TORSDOF 2
ENDMDL
