MODEL 1
REMARK minimizedAffinity 12.4549913
REMARK minimizedRMSD -1
REMARK  2 active torsions:
REMARK  status: ('A' for Active; 'I' for Inactive)
REMARK    1  A    between atoms: C1_2  and  C2_3 
REMARK    2  A    between atoms: C2_3  and  C3_4 
ROOT
ATOM      1  C3  UNL d   1       0.755   1.560  -3.547  0.00  0.00    -0.075 A 
ATOM      2  C4  UNL d   1       1.110   0.276  -3.986  0.00  0.00     0.002 A 
ATOM      3  C5  UNL d   1       2.187  -0.397  -3.410  0.00  0.00     0.002 A 
ATOM      4  C6  UNL d   1       2.928   0.206  -2.396  0.00  0.00    -0.004 A 
ATOM      5  C7  UNL d   1       2.595   1.488  -1.963  0.00  0.00     0.002 A 
ATOM      6  C8  UNL d   1       1.515   2.162  -2.535  0.00  0.00     0.002 A 
ENDROOT
BRANCH   1   7
ATOM      7  C2  UNL d   1      -0.428   2.282  -4.146  0.00  0.00     0.056 C 
BRANCH   7   8
ATOM      8  C1  UNL d   1      -0.127   3.722  -4.577  0.00  0.00     0.007 C 
ATOM      9  C   UNL d   1       0.439   3.820  -5.987  0.00  0.00     0.009 C 
ENDBRANCH   7   8
ENDBRANCH   1   7
TORSDOF 2
ENDMDL
