MODEL 1
REMARK minimizedAffinity 14.8018255
REMARK minimizedRMSD -1
REMARK  2 active torsions:
REMARK  status: ('A' for Active; 'I' for Inactive)
REMARK    1  A    between atoms: C1_2  and  C2_3 
REMARK    2  A    between atoms: C2_3  and  C3_4 
ROOT
ATOM      1  C3  UNL d   1      -1.283  -2.207  -0.165  0.00  0.00    -0.075 A 
ATOM      2  C4  UNL d   1      -2.082  -1.832   0.925  0.00  0.00     0.002 A 
ATOM      3  C5  UNL d   1      -2.048  -2.563   2.113  0.00  0.00     0.002 A 
ATOM      4  C6  UNL d   1      -1.224  -3.681   2.222  0.00  0.00    -0.004 A 
ATOM      5  C7  UNL d   1      -0.439  -4.073   1.140  0.00  0.00     0.002 A 
ATOM      6  C8  UNL d   1      -0.468  -3.340  -0.048  0.00  0.00     0.002 A 
ENDROOT
BRANCH   1   7
ATOM      7  C2  UNL d   1      -1.294  -1.402  -1.443  0.00  0.00     0.056 C 
BRANCH   7   8
ATOM      8  C1  UNL d   1      -0.553  -2.070  -2.606  0.00  0.00     0.007 C 
ATOM      9  C   UNL d   1      -0.022  -1.076  -3.630  0.00  0.00     0.009 C 
ENDBRANCH   7   8
ENDBRANCH   1   7
TORSDOF 2
ENDMDL
