MODEL 1
REMARK minimizedAffinity 13.4389219
REMARK minimizedRMSD -1
REMARK  2 active torsions:
REMARK  status: ('A' for Active; 'I' for Inactive)
REMARK    1  A    between atoms: C1_2  and  C2_3 
REMARK    2  A    between atoms: C2_3  and  C3_4 
ROOT
ATOM      1  C3  UNL d   1      -3.680   3.970  -4.575  0.00  0.00    -0.075 A 
ATOM      2  C4  UNL d   1      -4.704   3.733  -5.504  0.00  0.00     0.002 A 
ATOM      3  C5  UNL d   1      -5.767   4.627  -5.629  0.00  0.00     0.002 A 
ATOM      4  C6  UNL d   1      -5.826   5.762  -4.823  0.00  0.00    -0.004 A 
ATOM      5  C7  UNL d   1      -4.822   5.999  -3.886  0.00  0.00     0.002 A 
ATOM      6  C8  UNL d   1      -3.755   5.108  -3.761  0.00  0.00     0.002 A 
ENDROOT
BRANCH   1   7
ATOM      7  C2  UNL d   1      -2.511   3.021  -4.455  0.00  0.00     0.056 C 
BRANCH   7   8
ATOM      8  C1  UNL d   1      -1.144   3.713  -4.445  0.00  0.00     0.007 C 
ATOM      9  C   UNL d   1      -0.064   2.919  -5.167  0.00  0.00     0.009 C 
ENDBRANCH   7   8
ENDBRANCH   1   7
TORSDOF 2
ENDMDL
