MODEL 1
REMARK minimizedAffinity 20.4697514
REMARK minimizedRMSD -1
REMARK  2 active torsions:
REMARK  status: ('A' for Active; 'I' for Inactive)
REMARK    1  A    between atoms: C1_2  and  C2_3 
REMARK    2  A    between atoms: C2_3  and  C3_4 
ROOT
ATOM      1  C3  UNL d   1      -0.910   1.041  -3.707  0.00  0.00    -0.075 A 
ATOM      2  C4  UNL d   1      -2.282   1.101  -3.424  0.00  0.00     0.002 A 
ATOM      3  C5  UNL d   1      -3.035   2.213  -3.800  0.00  0.00     0.002 A 
ATOM      4  C6  UNL d   1      -2.425   3.282  -4.454  0.00  0.00    -0.004 A 
ATOM      5  C7  UNL d   1      -1.059   3.240  -4.726  0.00  0.00     0.002 A 
ATOM      6  C8  UNL d   1      -0.304   2.126  -4.354  0.00  0.00     0.002 A 
ENDROOT
BRANCH   1   7
ATOM      7  C2  UNL d   1      -0.095  -0.173  -3.328  0.00  0.00     0.056 C 
BRANCH   7   8
ATOM      8  C1  UNL d   1      -0.932  -1.354  -2.825  0.00  0.00     0.007 C 
ATOM      9  C   UNL d   1      -0.590  -1.769  -1.401  0.00  0.00     0.009 C 
ENDBRANCH   7   8
ENDBRANCH   1   7
TORSDOF 2
ENDMDL
