MODEL 1
REMARK minimizedAffinity 13.6111574
REMARK minimizedRMSD -1
REMARK  2 active torsions:
REMARK  status: ('A' for Active; 'I' for Inactive)
REMARK    1  A    between atoms: C1_2  and  C2_3 
REMARK    2  A    between atoms: C2_3  and  C3_4 
ROOT
ATOM      1  C3  UNL d   1       4.008   2.813  -0.628  0.00  0.00    -0.075 A 
ATOM      2  C4  UNL d   1       5.051   2.853  -1.564  0.00  0.00     0.002 A 
ATOM      3  C5  UNL d   1       6.000   3.875  -1.524  0.00  0.00     0.002 A 
ATOM      4  C6  UNL d   1       5.912   4.874  -0.556  0.00  0.00    -0.004 A 
ATOM      5  C7  UNL d   1       4.870   4.853   0.368  0.00  0.00     0.002 A 
ATOM      6  C8  UNL d   1       3.922   3.829   0.333  0.00  0.00     0.002 A 
ENDROOT
BRANCH   1   7
ATOM      7  C2  UNL d   1       2.995   1.693  -0.648  0.00  0.00     0.056 C 
BRANCH   7   8
ATOM      8  C1  UNL d   1       3.002   0.868  -1.939  0.00  0.00     0.007 C 
ATOM      9  C   UNL d   1       1.756   0.011  -2.111  0.00  0.00     0.009 C 
ENDBRANCH   7   8
ENDBRANCH   1   7
TORSDOF 2
ENDMDL
