MODEL 1
REMARK minimizedAffinity 5.76626396
REMARK minimizedRMSD -1
REMARK  2 active torsions:
REMARK  status: ('A' for Active; 'I' for Inactive)
REMARK    1  A    between atoms: C1_2  and  C2_3 
REMARK    2  A    between atoms: C2_3  and  C3_4 
ROOT
ATOM      1  C3  UNL d   1      -1.463  -3.308   1.114  0.00  0.00    -0.075 A 
ATOM      2  C4  UNL d   1      -0.966  -3.120  -0.184  0.00  0.00     0.002 A 
ATOM      3  C5  UNL d   1      -0.298  -4.153  -0.843  0.00  0.00     0.002 A 
ATOM      4  C6  UNL d   1      -0.110  -5.380  -0.210  0.00  0.00    -0.004 A 
ATOM      5  C7  UNL d   1      -0.585  -5.572   1.086  0.00  0.00     0.002 A 
ATOM      6  C8  UNL d   1      -1.257  -4.542   1.746  0.00  0.00     0.002 A 
ENDROOT
BRANCH   1   7
ATOM      7  C2  UNL d   1      -2.212  -2.204   1.822  0.00  0.00     0.056 C 
BRANCH   7   8
ATOM      8  C1  UNL d   1      -2.632  -2.553   3.253  0.00  0.00     0.007 C 
ATOM      9  C   UNL d   1      -2.155  -1.538   4.284  0.00  0.00     0.009 C 
ENDBRANCH   7   8
ENDBRANCH   1   7
TORSDOF 2
ENDMDL
