MODEL 1
REMARK minimizedAffinity 13.6326876
REMARK minimizedRMSD -1
REMARK  2 active torsions:
REMARK  status: ('A' for Active; 'I' for Inactive)
REMARK    1  A    between atoms: C1_2  and  C2_3 
REMARK    2  A    between atoms: C2_3  and  C3_4 
ROOT
ATOM      1  C3  UNL d   1      -2.185   1.113  -3.459  0.00  0.00    -0.075 A 
ATOM      2  C4  UNL d   1      -0.814   1.156  -3.752  0.00  0.00     0.002 A 
ATOM      3  C5  UNL d   1      -0.231   2.325  -4.243  0.00  0.00     0.002 A 
ATOM      4  C6  UNL d   1      -1.011   3.459  -4.457  0.00  0.00    -0.004 A 
ATOM      5  C7  UNL d   1      -2.377   3.422  -4.185  0.00  0.00     0.002 A 
ATOM      6  C8  UNL d   1      -2.962   2.256  -3.689  0.00  0.00     0.002 A 
ENDROOT
BRANCH   1   7
ATOM      7  C2  UNL d   1      -2.816  -0.140  -2.899  0.00  0.00     0.056 C 
BRANCH   7   8
ATOM      8  C1  UNL d   1      -1.807  -1.157  -2.356  0.00  0.00     0.007 C 
ATOM      9  C   UNL d   1      -2.080  -1.562  -0.914  0.00  0.00     0.009 C 
ENDBRANCH   7   8
ENDBRANCH   1   7
TORSDOF 2
ENDMDL
