MODEL 1
REMARK minimizedAffinity 8.37780094
REMARK minimizedRMSD -1
REMARK  2 active torsions:
REMARK  status: ('A' for Active; 'I' for Inactive)
REMARK    1  A    between atoms: C1_2  and  C2_3 
REMARK    2  A    between atoms: C2_3  and  C3_4 
ROOT
ATOM      1  C3  UNL d   1       1.229   0.845  -3.757  0.00  0.00    -0.075 A 
ATOM      2  C4  UNL d   1      -0.060   0.299  -3.670  0.00  0.00     0.002 A 
ATOM      3  C5  UNL d   1      -1.182   1.092  -3.912  0.00  0.00     0.002 A 
ATOM      4  C6  UNL d   1      -1.032   2.439  -4.233  0.00  0.00    -0.004 A 
ATOM      5  C7  UNL d   1       0.243   2.996  -4.306  0.00  0.00     0.002 A 
ATOM      6  C8  UNL d   1       1.369   2.204  -4.068  0.00  0.00     0.002 A 
ENDROOT
BRANCH   1   7
ATOM      7  C2  UNL d   1       2.449  -0.014  -3.525  0.00  0.00     0.056 C 
BRANCH   7   8
ATOM      8  C1  UNL d   1       3.778   0.729  -3.699  0.00  0.00     0.007 C 
ATOM      9  C   UNL d   1       4.933  -0.187  -4.081  0.00  0.00     0.009 C 
ENDBRANCH   7   8
ENDBRANCH   1   7
TORSDOF 2
ENDMDL
