MODEL 1
REMARK minimizedAffinity 12.5076895
REMARK minimizedRMSD -1
REMARK  2 active torsions:
REMARK  status: ('A' for Active; 'I' for Inactive)
REMARK    1  A    between atoms: C1_2  and  C2_3 
REMARK    2  A    between atoms: C2_3  and  C3_4 
ROOT
ATOM      1  C3  UNL d   1      -3.643   1.000   5.248  0.00  0.00    -0.075 A 
ATOM      2  C4  UNL d   1      -3.350   2.319   5.622  0.00  0.00     0.002 A 
ATOM      3  C5  UNL d   1      -4.371   3.191   6.000  0.00  0.00     0.002 A 
ATOM      4  C6  UNL d   1      -5.696   2.760   6.000  0.00  0.00    -0.004 A 
ATOM      5  C7  UNL d   1      -6.000   1.456   5.615  0.00  0.00     0.002 A 
ATOM      6  C8  UNL d   1      -4.980   0.580   5.240  0.00  0.00     0.002 A 
ENDROOT
BRANCH   1   7
ATOM      7  C2  UNL d   1      -2.540   0.042   4.866  0.00  0.00     0.056 C 
BRANCH   7   8
ATOM      8  C1  UNL d   1      -2.846  -0.798   3.622  0.00  0.00     0.007 C 
ATOM      9  C   UNL d   1      -2.296  -2.216   3.704  0.00  0.00     0.009 C 
ENDBRANCH   7   8
ENDBRANCH   1   7
TORSDOF 2
ENDMDL
