MODEL 1
REMARK minimizedAffinity 18.5526867
REMARK minimizedRMSD -1
REMARK  2 active torsions:
REMARK  status: ('A' for Active; 'I' for Inactive)
REMARK    1  A    between atoms: C1_2  and  C2_3 
REMARK    2  A    between atoms: C2_3  and  C3_4 
ROOT
ATOM      1  C3  UNL d   1      -2.928   3.784  -4.625  0.00  0.00    -0.075 A 
ATOM      2  C4  UNL d   1      -2.946   5.055  -4.030  0.00  0.00     0.002 A 
ATOM      3  C5  UNL d   1      -3.900   6.000  -4.408  0.00  0.00     0.002 A 
ATOM      4  C6  UNL d   1      -4.840   5.692  -5.389  0.00  0.00    -0.004 A 
ATOM      5  C7  UNL d   1      -4.821   4.439  -5.998  0.00  0.00     0.002 A 
ATOM      6  C8  UNL d   1      -3.870   3.490  -5.619  0.00  0.00     0.002 A 
ENDROOT
BRANCH   1   7
ATOM      7  C2  UNL d   1      -1.917   2.747  -4.199  0.00  0.00     0.056 C 
BRANCH   7   8
ATOM      8  C1  UNL d   1      -0.483   3.056  -4.641  0.00  0.00     0.007 C 
ATOM      9  C   UNL d   1       0.568   2.578  -3.647  0.00  0.00     0.009 C 
ENDBRANCH   7   8
ENDBRANCH   1   7
TORSDOF 2
ENDMDL
