MODEL 1
REMARK minimizedAffinity 9.1302948
REMARK minimizedRMSD -1
REMARK  2 active torsions:
REMARK  status: ('A' for Active; 'I' for Inactive)
REMARK    1  A    between atoms: C1_2  and  C2_3 
REMARK    2  A    between atoms: C2_3  and  C3_4 
ROOT
ATOM      1  C3  UNL d   1      -1.776  -2.508   3.326  0.00  0.00    -0.075 A 
ATOM      2  C4  UNL d   1      -2.639  -1.502   3.783  0.00  0.00     0.002 A 
ATOM      3  C5  UNL d   1      -2.352  -0.800   4.954  0.00  0.00     0.002 A 
ATOM      4  C6  UNL d   1      -1.207  -1.102   5.688  0.00  0.00    -0.004 A 
ATOM      5  C7  UNL d   1      -0.351  -2.112   5.253  0.00  0.00     0.002 A 
ATOM      6  C8  UNL d   1      -0.633  -2.812   4.079  0.00  0.00     0.002 A 
ENDROOT
BRANCH   1   7
ATOM      7  C2  UNL d   1      -2.065  -3.251   2.044  0.00  0.00     0.056 C 
BRANCH   7   8
ATOM      8  C1  UNL d   1      -0.822  -3.537   1.195  0.00  0.00     0.007 C 
ATOM      9  C   UNL d   1      -0.517  -5.023   1.059  0.00  0.00     0.009 C 
ENDBRANCH   7   8
ENDBRANCH   1   7
TORSDOF 2
ENDMDL
