MODEL 1
REMARK minimizedAffinity 10.6083555
REMARK minimizedRMSD -1
REMARK  2 active torsions:
REMARK  status: ('A' for Active; 'I' for Inactive)
REMARK    1  A    between atoms: C1_2  and  C2_3 
REMARK    2  A    between atoms: C2_3  and  C3_4 
ROOT
ATOM      1  C3  UNL d   1      -2.934  -0.592   5.493  0.00  0.00    -0.075 A 
ATOM      2  C4  UNL d   1      -4.273  -1.008   5.524  0.00  0.00     0.002 A 
ATOM      3  C5  UNL d   1      -5.294  -0.090   5.771  0.00  0.00     0.002 A 
ATOM      4  C6  UNL d   1      -4.990   1.250   6.000  0.00  0.00    -0.004 A 
ATOM      5  C7  UNL d   1      -3.662   1.672   5.988  0.00  0.00     0.002 A 
ATOM      6  C8  UNL d   1      -2.638   0.756   5.737  0.00  0.00     0.002 A 
ENDROOT
BRANCH   1   7
ATOM      7  C2  UNL d   1      -1.826  -1.575   5.198  0.00  0.00     0.056 C 
BRANCH   7   8
ATOM      8  C1  UNL d   1      -2.221  -2.682   4.215  0.00  0.00     0.007 C 
ATOM      9  C   UNL d   1      -1.819  -4.074   4.685  0.00  0.00     0.009 C 
ENDBRANCH   7   8
ENDBRANCH   1   7
TORSDOF 2
ENDMDL
