MODEL 1
REMARK minimizedAffinity 19.8761292
REMARK minimizedRMSD -1
REMARK  2 active torsions:
REMARK  status: ('A' for Active; 'I' for Inactive)
REMARK    1  A    between atoms: C1_2  and  C2_3 
REMARK    2  A    between atoms: C2_3  and  C3_4 
ROOT
ATOM      1  C3  UNL d   1       4.123   2.973  -0.148  0.00  0.00    -0.075 A 
ATOM      2  C4  UNL d   1       4.129   4.277   0.367  0.00  0.00     0.002 A 
ATOM      3  C5  UNL d   1       5.052   5.217  -0.093  0.00  0.00     0.002 A 
ATOM      4  C6  UNL d   1       5.986   4.863  -1.064  0.00  0.00    -0.004 A 
ATOM      5  C7  UNL d   1       6.000   3.565  -1.572  0.00  0.00     0.002 A 
ATOM      6  C8  UNL d   1       5.075   2.624  -1.116  0.00  0.00     0.002 A 
ENDROOT
BRANCH   1   7
ATOM      7  C2  UNL d   1       3.108   1.960   0.324  0.00  0.00     0.056 C 
BRANCH   7   8
ATOM      8  C1  UNL d   1       2.044   1.609  -0.721  0.00  0.00     0.007 C 
ATOM      9  C   UNL d   1       2.355   0.330  -1.489  0.00  0.00     0.009 C 
ENDBRANCH   7   8
ENDBRANCH   1   7
TORSDOF 2
ENDMDL
