MODEL 1
REMARK minimizedAffinity 16.6532974
REMARK minimizedRMSD -1
REMARK  2 active torsions:
REMARK  status: ('A' for Active; 'I' for Inactive)
REMARK    1  A    between atoms: C1_2  and  C2_3 
REMARK    2  A    between atoms: C2_3  and  C3_4 
ROOT
ATOM      1  C3  UNL d   1      -3.959   3.812  -5.208  0.00  0.00    -0.075 A 
ATOM      2  C4  UNL d   1      -5.116   3.794  -6.000  0.00  0.00     0.002 A 
ATOM      3  C5  UNL d   1      -6.000   4.873  -5.988  0.00  0.00     0.002 A 
ATOM      4  C6  UNL d   1      -5.744   5.978  -5.178  0.00  0.00    -0.004 A 
ATOM      5  C7  UNL d   1      -4.606   5.999  -4.375  0.00  0.00     0.002 A 
ATOM      6  C8  UNL d   1      -3.718   4.922  -4.388  0.00  0.00     0.002 A 
ENDROOT
BRANCH   1   7
ATOM      7  C2  UNL d   1      -2.984   2.659  -5.239  0.00  0.00     0.056 C 
BRANCH   7   8
ATOM      8  C1  UNL d   1      -1.936   2.698  -4.121  0.00  0.00     0.007 C 
ATOM      9  C   UNL d   1      -0.512   2.510  -4.626  0.00  0.00     0.009 C 
ENDBRANCH   7   8
ENDBRANCH   1   7
TORSDOF 2
ENDMDL
