MODEL 1
REMARK minimizedAffinity 16.8851032
REMARK minimizedRMSD -1
REMARK  2 active torsions:
REMARK  status: ('A' for Active; 'I' for Inactive)
REMARK    1  A    between atoms: C1_2  and  C2_3 
REMARK    2  A    between atoms: C2_3  and  C3_4 
ROOT
ATOM      1  C3  UNL d   1       4.240   3.015   0.075  0.00  0.00    -0.075 A 
ATOM      2  C4  UNL d   1       4.122   4.246   0.736  0.00  0.00     0.002 A 
ATOM      3  C5  UNL d   1       4.926   5.326   0.369  0.00  0.00     0.002 A 
ATOM      4  C6  UNL d   1       5.863   5.186  -0.652  0.00  0.00    -0.004 A 
ATOM      5  C7  UNL d   1       6.000   3.962  -1.304  0.00  0.00     0.002 A 
ATOM      6  C8  UNL d   1       5.193   2.881  -0.943  0.00  0.00     0.002 A 
ENDROOT
BRANCH   1   7
ATOM      7  C2  UNL d   1       3.352   1.851   0.447  0.00  0.00     0.056 C 
BRANCH   7   8
ATOM      8  C1  UNL d   1       2.302   1.503  -0.614  0.00  0.00     0.007 C 
ATOM      9  C   UNL d   1       2.649   0.256  -1.416  0.00  0.00     0.009 C 
ENDBRANCH   7   8
ENDBRANCH   1   7
TORSDOF 2
ENDMDL
