MODEL 1
REMARK minimizedAffinity -5.3993969
REMARK minimizedRMSD -1
REMARK  1 active torsions:
REMARK  status: ('A' for Active; 'I' for Inactive)
REMARK    1  A    between atoms: C1_2  and  C2_3 
ROOT
ATOM      1  C2  UNL d   1      -0.556  -0.088   0.284  0.00  0.00    -0.076 A 
ATOM      2  C3  UNL d   1       0.811  -0.410   0.236  0.00  0.00     0.004 A 
ATOM      3  C4  UNL d   1       1.510  -0.744   1.395  0.00  0.00    -0.003 A 
ATOM      4  C5  UNL d   1       0.853  -0.763   2.620  0.00  0.00     0.000 A 
ATOM      5  C6  UNL d   1      -0.507  -0.463   2.683  0.00  0.00     0.000 A 
ATOM      6  C7  UNL d   1      -1.231  -0.139   1.523  0.00  0.00    -0.073 A 
ATOM      7  C8  UNL d   1      -2.695   0.182   1.650  0.00  0.00     0.078 C 
ENDROOT
BRANCH   1   8
ATOM      8  C1  UNL d   1      -1.256   0.294  -1.001  0.00  0.00     0.053 C 
ATOM      9  C   UNL d   1      -0.573   1.450  -1.716  0.00  0.00     0.018 C 
ENDBRANCH   1   8
TORSDOF 1
ENDMDL
