MODEL 1
REMARK minimizedAffinity -6.15567303
REMARK minimizedRMSD -1
REMARK  1 active torsions:
REMARK  status: ('A' for Active; 'I' for Inactive)
REMARK    1  A    between atoms: C1_2  and  C2_3 
ROOT
ATOM      1  C2  UNL d   1       1.076  -1.064  -0.040  0.00  0.00    -0.076 A 
ATOM      2  C3  UNL d   1       2.392  -1.559  -0.047  0.00  0.00     0.004 A 
ATOM      3  C4  UNL d   1       3.062  -1.833   1.144  0.00  0.00    -0.003 A 
ATOM      4  C5  UNL d   1       2.427  -1.617   2.362  0.00  0.00     0.000 A 
ATOM      5  C6  UNL d   1       1.116  -1.143   2.388  0.00  0.00     0.000 A 
ATOM      6  C7  UNL d   1       0.420  -0.877   1.196  0.00  0.00    -0.073 A 
ATOM      7  C8  UNL d   1      -0.990  -0.361   1.283  0.00  0.00     0.078 C 
ENDROOT
BRANCH   1   8
ATOM      8  C1  UNL d   1       0.410  -0.759  -1.362  0.00  0.00     0.053 C 
ATOM      9  C   UNL d   1       0.099   0.720  -1.531  0.00  0.00     0.018 C 
ENDBRANCH   1   8
TORSDOF 1
ENDMDL
