MODEL 1
REMARK minimizedAffinity -1.91504192
REMARK minimizedRMSD -1
REMARK  1 active torsions:
REMARK  status: ('A' for Active; 'I' for Inactive)
REMARK    1  A    between atoms: C1_2  and  C2_3 
ROOT
ATOM      1  C2  UNL d   1      -0.079  -0.356   0.951  0.00  0.00    -0.076 A 
ATOM      2  C3  UNL d   1       1.100  -0.457   0.191  0.00  0.00     0.004 A 
ATOM      3  C4  UNL d   1       1.105  -0.146  -1.168  0.00  0.00    -0.003 A 
ATOM      4  C5  UNL d   1      -0.067   0.271  -1.788  0.00  0.00     0.000 A 
ATOM      5  C6  UNL d   1      -1.241   0.394  -1.046  0.00  0.00     0.000 A 
ATOM      6  C7  UNL d   1      -1.260   0.100   0.329  0.00  0.00    -0.073 A 
ATOM      7  C8  UNL d   1      -2.556   0.244   1.079  0.00  0.00     0.078 C 
ENDROOT
BRANCH   1   8
ATOM      8  C1  UNL d   1      -0.031  -0.733   2.415  0.00  0.00     0.053 C 
ATOM      9  C   UNL d   1       1.220  -1.521   2.773  0.00  0.00     0.018 C 
ENDBRANCH   1   8
TORSDOF 1
ENDMDL
