MODEL 1
REMARK minimizedAffinity -3.80016327
REMARK minimizedRMSD -1
REMARK  1 active torsions:
REMARK  status: ('A' for Active; 'I' for Inactive)
REMARK    1  A    between atoms: C1_2  and  C2_3 
ROOT
ATOM      1  C2  UNL d   1      -0.446   0.919  -1.031  0.00  0.00    -0.076 A 
ATOM      2  C3  UNL d   1      -0.661   1.513   0.225  0.00  0.00     0.004 A 
ATOM      3  C4  UNL d   1      -0.251   0.881   1.397  0.00  0.00    -0.003 A 
ATOM      4  C5  UNL d   1       0.381  -0.356   1.333  0.00  0.00     0.000 A 
ATOM      5  C6  UNL d   1       0.618  -0.952   0.095  0.00  0.00     0.000 A 
ATOM      6  C7  UNL d   1       0.226  -0.320  -1.098  0.00  0.00    -0.073 A 
ATOM      7  C8  UNL d   1       0.501  -1.012  -2.405  0.00  0.00     0.078 C 
ENDROOT
BRANCH   1   8
ATOM      8  C1  UNL d   1      -0.937   1.639  -2.267  0.00  0.00     0.053 C 
ATOM      9  C   UNL d   1      -0.100   2.865  -2.597  0.00  0.00     0.018 C 
ENDBRANCH   1   8
TORSDOF 1
ENDMDL
