MODEL 1
REMARK minimizedAffinity -5.00679064
REMARK minimizedRMSD -1
REMARK  1 active torsions:
REMARK  status: ('A' for Active; 'I' for Inactive)
REMARK    1  A    between atoms: C1_2  and  C2_3 
ROOT
ATOM      1  C2  UNL d   1       0.336   0.039   0.267  0.00  0.00    -0.076 A 
ATOM      2  C3  UNL d   1       1.717  -0.182   0.414  0.00  0.00     0.004 A 
ATOM      3  C4  UNL d   1       2.227  -0.800   1.554  0.00  0.00    -0.003 A 
ATOM      4  C5  UNL d   1       1.365  -1.207   2.566  0.00  0.00     0.000 A 
ATOM      5  C6  UNL d   1      -0.009  -1.012   2.430  0.00  0.00     0.000 A 
ATOM      6  C7  UNL d   1      -0.541  -0.405   1.279  0.00  0.00    -0.073 A 
ATOM      7  C8  UNL d   1      -2.030  -0.214   1.188  0.00  0.00     0.078 C 
ENDROOT
BRANCH   1   8
ATOM      8  C1  UNL d   1      -0.157   0.739  -0.979  0.00  0.00     0.053 C 
ATOM      9  C   UNL d   1      -0.272  -0.202  -2.169  0.00  0.00     0.018 C 
ENDBRANCH   1   8
TORSDOF 1
ENDMDL
