MODEL 1
REMARK minimizedAffinity -4.12259102
REMARK minimizedRMSD -1
REMARK  1 active torsions:
REMARK  status: ('A' for Active; 'I' for Inactive)
REMARK    1  A    between atoms: C1_2  and  C2_3 
ROOT
ATOM      1  C2  UNL d   1      -2.016  -0.236  -1.313  0.00  0.00    -0.076 A 
ATOM      2  C3  UNL d   1      -2.410  -0.587  -0.010  0.00  0.00     0.004 A 
ATOM      3  C4  UNL d   1      -1.465  -0.881   0.971  0.00  0.00    -0.003 A 
ATOM      4  C5  UNL d   1      -0.109  -0.827   0.666  0.00  0.00     0.000 A 
ATOM      5  C6  UNL d   1       0.300  -0.463  -0.616  0.00  0.00     0.000 A 
ATOM      6  C7  UNL d   1      -0.639  -0.148  -1.612  0.00  0.00    -0.073 A 
ATOM      7  C8  UNL d   1      -0.141   0.233  -2.980  0.00  0.00     0.078 C 
ENDROOT
BRANCH   1   8
ATOM      8  C1  UNL d   1      -3.086   0.046  -2.343  0.00  0.00     0.053 C 
ATOM      9  C   UNL d   1      -3.726   1.413  -2.159  0.00  0.00     0.018 C 
ENDBRANCH   1   8
TORSDOF 1
ENDMDL
