MODEL 1
REMARK minimizedAffinity -5.61855412
REMARK minimizedRMSD -1
REMARK  1 active torsions:
REMARK  status: ('A' for Active; 'I' for Inactive)
REMARK    1  A    between atoms: C1_2  and  C2_3 
ROOT
ATOM      1  C2  UNL d   1      -0.508  -0.300   0.281  0.00  0.00    -0.076 A 
ATOM      2  C3  UNL d   1      -1.530   0.156   1.132  0.00  0.00     0.004 A 
ATOM      3  C4  UNL d   1      -1.372   0.138   2.517  0.00  0.00    -0.003 A 
ATOM      4  C5  UNL d   1      -0.189  -0.337   3.073  0.00  0.00     0.000 A 
ATOM      5  C6  UNL d   1       0.842  -0.778   2.243  0.00  0.00     0.000 A 
ATOM      6  C7  UNL d   1       0.705  -0.750   0.845  0.00  0.00    -0.073 A 
ATOM      7  C8  UNL d   1       1.846  -1.243  -0.002  0.00  0.00     0.078 C 
ENDROOT
BRANCH   1   8
ATOM      8  C1  UNL d   1      -0.747  -0.281  -1.212  0.00  0.00     0.053 C 
ATOM      9  C   UNL d   1      -1.044   1.115  -1.737  0.00  0.00     0.018 C 
ENDBRANCH   1   8
TORSDOF 1
ENDMDL
