MODEL 1
REMARK minimizedAffinity 18.7507477
REMARK minimizedRMSD -1
REMARK  0 active torsions:
REMARK  status: ('A' for Active; 'I' for Inactive)
ROOT
ATOM      1  C   UNL d   1      -1.174  -1.896  -1.188  0.00  0.00     0.020 A 
ATOM      2  C1  UNL d   1      -2.139  -1.099  -0.573  0.00  0.00     0.020 A 
ATOM      3  C2  UNL d   1      -2.548  -1.380   0.732  0.00  0.00     0.034 A 
ATOM      4  C3  UNL d   1      -1.993  -2.461   1.426  0.00  0.00     0.017 A 
ATOM      5  C4  UNL d   1      -1.025  -3.261   0.808  0.00  0.00     0.017 A 
ATOM      6  C5  UNL d   1      -0.619  -2.975  -0.499  0.00  0.00     0.034 A 
ATOM      7 Cl   UNL d   1      -0.294  -4.612   1.601  0.00  0.00    -0.070 Cl
ATOM      8 Cl1  UNL d   1      -2.546  -2.751   3.038  0.00  0.00    -0.070 Cl
ENDROOT
TORSDOF 0
ENDMDL
