MODEL 1
REMARK minimizedAffinity 0.840372086
REMARK minimizedRMSD -1
REMARK  0 active torsions:
REMARK  status: ('A' for Active; 'I' for Inactive)
ROOT
ATOM      1  C   UNL d   1      -0.482  -4.593   0.494  0.00  0.00     0.020 A 
ATOM      2  C1  UNL d   1      -0.925  -3.279   0.347  0.00  0.00     0.020 A 
ATOM      3  C2  UNL d   1      -1.568  -2.637   1.407  0.00  0.00     0.034 A 
ATOM      4  C3  UNL d   1      -1.771  -3.308   2.618  0.00  0.00     0.017 A 
ATOM      5  C4  UNL d   1      -1.326  -4.627   2.765  0.00  0.00     0.017 A 
ATOM      6  C5  UNL d   1      -0.682  -5.265   1.701  0.00  0.00     0.034 A 
ATOM      7 Cl   UNL d   1      -1.539  -5.520   4.229  0.00  0.00    -0.070 Cl
ATOM      8 Cl1  UNL d   1      -2.573  -2.452   3.887  0.00  0.00    -0.070 Cl
ENDROOT
TORSDOF 0
ENDMDL
