MODEL 1
REMARK minimizedAffinity 19.4443989
REMARK minimizedRMSD -1
REMARK  0 active torsions:
REMARK  status: ('A' for Active; 'I' for Inactive)
ROOT
ATOM      1  C   UNL d   1      -1.127  -2.999  -0.568  0.00  0.00     0.020 A 
ATOM      2  C1  UNL d   1      -0.376  -4.122  -0.913  0.00  0.00     0.020 A 
ATOM      3  C2  UNL d   1       0.005  -5.036   0.072  0.00  0.00     0.034 A 
ATOM      4  C3  UNL d   1      -0.364  -4.828   1.406  0.00  0.00     0.017 A 
ATOM      5  C4  UNL d   1      -1.118  -3.700   1.751  0.00  0.00     0.017 A 
ATOM      6  C5  UNL d   1      -1.497  -2.789   0.761  0.00  0.00     0.034 A 
ATOM      7 Cl   UNL d   1      -1.611  -3.377   3.375  0.00  0.00    -0.070 Cl
ATOM      8 Cl1  UNL d   1       0.141  -5.999   2.571  0.00  0.00    -0.070 Cl
ENDROOT
TORSDOF 0
ENDMDL
