MODEL 1
REMARK minimizedAffinity 15.6641903
REMARK minimizedRMSD -1
REMARK  0 active torsions:
REMARK  status: ('A' for Active; 'I' for Inactive)
ROOT
ATOM      1  C   UNL d   1      -1.870  -1.924  -2.859  0.00  0.00     0.020 A 
ATOM      2  C1  UNL d   1      -1.713  -1.156  -1.707  0.00  0.00     0.020 A 
ATOM      3  C2  UNL d   1      -1.114  -1.711  -0.574  0.00  0.00     0.034 A 
ATOM      4  C3  UNL d   1      -0.670  -3.038  -0.591  0.00  0.00     0.017 A 
ATOM      5  C4  UNL d   1      -0.829  -3.809  -1.749  0.00  0.00     0.017 A 
ATOM      6  C5  UNL d   1      -1.429  -3.248  -2.880  0.00  0.00     0.034 A 
ATOM      7 Cl   UNL d   1      -0.307  -5.454  -1.846  0.00  0.00    -0.070 Cl
ATOM      8 Cl1  UNL d   1       0.061  -3.660   0.845  0.00  0.00    -0.070 Cl
ENDROOT
TORSDOF 0
ENDMDL
