MODEL 1
REMARK minimizedAffinity 13.1511974
REMARK minimizedRMSD -1
REMARK  0 active torsions:
REMARK  status: ('A' for Active; 'I' for Inactive)
ROOT
ATOM      1  C   UNL d   1      -1.327  -1.645  -2.007  0.00  0.00     0.020 A 
ATOM      2  C1  UNL d   1      -1.497  -2.606  -3.002  0.00  0.00     0.020 A 
ATOM      3  C2  UNL d   1      -1.202  -3.945  -2.737  0.00  0.00     0.034 A 
ATOM      4  C3  UNL d   1      -0.736  -4.327  -1.473  0.00  0.00     0.017 A 
ATOM      5  C4  UNL d   1      -0.566  -3.361  -0.475  0.00  0.00     0.017 A 
ATOM      6  C5  UNL d   1      -0.862  -2.021  -0.746  0.00  0.00     0.034 A 
ATOM      7 Cl   UNL d   1       0.005  -3.754   1.108  0.00  0.00    -0.070 Cl
ATOM      8 Cl1  UNL d   1      -0.392  -6.000  -1.215  0.00  0.00    -0.070 Cl
ENDROOT
TORSDOF 0
ENDMDL
