MODEL 1
REMARK minimizedAffinity 10.6811037
REMARK minimizedRMSD -1
REMARK  0 active torsions:
REMARK  status: ('A' for Active; 'I' for Inactive)
ROOT
ATOM      1  C   UNL d   1      -1.712  -1.881  -1.431  0.00  0.00     0.020 A 
ATOM      2  C1  UNL d   1      -2.851  -1.315  -0.858  0.00  0.00     0.020 A 
ATOM      3  C2  UNL d   1      -3.316  -1.778   0.375  0.00  0.00     0.034 A 
ATOM      4  C3  UNL d   1      -2.642  -2.809   1.039  0.00  0.00     0.017 A 
ATOM      5  C4  UNL d   1      -1.500  -3.377   0.463  0.00  0.00     0.017 A 
ATOM      6  C5  UNL d   1      -1.038  -2.909  -0.771  0.00  0.00     0.034 A 
ATOM      7 Cl   UNL d   1      -0.615  -4.653   1.222  0.00  0.00    -0.070 Cl
ATOM      8 Cl1  UNL d   1      -3.273  -3.332   2.560  0.00  0.00    -0.070 Cl
ENDROOT
TORSDOF 0
ENDMDL
