MODEL 1
REMARK minimizedAffinity 12.5366564
REMARK minimizedRMSD -1
REMARK  0 active torsions:
REMARK  status: ('A' for Active; 'I' for Inactive)
ROOT
ATOM      1  C   UNL d   1      -0.974  -1.831  -1.426  0.00  0.00     0.020 A 
ATOM      2  C1  UNL d   1      -1.894  -0.982  -0.813  0.00  0.00     0.020 A 
ATOM      3  C2  UNL d   1      -2.361  -1.270   0.472  0.00  0.00     0.034 A 
ATOM      4  C3  UNL d   1      -1.909  -2.410   1.146  0.00  0.00     0.017 A 
ATOM      5  C4  UNL d   1      -0.985  -3.261   0.529  0.00  0.00     0.017 A 
ATOM      6  C5  UNL d   1      -0.521  -2.968  -0.757  0.00  0.00     0.034 A 
ATOM      7 Cl   UNL d   1      -0.380  -4.686   1.298  0.00  0.00    -0.070 Cl
ATOM      8 Cl1  UNL d   1      -2.528  -2.704   2.732  0.00  0.00    -0.070 Cl
ENDROOT
TORSDOF 0
ENDMDL
