MODEL 1
REMARK minimizedAffinity 11.935667
REMARK minimizedRMSD -1
REMARK  0 active torsions:
REMARK  status: ('A' for Active; 'I' for Inactive)
ROOT
ATOM      1  C   UNL d   1       0.881  -1.701   5.468  0.00  0.00     0.020 A 
ATOM      2  C1  UNL d   1       1.927  -1.975   4.587  0.00  0.00     0.020 A 
ATOM      3  C2  UNL d   1       1.650  -2.346   3.269  0.00  0.00     0.034 A 
ATOM      4  C3  UNL d   1       0.325  -2.445   2.829  0.00  0.00     0.017 A 
ATOM      5  C4  UNL d   1      -0.723  -2.170   3.714  0.00  0.00     0.017 A 
ATOM      6  C5  UNL d   1      -0.441  -1.798   5.032  0.00  0.00     0.034 A 
ATOM      7 Cl   UNL d   1      -2.384  -2.270   3.244  0.00  0.00    -0.070 Cl
ATOM      8 Cl1  UNL d   1       0.057  -2.909   1.186  0.00  0.00    -0.070 Cl
ENDROOT
TORSDOF 0
ENDMDL
