MODEL 1
REMARK minimizedAffinity 17.3857193
REMARK minimizedRMSD -1
REMARK  0 active torsions:
REMARK  status: ('A' for Active; 'I' for Inactive)
ROOT
ATOM      1  C   UNL d   1      -0.221   2.970  -5.207  0.00  0.00     0.020 A 
ATOM      2  C1  UNL d   1      -0.908   2.015  -5.956  0.00  0.00     0.020 A 
ATOM      3  C2  UNL d   1      -2.304   2.034  -6.000  0.00  0.00     0.034 A 
ATOM      4  C3  UNL d   1      -3.017   3.010  -5.294  0.00  0.00     0.017 A 
ATOM      5  C4  UNL d   1      -2.327   3.968  -4.543  0.00  0.00     0.017 A 
ATOM      6  C5  UNL d   1      -0.929   3.944  -4.502  0.00  0.00     0.034 A 
ATOM      7 Cl   UNL d   1      -3.138   5.203  -3.646  0.00  0.00    -0.070 Cl
ATOM      8 Cl1  UNL d   1      -4.742   2.974  -5.394  0.00  0.00    -0.070 Cl
ENDROOT
TORSDOF 0
ENDMDL
