MODEL 1
REMARK minimizedAffinity 19.2682056
REMARK minimizedRMSD -1
REMARK  0 active torsions:
REMARK  status: ('A' for Active; 'I' for Inactive)
ROOT
ATOM      1  C   UNL d   1      -5.997   4.795  -6.000  0.00  0.00     0.020 A 
ATOM      2  C1  UNL d   1      -5.929   5.919  -5.178  0.00  0.00     0.020 A 
ATOM      3  C2  UNL d   1      -4.957   5.994  -4.177  0.00  0.00     0.034 A 
ATOM      4  C3  UNL d   1      -4.051   4.943  -3.995  0.00  0.00     0.017 A 
ATOM      5  C4  UNL d   1      -4.121   3.815  -4.821  0.00  0.00     0.017 A 
ATOM      6  C5  UNL d   1      -5.095   3.746  -5.822  0.00  0.00     0.034 A 
ATOM      7 Cl   UNL d   1      -3.037   2.479  -4.658  0.00  0.00    -0.070 Cl
ATOM      8 Cl1  UNL d   1      -2.876   5.103  -2.739  0.00  0.00    -0.070 Cl
ENDROOT
TORSDOF 0
ENDMDL
