MODEL 1
REMARK minimizedAffinity 14.9558096
REMARK minimizedRMSD -1
REMARK  0 active torsions:
REMARK  status: ('A' for Active; 'I' for Inactive)
ROOT
ATOM      1  C   UNL d   1      -3.295  -0.596   4.471  0.00  0.00     0.020 A 
ATOM      2  C1  UNL d   1      -3.508   0.730   4.847  0.00  0.00     0.020 A 
ATOM      3  C2  UNL d   1      -3.594   1.727   3.872  0.00  0.00     0.034 A 
ATOM      4  C3  UNL d   1      -3.468   1.399   2.517  0.00  0.00     0.017 A 
ATOM      5  C4  UNL d   1      -3.255   0.068   2.141  0.00  0.00     0.017 A 
ATOM      6  C5  UNL d   1      -3.169  -0.926   3.121  0.00  0.00     0.034 A 
ATOM      7 Cl   UNL d   1      -3.090  -0.414   0.490  0.00  0.00    -0.070 Cl
ATOM      8 Cl1  UNL d   1      -3.585   2.682   1.366  0.00  0.00    -0.070 Cl
ENDROOT
TORSDOF 0
ENDMDL
