MODEL 1
REMARK minimizedAffinity 18.8406792
REMARK minimizedRMSD -1
REMARK  0 active torsions:
REMARK  status: ('A' for Active; 'I' for Inactive)
ROOT
ATOM      1  C   UNL d   1      -2.005  -0.832  -2.705  0.00  0.00     0.020 A 
ATOM      2  C1  UNL d   1      -0.817  -1.534  -2.907  0.00  0.00     0.020 A 
ATOM      3  C2  UNL d   1      -0.310  -2.353  -1.897  0.00  0.00     0.034 A 
ATOM      4  C3  UNL d   1      -0.990  -2.473  -0.679  0.00  0.00     0.017 A 
ATOM      5  C4  UNL d   1      -2.182  -1.767  -0.477  0.00  0.00     0.017 A 
ATOM      6  C5  UNL d   1      -2.685  -0.948  -1.493  0.00  0.00     0.034 A 
ATOM      7 Cl   UNL d   1      -3.078  -1.864   0.998  0.00  0.00    -0.070 Cl
ATOM      8 Cl1  UNL d   1      -0.305  -3.504   0.526  0.00  0.00    -0.070 Cl
ENDROOT
TORSDOF 0
ENDMDL
