MODEL 1
REMARK minimizedAffinity 20.4010029
REMARK minimizedRMSD -1
REMARK  0 active torsions:
REMARK  status: ('A' for Active; 'I' for Inactive)
ROOT
ATOM      1  C   UNL d   1      -1.558   3.391  -5.999  0.00  0.00     0.020 A 
ATOM      2  C1  UNL d   1      -2.928   3.140  -5.928  0.00  0.00     0.020 A 
ATOM      3  C2  UNL d   1      -3.403   2.071  -5.167  0.00  0.00     0.034 A 
ATOM      4  C3  UNL d   1      -2.509   1.247  -4.474  0.00  0.00     0.017 A 
ATOM      5  C4  UNL d   1      -1.134   1.499  -4.545  0.00  0.00     0.017 A 
ATOM      6  C5  UNL d   1      -0.663   2.572  -5.308  0.00  0.00     0.034 A 
ATOM      7 Cl   UNL d   1       0.031   0.528  -3.717  0.00  0.00    -0.070 Cl
ATOM      8 Cl1  UNL d   1      -3.167  -0.057  -3.552  0.00  0.00    -0.070 Cl
ENDROOT
TORSDOF 0
ENDMDL
