MODEL 1
REMARK minimizedAffinity 14.845438
REMARK minimizedRMSD -1
REMARK  0 active torsions:
REMARK  status: ('A' for Active; 'I' for Inactive)
ROOT
ATOM      1  C   UNL d   1      -0.349  -4.378  -0.766  0.00  0.00     0.020 A 
ATOM      2  C1  UNL d   1      -0.510  -4.427  -2.150  0.00  0.00     0.020 A 
ATOM      3  C2  UNL d   1      -1.147  -3.379  -2.817  0.00  0.00     0.034 A 
ATOM      4  C3  UNL d   1      -1.626  -2.276  -2.100  0.00  0.00     0.017 A 
ATOM      5  C4  UNL d   1      -1.464  -2.228  -0.711  0.00  0.00     0.017 A 
ATOM      6  C5  UNL d   1      -0.825  -3.280  -0.048  0.00  0.00     0.034 A 
ATOM      7 Cl   UNL d   1      -2.029  -0.901   0.242  0.00  0.00    -0.070 Cl
ATOM      8 Cl1  UNL d   1      -2.403  -1.015  -2.990  0.00  0.00    -0.070 Cl
ENDROOT
TORSDOF 0
ENDMDL
