MODEL 1
REMARK minimizedAffinity 18.9282188
REMARK minimizedRMSD -1
REMARK  0 active torsions:
REMARK  status: ('A' for Active; 'I' for Inactive)
ROOT
ATOM      1  C   UNL d   1      -3.010   0.940   5.554  0.00  0.00     0.020 A 
ATOM      2  C1  UNL d   1      -3.706   0.365   4.492  0.00  0.00     0.020 A 
ATOM      3  C2  UNL d   1      -3.211  -0.785   3.874  0.00  0.00     0.034 A 
ATOM      4  C3  UNL d   1      -2.017  -1.365   4.319  0.00  0.00     0.017 A 
ATOM      5  C4  UNL d   1      -1.319  -0.787   5.385  0.00  0.00     0.017 A 
ATOM      6  C5  UNL d   1      -1.819   0.365   6.000  0.00  0.00     0.034 A 
ATOM      7 Cl   UNL d   1       0.161  -1.444   5.989  0.00  0.00    -0.070 Cl
ATOM      8 Cl1  UNL d   1      -1.464  -2.787   3.509  0.00  0.00    -0.070 Cl
ENDROOT
TORSDOF 0
ENDMDL
