MODEL 1
REMARK minimizedAffinity 9.74919128
REMARK minimizedRMSD -1
REMARK  0 active torsions:
REMARK  status: ('A' for Active; 'I' for Inactive)
ROOT
ATOM      1  C   UNL d   1       1.305   0.787  -1.409  0.00  0.00     0.020 A 
ATOM      2  C1  UNL d   1       1.628   0.304  -2.676  0.00  0.00     0.020 A 
ATOM      3  C2  UNL d   1       0.828  -0.670  -3.277  0.00  0.00     0.034 A 
ATOM      4  C3  UNL d   1      -0.300  -1.164  -2.611  0.00  0.00     0.017 A 
ATOM      5  C4  UNL d   1      -0.624  -0.678  -1.339  0.00  0.00     0.017 A 
ATOM      6  C5  UNL d   1       0.181   0.297  -0.742  0.00  0.00     0.034 A 
ATOM      7 Cl   UNL d   1      -1.999  -1.239  -0.455  0.00  0.00    -0.070 Cl
ATOM      8 Cl1  UNL d   1      -1.244  -2.368  -3.414  0.00  0.00    -0.070 Cl
ENDROOT
TORSDOF 0
ENDMDL
