MODEL 1
REMARK minimizedAffinity 12.8522243
REMARK minimizedRMSD -1
REMARK  0 active torsions:
REMARK  status: ('A' for Active; 'I' for Inactive)
ROOT
ATOM      1  C   UNL d   1       2.254   0.448  -0.800  0.00  0.00     0.020 A 
ATOM      2  C1  UNL d   1       2.820   1.166  -1.852  0.00  0.00     0.020 A 
ATOM      3  C2  UNL d   1       3.562   2.320  -1.591  0.00  0.00     0.034 A 
ATOM      4  C3  UNL d   1       3.739   2.759  -0.274  0.00  0.00     0.017 A 
ATOM      5  C4  UNL d   1       3.170   2.038   0.782  0.00  0.00     0.017 A 
ATOM      6  C5  UNL d   1       2.428   0.883   0.514  0.00  0.00     0.034 A 
ATOM      7 Cl   UNL d   1       3.345   2.518   2.433  0.00  0.00    -0.070 Cl
ATOM      8 Cl1  UNL d   1       4.668   4.194  -0.024  0.00  0.00    -0.070 Cl
ENDROOT
TORSDOF 0
ENDMDL
