MODEL 1
REMARK minimizedAffinity 5.81033182
REMARK minimizedRMSD -1
REMARK  0 active torsions:
REMARK  status: ('A' for Active; 'I' for Inactive)
ROOT
ATOM      1  N1  IND d   1      -4.190  -0.038   2.876  0.00  0.00    -0.196 N 
ATOM      2  C2  IND d   1      -4.239  -1.187   2.136  0.00  0.00     0.054 A 
ATOM      3  C3  IND d   1      -3.042  -1.421   1.552  0.00  0.00    -0.031 A 
ATOM      4  C4  IND d   1      -0.837  -0.109   1.757  0.00  0.00     0.051 A 
ATOM      5  C5  IND d   1      -0.308   1.031   2.293  0.00  0.00    -0.031 A 
ATOM      6  C6  IND d   1      -1.061   1.890   3.069  0.00  0.00     0.015 A 
ATOM      7  C7  IND d   1      -2.373   1.632   3.348  0.00  0.00    -0.016 A 
ATOM      8  C8  IND d   1      -2.915   0.479   2.800  0.00  0.00    -0.047 A 
ATOM      9  C9  IND d   1      -2.168  -0.374   1.977  0.00  0.00    -0.096 A 
ATOM     10  HN1 IND d   1      -4.845   0.304   3.316  0.00  0.00     0.298 HD
ENDROOT
TORSDOF 0
ENDMDL
