MODEL 1
REMARK minimizedAffinity 12.7266188
REMARK minimizedRMSD -1
REMARK  0 active torsions:
REMARK  status: ('A' for Active; 'I' for Inactive)
ROOT
ATOM      1  N1  IND d   1       4.797   0.780   1.368  0.00  0.00    -0.196 N 
ATOM      2  C2  IND d   1       4.188   1.956   1.031  0.00  0.00     0.054 A 
ATOM      3  C3  IND d   1       3.106   1.720   0.255  0.00  0.00    -0.031 A 
ATOM      4  C4  IND d   1       2.093  -0.523  -0.500  0.00  0.00     0.051 A 
ATOM      5  C5  IND d   1       2.319  -1.871  -0.472  0.00  0.00    -0.031 A 
ATOM      6  C6  IND d   1       3.403  -2.415   0.187  0.00  0.00     0.015 A 
ATOM      7  C7  IND d   1       4.299  -1.629   0.854  0.00  0.00    -0.016 A 
ATOM      8  C8  IND d   1       4.077  -0.260   0.822  0.00  0.00    -0.047 A 
ATOM      9  C9  IND d   1       3.002   0.301   0.120  0.00  0.00    -0.096 A 
ATOM     10  HN1 IND d   1       5.510   0.702   1.842  0.00  0.00     0.298 HD
ENDROOT
TORSDOF 0
ENDMDL
