MODEL 1
REMARK minimizedAffinity 10.6920977
REMARK minimizedRMSD -1
REMARK  0 active torsions:
REMARK  status: ('A' for Active; 'I' for Inactive)
ROOT
ATOM      1  N1  IND d   1       3.295  -2.725   0.352  0.00  0.00    -0.196 N 
ATOM      2  C2  IND d   1       2.789  -3.910  -0.106  0.00  0.00     0.054 A 
ATOM      3  C3  IND d   1       1.951  -3.693  -1.145  0.00  0.00    -0.031 A 
ATOM      4  C4  IND d   1       1.342  -1.486  -2.322  0.00  0.00     0.051 A 
ATOM      5  C5  IND d   1       1.526  -0.134  -2.239  0.00  0.00    -0.031 A 
ATOM      6  C6  IND d   1       2.328   0.434  -1.270  0.00  0.00     0.015 A 
ATOM      7  C7  IND d   1       2.987  -0.332  -0.351  0.00  0.00    -0.016 A 
ATOM      8  C8  IND d   1       2.797  -1.705  -0.428  0.00  0.00    -0.047 A 
ATOM      9  C9  IND d   1       1.951  -2.284  -1.383  0.00  0.00    -0.096 A 
ATOM     10  HN1 IND d   1       3.834  -2.633   1.015  0.00  0.00     0.298 HD
ENDROOT
TORSDOF 0
ENDMDL
