MODEL 1
REMARK minimizedAffinity 16.3678513
REMARK minimizedRMSD -1
REMARK  0 active torsions:
REMARK  status: ('A' for Active; 'I' for Inactive)
ROOT
ATOM      1  N1  IND d   1      -5.118   3.060   3.974  0.00  0.00    -0.196 N 
ATOM      2  C2  IND d   1      -5.241   3.520   5.255  0.00  0.00     0.054 A 
ATOM      3  C3  IND d   1      -4.183   3.126   6.000  0.00  0.00    -0.031 A 
ATOM      4  C4  IND d   1      -2.087   1.809   5.294  0.00  0.00     0.051 A 
ATOM      5  C5  IND d   1      -1.540   1.142   4.235  0.00  0.00    -0.031 A 
ATOM      6  C6  IND d   1      -2.169   1.081   3.008  0.00  0.00     0.015 A 
ATOM      7  C7  IND d   1      -3.369   1.698   2.791  0.00  0.00    -0.016 A 
ATOM      8  C8  IND d   1      -3.930   2.370   3.867  0.00  0.00    -0.047 A 
ATOM      9  C9  IND d   1      -3.317   2.399   5.126  0.00  0.00    -0.096 A 
ATOM     10  HN1 IND d   1      -5.687   3.182   3.340  0.00  0.00     0.298 HD
ENDROOT
TORSDOF 0
ENDMDL
