MODEL 1
REMARK minimizedAffinity 9.23384953
REMARK minimizedRMSD -1
REMARK  0 active torsions:
REMARK  status: ('A' for Active; 'I' for Inactive)
ROOT
ATOM      1  N1  IND d   1       2.105  -5.403  -2.331  0.00  0.00    -0.196 N 
ATOM      2  C2  IND d   1       1.118  -5.011  -3.193  0.00  0.00     0.054 A 
ATOM      3  C3  IND d   1       0.782  -3.721  -2.967  0.00  0.00    -0.031 A 
ATOM      4  C4  IND d   1       1.790  -2.035  -1.304  0.00  0.00     0.051 A 
ATOM      5  C5  IND d   1       2.690  -1.938  -0.280  0.00  0.00    -0.031 A 
ATOM      6  C6  IND d   1       3.458  -3.012   0.119  0.00  0.00     0.015 A 
ATOM      7  C7  IND d   1       3.363  -4.226  -0.502  0.00  0.00    -0.016 A 
ATOM      8  C8  IND d   1       2.445  -4.330  -1.537  0.00  0.00    -0.047 A 
ATOM      9  C9  IND d   1       1.632  -3.254  -1.919  0.00  0.00    -0.096 A 
ATOM     10  HN1 IND d   1       2.454  -6.188  -2.291  0.00  0.00     0.298 HD
ENDROOT
TORSDOF 0
ENDMDL
