MODEL 1
REMARK minimizedAffinity 9.54006004
REMARK minimizedRMSD -1
REMARK  0 active torsions:
REMARK  status: ('A' for Active; 'I' for Inactive)
ROOT
ATOM      1  N1  IND d   1       4.148   2.900   1.447  0.00  0.00    -0.196 N 
ATOM      2  C2  IND d   1       4.726   2.515   0.269  0.00  0.00     0.054 A 
ATOM      3  C3  IND d   1       3.959   1.590  -0.350  0.00  0.00    -0.031 A 
ATOM      4  C4  IND d   1       1.669   0.636   0.339  0.00  0.00     0.051 A 
ATOM      5  C5  IND d   1       0.756   0.656   1.355  0.00  0.00    -0.031 A 
ATOM      6  C6  IND d   1       0.928   1.443   2.476  0.00  0.00     0.015 A 
ATOM      7  C7  IND d   1       2.021   2.251   2.617  0.00  0.00    -0.016 A 
ATOM      8  C8  IND d   1       2.954   2.228   1.590  0.00  0.00    -0.047 A 
ATOM      9  C9  IND d   1       2.805   1.400   0.470  0.00  0.00    -0.096 A 
ATOM     10  HN1 IND d   1       4.476   3.465   2.005  0.00  0.00     0.298 HD
ENDROOT
TORSDOF 0
ENDMDL
