MODEL 1
REMARK minimizedAffinity 22.7299442
REMARK minimizedRMSD -1
REMARK  0 active torsions:
REMARK  status: ('A' for Active; 'I' for Inactive)
ROOT
ATOM      1  N1  IND d   1      -3.260   1.947   2.797  0.00  0.00    -0.196 N 
ATOM      2  C2  IND d   1      -3.825   0.727   3.043  0.00  0.00     0.054 A 
ATOM      3  C3  IND d   1      -2.867  -0.218   3.177  0.00  0.00    -0.031 A 
ATOM      4  C4  IND d   1      -0.305   0.034   3.130  0.00  0.00     0.051 A 
ATOM      5  C5  IND d   1       0.683   0.949   2.899  0.00  0.00    -0.031 A 
ATOM      6  C6  IND d   1       0.402   2.271   2.619  0.00  0.00     0.015 A 
ATOM      7  C7  IND d   1      -0.884   2.731   2.571  0.00  0.00    -0.016 A 
ATOM      8  C8  IND d   1      -1.890   1.803   2.798  0.00  0.00    -0.047 A 
ATOM      9  C9  IND d   1      -1.612   0.452   3.040  0.00  0.00    -0.096 A 
ATOM     10  HN1 IND d   1      -3.688   2.680   2.663  0.00  0.00     0.298 HD
ENDROOT
TORSDOF 0
ENDMDL
