MODEL 1
REMARK minimizedAffinity 17.3030453
REMARK minimizedRMSD -1
REMARK  0 active torsions:
REMARK  status: ('A' for Active; 'I' for Inactive)
ROOT
ATOM      1  N1  IND d   1      -3.002   1.172   2.195  0.00  0.00    -0.196 N 
ATOM      2  C2  IND d   1      -1.720   0.753   2.418  0.00  0.00     0.054 A 
ATOM      3  C3  IND d   1      -1.417   0.843   3.732  0.00  0.00    -0.031 A 
ATOM      4  C4  IND d   1      -2.906   1.556   5.708  0.00  0.00     0.051 A 
ATOM      5  C5  IND d   1      -4.143   2.060   5.998  0.00  0.00    -0.031 A 
ATOM      6  C6  IND d   1      -5.082   2.295   5.015  0.00  0.00     0.015 A 
ATOM      7  C7  IND d   1      -4.823   2.024   3.702  0.00  0.00    -0.016 A 
ATOM      8  C8  IND d   1      -3.565   1.519   3.403  0.00  0.00    -0.047 A 
ATOM      9  C9  IND d   1      -2.593   1.318   4.390  0.00  0.00    -0.096 A 
ATOM     10  HN1 IND d   1      -3.390   1.211   1.429  0.00  0.00     0.298 HD
ENDROOT
TORSDOF 0
ENDMDL
