MODEL 1
REMARK minimizedAffinity 20.7634106
REMARK minimizedRMSD -1
REMARK  0 active torsions:
REMARK  status: ('A' for Active; 'I' for Inactive)
ROOT
ATOM      1  N1  IND d   1       1.608  -2.816   0.287  0.00  0.00    -0.196 N 
ATOM      2  C2  IND d   1       1.835  -1.502  -0.016  0.00  0.00     0.054 A 
ATOM      3  C3  IND d   1       3.143  -1.304  -0.297  0.00  0.00    -0.031 A 
ATOM      4  C4  IND d   1       5.067  -3.010  -0.419  0.00  0.00     0.051 A 
ATOM      5  C5  IND d   1       5.356  -4.325  -0.188  0.00  0.00    -0.031 A 
ATOM      6  C6  IND d   1       4.391  -5.224   0.219  0.00  0.00     0.015 A 
ATOM      7  C7  IND d   1       3.092  -4.841   0.399  0.00  0.00    -0.016 A 
ATOM      8  C8  IND d   1       2.796  -3.504   0.173  0.00  0.00    -0.047 A 
ATOM      9  C9  IND d   1       3.780  -2.579  -0.199  0.00  0.00    -0.096 A 
ATOM     10  HN1 IND d   1       0.850  -3.155   0.512  0.00  0.00     0.298 HD
ENDROOT
TORSDOF 0
ENDMDL
