MODEL 1
REMARK minimizedAffinity 12.5614147
REMARK minimizedRMSD -1
REMARK  0 active torsions:
REMARK  status: ('A' for Active; 'I' for Inactive)
ROOT
ATOM      1  N1  IND d   1       4.256  -2.888   0.733  0.00  0.00    -0.196 N 
ATOM      2  C2  IND d   1       3.208  -3.583   0.198  0.00  0.00     0.054 A 
ATOM      3  C3  IND d   1       2.114  -2.793   0.112  0.00  0.00    -0.031 A 
ATOM      4  C4  IND d   1       1.847  -0.301   0.698  0.00  0.00     0.051 A 
ATOM      5  C5  IND d   1       2.516   0.753   1.255  0.00  0.00    -0.031 A 
ATOM      6  C6  IND d   1       3.827   0.645   1.672  0.00  0.00     0.015 A 
ATOM      7  C7  IND d   1       4.524  -0.522   1.537  0.00  0.00    -0.016 A 
ATOM      8  C8  IND d   1       3.845  -1.596   0.979  0.00  0.00    -0.047 A 
ATOM      9  C9  IND d   1       2.502  -1.505   0.593  0.00  0.00    -0.096 A 
ATOM     10  HN1 IND d   1       5.040  -3.204   0.891  0.00  0.00     0.298 HD
ENDROOT
TORSDOF 0
ENDMDL
