MODEL 1
REMARK minimizedAffinity 16.8067131
REMARK minimizedRMSD -1
REMARK  0 active torsions:
REMARK  status: ('A' for Active; 'I' for Inactive)
ROOT
ATOM      1  N1  IND d   1       0.991  -5.028  -3.551  0.00  0.00    -0.196 N 
ATOM      2  C2  IND d   1       0.493  -3.771  -3.756  0.00  0.00     0.054 A 
ATOM      3  C3  IND d   1       0.981  -2.915  -2.830  0.00  0.00    -0.031 A 
ATOM      4  C4  IND d   1       2.688  -3.338  -0.950  0.00  0.00     0.051 A 
ATOM      5  C5  IND d   1       3.398  -4.337  -0.345  0.00  0.00    -0.031 A 
ATOM      6  C6  IND d   1       3.344  -5.642  -0.788  0.00  0.00     0.015 A 
ATOM      7  C7  IND d   1       2.582  -5.998  -1.865  0.00  0.00    -0.016 A 
ATOM      8  C8  IND d   1       1.854  -4.988  -2.477  0.00  0.00    -0.047 A 
ATOM      9  C9  IND d   1       1.872  -3.669  -2.006  0.00  0.00    -0.096 A 
ATOM     10  HN1 IND d   1       0.798  -5.726  -4.014  0.00  0.00     0.298 HD
ENDROOT
TORSDOF 0
ENDMDL
