MODEL 1
REMARK minimizedAffinity 15.2170448
REMARK minimizedRMSD -1
REMARK  0 active torsions:
REMARK  status: ('A' for Active; 'I' for Inactive)
ROOT
ATOM      1  N1  IND d   1      -4.212  -3.748  -4.312  0.00  0.00    -0.196 N 
ATOM      2  C2  IND d   1      -4.066  -3.293  -5.593  0.00  0.00     0.054 A 
ATOM      3  C3  IND d   1      -2.785  -3.437  -6.000  0.00  0.00    -0.031 A 
ATOM      4  C4  IND d   1      -0.785  -4.488  -4.766  0.00  0.00     0.051 A 
ATOM      5  C5  IND d   1      -0.419  -5.011  -3.558  0.00  0.00    -0.031 A 
ATOM      6  C6  IND d   1      -1.317  -5.145  -2.519  0.00  0.00     0.015 A 
ATOM      7  C7  IND d   1      -2.624  -4.770  -2.654  0.00  0.00    -0.016 A 
ATOM      8  C8  IND d   1      -2.997  -4.232  -3.878  0.00  0.00    -0.047 A 
ATOM      9  C9  IND d   1      -2.080  -4.054  -4.921  0.00  0.00    -0.096 A 
ATOM     10  HN1 IND d   1      -4.940  -3.734  -3.854  0.00  0.00     0.298 HD
ENDROOT
TORSDOF 0
ENDMDL
