MODEL 1
REMARK minimizedAffinity 14.1157293
REMARK minimizedRMSD -1
REMARK  0 active torsions:
REMARK  status: ('A' for Active; 'I' for Inactive)
ROOT
ATOM      1  N1  IND d   1      -5.232   2.612   3.379  0.00  0.00    -0.196 N 
ATOM      2  C2  IND d   1      -5.619   3.414   4.416  0.00  0.00     0.054 A 
ATOM      3  C3  IND d   1      -5.097   2.964   5.579  0.00  0.00    -0.031 A 
ATOM      4  C4  IND d   1      -3.498   0.991   6.000  0.00  0.00     0.051 A 
ATOM      5  C5  IND d   1      -2.892  -0.058   5.367  0.00  0.00    -0.031 A 
ATOM      6  C6  IND d   1      -3.036  -0.274   4.012  0.00  0.00     0.015 A 
ATOM      7  C7  IND d   1      -3.785   0.562   3.233  0.00  0.00    -0.016 A 
ATOM      8  C8  IND d   1      -4.407   1.624   3.873  0.00  0.00    -0.047 A 
ATOM      9  C9  IND d   1      -4.299   1.824   5.256  0.00  0.00    -0.096 A 
ATOM     10  HN1 IND d   1      -5.464   2.707   2.557  0.00  0.00     0.298 HD
ENDROOT
TORSDOF 0
ENDMDL
