MODEL 1
REMARK minimizedAffinity 20.5511856
REMARK minimizedRMSD -1
REMARK  0 active torsions:
REMARK  status: ('A' for Active; 'I' for Inactive)
ROOT
ATOM      1  N1  IND d   1       0.791  -4.461  -1.796  0.00  0.00    -0.196 N 
ATOM      2  C2  IND d   1       0.348  -4.286  -3.077  0.00  0.00     0.054 A 
ATOM      3  C3  IND d   1       0.554  -3.011  -3.477  0.00  0.00    -0.031 A 
ATOM      4  C4  IND d   1       1.697  -1.071  -2.230  0.00  0.00     0.051 A 
ATOM      5  C5  IND d   1       2.234  -0.737  -1.018  0.00  0.00    -0.031 A 
ATOM      6  C6  IND d   1       2.322  -1.646   0.016  0.00  0.00     0.015 A 
ATOM      7  C7  IND d   1       1.884  -2.932  -0.127  0.00  0.00    -0.016 A 
ATOM      8  C8  IND d   1       1.332  -3.273  -1.354  0.00  0.00    -0.047 A 
ATOM      9  C9  IND d   1       1.202  -2.343  -2.393  0.00  0.00    -0.096 A 
ATOM     10  HN1 IND d   1       0.741  -5.189  -1.342  0.00  0.00     0.298 HD
ENDROOT
TORSDOF 0
ENDMDL
