MODEL 1
REMARK minimizedAffinity 21.9773617
REMARK minimizedRMSD -1
REMARK  0 active torsions:
REMARK  status: ('A' for Active; 'I' for Inactive)
ROOT
ATOM      1  N1  IND d   1      -2.687   1.455   3.334  0.00  0.00    -0.196 N 
ATOM      2  C2  IND d   1      -3.493   0.672   2.556  0.00  0.00     0.054 A 
ATOM      3  C3  IND d   1      -2.749  -0.092   1.725  0.00  0.00    -0.031 A 
ATOM      4  C4  IND d   1      -0.188  -0.293   1.544  0.00  0.00     0.051 A 
ATOM      5  C5  IND d   1       0.971   0.250   2.022  0.00  0.00    -0.031 A 
ATOM      6  C6  IND d   1       0.971   1.240   2.984  0.00  0.00     0.015 A 
ATOM      7  C7  IND d   1      -0.194   1.718   3.513  0.00  0.00    -0.016 A 
ATOM      8  C8  IND d   1      -1.374   1.175   3.024  0.00  0.00    -0.047 A 
ATOM      9  C9  IND d   1      -1.381   0.200   2.018  0.00  0.00    -0.096 A 
ATOM     10  HN1 IND d   1      -2.954   2.026   3.918  0.00  0.00     0.298 HD
ENDROOT
TORSDOF 0
ENDMDL
