MODEL 1
REMARK minimizedAffinity 4.8065362
REMARK minimizedRMSD -1
REMARK  0 active torsions:
REMARK  status: ('A' for Active; 'I' for Inactive)
ROOT
ATOM      1  N1  IND d   1       3.378  -2.385  -0.746  0.00  0.00    -0.196 N 
ATOM      2  C2  IND d   1       2.618  -1.490  -1.445  0.00  0.00     0.054 A 
ATOM      3  C3  IND d   1       1.744  -2.140  -2.247  0.00  0.00    -0.031 A 
ATOM      4  C4  IND d   1       1.318  -4.667  -2.493  0.00  0.00     0.051 A 
ATOM      5  C5  IND d   1       1.790  -5.883  -2.087  0.00  0.00    -0.031 A 
ATOM      6  C6  IND d   1       2.835  -5.998  -1.192  0.00  0.00     0.015 A 
ATOM      7  C7  IND d   1       3.442  -4.896  -0.660  0.00  0.00    -0.016 A 
ATOM      8  C8  IND d   1       2.970  -3.659  -1.076  0.00  0.00    -0.047 A 
ATOM      9  C9  IND d   1       1.938  -3.536  -2.015  0.00  0.00    -0.096 A 
ATOM     10  HN1 IND d   1       4.005  -2.187  -0.192  0.00  0.00     0.298 HD
ENDROOT
TORSDOF 0
ENDMDL
