MODEL 1
REMARK minimizedAffinity 4.89599037
REMARK minimizedRMSD -1
REMARK  0 active torsions:
REMARK  status: ('A' for Active; 'I' for Inactive)
ROOT
ATOM      1  C   UNL d   1       2.267  -1.861   3.204  0.00  0.00    -0.002 A 
ATOM      2  C1  UNL d   1       3.220  -2.795   2.826  0.00  0.00     0.010 A 
ATOM      3  C2  UNL d   1       3.168  -4.102   3.315  0.00  0.00     0.041 A 
ATOM      4  C3  UNL d   1       2.129  -4.458   4.197  0.00  0.00    -0.075 A 
ATOM      5  S   UNL d   1       1.864  -6.000   4.922  0.00  0.00     0.015 SA
ATOM      6  C4  UNL d   1       0.478  -5.455   5.750  0.00  0.00     0.022 A 
ATOM      7  C5  UNL d   1       0.210  -4.131   5.492  0.00  0.00     0.026 A 
ATOM      8  C6  UNL d   1       1.157  -3.535   4.592  0.00  0.00    -0.082 A 
ATOM      9  C7  UNL d   1       1.238  -2.218   4.080  0.00  0.00     0.045 A 
ENDROOT
TORSDOF 0
ENDMDL
