MODEL 1
REMARK minimizedAffinity 14.7259521
REMARK minimizedRMSD -1
REMARK  0 active torsions:
REMARK  status: ('A' for Active; 'I' for Inactive)
ROOT
ATOM      1  C   UNL d   1      -3.384  -2.348  -2.897  0.00  0.00    -0.002 A 
ATOM      2  C1  UNL d   1      -2.666  -2.341  -1.709  0.00  0.00     0.010 A 
ATOM      3  C2  UNL d   1      -2.345  -1.136  -1.081  0.00  0.00     0.041 A 
ATOM      4  C3  UNL d   1      -2.763   0.073  -1.672  0.00  0.00    -0.075 A 
ATOM      5  S   UNL d   1      -2.484   1.669  -1.081  0.00  0.00     0.015 SA
ATOM      6  C4  UNL d   1      -3.312   2.378  -2.391  0.00  0.00     0.022 A 
ATOM      7  C5  UNL d   1      -3.795   1.435  -3.267  0.00  0.00     0.026 A 
ATOM      8  C6  UNL d   1      -3.487   0.091  -2.867  0.00  0.00    -0.082 A 
ATOM      9  C7  UNL d   1      -3.796  -1.147  -3.480  0.00  0.00     0.045 A 
ENDROOT
TORSDOF 0
ENDMDL
