MODEL 1
REMARK minimizedAffinity 25.2212524
REMARK minimizedRMSD -1
REMARK  0 active torsions:
REMARK  status: ('A' for Active; 'I' for Inactive)
ROOT
ATOM      1  C   UNL d   1       1.622  -2.003   2.260  0.00  0.00    -0.002 A 
ATOM      2  C1  UNL d   1       1.579  -1.509   3.556  0.00  0.00     0.010 A 
ATOM      3  C2  UNL d   1       1.955  -0.192   3.827  0.00  0.00     0.041 A 
ATOM      4  C3  UNL d   1       2.378   0.629   2.763  0.00  0.00    -0.075 A 
ATOM      5  S   UNL d   1       2.885   2.274   2.858  0.00  0.00     0.015 SA
ATOM      6  C4  UNL d   1       3.170   2.360   1.179  0.00  0.00     0.022 A 
ATOM      7  C5  UNL d   1       2.891   1.172   0.547  0.00  0.00     0.026 A 
ATOM      8  C6  UNL d   1       2.429   0.154   1.450  0.00  0.00    -0.082 A 
ATOM      9  C7  UNL d   1       2.042  -1.186   1.207  0.00  0.00     0.045 A 
ENDROOT
TORSDOF 0
ENDMDL
