MODEL 1
REMARK minimizedAffinity 12.9583721
REMARK minimizedRMSD -1
REMARK  0 active torsions:
REMARK  status: ('A' for Active; 'I' for Inactive)
ROOT
ATOM      1  C   UNL d   1       2.826   2.631   3.375  0.00  0.00    -0.002 A 
ATOM      2  C1  UNL d   1       3.356   2.570   2.094  0.00  0.00     0.010 A 
ATOM      3  C2  UNL d   1       3.178   1.431   1.305  0.00  0.00     0.041 A 
ATOM      4  C3  UNL d   1       2.449   0.346   1.830  0.00  0.00    -0.075 A 
ATOM      5  S   UNL d   1       2.103  -1.150   1.046  0.00  0.00     0.015 SA
ATOM      6  C4  UNL d   1       1.243  -1.742   2.393  0.00  0.00     0.022 A 
ATOM      7  C5  UNL d   1       1.210  -0.834   3.424  0.00  0.00     0.026 A 
ATOM      8  C6  UNL d   1       1.904   0.385   3.117  0.00  0.00    -0.082 A 
ATOM      9  C7  UNL d   1       2.103   1.553   3.892  0.00  0.00     0.045 A 
ENDROOT
TORSDOF 0
ENDMDL
