MODEL 1
REMARK minimizedAffinity 0.518992841
REMARK minimizedRMSD -1
REMARK  0 active torsions:
REMARK  status: ('A' for Active; 'I' for Inactive)
ROOT
ATOM      1  C   UNL d   1       4.860   1.938   2.946  0.00  0.00     0.078 C 
ATOM      2  C1  UNL d   1       5.252   0.802   3.844  0.00  0.00    -0.077 A 
ATOM      3  C2  UNL d   1       5.628   1.031   5.173  0.00  0.00    -0.001 A 
ATOM      4  C3  UNL d   1       5.999  -0.034   5.995  0.00  0.00     0.003 A 
ATOM      5  C4  UNL d   1       5.998  -1.335   5.497  0.00  0.00    -0.005 A 
ATOM      6  C5  UNL d   1       5.627  -1.573   4.175  0.00  0.00     0.003 A 
ATOM      7  C6  UNL d   1       5.256  -0.509   3.352  0.00  0.00    -0.001 A 
ENDROOT
TORSDOF 0
ENDMDL
