MODEL 1
REMARK minimizedAffinity -3.53138876
REMARK minimizedRMSD -1
REMARK  0 active torsions:
REMARK  status: ('A' for Active; 'I' for Inactive)
ROOT
ATOM      1  C   UNL d   1       5.621   3.432   4.114  0.00  0.00     0.078 C 
ATOM      2  C1  UNL d   1       5.598   1.968   4.437  0.00  0.00    -0.077 A 
ATOM      3  C2  UNL d   1       5.962   1.504   5.707  0.00  0.00    -0.001 A 
ATOM      4  C3  UNL d   1       5.946   0.138   5.991  0.00  0.00     0.003 A 
ATOM      5  C4  UNL d   1       5.568  -0.776   5.009  0.00  0.00    -0.005 A 
ATOM      6  C5  UNL d   1       5.206  -0.324   3.742  0.00  0.00     0.003 A 
ATOM      7  C6  UNL d   1       5.222   1.042   3.456  0.00  0.00    -0.001 A 
ENDROOT
TORSDOF 0
ENDMDL
