MODEL 1
REMARK minimizedAffinity 3.31041622
REMARK minimizedRMSD -1
REMARK  0 active torsions:
REMARK  status: ('A' for Active; 'I' for Inactive)
ROOT
ATOM      1  C   UNL d   1       5.988   1.551   2.694  0.00  0.00     0.078 C 
ATOM      2  C1  UNL d   1       5.999   3.042   2.850  0.00  0.00    -0.077 A 
ATOM      3  C2  UNL d   1       5.996   3.634   4.119  0.00  0.00    -0.001 A 
ATOM      4  C3  UNL d   1       5.996   5.024   4.249  0.00  0.00     0.003 A 
ATOM      5  C4  UNL d   1       5.999   5.833   3.115  0.00  0.00    -0.005 A 
ATOM      6  C5  UNL d   1       6.000   5.253   1.848  0.00  0.00     0.003 A 
ATOM      7  C6  UNL d   1       5.999   3.864   1.716  0.00  0.00    -0.001 A 
ENDROOT
TORSDOF 0
ENDMDL
