MODEL 1
REMARK minimizedAffinity -1.21806598
REMARK minimizedRMSD -1
REMARK  0 active torsions:
REMARK  status: ('A' for Active; 'I' for Inactive)
ROOT
ATOM      1  C   UNL d   1       5.999   2.865   3.018  0.00  0.00     0.078 C 
ATOM      2  C1  UNL d   1       5.991   1.613   3.844  0.00  0.00    -0.077 A 
ATOM      3  C2  UNL d   1       5.997   1.672   5.243  0.00  0.00    -0.001 A 
ATOM      4  C3  UNL d   1       6.000   0.499   5.999  0.00  0.00     0.003 A 
ATOM      5  C4  UNL d   1       5.997  -0.742   5.365  0.00  0.00    -0.005 A 
ATOM      6  C5  UNL d   1       5.994  -0.811   3.973  0.00  0.00     0.003 A 
ATOM      7  C6  UNL d   1       5.991   0.361   3.216  0.00  0.00    -0.001 A 
ENDROOT
TORSDOF 0
ENDMDL
