MODEL 1
REMARK minimizedAffinity -4.11544323
REMARK minimizedRMSD -1
REMARK  0 active torsions:
REMARK  status: ('A' for Active; 'I' for Inactive)
ROOT
ATOM      1  C   UNL d   1       5.758   3.428   3.361  0.00  0.00     0.078 C 
ATOM      2  C1  UNL d   1       5.584   1.983   3.722  0.00  0.00    -0.077 A 
ATOM      3  C2  UNL d   1       5.422   1.007   2.731  0.00  0.00    -0.001 A 
ATOM      4  C3  UNL d   1       5.252  -0.333   3.081  0.00  0.00     0.003 A 
ATOM      5  C4  UNL d   1       5.241  -0.710   4.422  0.00  0.00    -0.005 A 
ATOM      6  C5  UNL d   1       5.400   0.254   5.416  0.00  0.00     0.003 A 
ATOM      7  C6  UNL d   1       5.570   1.595   5.067  0.00  0.00    -0.001 A 
ENDROOT
TORSDOF 0
ENDMDL
