MODEL 1
REMARK minimizedAffinity -2.67100263
REMARK minimizedRMSD -1
REMARK  0 active torsions:
REMARK  status: ('A' for Active; 'I' for Inactive)
ROOT
ATOM      1  C   UNL d   1       5.252  -0.469   4.487  0.00  0.00     0.078 C 
ATOM      2  C1  UNL d   1       5.253   0.981   4.103  0.00  0.00    -0.077 A 
ATOM      3  C2  UNL d   1       4.511   1.920   4.829  0.00  0.00    -0.001 A 
ATOM      4  C3  UNL d   1       4.515   3.265   4.455  0.00  0.00     0.003 A 
ATOM      5  C4  UNL d   1       5.257   3.682   3.352  0.00  0.00    -0.005 A 
ATOM      6  C5  UNL d   1       5.996   2.754   2.621  0.00  0.00     0.003 A 
ATOM      7  C6  UNL d   1       5.994   1.409   2.994  0.00  0.00    -0.001 A 
ENDROOT
TORSDOF 0
ENDMDL
