MODEL 1
REMARK minimizedAffinity 8.32388973
REMARK minimizedRMSD -1
REMARK  0 active torsions:
REMARK  status: ('A' for Active; 'I' for Inactive)
ROOT
ATOM      1  C   UNL d   1       6.000   4.575   3.881  0.00  0.00     0.078 C 
ATOM      2  C1  UNL d   1       5.601   3.211   3.404  0.00  0.00    -0.077 A 
ATOM      3  C2  UNL d   1       4.843   2.356   4.213  0.00  0.00    -0.001 A 
ATOM      4  C3  UNL d   1       4.488   1.085   3.760  0.00  0.00     0.003 A 
ATOM      5  C4  UNL d   1       4.887   0.656   2.496  0.00  0.00    -0.005 A 
ATOM      6  C5  UNL d   1       5.643   1.499   1.683  0.00  0.00     0.003 A 
ATOM      7  C6  UNL d   1       6.000   2.770   2.135  0.00  0.00    -0.001 A 
ENDROOT
TORSDOF 0
ENDMDL
