MODEL 1
REMARK minimizedAffinity -2.29159617
REMARK minimizedRMSD -1
REMARK  0 active torsions:
REMARK  status: ('A' for Active; 'I' for Inactive)
ROOT
ATOM      1  C   UNL d   1       5.972   2.993   3.201  0.00  0.00     0.078 C 
ATOM      2  C1  UNL d   1       5.988   1.644   3.855  0.00  0.00    -0.077 A 
ATOM      3  C2  UNL d   1       5.987   0.471   3.090  0.00  0.00    -0.001 A 
ATOM      4  C3  UNL d   1       5.993  -0.778   3.712  0.00  0.00     0.003 A 
ATOM      5  C4  UNL d   1       5.998  -0.866   5.103  0.00  0.00    -0.005 A 
ATOM      6  C5  UNL d   1       5.997   0.295   5.873  0.00  0.00     0.003 A 
ATOM      7  C6  UNL d   1       5.992   1.545   5.252  0.00  0.00    -0.001 A 
ENDROOT
TORSDOF 0
ENDMDL
