MODEL 1
REMARK minimizedAffinity -0.857606113
REMARK minimizedRMSD -1
REMARK  0 active torsions:
REMARK  status: ('A' for Active; 'I' for Inactive)
ROOT
ATOM      1  C   UNL d   1       2.957   3.814  -0.380  0.00  0.00     0.078 C 
ATOM      2  C1  UNL d   1       4.017   4.580   0.354  0.00  0.00    -0.077 A 
ATOM      3  C2  UNL d   1       4.998   5.299  -0.339  0.00  0.00    -0.001 A 
ATOM      4  C3  UNL d   1       5.984   5.999   0.357  0.00  0.00     0.003 A 
ATOM      5  C4  UNL d   1       6.000   5.987   1.751  0.00  0.00    -0.005 A 
ATOM      6  C5  UNL d   1       5.029   5.272   2.449  0.00  0.00     0.003 A 
ATOM      7  C6  UNL d   1       4.042   4.571   1.755  0.00  0.00    -0.001 A 
ENDROOT
TORSDOF 0
ENDMDL
