MODEL 1
REMARK minimizedAffinity -3.97272158
REMARK minimizedRMSD -1
REMARK  0 active torsions:
REMARK  status: ('A' for Active; 'I' for Inactive)
ROOT
ATOM      1  C   UNL d   1       5.450  -1.840   5.235  0.00  0.00     0.078 C 
ATOM      2  C1  UNL d   1       5.615  -0.378   4.945  0.00  0.00    -0.077 A 
ATOM      3  C2  UNL d   1       5.751   0.085   3.631  0.00  0.00    -0.001 A 
ATOM      4  C3  UNL d   1       5.914   1.448   3.377  0.00  0.00     0.003 A 
ATOM      5  C4  UNL d   1       5.942   2.358   4.431  0.00  0.00    -0.005 A 
ATOM      6  C5  UNL d   1       5.808   1.906   5.742  0.00  0.00     0.003 A 
ATOM      7  C6  UNL d   1       5.646   0.544   5.999  0.00  0.00    -0.001 A 
ENDROOT
TORSDOF 0
ENDMDL
