MODEL 1
REMARK minimizedAffinity -1.99634838
REMARK minimizedRMSD -1
REMARK  0 active torsions:
REMARK  status: ('A' for Active; 'I' for Inactive)
ROOT
ATOM      1  C   UNL d   1       5.976   1.570   3.001  0.00  0.00     0.078 C 
ATOM      2  C1  UNL d   1       5.991   0.306   3.808  0.00  0.00    -0.077 A 
ATOM      3  C2  UNL d   1       5.990  -0.948   3.185  0.00  0.00    -0.001 A 
ATOM      4  C3  UNL d   1       5.994  -2.116   3.949  0.00  0.00     0.003 A 
ATOM      5  C4  UNL d   1       6.000  -2.042   5.341  0.00  0.00    -0.005 A 
ATOM      6  C5  UNL d   1       5.999  -0.799   5.970  0.00  0.00     0.003 A 
ATOM      7  C6  UNL d   1       5.995   0.370   5.207  0.00  0.00    -0.001 A 
ENDROOT
TORSDOF 0
ENDMDL
