MODEL 1
REMARK minimizedAffinity -1.33888221
REMARK minimizedRMSD -1
REMARK  0 active torsions:
REMARK  status: ('A' for Active; 'I' for Inactive)
ROOT
ATOM      1  C   UNL d   1       5.992  -2.164   5.283  0.00  0.00     0.078 C 
ATOM      2  C1  UNL d   1       5.987  -0.704   4.943  0.00  0.00    -0.077 A 
ATOM      3  C2  UNL d   1       5.995  -0.273   3.611  0.00  0.00    -0.001 A 
ATOM      4  C3  UNL d   1       6.000   1.090   3.310  0.00  0.00     0.003 A 
ATOM      5  C4  UNL d   1       5.998   2.033   4.335  0.00  0.00    -0.005 A 
ATOM      6  C5  UNL d   1       5.993   1.614   5.664  0.00  0.00     0.003 A 
ATOM      7  C6  UNL d   1       5.988   0.252   5.967  0.00  0.00    -0.001 A 
ENDROOT
TORSDOF 0
ENDMDL
