MODEL 1
REMARK minimizedAffinity -2.05065823
REMARK minimizedRMSD -1
REMARK  0 active torsions:
REMARK  status: ('A' for Active; 'I' for Inactive)
ROOT
ATOM      1  C   UNL d   1       5.986   2.204   4.956  0.00  0.00     0.078 C 
ATOM      2  C1  UNL d   1       5.961   3.417   4.076  0.00  0.00    -0.077 A 
ATOM      3  C2  UNL d   1       5.901   4.704   4.624  0.00  0.00    -0.001 A 
ATOM      4  C3  UNL d   1       5.868   5.825   3.793  0.00  0.00     0.003 A 
ATOM      5  C4  UNL d   1       5.894   5.670   2.408  0.00  0.00    -0.005 A 
ATOM      6  C5  UNL d   1       5.951   4.393   1.853  0.00  0.00     0.003 A 
ATOM      7  C6  UNL d   1       5.984   3.271   2.683  0.00  0.00    -0.001 A 
ENDROOT
TORSDOF 0
ENDMDL
