MODEL 1
REMARK minimizedAffinity -3.23964405
REMARK minimizedRMSD -1
REMARK  1 active torsions:
REMARK  status: ('A' for Active; 'I' for Inactive)
REMARK    1  A    between atoms: C1_2  and  C2_3 
ROOT
ATOM      1  C2  UNL d   1       0.681   0.345  -0.497  0.00  0.00    -0.077 A 
ATOM      2  C3  UNL d   1       0.367  -0.100   0.795  0.00  0.00     0.002 A 
ATOM      3  C4  UNL d   1      -0.884  -0.658   1.065  0.00  0.00     0.002 A 
ATOM      4  C5  UNL d   1      -1.829  -0.779   0.048  0.00  0.00    -0.004 A 
ATOM      5  C6  UNL d   1      -1.527  -0.337  -1.239  0.00  0.00     0.002 A 
ATOM      6  C7  UNL d   1      -0.277   0.222  -1.511  0.00  0.00     0.002 A 
ENDROOT
BRANCH   1   7
ATOM      7  C1  UNL d   1       2.048   0.902  -0.802  0.00  0.00     0.055 C 
ATOM      8  C   UNL d   1       2.481   1.912   0.250  0.00  0.00     0.019 C 
ENDBRANCH   1   7
TORSDOF 1
ENDMDL
