MODEL 1
REMARK minimizedAffinity -3.82264376
REMARK minimizedRMSD -1
REMARK  1 active torsions:
REMARK  status: ('A' for Active; 'I' for Inactive)
REMARK    1  A    between atoms: C1_2  and  C2_3 
ROOT
ATOM      1  C2  UNL d   1       1.816   1.574   0.965  0.00  0.00    -0.077 A 
ATOM      2  C3  UNL d   1       2.281   0.445   0.276  0.00  0.00     0.002 A 
ATOM      3  C4  UNL d   1       1.389  -0.385  -0.405  0.00  0.00     0.002 A 
ATOM      4  C5  UNL d   1       0.027  -0.093  -0.407  0.00  0.00    -0.004 A 
ATOM      5  C6  UNL d   1      -0.447   1.026   0.277  0.00  0.00     0.002 A 
ATOM      6  C7  UNL d   1       0.444   1.856   0.959  0.00  0.00     0.002 A 
ENDROOT
BRANCH   1   7
ATOM      7  C1  UNL d   1       2.782   2.498   1.659  0.00  0.00     0.055 C 
ATOM      8  C   UNL d   1       2.811   3.867   0.996  0.00  0.00     0.019 C 
ENDBRANCH   1   7
TORSDOF 1
ENDMDL
