MODEL 1
REMARK minimizedAffinity -2.86186171
REMARK minimizedRMSD -1
REMARK  1 active torsions:
REMARK  status: ('A' for Active; 'I' for Inactive)
REMARK    1  A    between atoms: C1_2  and  C2_3 
ROOT
ATOM      1  C2  UNL d   1      -1.363  -0.657  -0.595  0.00  0.00    -0.077 A 
ATOM      2  C3  UNL d   1      -0.456   0.020  -1.422  0.00  0.00     0.002 A 
ATOM      3  C4  UNL d   1       0.829   0.320  -0.963  0.00  0.00     0.002 A 
ATOM      4  C5  UNL d   1       1.218  -0.057   0.320  0.00  0.00    -0.004 A 
ATOM      5  C6  UNL d   1       0.322  -0.729   1.151  0.00  0.00     0.002 A 
ATOM      6  C7  UNL d   1      -0.962  -1.029   0.695  0.00  0.00     0.002 A 
ENDROOT
BRANCH   1   7
ATOM      7  C1  UNL d   1      -2.732  -1.025  -1.104  0.00  0.00     0.055 C 
ATOM      8  C   UNL d   1      -3.709  -1.242   0.042  0.00  0.00     0.019 C 
ENDBRANCH   1   7
TORSDOF 1
ENDMDL
