MODEL 1
REMARK minimizedAffinity -3.17483926
REMARK minimizedRMSD -1
REMARK  1 active torsions:
REMARK  status: ('A' for Active; 'I' for Inactive)
REMARK    1  A    between atoms: C1_2  and  C2_3 
ROOT
ATOM      1  C2  UNL d   1       0.458   0.276  -0.189  0.00  0.00    -0.077 A 
ATOM      2  C3  UNL d   1      -0.144   0.596  -1.413  0.00  0.00     0.002 A 
ATOM      3  C4  UNL d   1      -1.499   0.332  -1.624  0.00  0.00     0.002 A 
ATOM      4  C5  UNL d   1      -2.263  -0.249  -0.615  0.00  0.00    -0.004 A 
ATOM      5  C6  UNL d   1      -1.673  -0.573   0.606  0.00  0.00     0.002 A 
ATOM      6  C7  UNL d   1      -0.319  -0.311   0.819  0.00  0.00     0.002 A 
ENDROOT
BRANCH   1   7
ATOM      7  C1  UNL d   1       1.907   0.605   0.059  0.00  0.00     0.055 C 
ATOM      8  C   UNL d   1       2.052   1.818   0.966  0.00  0.00     0.019 C 
ENDBRANCH   1   7
TORSDOF 1
ENDMDL
