MODEL 1
REMARK minimizedAffinity -3.61830521
REMARK minimizedRMSD -1
REMARK  1 active torsions:
REMARK  status: ('A' for Active; 'I' for Inactive)
REMARK    1  A    between atoms: C1_2  and  C2_3 
ROOT
ATOM      1  C2  UNL d   1       0.028  -0.013   0.637  0.00  0.00    -0.077 A 
ATOM      2  C3  UNL d   1       0.522   0.776  -0.411  0.00  0.00     0.002 A 
ATOM      3  C4  UNL d   1       1.898   0.924  -0.596  0.00  0.00     0.002 A 
ATOM      4  C5  UNL d   1       2.790   0.281   0.260  0.00  0.00    -0.004 A 
ATOM      5  C6  UNL d   1       2.309  -0.505   1.306  0.00  0.00     0.002 A 
ATOM      6  C7  UNL d   1       0.933  -0.652   1.493  0.00  0.00     0.002 A 
ENDROOT
BRANCH   1   7
ATOM      7  C1  UNL d   1      -1.456  -0.213   0.808  0.00  0.00     0.055 C 
ATOM      8  C   UNL d   1      -2.063   0.873   1.684  0.00  0.00     0.019 C 
ENDBRANCH   1   7
TORSDOF 1
ENDMDL
