MODEL 1
REMARK minimizedAffinity -1.67423737
REMARK minimizedRMSD -1
REMARK  1 active torsions:
REMARK  status: ('A' for Active; 'I' for Inactive)
REMARK    1  A    between atoms: C1_2  and  C2_3 
ROOT
ATOM      1  C2  UNL d   1      -4.815   5.819   2.443  0.00  0.00    -0.077 A 
ATOM      2  C3  UNL d   1      -3.610   5.645   3.138  0.00  0.00     0.002 A 
ATOM      3  C4  UNL d   1      -3.594   5.650   4.534  0.00  0.00     0.002 A 
ATOM      4  C5  UNL d   1      -4.778   5.823   5.246  0.00  0.00    -0.004 A 
ATOM      5  C6  UNL d   1      -5.981   5.999   4.564  0.00  0.00     0.002 A 
ATOM      6  C7  UNL d   1      -6.000   5.996   3.168  0.00  0.00     0.002 A 
ENDROOT
BRANCH   1   7
ATOM      7  C1  UNL d   1      -4.842   5.766   0.937  0.00  0.00     0.055 C 
ATOM      8  C   UNL d   1      -4.664   4.342   0.431  0.00  0.00     0.019 C 
ENDBRANCH   1   7
TORSDOF 1
ENDMDL
