MODEL 1
REMARK minimizedAffinity -5.55155277
REMARK minimizedRMSD -1
REMARK  1 active torsions:
REMARK  status: ('A' for Active; 'I' for Inactive)
REMARK    1  A    between atoms: C1_2  and  C2_3 
ROOT
ATOM      1  C2  UNL d   1       3.754   3.346  -1.877  0.00  0.00    -0.077 A 
ATOM      2  C3  UNL d   1       3.516   4.422  -1.010  0.00  0.00     0.002 A 
ATOM      3  C4  UNL d   1       2.881   4.214   0.216  0.00  0.00     0.002 A 
ATOM      4  C5  UNL d   1       2.483   2.932   0.588  0.00  0.00    -0.004 A 
ATOM      5  C6  UNL d   1       2.713   1.855  -0.268  0.00  0.00     0.002 A 
ATOM      6  C7  UNL d   1       3.346   2.061  -1.495  0.00  0.00     0.002 A 
ENDROOT
BRANCH   1   7
ATOM      7  C1  UNL d   1       4.482   3.560  -3.178  0.00  0.00     0.055 C 
ATOM      8  C   UNL d   1       5.984   3.377  -3.008  0.00  0.00     0.019 C 
ENDBRANCH   1   7
TORSDOF 1
ENDMDL
