MODEL 1
REMARK minimizedAffinity -5.11125374
REMARK minimizedRMSD -1
REMARK  1 active torsions:
REMARK  status: ('A' for Active; 'I' for Inactive)
REMARK    1  A    between atoms: C1_2  and  C2_3 
ROOT
ATOM      1  C2  UNL d   1      -2.368  -1.576   0.228  0.00  0.00    -0.077 A 
ATOM      2  C3  UNL d   1      -2.674  -1.351  -1.121  0.00  0.00     0.002 A 
ATOM      3  C4  UNL d   1      -1.949  -0.418  -1.864  0.00  0.00     0.002 A 
ATOM      4  C5  UNL d   1      -0.910   0.295  -1.268  0.00  0.00    -0.004 A 
ATOM      5  C6  UNL d   1      -0.599   0.080   0.074  0.00  0.00     0.002 A 
ATOM      6  C7  UNL d   1      -1.324  -0.852   0.819  0.00  0.00     0.002 A 
ENDROOT
BRANCH   1   7
ATOM      7  C1  UNL d   1      -3.116  -2.618   1.018  0.00  0.00     0.055 C 
ATOM      8  C   UNL d   1      -2.247  -3.836   1.291  0.00  0.00     0.019 C 
ENDBRANCH   1   7
TORSDOF 1
ENDMDL
