MODEL 1
REMARK minimizedAffinity 2.64545512
REMARK minimizedRMSD -1
REMARK  0 active torsions:
REMARK  status: ('A' for Active; 'I' for Inactive)
ROOT
ATOM      1  C1  BNZ d   1       0.462   1.966   1.316  0.00  0.00     0.000 A 
ATOM      2  C2  BNZ d   1       0.253   2.345   0.017  0.00  0.00     0.000 A 
ATOM      3  C3  BNZ d   1      -0.773   3.187  -0.310  0.00  0.00     0.000 A 
ATOM      4  C4  BNZ d   1      -1.612   3.616   0.655  0.00  0.00     0.000 A 
ATOM      5  C5  BNZ d   1      -1.419   3.236   1.968  0.00  0.00     0.000 A 
ATOM      6  C6  BNZ d   1      -0.362   2.420   2.299  0.00  0.00     0.000 A 
ENDROOT
TORSDOF 0
ENDMDL
