MODEL 1
REMARK minimizedAffinity 0.999441206
REMARK minimizedRMSD -1
REMARK  0 active torsions:
REMARK  status: ('A' for Active; 'I' for Inactive)
ROOT
ATOM      1  C1  BNZ d   1      -5.377   5.602  -4.565  0.00  0.00     0.000 A 
ATOM      2  C2  BNZ d   1      -4.253   5.507  -5.342  0.00  0.00     0.000 A 
ATOM      3  C3  BNZ d   1      -3.142   4.853  -4.887  0.00  0.00     0.000 A 
ATOM      4  C4  BNZ d   1      -3.141   4.332  -3.644  0.00  0.00     0.000 A 
ATOM      5  C5  BNZ d   1      -4.263   4.428  -2.845  0.00  0.00     0.000 A 
ATOM      6  C6  BNZ d   1      -5.394   5.053  -3.320  0.00  0.00     0.000 A 
ENDROOT
TORSDOF 0
ENDMDL
