MODEL 1
REMARK minimizedAffinity 8.43769741
REMARK minimizedRMSD -1
REMARK  0 active torsions:
REMARK  status: ('A' for Active; 'I' for Inactive)
ROOT
ATOM      1  C1  BNZ d   1       4.161  -2.086   4.716  0.00  0.00     0.000 A 
ATOM      2  C2  BNZ d   1       3.115  -1.279   4.356  0.00  0.00     0.000 A 
ATOM      3  C3  BNZ d   1       1.986  -1.807   3.794  0.00  0.00     0.000 A 
ATOM      4  C4  BNZ d   1       1.920  -3.133   3.557  0.00  0.00     0.000 A 
ATOM      5  C5  BNZ d   1       2.971  -3.958   3.906  0.00  0.00     0.000 A 
ATOM      6  C6  BNZ d   1       4.090  -3.429   4.507  0.00  0.00     0.000 A 
ENDROOT
TORSDOF 0
ENDMDL
