MODEL 1
REMARK minimizedAffinity 3.64912987
REMARK minimizedRMSD -1
REMARK  0 active torsions:
REMARK  status: ('A' for Active; 'I' for Inactive)
ROOT
ATOM      1  C1  BNZ d   1      -1.760   2.151  -1.190  0.00  0.00     0.000 A 
ATOM      2  C2  BNZ d   1      -2.511   1.011  -1.298  0.00  0.00     0.000 A 
ATOM      3  C3  BNZ d   1      -2.048  -0.069  -1.997  0.00  0.00     0.000 A 
ATOM      4  C4  BNZ d   1      -0.855   0.007  -2.621  0.00  0.00     0.000 A 
ATOM      5  C5  BNZ d   1      -0.090   1.153  -2.530  0.00  0.00     0.000 A 
ATOM      6  C6  BNZ d   1      -0.542   2.224  -1.793  0.00  0.00     0.000 A 
ENDROOT
TORSDOF 0
ENDMDL
