MODEL 1
REMARK minimizedAffinity 4.70721817
REMARK minimizedRMSD -1
REMARK  0 active torsions:
REMARK  status: ('A' for Active; 'I' for Inactive)
ROOT
ATOM      1  C1  BNZ d   1      -2.257   2.604   2.647  0.00  0.00     0.000 A 
ATOM      2  C2  BNZ d   1      -1.067   2.142   3.144  0.00  0.00     0.000 A 
ATOM      3  C3  BNZ d   1       0.108   2.393   2.492  0.00  0.00     0.000 A 
ATOM      4  C4  BNZ d   1       0.088   3.070   1.326  0.00  0.00     0.000 A 
ATOM      5  C5  BNZ d   1      -1.105   3.534   0.808  0.00  0.00     0.000 A 
ATOM      6  C6  BNZ d   1      -2.281   3.313   1.486  0.00  0.00     0.000 A 
ENDROOT
TORSDOF 0
ENDMDL
