MODEL 1
REMARK minimizedAffinity 1.85632622
REMARK minimizedRMSD -1
REMARK  0 active torsions:
REMARK  status: ('A' for Active; 'I' for Inactive)
ROOT
ATOM      1  C1  BNZ d   1       1.994  -1.541  -0.884  0.00  0.00     0.000 A 
ATOM      2  C2  BNZ d   1       1.508  -0.450  -1.554  0.00  0.00     0.000 A 
ATOM      3  C3  BNZ d   1       0.214  -0.419  -1.994  0.00  0.00     0.000 A 
ATOM      4  C4  BNZ d   1      -0.578  -1.493  -1.800  0.00  0.00     0.000 A 
ATOM      5  C5  BNZ d   1      -0.100  -2.604  -1.135  0.00  0.00     0.000 A 
ATOM      6  C6  BNZ d   1       1.191  -2.616  -0.658  0.00  0.00     0.000 A 
ENDROOT
TORSDOF 0
ENDMDL
