MODEL 1
REMARK minimizedAffinity 3.41774201
REMARK minimizedRMSD -1
REMARK  0 active torsions:
REMARK  status: ('A' for Active; 'I' for Inactive)
ROOT
ATOM      1  C1  BNZ d   1       0.311   2.262   2.078  0.00  0.00     0.000 A 
ATOM      2  C2  BNZ d   1      -0.604   2.999   1.375  0.00  0.00     0.000 A 
ATOM      3  C3  BNZ d   1      -1.943   2.864   1.611  0.00  0.00     0.000 A 
ATOM      4  C4  BNZ d   1      -2.368   1.963   2.521  0.00  0.00     0.000 A 
ATOM      5  C5  BNZ d   1      -1.458   1.205   3.232  0.00  0.00     0.000 A 
ATOM      6  C6  BNZ d   1      -0.109   1.373   3.019  0.00  0.00     0.000 A 
ENDROOT
TORSDOF 0
ENDMDL
