MODEL 1
REMARK minimizedAffinity 5.48850393
REMARK minimizedRMSD -1
REMARK  0 active torsions:
REMARK  status: ('A' for Active; 'I' for Inactive)
ROOT
ATOM      1  C1  BNZ d   1      -0.570   4.288  -0.630  0.00  0.00     0.000 A 
ATOM      2  C2  BNZ d   1      -0.220   4.105   0.681  0.00  0.00     0.000 A 
ATOM      3  C3  BNZ d   1      -0.462   2.916   1.311  0.00  0.00     0.000 A 
ATOM      4  C4  BNZ d   1      -1.089   1.927   0.641  0.00  0.00     0.000 A 
ATOM      5  C5  BNZ d   1      -1.457   2.100  -0.678  0.00  0.00     0.000 A 
ATOM      6  C6  BNZ d   1      -1.177   3.284  -1.320  0.00  0.00     0.000 A 
ENDROOT
TORSDOF 0
ENDMDL
