MODEL 1
REMARK minimizedAffinity -4.03266573
REMARK minimizedRMSD -1
REMARK  0 active torsions:
REMARK  status: ('A' for Active; 'I' for Inactive)
ROOT
ATOM      1  C1  BNZ d   1       0.294   4.071  -0.137  0.00  0.00     0.000 A 
ATOM      2  C2  BNZ d   1       0.867   3.358   0.883  0.00  0.00     0.000 A 
ATOM      3  C3  BNZ d   1       0.093   2.700   1.798  0.00  0.00     0.000 A 
ATOM      4  C4  BNZ d   1      -1.250   2.787   1.715  0.00  0.00     0.000 A 
ATOM      5  C5  BNZ d   1      -1.842   3.509   0.698  0.00  0.00     0.000 A 
ATOM      6  C6  BNZ d   1      -1.060   4.139  -0.243  0.00  0.00     0.000 A 
ENDROOT
TORSDOF 0
ENDMDL
