MODEL 1
REMARK minimizedAffinity 1.33652437
REMARK minimizedRMSD -1
REMARK  0 active torsions:
REMARK  status: ('A' for Active; 'I' for Inactive)
ROOT
ATOM      1  C1  BNZ d   1       4.530  -2.619  -1.445  0.00  0.00     0.000 A 
ATOM      2  C2  BNZ d   1       4.288  -3.500  -2.465  0.00  0.00     0.000 A 
ATOM      3  C3  BNZ d   1       4.668  -4.809  -2.363  0.00  0.00     0.000 A 
ATOM      4  C4  BNZ d   1       5.324  -5.225  -1.261  0.00  0.00     0.000 A 
ATOM      5  C5  BNZ d   1       5.584  -4.346  -0.228  0.00  0.00     0.000 A 
ATOM      6  C6  BNZ d   1       5.166  -3.039  -0.317  0.00  0.00     0.000 A 
ENDROOT
TORSDOF 0
ENDMDL
