MODEL 1
REMARK minimizedAffinity 0.752623498
REMARK minimizedRMSD -1
REMARK  0 active torsions:
REMARK  status: ('A' for Active; 'I' for Inactive)
ROOT
ATOM      1  C1  BNZ d   1      -2.099  -1.373  -2.278  0.00  0.00     0.000 A 
ATOM      2  C2  BNZ d   1      -0.893  -0.866  -2.683  0.00  0.00     0.000 A 
ATOM      3  C3  BNZ d   1      -0.459   0.351  -2.237  0.00  0.00     0.000 A 
ATOM      4  C4  BNZ d   1      -1.248   1.077  -1.420  0.00  0.00     0.000 A 
ATOM      5  C5  BNZ d   1      -2.471   0.585  -1.010  0.00  0.00     0.000 A 
ATOM      6  C6  BNZ d   1      -2.887  -0.658  -1.429  0.00  0.00     0.000 A 
ENDROOT
TORSDOF 0
ENDMDL
