MODEL 1
REMARK minimizedAffinity 0.232175887
REMARK minimizedRMSD -1
REMARK  1 active torsions:
REMARK  status: ('A' for Active; 'I' for Inactive)
REMARK    1  A    between atoms: C1_2  and  C2_3 
ROOT
ATOM      1  C2  UNL d   1      -0.655  -0.676   1.164  0.00  0.00    -0.076 A 
ATOM      2  C3  UNL d   1       0.389   0.017   0.526  0.00  0.00     0.004 A 
ATOM      3  C4  UNL d   1       0.296   0.374  -0.818  0.00  0.00    -0.003 A 
ATOM      4  C5  UNL d   1      -0.842   0.044  -1.546  0.00  0.00     0.000 A 
ATOM      5  C6  UNL d   1      -1.894  -0.627  -0.924  0.00  0.00     0.000 A 
ATOM      6  C7  UNL d   1      -1.824  -0.980   0.434  0.00  0.00    -0.073 A 
ATOM      7  C8  UNL d   1      -2.986  -1.709   1.052  0.00  0.00     0.078 C 
ENDROOT
BRANCH   1   8
ATOM      8  C1  UNL d   1      -0.487  -1.060   2.617  0.00  0.00     0.053 C 
ATOM      9  C   UNL d   1       0.286  -2.358   2.790  0.00  0.00     0.018 C 
ENDBRANCH   1   8
TORSDOF 1
ENDMDL
