MODEL 1
REMARK minimizedAffinity 5.36706114
REMARK minimizedRMSD -1
REMARK  1 active torsions:
REMARK  status: ('A' for Active; 'I' for Inactive)
REMARK    1  A    between atoms: C1_2  and  C2_3 
ROOT
ATOM      1  C2  UNL d   1       0.092  -1.314   2.278  0.00  0.00    -0.076 A 
ATOM      2  C3  UNL d   1      -0.841  -0.714   3.142  0.00  0.00     0.004 A 
ATOM      3  C4  UNL d   1      -1.379   0.540   2.858  0.00  0.00    -0.003 A 
ATOM      4  C5  UNL d   1      -0.993   1.215   1.706  0.00  0.00     0.000 A 
ATOM      5  C6  UNL d   1      -0.081   0.628   0.829  0.00  0.00     0.000 A 
ATOM      6  C7  UNL d   1       0.458  -0.643   1.092  0.00  0.00    -0.073 A 
ATOM      7  C8  UNL d   1       1.442  -1.226   0.114  0.00  0.00     0.078 C 
ENDROOT
BRANCH   1   8
ATOM      8  C1  UNL d   1       0.662  -2.663   2.652  0.00  0.00     0.053 C 
ATOM      9  C   UNL d   1      -0.379  -3.771   2.596  0.00  0.00     0.018 C 
ENDBRANCH   1   8
TORSDOF 1
ENDMDL
