MODEL 1
REMARK minimizedAffinity -4.41369057
REMARK minimizedRMSD -1
REMARK  1 active torsions:
REMARK  status: ('A' for Active; 'I' for Inactive)
REMARK    1  A    between atoms: C1_2  and  C2_3 
ROOT
ATOM      1  C2  UNL d   1      -0.004   0.062  -0.436  0.00  0.00    -0.076 A 
ATOM      2  C3  UNL d   1      -0.996   0.526   0.444  0.00  0.00     0.004 A 
ATOM      3  C4  UNL d   1      -1.030   0.106   1.773  0.00  0.00    -0.003 A 
ATOM      4  C5  UNL d   1      -0.072  -0.784   2.243  0.00  0.00     0.000 A 
ATOM      5  C6  UNL d   1       0.931  -1.241   1.388  0.00  0.00     0.000 A 
ATOM      6  C7  UNL d   1       0.989  -0.815   0.050  0.00  0.00    -0.073 A 
ATOM      7  C8  UNL d   1       2.089  -1.345  -0.829  0.00  0.00     0.078 C 
ENDROOT
BRANCH   1   8
ATOM      8  C1  UNL d   1      -0.033   0.531  -1.873  0.00  0.00     0.053 C 
ATOM      9  C   UNL d   1      -0.735   1.871  -2.035  0.00  0.00     0.018 C 
ENDBRANCH   1   8
TORSDOF 1
ENDMDL
