MODEL 1
REMARK minimizedAffinity -3.86215258
REMARK minimizedRMSD -1
REMARK  1 active torsions:
REMARK  status: ('A' for Active; 'I' for Inactive)
REMARK    1  A    between atoms: C1_2  and  C2_3 
ROOT
ATOM      1  C2  UNL d   1      -0.010  -0.149  -0.121  0.00  0.00    -0.076 A 
ATOM      2  C3  UNL d   1      -0.937   0.126   0.900  0.00  0.00     0.004 A 
ATOM      3  C4  UNL d   1      -0.658  -0.194   2.227  0.00  0.00    -0.003 A 
ATOM      4  C5  UNL d   1       0.552  -0.794   2.556  0.00  0.00     0.000 A 
ATOM      5  C6  UNL d   1       1.490  -1.059   1.559  0.00  0.00     0.000 A 
ATOM      6  C7  UNL d   1       1.232  -0.728   0.218  0.00  0.00    -0.073 A 
ATOM      7  C8  UNL d   1       2.277  -1.041  -0.817  0.00  0.00     0.078 C 
ENDROOT
BRANCH   1   8
ATOM      8  C1  UNL d   1      -0.378   0.195  -1.546  0.00  0.00     0.053 C 
ATOM      9  C   UNL d   1      -0.848   1.634  -1.695  0.00  0.00     0.018 C 
ENDBRANCH   1   8
TORSDOF 1
ENDMDL
