MODEL 1
REMARK minimizedAffinity -3.59408355
REMARK minimizedRMSD -1
REMARK  1 active torsions:
REMARK  status: ('A' for Active; 'I' for Inactive)
REMARK    1  A    between atoms: C1_2  and  C2_3 
ROOT
ATOM      1  C2  UNL d   1       0.092  -0.007   0.682  0.00  0.00    -0.076 A 
ATOM      2  C3  UNL d   1       1.445  -0.047   1.060  0.00  0.00     0.004 A 
ATOM      3  C4  UNL d   1       1.845  -0.692   2.229  0.00  0.00    -0.003 A 
ATOM      4  C5  UNL d   1       0.898  -1.308   3.039  0.00  0.00     0.000 A 
ATOM      5  C6  UNL d   1      -0.447  -1.293   2.671  0.00  0.00     0.000 A 
ATOM      6  C7  UNL d   1      -0.865  -0.661   1.487  0.00  0.00    -0.073 A 
ATOM      7  C8  UNL d   1      -2.329  -0.671   1.142  0.00  0.00     0.078 C 
ENDROOT
BRANCH   1   8
ATOM      8  C1  UNL d   1      -0.286   0.731  -0.583  0.00  0.00     0.053 C 
ATOM      9  C   UNL d   1      -0.278  -0.170  -1.807  0.00  0.00     0.018 C 
ENDBRANCH   1   8
TORSDOF 1
ENDMDL
