MODEL 1
REMARK minimizedAffinity -5.34031582
REMARK minimizedRMSD -1
REMARK  1 active torsions:
REMARK  status: ('A' for Active; 'I' for Inactive)
REMARK    1  A    between atoms: C1_2  and  C2_3 
ROOT
ATOM      1  C2  UNL d   1      -0.133   0.326   0.299  0.00  0.00    -0.076 A 
ATOM      2  C3  UNL d   1       1.268   0.381   0.397  0.00  0.00     0.004 A 
ATOM      3  C4  UNL d   1       1.923  -0.033   1.556  0.00  0.00    -0.003 A 
ATOM      4  C5  UNL d   1       1.187  -0.510   2.635  0.00  0.00     0.000 A 
ATOM      5  C6  UNL d   1      -0.202  -0.589   2.548  0.00  0.00     0.000 A 
ATOM      6  C7  UNL d   1      -0.877  -0.191   1.381  0.00  0.00    -0.073 A 
ATOM      7  C8  UNL d   1      -2.377  -0.291   1.345  0.00  0.00     0.078 C 
ENDROOT
BRANCH   1   8
ATOM      8  C1  UNL d   1      -0.790   0.814  -0.973  0.00  0.00     0.053 C 
ATOM      9  C   UNL d   1      -0.051   1.987  -1.597  0.00  0.00     0.018 C 
ENDBRANCH   1   8
TORSDOF 1
ENDMDL
