MODEL 1
REMARK minimizedAffinity -3.67395449
REMARK minimizedRMSD -1
REMARK  1 active torsions:
REMARK  status: ('A' for Active; 'I' for Inactive)
REMARK    1  A    between atoms: C1_2  and  C2_3 
ROOT
ATOM      1  C2  UNL d   1       0.065  -0.099   0.164  0.00  0.00    -0.076 A 
ATOM      2  C3  UNL d   1       1.463  -0.225   0.232  0.00  0.00     0.004 A 
ATOM      3  C4  UNL d   1       2.108  -0.412   1.454  0.00  0.00    -0.003 A 
ATOM      4  C5  UNL d   1       1.364  -0.476   2.627  0.00  0.00     0.000 A 
ATOM      5  C6  UNL d   1      -0.026  -0.371   2.576  0.00  0.00     0.000 A 
ATOM      6  C7  UNL d   1      -0.692  -0.199   1.351  0.00  0.00    -0.073 A 
ATOM      7  C8  UNL d   1      -2.192  -0.085   1.355  0.00  0.00     0.078 C 
ENDROOT
BRANCH   1   8
ATOM      8  C1  UNL d   1      -0.577   0.129  -1.187  0.00  0.00     0.053 C 
ATOM      9  C   UNL d   1      -0.583   1.596  -1.588  0.00  0.00     0.018 C 
ENDBRANCH   1   8
TORSDOF 1
ENDMDL
