MODEL 1
REMARK minimizedAffinity -1.96745145
REMARK minimizedRMSD -1
REMARK  0 active torsions:
REMARK  status: ('A' for Active; 'I' for Inactive)
ROOT
ATOM      1  C   UNL d   1       1.385  -0.219  -3.158  0.00  0.00     0.078 C 
ATOM      2  C1  UNL d   1       0.566  -0.214  -1.902  0.00  0.00    -0.077 A 
ATOM      3  C2  UNL d   1       0.923  -1.008  -0.805  0.00  0.00    -0.001 A 
ATOM      4  C3  UNL d   1       0.145  -1.000   0.354  0.00  0.00     0.003 A 
ATOM      5  C4  UNL d   1      -0.994  -0.202   0.427  0.00  0.00    -0.005 A 
ATOM      6  C5  UNL d   1      -1.359   0.590  -0.660  0.00  0.00     0.003 A 
ATOM      7  C6  UNL d   1      -0.583   0.583  -1.820  0.00  0.00    -0.001 A 
ENDROOT
TORSDOF 0
ENDMDL
