MODEL 1
REMARK minimizedAffinity -4.02942848
REMARK minimizedRMSD -1
REMARK  0 active torsions:
REMARK  status: ('A' for Active; 'I' for Inactive)
ROOT
ATOM      1  C   UNL d   1       0.822   0.196  -1.573  0.00  0.00     0.078 C 
ATOM      2  C1  UNL d   1       0.024   0.285  -0.307  0.00  0.00    -0.077 A 
ATOM      3  C2  UNL d   1      -1.104  -0.520  -0.107  0.00  0.00    -0.001 A 
ATOM      4  C3  UNL d   1      -1.844  -0.418   1.073  0.00  0.00     0.003 A 
ATOM      5  C4  UNL d   1      -1.464   0.487   2.061  0.00  0.00    -0.005 A 
ATOM      6  C5  UNL d   1      -0.344   1.294   1.870  0.00  0.00     0.003 A 
ATOM      7  C6  UNL d   1       0.397   1.194   0.691  0.00  0.00    -0.001 A 
ENDROOT
TORSDOF 0
ENDMDL
