MODEL 1
REMARK minimizedAffinity -5.88848066
REMARK minimizedRMSD -1
REMARK  0 active torsions:
REMARK  status: ('A' for Active; 'I' for Inactive)
ROOT
ATOM      1  C   UNL d   1      -0.695   1.899   3.095  0.00  0.00     0.078 C 
ATOM      2  C1  UNL d   1      -0.655   1.077   1.842  0.00  0.00    -0.077 A 
ATOM      3  C2  UNL d   1      -1.835   0.658   1.216  0.00  0.00    -0.001 A 
ATOM      4  C3  UNL d   1      -1.783  -0.115   0.055  0.00  0.00     0.003 A 
ATOM      5  C4  UNL d   1      -0.552  -0.478  -0.489  0.00  0.00    -0.005 A 
ATOM      6  C5  UNL d   1       0.628  -0.069   0.129  0.00  0.00     0.003 A 
ATOM      7  C6  UNL d   1       0.577   0.705   1.290  0.00  0.00    -0.001 A 
ENDROOT
TORSDOF 0
ENDMDL
