MODEL 1
REMARK minimizedAffinity -2.74207211
REMARK minimizedRMSD -1
REMARK  0 active torsions:
REMARK  status: ('A' for Active; 'I' for Inactive)
ROOT
ATOM      1  C   UNL d   1       1.107   1.663   2.012  0.00  0.00     0.078 C 
ATOM      2  C1  UNL d   1       0.534   0.754   0.966  0.00  0.00    -0.077 A 
ATOM      3  C2  UNL d   1      -0.846   0.698   0.737  0.00  0.00    -0.001 A 
ATOM      4  C3  UNL d   1      -1.366  -0.160  -0.234  0.00  0.00     0.003 A 
ATOM      5  C4  UNL d   1      -0.513  -0.969  -0.982  0.00  0.00    -0.005 A 
ATOM      6  C5  UNL d   1       0.862  -0.922  -0.759  0.00  0.00     0.003 A 
ATOM      7  C6  UNL d   1       1.384  -0.065   0.211  0.00  0.00    -0.001 A 
ENDROOT
TORSDOF 0
ENDMDL
