MODEL 1
REMARK minimizedAffinity -2.57383513
REMARK minimizedRMSD -1
REMARK  0 active torsions:
REMARK  status: ('A' for Active; 'I' for Inactive)
ROOT
ATOM      1  C   UNL d   1      -0.306  -0.959  -1.188  0.00  0.00     0.078 C 
ATOM      2  C1  UNL d   1       0.612  -0.427  -0.129  0.00  0.00    -0.077 A 
ATOM      3  C2  UNL d   1       1.718  -1.167   0.307  0.00  0.00    -0.001 A 
ATOM      4  C3  UNL d   1       2.558  -0.663   1.301  0.00  0.00     0.003 A 
ATOM      5  C4  UNL d   1       2.300   0.583   1.869  0.00  0.00    -0.005 A 
ATOM      6  C5  UNL d   1       1.201   1.326   1.444  0.00  0.00     0.003 A 
ATOM      7  C6  UNL d   1       0.360   0.824   0.450  0.00  0.00    -0.001 A 
ENDROOT
TORSDOF 0
ENDMDL
