MODEL 1
REMARK minimizedAffinity -5.01855421
REMARK minimizedRMSD -1
REMARK  0 active torsions:
REMARK  status: ('A' for Active; 'I' for Inactive)
ROOT
ATOM      1  C   UNL d   1      -0.419   2.436   0.816  0.00  0.00     0.078 C 
ATOM      2  C1  UNL d   1       0.239   1.122   0.516  0.00  0.00    -0.077 A 
ATOM      3  C2  UNL d   1       1.165   0.560   1.403  0.00  0.00    -0.001 A 
ATOM      4  C3  UNL d   1       1.777  -0.659   1.107  0.00  0.00     0.003 A 
ATOM      5  C4  UNL d   1       1.472  -1.325  -0.079  0.00  0.00    -0.005 A 
ATOM      6  C5  UNL d   1       0.554  -0.772  -0.969  0.00  0.00     0.003 A 
ATOM      7  C6  UNL d   1      -0.059   0.446  -0.674  0.00  0.00    -0.001 A 
ENDROOT
TORSDOF 0
ENDMDL
