MODEL 1
REMARK minimizedAffinity -5.05972481
REMARK minimizedRMSD -1
REMARK  0 active torsions:
REMARK  status: ('A' for Active; 'I' for Inactive)
ROOT
ATOM      1  C   UNL d   1       0.830  -1.050  -0.517  0.00  0.00     0.078 C 
ATOM      2  C1  UNL d   1       0.040  -0.035   0.254  0.00  0.00    -0.077 A 
ATOM      3  C2  UNL d   1       0.680   0.939   1.031  0.00  0.00    -0.001 A 
ATOM      4  C3  UNL d   1      -0.068   1.871   1.751  0.00  0.00     0.003 A 
ATOM      5  C4  UNL d   1      -1.460   1.839   1.703  0.00  0.00    -0.005 A 
ATOM      6  C5  UNL d   1      -2.106   0.873   0.935  0.00  0.00     0.003 A 
ATOM      7  C6  UNL d   1      -1.360  -0.061   0.214  0.00  0.00    -0.001 A 
ENDROOT
TORSDOF 0
ENDMDL
