MODEL 1
REMARK minimizedAffinity 17.1004391
REMARK minimizedRMSD -1
REMARK  0 active torsions:
REMARK  status: ('A' for Active; 'I' for Inactive)
ROOT
ATOM      1  C1  DEN d   1      -5.998   5.996   4.890  0.00  0.00     0.130 A 
ATOM      2  C2  DEN d   1      -5.863   5.027   5.974  0.00  0.00    -0.031 A 
ATOM      3  C3  DEN d   1      -5.651   3.695   5.373  0.00  0.00     0.027 A 
ATOM      4  C4  DEN d   1      -5.514   3.043   2.881  0.00  0.00     0.027 A 
ATOM      5  C5  DEN d   1      -5.583   3.520   1.591  0.00  0.00    -0.003 A 
ATOM      6  C6  DEN d   1      -5.826   4.839   1.311  0.00  0.00     0.001 A 
ATOM      7  C7  DEN d   1      -5.965   5.736   2.338  0.00  0.00     0.017 A 
ATOM      8  C8  DEN d   1      -5.905   5.261   3.641  0.00  0.00    -0.094 A 
ATOM      9  C9  DEN d   1      -5.646   3.926   3.903  0.00  0.00    -0.072 A 
ENDROOT
TORSDOF 0
ENDMDL
