MODEL 1
REMARK minimizedAffinity 7.1196332
REMARK minimizedRMSD -1
REMARK  0 active torsions:
REMARK  status: ('A' for Active; 'I' for Inactive)
ROOT
ATOM      1  C1  DEN d   1       5.260   5.051  -1.001  0.00  0.00     0.130 A 
ATOM      2  C2  DEN d   1       5.543   5.499   0.360  0.00  0.00    -0.031 A 
ATOM      3  C3  DEN d   1       5.019   4.481   1.294  0.00  0.00     0.027 A 
ATOM      4  C4  DEN d   1       3.810   2.265   0.766  0.00  0.00     0.027 A 
ATOM      5  C5  DEN d   1       3.332   1.460  -0.244  0.00  0.00    -0.003 A 
ATOM      6  C6  DEN d   1       3.432   1.809  -1.565  0.00  0.00     0.001 A 
ATOM      7  C7  DEN d   1       4.064   2.973  -1.914  0.00  0.00     0.017 A 
ATOM      8  C8  DEN d   1       4.542   3.793  -0.900  0.00  0.00    -0.094 A 
ATOM      9  C9  DEN d   1       4.442   3.417   0.428  0.00  0.00    -0.072 A 
ENDROOT
TORSDOF 0
ENDMDL
