MODEL 1
REMARK minimizedAffinity 4.99736834
REMARK minimizedRMSD -1
REMARK  0 active torsions:
REMARK  status: ('A' for Active; 'I' for Inactive)
ROOT
ATOM      1  C1  DEN d   1       2.977   0.527   0.883  0.00  0.00     0.130 A 
ATOM      2  C2  DEN d   1       2.363  -0.043  -0.313  0.00  0.00    -0.031 A 
ATOM      3  C3  DEN d   1       3.080   0.486  -1.491  0.00  0.00     0.027 A 
ATOM      4  C4  DEN d   1       5.073   2.121  -1.577  0.00  0.00     0.027 A 
ATOM      5  C5  DEN d   1       5.932   2.884  -0.818  0.00  0.00    -0.003 A 
ATOM      6  C6  DEN d   1       5.846   2.941   0.548  0.00  0.00     0.001 A 
ATOM      7  C7  DEN d   1       4.907   2.187   1.201  0.00  0.00     0.017 A 
ATOM      8  C8  DEN d   1       4.033   1.420   0.442  0.00  0.00    -0.094 A 
ATOM      9  C9  DEN d   1       4.144   1.366  -0.937  0.00  0.00    -0.072 A 
ENDROOT
TORSDOF 0
ENDMDL
