MODEL 1
REMARK minimizedAffinity 14.6254234
REMARK minimizedRMSD -1
REMARK  0 active torsions:
REMARK  status: ('A' for Active; 'I' for Inactive)
ROOT
ATOM      1  C1  DEN d   1       2.406  -0.505  -1.882  0.00  0.00     0.130 A 
ATOM      2  C2  DEN d   1       1.888  -1.216  -0.717  0.00  0.00    -0.031 A 
ATOM      3  C3  DEN d   1       2.373  -0.523   0.494  0.00  0.00     0.027 A 
ATOM      4  C4  DEN d   1       3.865   1.573   0.676  0.00  0.00     0.027 A 
ATOM      5  C5  DEN d   1       4.562   2.520  -0.041  0.00  0.00    -0.003 A 
ATOM      6  C6  DEN d   1       4.617   2.506  -1.410  0.00  0.00     0.001 A 
ATOM      7  C7  DEN d   1       3.926   1.550  -2.107  0.00  0.00     0.017 A 
ATOM      8  C8  DEN d   1       3.227   0.588  -1.391  0.00  0.00    -0.094 A 
ATOM      9  C9  DEN d   1       3.173   0.627  -0.008  0.00  0.00    -0.072 A 
ENDROOT
TORSDOF 0
ENDMDL
