MODEL 1
REMARK minimizedAffinity 6.11431885
REMARK minimizedRMSD -1
REMARK  0 active torsions:
REMARK  status: ('A' for Active; 'I' for Inactive)
ROOT
ATOM      1  C1  DEN d   1       4.208   2.014  -0.487  0.00  0.00     0.130 A 
ATOM      2  C2  DEN d   1       2.983   2.178  -1.265  0.00  0.00    -0.031 A 
ATOM      3  C3  DEN d   1       2.080   1.056  -0.937  0.00  0.00     0.027 A 
ATOM      4  C4  DEN d   1       2.457  -0.906   0.694  0.00  0.00     0.027 A 
ATOM      5  C5  DEN d   1       3.348  -1.479   1.574  0.00  0.00    -0.003 A 
ATOM      6  C6  DEN d   1       4.592  -0.951   1.801  0.00  0.00     0.001 A 
ATOM      7  C7  DEN d   1       4.962   0.209   1.174  0.00  0.00     0.017 A 
ATOM      8  C8  DEN d   1       4.071   0.789   0.280  0.00  0.00    -0.094 A 
ATOM      9  C9  DEN d   1       2.814   0.247   0.073  0.00  0.00    -0.072 A 
ENDROOT
TORSDOF 0
ENDMDL
