MODEL 1
REMARK minimizedAffinity 3.56605053
REMARK minimizedRMSD -1
REMARK  0 active torsions:
REMARK  status: ('A' for Active; 'I' for Inactive)
ROOT
ATOM      1  C1  DEN d   1       3.182   1.095  -1.644  0.00  0.00     0.130 A 
ATOM      2  C2  DEN d   1       3.713   1.883  -0.536  0.00  0.00    -0.031 A 
ATOM      3  C3  DEN d   1       3.587   1.081   0.698  0.00  0.00     0.027 A 
ATOM      4  C4  DEN d   1       2.629  -1.295   0.996  0.00  0.00     0.027 A 
ATOM      5  C5  DEN d   1       2.048  -2.361   0.346  0.00  0.00    -0.003 A 
ATOM      6  C6  DEN d   1       1.774  -2.337  -0.996  0.00  0.00     0.001 A 
ATOM      7  C7  DEN d   1       2.124  -1.241  -1.740  0.00  0.00     0.017 A 
ATOM      8  C8  DEN d   1       2.704  -0.160  -1.090  0.00  0.00    -0.094 A 
ATOM      9  C9  DEN d   1       2.984  -0.208   0.265  0.00  0.00    -0.072 A 
ENDROOT
TORSDOF 0
ENDMDL
