MODEL 1
REMARK minimizedAffinity 11.7820826
REMARK minimizedRMSD -1
REMARK  0 active torsions:
REMARK  status: ('A' for Active; 'I' for Inactive)
ROOT
ATOM      1  C1  DEN d   1       6.000   1.626  -4.646  0.00  0.00     0.130 A 
ATOM      2  C2  DEN d   1       5.088   0.489  -4.733  0.00  0.00    -0.031 A 
ATOM      3  C3  DEN d   1       3.916   0.778  -3.883  0.00  0.00     0.027 A 
ATOM      4  C4  DEN d   1       3.425   2.866  -2.450  0.00  0.00     0.027 A 
ATOM      5  C5  DEN d   1       3.910   4.090  -2.048  0.00  0.00    -0.003 A 
ATOM      6  C6  DEN d   1       5.131   4.561  -2.454  0.00  0.00     0.001 A 
ATOM      7  C7  DEN d   1       5.889   3.822  -3.323  0.00  0.00     0.017 A 
ATOM      8  C8  DEN d   1       5.410   2.582  -3.726  0.00  0.00    -0.094 A 
ATOM      9  C9  DEN d   1       4.168   2.130  -3.315  0.00  0.00    -0.072 A 
ENDROOT
TORSDOF 0
ENDMDL
