MODEL 1
REMARK minimizedAffinity 18.1213646
REMARK minimizedRMSD -1
REMARK  0 active torsions:
REMARK  status: ('A' for Active; 'I' for Inactive)
ROOT
ATOM      1  C1  DEN d   1       3.585   1.134  -3.277  0.00  0.00     0.130 A 
ATOM      2  C2  DEN d   1       3.742   2.075  -2.171  0.00  0.00    -0.031 A 
ATOM      3  C3  DEN d   1       3.290   1.405  -0.935  0.00  0.00     0.027 A 
ATOM      4  C4  DEN d   1       2.371  -0.985  -0.627  0.00  0.00     0.027 A 
ATOM      5  C5  DEN d   1       2.043  -2.154  -1.277  0.00  0.00    -0.003 A 
ATOM      6  C6  DEN d   1       2.172  -2.296  -2.634  0.00  0.00     0.001 A 
ATOM      7  C7  DEN d   1       2.685  -1.267  -3.378  0.00  0.00     0.017 A 
ATOM      8  C8  DEN d   1       3.012  -0.083  -2.730  0.00  0.00    -0.094 A 
ATOM      9  C9  DEN d   1       2.885   0.037  -1.357  0.00  0.00    -0.072 A 
ENDROOT
TORSDOF 0
ENDMDL
