MODEL 1
REMARK minimizedAffinity 18.4165134
REMARK minimizedRMSD -1
REMARK  0 active torsions:
REMARK  status: ('A' for Active; 'I' for Inactive)
ROOT
ATOM      1  C1  DEN d   1       5.197   5.574  -1.869  0.00  0.00     0.130 A 
ATOM      2  C2  DEN d   1       6.000   5.996  -3.013  0.00  0.00    -0.031 A 
ATOM      3  C3  DEN d   1       5.999   4.898  -4.001  0.00  0.00     0.027 A 
ATOM      4  C4  DEN d   1       4.834   2.601  -3.872  0.00  0.00     0.027 A 
ATOM      5  C5  DEN d   1       4.048   1.783  -3.090  0.00  0.00    -0.003 A 
ATOM      6  C6  DEN d   1       3.622   2.155  -1.843  0.00  0.00     0.001 A 
ATOM      7  C7  DEN d   1       3.942   3.396  -1.358  0.00  0.00     0.017 A 
ATOM      8  C8  DEN d   1       4.740   4.223  -2.137  0.00  0.00    -0.094 A 
ATOM      9  C9  DEN d   1       5.151   3.833  -3.401  0.00  0.00    -0.072 A 
ENDROOT
TORSDOF 0
ENDMDL
