MODEL 1
REMARK minimizedAffinity 7.43057966
REMARK minimizedRMSD -1
REMARK  0 active torsions:
REMARK  status: ('A' for Active; 'I' for Inactive)
ROOT
ATOM      1  C1  DEN d   1      -1.969  -4.241  -1.965  0.00  0.00     0.130 A 
ATOM      2  C2  DEN d   1      -1.898  -5.085  -0.775  0.00  0.00    -0.031 A 
ATOM      3  C3  DEN d   1      -0.682  -4.713  -0.024  0.00  0.00     0.027 A 
ATOM      4  C4  DEN d   1       1.084  -2.918  -0.581  0.00  0.00     0.027 A 
ATOM      5  C5  DEN d   1       1.458  -1.956  -1.494  0.00  0.00    -0.003 A 
ATOM      6  C6  DEN d   1       0.739  -1.713  -2.635  0.00  0.00     0.001 A 
ATOM      7  C7  DEN d   1      -0.415  -2.412  -2.871  0.00  0.00     0.017 A 
ATOM      8  C8  DEN d   1      -0.794  -3.388  -1.959  0.00  0.00    -0.094 A 
ATOM      9  C9  DEN d   1      -0.062  -3.610  -0.806  0.00  0.00    -0.072 A 
ENDROOT
TORSDOF 0
ENDMDL
