MODEL 1
REMARK minimizedAffinity 19.0240784
REMARK minimizedRMSD -1
REMARK  0 active torsions:
REMARK  status: ('A' for Active; 'I' for Inactive)
ROOT
ATOM      1  C1  DEN d   1       2.229  -0.087   1.568  0.00  0.00     0.130 A 
ATOM      2  C2  DEN d   1       2.418   1.169   0.849  0.00  0.00    -0.031 A 
ATOM      3  C3  DEN d   1       2.037   0.950  -0.561  0.00  0.00     0.027 A 
ATOM      4  C4  DEN d   1       1.175  -1.201  -1.693  0.00  0.00     0.027 A 
ATOM      5  C5  DEN d   1       0.862  -2.527  -1.492  0.00  0.00    -0.003 A 
ATOM      6  C6  DEN d   1       1.013  -3.137  -0.275  0.00  0.00     0.001 A 
ATOM      7  C7  DEN d   1       1.448  -2.408   0.800  0.00  0.00     0.017 A 
ATOM      8  C8  DEN d   1       1.773  -1.072   0.603  0.00  0.00    -0.094 A 
ATOM      9  C9  DEN d   1       1.601  -0.471  -0.632  0.00  0.00    -0.072 A 
ENDROOT
TORSDOF 0
ENDMDL
