MODEL 1
REMARK minimizedAffinity 23.8390865
REMARK minimizedRMSD -1
REMARK  0 active torsions:
REMARK  status: ('A' for Active; 'I' for Inactive)
ROOT
ATOM      1  C1  DEN d   1      -5.575   0.867  -5.757  0.00  0.00     0.130 A 
ATOM      2  C2  DEN d   1      -4.503  -0.125  -5.790  0.00  0.00    -0.031 A 
ATOM      3  C3  DEN d   1      -3.218   0.596  -5.888  0.00  0.00     0.027 A 
ATOM      4  C4  DEN d   1      -2.786   3.137  -5.985  0.00  0.00     0.027 A 
ATOM      5  C5  DEN d   1      -3.384   4.378  -5.998  0.00  0.00    -0.003 A 
ATOM      6  C6  DEN d   1      -4.744   4.533  -5.967  0.00  0.00     0.001 A 
ATOM      7  C7  DEN d   1      -5.551   3.430  -5.875  0.00  0.00     0.017 A 
ATOM      8  C8  DEN d   1      -4.956   2.175  -5.868  0.00  0.00    -0.094 A 
ATOM      9  C9  DEN d   1      -3.578   2.039  -5.888  0.00  0.00    -0.072 A 
ENDROOT
TORSDOF 0
ENDMDL
