MODEL 1
REMARK minimizedAffinity 4.70120144
REMARK minimizedRMSD -1
REMARK  0 active torsions:
REMARK  status: ('A' for Active; 'I' for Inactive)
ROOT
ATOM      1  C2' OXE d   1       2.411   5.279  -1.491  0.00  0.00     0.078 C 
ATOM      2  C1' OXE d   1       4.918   5.653  -0.284  0.00  0.00     0.078 C 
ATOM      3  C1  OXE d   1       4.844   5.724  -1.789  0.00  0.00    -0.078 A 
ATOM      4  C2  OXE d   1       3.622   5.493  -2.374  0.00  0.00    -0.078 A 
ATOM      5  C3  OXE d   1       3.487   5.601  -3.755  0.00  0.00     0.003 A 
ATOM      6  C4  OXE d   1       4.614   5.789  -4.564  0.00  0.00    -0.002 A 
ATOM      7  C5  OXE d   1       5.875   5.987  -3.992  0.00  0.00    -0.002 A 
ATOM      8  C6  OXE d   1       6.000   6.000  -2.607  0.00  0.00     0.003 A 
ENDROOT
TORSDOF 0
ENDMDL
