MODEL 1
REMARK minimizedAffinity 13.0454369
REMARK minimizedRMSD -1
REMARK  0 active torsions:
REMARK  status: ('A' for Active; 'I' for Inactive)
ROOT
ATOM      1  C2' OXE d   1      -0.416   1.615   1.162  0.00  0.00     0.078 C 
ATOM      2  C1' OXE d   1       2.338   2.133   1.327  0.00  0.00     0.078 C 
ATOM      3  C1  OXE d   1       1.877   0.710   1.523  0.00  0.00    -0.078 A 
ATOM      4  C2  OXE d   1       0.524   0.474   1.487  0.00  0.00    -0.078 A 
ATOM      5  C3  OXE d   1       0.048  -0.829   1.608  0.00  0.00     0.003 A 
ATOM      6  C4  OXE d   1       0.923  -1.877   1.918  0.00  0.00    -0.002 A 
ATOM      7  C5  OXE d   1       2.301  -1.651   1.998  0.00  0.00    -0.002 A 
ATOM      8  C6  OXE d   1       2.797  -0.374   1.762  0.00  0.00     0.003 A 
ENDROOT
TORSDOF 0
ENDMDL
