MODEL 1
REMARK minimizedAffinity 9.21752357
REMARK minimizedRMSD -1
REMARK  0 active torsions:
REMARK  status: ('A' for Active; 'I' for Inactive)
ROOT
ATOM      1  C2' OXE d   1      -4.831   2.611  -4.465  0.00  0.00     0.078 C 
ATOM      2  C1' OXE d   1      -3.983   0.010  -3.836  0.00  0.00     0.078 C 
ATOM      3  C1  OXE d   1      -3.674   1.108  -2.849  0.00  0.00    -0.078 A 
ATOM      4  C2  OXE d   1      -4.052   2.386  -3.187  0.00  0.00    -0.078 A 
ATOM      5  C3  OXE d   1      -3.840   3.427  -2.288  0.00  0.00     0.003 A 
ATOM      6  C4  OXE d   1      -3.110   3.212  -1.113  0.00  0.00    -0.002 A 
ATOM      7  C5  OXE d   1      -2.681   1.926  -0.769  0.00  0.00    -0.002 A 
ATOM      8  C6  OXE d   1      -2.992   0.858  -1.604  0.00  0.00     0.003 A 
ENDROOT
TORSDOF 0
ENDMDL
