MODEL 1
REMARK minimizedAffinity 5.11261797
REMARK minimizedRMSD -1
REMARK  0 active torsions:
REMARK  status: ('A' for Active; 'I' for Inactive)
ROOT
ATOM      1  C2' OXE d   1       4.936   5.954  -0.847  0.00  0.00     0.078 C 
ATOM      2  C1' OXE d   1       2.403   5.848  -2.053  0.00  0.00     0.078 C 
ATOM      3  C1  OXE d   1       3.611   5.882  -2.955  0.00  0.00    -0.078 A 
ATOM      4  C2  OXE d   1       4.845   5.981  -2.357  0.00  0.00    -0.078 A 
ATOM      5  C3  OXE d   1       5.995   5.961  -3.141  0.00  0.00     0.003 A 
ATOM      6  C4  OXE d   1       5.901   5.996  -4.538  0.00  0.00    -0.002 A 
ATOM      7  C5  OXE d   1       4.653   5.936  -5.167  0.00  0.00    -0.002 A 
ATOM      8  C6  OXE d   1       3.503   5.836  -4.393  0.00  0.00     0.003 A 
ENDROOT
TORSDOF 0
ENDMDL
