MODEL 1
REMARK minimizedAffinity 3.80431437
REMARK minimizedRMSD -1
REMARK  0 active torsions:
REMARK  status: ('A' for Active; 'I' for Inactive)
ROOT
ATOM      1  C2' OXE d   1      -3.758   3.085  -2.375  0.00  0.00     0.078 C 
ATOM      2  C1' OXE d   1      -5.065   3.852  -4.738  0.00  0.00     0.078 C 
ATOM      3  C1  OXE d   1      -4.549   2.437  -4.646  0.00  0.00    -0.078 A 
ATOM      4  C2  OXE d   1      -3.870   2.085  -3.505  0.00  0.00    -0.078 A 
ATOM      5  C3  OXE d   1      -3.421   0.777  -3.347  0.00  0.00     0.003 A 
ATOM      6  C4  OXE d   1      -3.519  -0.139  -4.401  0.00  0.00    -0.002 A 
ATOM      7  C5  OXE d   1      -4.172   0.211  -5.587  0.00  0.00    -0.002 A 
ATOM      8  C6  OXE d   1      -4.729   1.480  -5.709  0.00  0.00     0.003 A 
ENDROOT
TORSDOF 0
ENDMDL
