MODEL 1
REMARK minimizedAffinity 5.24820662
REMARK minimizedRMSD -1
REMARK  0 active torsions:
REMARK  status: ('A' for Active; 'I' for Inactive)
ROOT
ATOM      1  C2' OXE d   1       4.881   5.812  -1.095  0.00  0.00     0.078 C 
ATOM      2  C1' OXE d   1       2.371   5.881  -2.351  0.00  0.00     0.078 C 
ATOM      3  C1  OXE d   1       3.597   5.894  -3.229  0.00  0.00    -0.078 A 
ATOM      4  C2  OXE d   1       4.822   5.907  -2.604  0.00  0.00    -0.078 A 
ATOM      5  C3  OXE d   1       5.985   5.864  -3.368  0.00  0.00     0.003 A 
ATOM      6  C4  OXE d   1       5.921   5.962  -4.763  0.00  0.00    -0.002 A 
ATOM      7  C5  OXE d   1       4.685   5.989  -5.417  0.00  0.00    -0.002 A 
ATOM      8  C6  OXE d   1       3.516   5.913  -4.668  0.00  0.00     0.003 A 
ENDROOT
TORSDOF 0
ENDMDL
