MODEL 1
REMARK minimizedAffinity 4.54300213
REMARK minimizedRMSD -1
REMARK  0 active torsions:
REMARK  status: ('A' for Active; 'I' for Inactive)
ROOT
ATOM      1  C2' OXE d   1      -3.935  -0.074  -4.009  0.00  0.00     0.078 C 
ATOM      2  C1' OXE d   1      -4.470   2.565  -4.803  0.00  0.00     0.078 C 
ATOM      3  C1  OXE d   1      -3.931   2.345  -3.412  0.00  0.00    -0.078 A 
ATOM      4  C2  OXE d   1      -3.716   1.046  -3.016  0.00  0.00    -0.078 A 
ATOM      5  C3  OXE d   1      -3.168   0.790  -1.762  0.00  0.00     0.003 A 
ATOM      6  C4  OXE d   1      -2.979   1.831  -0.845  0.00  0.00    -0.002 A 
ATOM      7  C5  OXE d   1      -3.229   3.157  -1.215  0.00  0.00    -0.002 A 
ATOM      8  C6  OXE d   1      -3.664   3.434  -2.506  0.00  0.00     0.003 A 
ENDROOT
TORSDOF 0
ENDMDL
