MODEL 1
REMARK minimizedAffinity 10.0028391
REMARK minimizedRMSD -1
REMARK  0 active torsions:
REMARK  status: ('A' for Active; 'I' for Inactive)
ROOT
ATOM      1  C2' OXE d   1      -0.120   0.042   0.679  0.00  0.00     0.078 C 
ATOM      2  C1' OXE d   1       2.405   1.173   1.151  0.00  0.00     0.078 C 
ATOM      3  C1  OXE d   1       2.107  -0.167   1.775  0.00  0.00    -0.078 A 
ATOM      4  C2  OXE d   1       0.852  -0.691   1.578  0.00  0.00    -0.078 A 
ATOM      5  C3  OXE d   1       0.543  -1.950   2.086  0.00  0.00     0.003 A 
ATOM      6  C4  OXE d   1       1.444  -2.617   2.924  0.00  0.00    -0.002 A 
ATOM      7  C5  OXE d   1       2.713  -2.082   3.171  0.00  0.00    -0.002 A 
ATOM      8  C6  OXE d   1       3.075  -0.881   2.571  0.00  0.00     0.003 A 
ENDROOT
TORSDOF 0
ENDMDL
