MODEL 1
REMARK minimizedAffinity 3.5485816
REMARK minimizedRMSD -1
REMARK  0 active torsions:
REMARK  status: ('A' for Active; 'I' for Inactive)
ROOT
ATOM      1  C2' OXE d   1       2.110  -2.662   3.376  0.00  0.00     0.078 C 
ATOM      2  C1' OXE d   1       2.264  -4.643   5.360  0.00  0.00     0.078 C 
ATOM      3  C1  OXE d   1       3.557  -4.078   4.828  0.00  0.00    -0.078 A 
ATOM      4  C2  OXE d   1       3.473  -3.143   3.825  0.00  0.00    -0.078 A 
ATOM      5  C3  OXE d   1       4.634  -2.549   3.337  0.00  0.00     0.003 A 
ATOM      6  C4  OXE d   1       5.891  -3.006   3.750  0.00  0.00    -0.002 A 
ATOM      7  C5  OXE d   1       6.000  -3.986   4.743  0.00  0.00    -0.002 A 
ATOM      8  C6  OXE d   1       4.845  -4.500   5.321  0.00  0.00     0.003 A 
ENDROOT
TORSDOF 0
ENDMDL
