MODEL 1
REMARK minimizedAffinity 11.4753447
REMARK minimizedRMSD -1
REMARK  0 active torsions:
REMARK  status: ('A' for Active; 'I' for Inactive)
ROOT
ATOM      1  C2' OXE d   1       5.997  -2.839   6.000  0.00  0.00     0.078 C 
ATOM      2  C1' OXE d   1       6.000  -2.561   3.206  0.00  0.00     0.078 C 
ATOM      3  C1  OXE d   1       4.666  -2.679   3.901  0.00  0.00    -0.078 A 
ATOM      4  C2  OXE d   1       4.676  -2.861   5.263  0.00  0.00    -0.078 A 
ATOM      5  C3  OXE d   1       3.472  -2.921   5.959  0.00  0.00     0.003 A 
ATOM      6  C4  OXE d   1       2.254  -2.951   5.268  0.00  0.00    -0.002 A 
ATOM      7  C5  OXE d   1       2.223  -2.807   3.877  0.00  0.00    -0.002 A 
ATOM      8  C6  OXE d   1       3.415  -2.627   3.184  0.00  0.00     0.003 A 
ENDROOT
TORSDOF 0
ENDMDL
