MODEL 1
REMARK minimizedAffinity 6.90462589
REMARK minimizedRMSD -1
REMARK  0 active torsions:
REMARK  status: ('A' for Active; 'I' for Inactive)
ROOT
ATOM      1  C2' OXE d   1       2.692   1.545   0.828  0.00  0.00     0.078 C 
ATOM      2  C1' OXE d   1       1.474  -0.327  -0.874  0.00  0.00     0.078 C 
ATOM      3  C1  OXE d   1       1.627  -0.694   0.581  0.00  0.00    -0.078 A 
ATOM      4  C2  OXE d   1       2.266   0.208   1.397  0.00  0.00    -0.078 A 
ATOM      5  C3  OXE d   1       2.384  -0.057   2.758  0.00  0.00     0.003 A 
ATOM      6  C4  OXE d   1       1.997  -1.299   3.275  0.00  0.00    -0.002 A 
ATOM      7  C5  OXE d   1       1.380  -2.249   2.453  0.00  0.00    -0.002 A 
ATOM      8  C6  OXE d   1       1.150  -1.945   1.115  0.00  0.00     0.003 A 
ENDROOT
TORSDOF 0
ENDMDL
