MODEL 1
REMARK minimizedAffinity -2.72780991
REMARK minimizedRMSD -1
REMARK  1 active torsions:
REMARK  status: ('A' for Active; 'I' for Inactive)
REMARK    1  A    between atoms: C1_2  and  C2_3 
ROOT
ATOM      1  C2  UNL d   1       0.054   0.052   0.207  0.00  0.00    -0.073 A 
ATOM      2  C3  UNL d   1      -0.357  -1.271   0.404  0.00  0.00    -0.002 A 
ATOM      3  C4  UNL d   1       0.419  -2.329  -0.071  0.00  0.00     0.004 A 
ATOM      4  C5  UNL d   1       1.616  -2.076  -0.741  0.00  0.00    -0.004 A 
ATOM      5  C6  UNL d   1       2.049  -0.761  -0.937  0.00  0.00    -0.075 A 
ATOM      6  C7  UNL d   1       3.333  -0.471  -1.658  0.00  0.00     0.076 C 
ATOM      7  C8  UNL d   1       1.263   0.296  -0.460  0.00  0.00     0.001 A 
ENDROOT
BRANCH   1   8
ATOM      8  C1  UNL d   1      -0.778   1.197   0.724  0.00  0.00     0.053 C 
ATOM      9  C   UNL d   1      -1.178   1.000   2.177  0.00  0.00     0.018 C 
ENDBRANCH   1   8
TORSDOF 1
ENDMDL
