MODEL 1
REMARK minimizedAffinity -3.36093163
REMARK minimizedRMSD -1
REMARK  1 active torsions:
REMARK  status: ('A' for Active; 'I' for Inactive)
REMARK    1  A    between atoms: C1_2  and  C2_3 
ROOT
ATOM      1  C2  UNL d   1      -0.050   0.357   0.023  0.00  0.00    -0.073 A 
ATOM      2  C3  UNL d   1       1.074   0.869  -0.635  0.00  0.00    -0.002 A 
ATOM      3  C4  UNL d   1       2.080   0.012  -1.084  0.00  0.00     0.004 A 
ATOM      4  C5  UNL d   1       1.969  -1.364  -0.886  0.00  0.00    -0.004 A 
ATOM      5  C6  UNL d   1       0.848  -1.897  -0.242  0.00  0.00    -0.075 A 
ATOM      6  C7  UNL d   1       0.715  -3.375  -0.019  0.00  0.00     0.076 C 
ATOM      7  C8  UNL d   1      -0.156  -1.029   0.209  0.00  0.00     0.001 A 
ENDROOT
BRANCH   1   8
ATOM      8  C1  UNL d   1      -1.141   1.278   0.504  0.00  0.00     0.053 C 
ATOM      9  C   UNL d   1      -1.456   1.068   1.977  0.00  0.00     0.018 C 
ENDBRANCH   1   8
TORSDOF 1
ENDMDL
