MODEL 1
REMARK minimizedAffinity 0.81824863
REMARK minimizedRMSD -1
REMARK  1 active torsions:
REMARK  status: ('A' for Active; 'I' for Inactive)
REMARK    1  A    between atoms: C1_2  and  C2_3 
ROOT
ATOM      1  C2  UNL d   1       1.108   0.560  -0.662  0.00  0.00    -0.073 A 
ATOM      2  C3  UNL d   1       2.344   0.248  -1.239  0.00  0.00    -0.002 A 
ATOM      3  C4  UNL d   1       2.712  -1.083  -1.439  0.00  0.00     0.004 A 
ATOM      4  C5  UNL d   1       1.847  -2.114  -1.072  0.00  0.00    -0.004 A 
ATOM      5  C6  UNL d   1       0.602  -1.822  -0.506  0.00  0.00    -0.075 A 
ATOM      6  C7  UNL d   1      -0.339  -2.919  -0.104  0.00  0.00     0.076 C 
ATOM      7  C8  UNL d   1       0.241  -0.482  -0.305  0.00  0.00     0.001 A 
ENDROOT
BRANCH   1   8
ATOM      8  C1  UNL d   1       0.703   1.996  -0.450  0.00  0.00     0.053 C 
ATOM      9  C   UNL d   1       0.235   2.653  -1.739  0.00  0.00     0.018 C 
ENDBRANCH   1   8
TORSDOF 1
ENDMDL
