MODEL 1
REMARK minimizedAffinity -3.07025528
REMARK minimizedRMSD -1
REMARK  1 active torsions:
REMARK  status: ('A' for Active; 'I' for Inactive)
REMARK    1  A    between atoms: C1_2  and  C2_3 
ROOT
ATOM      1  C2  UNL d   1      -0.277  -0.192   0.072  0.00  0.00    -0.073 A 
ATOM      2  C3  UNL d   1      -0.451  -1.579   0.004  0.00  0.00    -0.002 A 
ATOM      3  C4  UNL d   1       0.544  -2.388  -0.546  0.00  0.00     0.004 A 
ATOM      4  C5  UNL d   1       1.724  -1.821  -1.027  0.00  0.00    -0.004 A 
ATOM      5  C6  UNL d   1       1.921  -0.438  -0.958  0.00  0.00    -0.075 A 
ATOM      6  C7  UNL d   1       3.184   0.187  -1.473  0.00  0.00     0.076 C 
ATOM      7  C8  UNL d   1       0.917   0.368  -0.406  0.00  0.00     0.001 A 
ENDROOT
BRANCH   1   8
ATOM      8  C1  UNL d   1      -1.345   0.685   0.671  0.00  0.00     0.053 C 
ATOM      9  C   UNL d   1      -1.312   0.666   2.191  0.00  0.00     0.018 C 
ENDBRANCH   1   8
TORSDOF 1
ENDMDL
