MODEL 1
REMARK minimizedAffinity -3.39911819
REMARK minimizedRMSD -1
REMARK  1 active torsions:
REMARK  status: ('A' for Active; 'I' for Inactive)
REMARK    1  A    between atoms: C1_2  and  C2_3 
ROOT
ATOM      1  C2  UNL d   1      -0.433  -0.084   0.042  0.00  0.00    -0.073 A 
ATOM      2  C3  UNL d   1      -0.849  -1.365  -0.341  0.00  0.00    -0.002 A 
ATOM      3  C4  UNL d   1       0.079  -2.298  -0.804  0.00  0.00     0.004 A 
ATOM      4  C5  UNL d   1       1.431  -1.965  -0.884  0.00  0.00    -0.004 A 
ATOM      5  C6  UNL d   1       1.868  -0.694  -0.495  0.00  0.00    -0.075 A 
ATOM      6  C7  UNL d   1       3.319  -0.319  -0.576  0.00  0.00     0.076 C 
ATOM      7  C8  UNL d   1       0.930   0.239  -0.033  0.00  0.00     0.001 A 
ENDROOT
BRANCH   1   8
ATOM      8  C1  UNL d   1      -1.430   0.925   0.549  0.00  0.00     0.053 C 
ATOM      9  C   UNL d   1      -2.035   0.509   1.880  0.00  0.00     0.018 C 
ENDBRANCH   1   8
TORSDOF 1
ENDMDL
