MODEL 1
REMARK minimizedAffinity -4.19250536
REMARK minimizedRMSD -1
REMARK  1 active torsions:
REMARK  status: ('A' for Active; 'I' for Inactive)
REMARK    1  A    between atoms: C1_2  and  C2_3 
ROOT
ATOM      1  C2  UNL d   1      -0.109   0.623   0.579  0.00  0.00    -0.073 A 
ATOM      2  C3  UNL d   1      -0.884  -0.352  -0.060  0.00  0.00    -0.002 A 
ATOM      3  C4  UNL d   1      -0.278  -1.324  -0.856  0.00  0.00     0.004 A 
ATOM      4  C5  UNL d   1       1.107  -1.337  -1.016  0.00  0.00    -0.004 A 
ATOM      5  C6  UNL d   1       1.900  -0.379  -0.376  0.00  0.00    -0.075 A 
ATOM      6  C7  UNL d   1       3.392  -0.378  -0.540  0.00  0.00     0.076 C 
ATOM      7  C8  UNL d   1       1.284   0.596   0.420  0.00  0.00     0.001 A 
ENDROOT
BRANCH   1   8
ATOM      8  C1  UNL d   1      -0.758   1.671   1.445  0.00  0.00     0.053 C 
ATOM      9  C   UNL d   1      -1.047   1.155   2.846  0.00  0.00     0.018 C 
ENDBRANCH   1   8
TORSDOF 1
ENDMDL
