MODEL 1
REMARK minimizedAffinity -5.22759199
REMARK minimizedRMSD -1
REMARK  1 active torsions:
REMARK  status: ('A' for Active; 'I' for Inactive)
REMARK    1  A    between atoms: C1_2  and  C2_3 
ROOT
ATOM      1  C2  UNL d   1       1.517  -0.136  -0.520  0.00  0.00    -0.073 A 
ATOM      2  C3  UNL d   1       0.701   0.979  -0.295  0.00  0.00    -0.002 A 
ATOM      3  C4  UNL d   1      -0.675   0.823  -0.126  0.00  0.00     0.004 A 
ATOM      4  C5  UNL d   1      -1.248  -0.448  -0.173  0.00  0.00    -0.004 A 
ATOM      5  C6  UNL d   1      -0.448  -1.575  -0.385  0.00  0.00    -0.075 A 
ATOM      6  C7  UNL d   1      -1.050  -2.949  -0.441  0.00  0.00     0.076 C 
ATOM      7  C8  UNL d   1       0.933  -1.410  -0.557  0.00  0.00     0.001 A 
ENDROOT
BRANCH   1   8
ATOM      8  C1  UNL d   1       3.005   0.027  -0.697  0.00  0.00     0.053 C 
ATOM      9  C   UNL d   1       3.581  -1.001  -1.657  0.00  0.00     0.018 C 
ENDBRANCH   1   8
TORSDOF 1
ENDMDL
