MODEL 1
REMARK minimizedAffinity -5.80151606
REMARK minimizedRMSD -1
REMARK  1 active torsions:
REMARK  status: ('A' for Active; 'I' for Inactive)
REMARK    1  A    between atoms: C1_2  and  C2_3 
ROOT
ATOM      1  C2  UNL d   1      -0.107  -0.062  -0.154  0.00  0.00    -0.073 A 
ATOM      2  C3  UNL d   1       0.701  -1.181   0.078  0.00  0.00    -0.002 A 
ATOM      3  C4  UNL d   1       1.892  -1.349  -0.630  0.00  0.00     0.004 A 
ATOM      4  C5  UNL d   1       2.289  -0.400  -1.571  0.00  0.00    -0.004 A 
ATOM      5  C6  UNL d   1       1.501   0.731  -1.809  0.00  0.00    -0.075 A 
ATOM      6  C7  UNL d   1       1.913   1.761  -2.819  0.00  0.00     0.076 C 
ATOM      7  C8  UNL d   1       0.305   0.892  -1.095  0.00  0.00     0.001 A 
ENDROOT
BRANCH   1   8
ATOM      8  C1  UNL d   1      -1.390   0.127   0.613  0.00  0.00     0.053 C 
ATOM      9  C   UNL d   1      -1.145   0.687   2.005  0.00  0.00     0.018 C 
ENDBRANCH   1   8
TORSDOF 1
ENDMDL
