MODEL 1
REMARK minimizedAffinity -3.4949739
REMARK minimizedRMSD -1
REMARK  1 active torsions:
REMARK  status: ('A' for Active; 'I' for Inactive)
REMARK    1  A    between atoms: C1_2  and  C2_3 
ROOT
ATOM      1  C2  UNL d   1      -1.023   0.427   0.668  0.00  0.00    -0.073 A 
ATOM      2  C3  UNL d   1      -1.066   1.562  -0.149  0.00  0.00    -0.002 A 
ATOM      3  C4  UNL d   1      -0.113   1.744  -1.152  0.00  0.00     0.004 A 
ATOM      4  C5  UNL d   1       0.887   0.792  -1.352  0.00  0.00    -0.004 A 
ATOM      5  C6  UNL d   1       0.939  -0.354  -0.553  0.00  0.00    -0.075 A 
ATOM      6  C7  UNL d   1       2.009  -1.387  -0.754  0.00  0.00     0.076 C 
ATOM      7  C8  UNL d   1      -0.020  -0.529   0.454  0.00  0.00     0.001 A 
ENDROOT
BRANCH   1   8
ATOM      8  C1  UNL d   1      -2.054   0.222   1.748  0.00  0.00     0.053 C 
ATOM      9  C   UNL d   1      -1.708   0.983   3.018  0.00  0.00     0.018 C 
ENDBRANCH   1   8
TORSDOF 1
ENDMDL
