MODEL 1
REMARK minimizedAffinity -5.13140821
REMARK minimizedRMSD -1
REMARK  1 active torsions:
REMARK  status: ('A' for Active; 'I' for Inactive)
REMARK    1  A    between atoms: C1_2  and  C2_3 
ROOT
ATOM      1  C2  UNL d   1      -0.092  -0.041  -0.047  0.00  0.00    -0.073 A 
ATOM      2  C3  UNL d   1      -0.365  -1.413  -0.085  0.00  0.00    -0.002 A 
ATOM      3  C4  UNL d   1       0.596  -2.310  -0.552  0.00  0.00     0.004 A 
ATOM      4  C5  UNL d   1       1.841  -1.847  -0.979  0.00  0.00    -0.004 A 
ATOM      5  C6  UNL d   1       2.137  -0.481  -0.938  0.00  0.00    -0.075 A 
ATOM      6  C7  UNL d   1       3.470   0.034  -1.395  0.00  0.00     0.076 C 
ATOM      7  C8  UNL d   1       1.166   0.414  -0.470  0.00  0.00     0.001 A 
ENDROOT
BRANCH   1   8
ATOM      8  C1  UNL d   1      -1.124   0.931   0.463  0.00  0.00     0.053 C 
ATOM      9  C   UNL d   1      -1.501   0.655   1.909  0.00  0.00     0.018 C 
ENDBRANCH   1   8
TORSDOF 1
ENDMDL
