MODEL 1
REMARK minimizedAffinity -2.63227153
REMARK minimizedRMSD -1
REMARK  1 active torsions:
REMARK  status: ('A' for Active; 'I' for Inactive)
REMARK    1  A    between atoms: C1_2  and  C2_3 
ROOT
ATOM      1  C2  UNL d   1       0.771  -0.407  -0.509  0.00  0.00    -0.073 A 
ATOM      2  C3  UNL d   1       0.832   0.758  -1.281  0.00  0.00    -0.002 A 
ATOM      3  C4  UNL d   1      -0.088   1.787  -1.079  0.00  0.00     0.004 A 
ATOM      4  C5  UNL d   1      -1.073   1.665  -0.099  0.00  0.00    -0.004 A 
ATOM      5  C6  UNL d   1      -1.143   0.514   0.692  0.00  0.00    -0.075 A 
ATOM      6  C7  UNL d   1      -2.198   0.366   1.749  0.00  0.00     0.076 C 
ATOM      7  C8  UNL d   1      -0.217  -0.517   0.480  0.00  0.00     0.001 A 
ENDROOT
BRANCH   1   8
ATOM      8  C1  UNL d   1       1.767  -1.519  -0.719  0.00  0.00     0.053 C 
ATOM      9  C   UNL d   1       2.948  -1.073  -1.566  0.00  0.00     0.018 C 
ENDBRANCH   1   8
TORSDOF 1
ENDMDL
