MODEL 1
REMARK minimizedAffinity -4.19962883
REMARK minimizedRMSD -1
REMARK  1 active torsions:
REMARK  status: ('A' for Active; 'I' for Inactive)
REMARK    1  A    between atoms: C1_2  and  C2_3 
ROOT
ATOM      1  C2  UNL d   1       0.470  -0.411  -0.774  0.00  0.00    -0.081 A 
ATOM      2  C3  UNL d   1       1.323  -0.151   0.305  0.00  0.00     0.006 A 
ATOM      3  C4  UNL d   1       0.814   0.346   1.507  0.00  0.00     0.002 A 
ATOM      4  C5  UNL d   1      -0.556   0.584   1.653  0.00  0.00    -0.080 A 
ATOM      5  C6  UNL d   1      -1.120   1.088   2.949  0.00  0.00     0.076 C 
ATOM      6  C7  UNL d   1      -1.407   0.341   0.570  0.00  0.00     0.002 A 
ATOM      7  C8  UNL d   1      -0.899  -0.156  -0.633  0.00  0.00     0.006 A 
ENDROOT
BRANCH   1   8
ATOM      8  C1  UNL d   1       1.006  -1.008  -2.050  0.00  0.00     0.054 C 
ATOM      9  C   UNL d   1       1.703   0.043  -2.902  0.00  0.00     0.018 C 
ENDBRANCH   1   8
TORSDOF 1
ENDMDL
