MODEL 1
REMARK minimizedAffinity -1.89588428
REMARK minimizedRMSD -1
REMARK  1 active torsions:
REMARK  status: ('A' for Active; 'I' for Inactive)
REMARK    1  A    between atoms: C1_2  and  C2_3 
ROOT
ATOM      1  C2  UNL d   1      -0.168  -0.047  -0.736  0.00  0.00    -0.081 A 
ATOM      2  C3  UNL d   1      -1.405  -0.178  -0.093  0.00  0.00     0.006 A 
ATOM      3  C4  UNL d   1      -1.595   0.340   1.190  0.00  0.00     0.002 A 
ATOM      4  C5  UNL d   1      -0.555   1.005   1.849  0.00  0.00    -0.080 A 
ATOM      5  C6  UNL d   1      -0.754   1.592   3.214  0.00  0.00     0.076 C 
ATOM      6  C7  UNL d   1       0.686   1.121   1.213  0.00  0.00     0.002 A 
ATOM      7  C8  UNL d   1       0.877   0.602  -0.069  0.00  0.00     0.006 A 
ENDROOT
BRANCH   1   8
ATOM      8  C1  UNL d   1       0.020  -0.547  -2.145  0.00  0.00     0.054 C 
ATOM      9  C   UNL d   1       0.586   0.540  -3.047  0.00  0.00     0.018 C 
ENDBRANCH   1   8
TORSDOF 1
ENDMDL
