MODEL 1
REMARK minimizedAffinity -3.92526579
REMARK minimizedRMSD -1
REMARK  1 active torsions:
REMARK  status: ('A' for Active; 'I' for Inactive)
REMARK    1  A    between atoms: C1_2  and  C2_3 
ROOT
ATOM      1  C2  UNL d   1      -0.096  -0.463  -1.071  0.00  0.00    -0.081 A 
ATOM      2  C3  UNL d   1      -1.415  -0.210  -0.675  0.00  0.00     0.006 A 
ATOM      3  C4  UNL d   1      -1.684   0.345   0.578  0.00  0.00     0.002 A 
ATOM      4  C5  UNL d   1      -0.639   0.664   1.452  0.00  0.00    -0.080 A 
ATOM      5  C6  UNL d   1      -0.912   1.289   2.788  0.00  0.00     0.076 C 
ATOM      6  C7  UNL d   1       0.678   0.395   1.063  0.00  0.00     0.002 A 
ATOM      7  C8  UNL d   1       0.947  -0.161  -0.189  0.00  0.00     0.006 A 
ENDROOT
BRANCH   1   8
ATOM      8  C1  UNL d   1       0.201  -1.002  -2.448  0.00  0.00     0.054 C 
ATOM      9  C   UNL d   1       0.892   0.042  -3.313  0.00  0.00     0.018 C 
ENDBRANCH   1   8
TORSDOF 1
ENDMDL
