MODEL 1
REMARK minimizedAffinity -4.28725719
REMARK minimizedRMSD -1
REMARK  1 active torsions:
REMARK  status: ('A' for Active; 'I' for Inactive)
REMARK    1  A    between atoms: C1_2  and  C2_3 
ROOT
ATOM      1  C2  UNL d   1       0.271  -0.371  -0.634  0.00  0.00    -0.081 A 
ATOM      2  C3  UNL d   1      -1.085  -0.095  -0.418  0.00  0.00     0.006 A 
ATOM      3  C4  UNL d   1      -1.495   0.588   0.730  0.00  0.00     0.002 A 
ATOM      4  C5  UNL d   1      -0.556   1.012   1.676  0.00  0.00    -0.080 A 
ATOM      5  C6  UNL d   1      -0.979   1.773   2.898  0.00  0.00     0.076 C 
ATOM      6  C7  UNL d   1       0.797   0.721   1.470  0.00  0.00     0.002 A 
ATOM      7  C8  UNL d   1       1.207   0.038   0.322  0.00  0.00     0.006 A 
ENDROOT
BRANCH   1   8
ATOM      8  C1  UNL d   1       0.722  -1.050  -1.902  0.00  0.00     0.054 C 
ATOM      9  C   UNL d   1       0.743  -0.078  -3.073  0.00  0.00     0.018 C 
ENDBRANCH   1   8
TORSDOF 1
ENDMDL
