MODEL 1
REMARK minimizedAffinity -3.44185376
REMARK minimizedRMSD -1
REMARK  1 active torsions:
REMARK  status: ('A' for Active; 'I' for Inactive)
REMARK    1  A    between atoms: C1_2  and  C2_3 
ROOT
ATOM      1  C2  UNL d   1      -0.006  -0.526  -0.750  0.00  0.00    -0.081 A 
ATOM      2  C3  UNL d   1      -1.338  -0.446  -0.326  0.00  0.00     0.006 A 
ATOM      3  C4  UNL d   1      -1.666   0.215   0.860  0.00  0.00     0.002 A 
ATOM      4  C5  UNL d   1      -0.668   0.813   1.638  0.00  0.00    -0.080 A 
ATOM      5  C6  UNL d   1      -1.010   1.551   2.898  0.00  0.00     0.076 C 
ATOM      6  C7  UNL d   1       0.664   0.718   1.224  0.00  0.00     0.002 A 
ATOM      7  C8  UNL d   1       0.993   0.057   0.038  0.00  0.00     0.006 A 
ENDROOT
BRANCH   1   8
ATOM      8  C1  UNL d   1       0.343  -1.182  -2.061  0.00  0.00     0.054 C 
ATOM      9  C   UNL d   1       0.703  -0.148  -3.119  0.00  0.00     0.018 C 
ENDBRANCH   1   8
TORSDOF 1
ENDMDL
