MODEL 1
REMARK minimizedAffinity -4.59108782
REMARK minimizedRMSD -1
REMARK  1 active torsions:
REMARK  status: ('A' for Active; 'I' for Inactive)
REMARK    1  A    between atoms: C1_2  and  C2_3 
ROOT
ATOM      1  C2  UNL d   1       0.262  -0.184  -0.819  0.00  0.00    -0.081 A 
ATOM      2  C3  UNL d   1      -1.113  -0.126  -0.559  0.00  0.00     0.006 A 
ATOM      3  C4  UNL d   1      -1.584   0.398   0.647  0.00  0.00     0.002 A 
ATOM      4  C5  UNL d   1      -0.690   0.879   1.609  0.00  0.00    -0.080 A 
ATOM      5  C6  UNL d   1      -1.184   1.471   2.896  0.00  0.00     0.076 C 
ATOM      6  C7  UNL d   1       0.684   0.804   1.358  0.00  0.00     0.002 A 
ATOM      7  C8  UNL d   1       1.156   0.280   0.152  0.00  0.00     0.006 A 
ENDROOT
BRANCH   1   8
ATOM      8  C1  UNL d   1       0.771  -0.689  -2.145  0.00  0.00     0.054 C 
ATOM      9  C   UNL d   1       1.106   0.462  -3.083  0.00  0.00     0.018 C 
ENDBRANCH   1   8
TORSDOF 1
ENDMDL
