MODEL 1
REMARK minimizedAffinity 14.5380764
REMARK minimizedRMSD -1
REMARK  0 active torsions:
REMARK  status: ('A' for Active; 'I' for Inactive)
ROOT
ATOM      1  C   UNL d   1      -1.338  -0.027   2.450  0.00  0.00     0.020 A 
ATOM      2  C1  UNL d   1      -1.265   1.289   1.994  0.00  0.00     0.020 A 
ATOM      3  C2  UNL d   1      -2.273   1.799   1.173  0.00  0.00     0.034 A 
ATOM      4  C3  UNL d   1      -3.357   0.994   0.805  0.00  0.00     0.017 A 
ATOM      5  C4  UNL d   1      -3.429  -0.326   1.264  0.00  0.00     0.017 A 
ATOM      6  C5  UNL d   1      -2.417  -0.833   2.086  0.00  0.00     0.034 A 
ATOM      7 Cl   UNL d   1      -4.735  -1.381   0.853  0.00  0.00    -0.070 Cl
ATOM      8 Cl1  UNL d   1      -4.567   1.691  -0.212  0.00  0.00    -0.070 Cl
ENDROOT
TORSDOF 0
ENDMDL
