MODEL 1
REMARK minimizedAffinity 7.18952894
REMARK minimizedRMSD -1
REMARK  0 active torsions:
REMARK  status: ('A' for Active; 'I' for Inactive)
ROOT
ATOM      1  C   UNL d   1      -6.000  -2.532   0.097  0.00  0.00     0.020 A 
ATOM      2  C1  UNL d   1      -4.915  -2.243   0.925  0.00  0.00     0.020 A 
ATOM      3  C2  UNL d   1      -3.829  -3.119   0.984  0.00  0.00     0.034 A 
ATOM      4  C3  UNL d   1      -3.826  -4.288   0.214  0.00  0.00     0.017 A 
ATOM      5  C4  UNL d   1      -4.915  -4.577  -0.616  0.00  0.00     0.017 A 
ATOM      6  C5  UNL d   1      -5.999  -3.696  -0.671  0.00  0.00     0.034 A 
ATOM      7 Cl   UNL d   1      -4.982  -6.000  -1.595  0.00  0.00    -0.070 Cl
ATOM      8 Cl1  UNL d   1      -2.450  -5.326   0.336  0.00  0.00    -0.070 Cl
ENDROOT
TORSDOF 0
ENDMDL
