MODEL 1
REMARK minimizedAffinity 11.6748867
REMARK minimizedRMSD -1
REMARK  0 active torsions:
REMARK  status: ('A' for Active; 'I' for Inactive)
ROOT
ATOM      1  C   UNL d   1      -5.999  -4.016   1.346  0.00  0.00     0.020 A 
ATOM      2  C1  UNL d   1      -5.871  -5.401   1.264  0.00  0.00     0.020 A 
ATOM      3  C2  UNL d   1      -5.436  -5.993   0.077  0.00  0.00     0.034 A 
ATOM      4  C3  UNL d   1      -5.129  -5.199  -1.034  0.00  0.00     0.017 A 
ATOM      5  C4  UNL d   1      -5.259  -3.808  -0.951  0.00  0.00     0.017 A 
ATOM      6  C5  UNL d   1      -5.694  -3.221   0.241  0.00  0.00     0.034 A 
ATOM      7 Cl   UNL d   1      -4.899  -2.763  -2.280  0.00  0.00    -0.070 Cl
ATOM      8 Cl1  UNL d   1      -4.598  -5.999  -2.471  0.00  0.00    -0.070 Cl
ENDROOT
TORSDOF 0
ENDMDL
