MODEL 1
REMARK minimizedAffinity 9.51269054
REMARK minimizedRMSD -1
REMARK  0 active torsions:
REMARK  status: ('A' for Active; 'I' for Inactive)
ROOT
ATOM      1  C   UNL d   1      -1.696  -0.645   1.516  0.00  0.00     0.020 A 
ATOM      2  C1  UNL d   1      -2.914  -0.024   1.240  0.00  0.00     0.020 A 
ATOM      3  C2  UNL d   1      -3.067   1.345   1.470  0.00  0.00     0.034 A 
ATOM      4  C3  UNL d   1      -2.001   2.097   1.978  0.00  0.00     0.017 A 
ATOM      5  C4  UNL d   1      -0.780   1.472   2.255  0.00  0.00     0.017 A 
ATOM      6  C5  UNL d   1      -0.631   0.102   2.022  0.00  0.00     0.034 A 
ATOM      7 Cl   UNL d   1       0.581   2.334   2.882  0.00  0.00    -0.070 Cl
ATOM      8 Cl1  UNL d   1      -2.261   3.785   2.238  0.00  0.00    -0.070 Cl
ENDROOT
TORSDOF 0
ENDMDL
