MODEL 1
REMARK minimizedAffinity 4.27656364
REMARK minimizedRMSD -1
REMARK  0 active torsions:
REMARK  status: ('A' for Active; 'I' for Inactive)
ROOT
ATOM      1  C   UNL d   1       2.146   0.424   1.767  0.00  0.00     0.020 A 
ATOM      2  C1  UNL d   1       0.944   0.764   2.386  0.00  0.00     0.020 A 
ATOM      3  C2  UNL d   1      -0.233   0.829   1.638  0.00  0.00     0.034 A 
ATOM      4  C3  UNL d   1      -0.212   0.553   0.266  0.00  0.00     0.017 A 
ATOM      5  C4  UNL d   1       0.995   0.212  -0.355  0.00  0.00     0.017 A 
ATOM      6  C5  UNL d   1       2.171   0.148   0.399  0.00  0.00     0.034 A 
ATOM      7 Cl   UNL d   1       1.101  -0.142  -2.044  0.00  0.00    -0.070 Cl
ATOM      8 Cl1  UNL d   1      -1.705   0.652  -0.597  0.00  0.00    -0.070 Cl
ENDROOT
TORSDOF 0
ENDMDL
