MODEL 1
REMARK minimizedAffinity -4.13807964
REMARK minimizedRMSD -1
REMARK  0 active torsions:
REMARK  status: ('A' for Active; 'I' for Inactive)
ROOT
ATOM      1  C   UNL d   1      -1.295  -1.930  -3.840  0.00  0.00     0.020 A 
ATOM      2  C1  UNL d   1       0.043  -1.625  -4.084  0.00  0.00     0.020 A 
ATOM      3  C2  UNL d   1       0.764  -0.860  -3.164  0.00  0.00     0.034 A 
ATOM      4  C3  UNL d   1       0.146  -0.397  -1.996  0.00  0.00     0.017 A 
ATOM      5  C4  UNL d   1      -1.197  -0.704  -1.753  0.00  0.00     0.017 A 
ATOM      6  C5  UNL d   1      -1.914  -1.471  -2.677  0.00  0.00     0.034 A 
ATOM      7 Cl   UNL d   1      -2.028  -0.170  -0.334  0.00  0.00    -0.070 Cl
ATOM      8 Cl1  UNL d   1       1.097   0.543  -0.903  0.00  0.00    -0.070 Cl
ENDROOT
TORSDOF 0
ENDMDL
