MODEL 1
REMARK minimizedAffinity -0.811455369
REMARK minimizedRMSD -1
REMARK  0 active torsions:
REMARK  status: ('A' for Active; 'I' for Inactive)
ROOT
ATOM      1  C   UNL d   1      -1.730  -5.393  -2.074  0.00  0.00     0.020 A 
ATOM      2  C1  UNL d   1      -2.784  -5.999  -1.392  0.00  0.00     0.020 A 
ATOM      3  C2  UNL d   1      -3.769  -5.215  -0.789  0.00  0.00     0.034 A 
ATOM      4  C3  UNL d   1      -3.703  -3.819  -0.868  0.00  0.00     0.017 A 
ATOM      5  C4  UNL d   1      -2.645  -3.211  -1.553  0.00  0.00     0.017 A 
ATOM      6  C5  UNL d   1      -1.661  -4.001  -2.155  0.00  0.00     0.034 A 
ATOM      7 Cl   UNL d   1      -2.496  -1.494  -1.693  0.00  0.00    -0.070 Cl
ATOM      8 Cl1  UNL d   1      -4.956  -2.911  -0.099  0.00  0.00    -0.070 Cl
ENDROOT
TORSDOF 0
ENDMDL
