MODEL 1
REMARK minimizedAffinity -4.40079689
REMARK minimizedRMSD -1
REMARK  0 active torsions:
REMARK  status: ('A' for Active; 'I' for Inactive)
ROOT
ATOM      1  C   UNL d   1      -1.613  -1.188  -0.371  0.00  0.00     0.020 A 
ATOM      2  C1  UNL d   1      -0.660  -0.917  -1.352  0.00  0.00     0.020 A 
ATOM      3  C2  UNL d   1       0.517  -0.244  -1.016  0.00  0.00     0.034 A 
ATOM      4  C3  UNL d   1       0.743   0.161   0.305  0.00  0.00     0.017 A 
ATOM      5  C4  UNL d   1      -0.215  -0.111   1.289  0.00  0.00     0.017 A 
ATOM      6  C5  UNL d   1      -1.391  -0.786   0.946  0.00  0.00     0.034 A 
ATOM      7 Cl   UNL d   1      -0.006   0.356   2.940  0.00  0.00    -0.070 Cl
ATOM      8 Cl1  UNL d   1       2.220   0.989   0.650  0.00  0.00    -0.070 Cl
ENDROOT
TORSDOF 0
ENDMDL
