MODEL 1
REMARK minimizedAffinity -3.10428214
REMARK minimizedRMSD -1
REMARK  0 active torsions:
REMARK  status: ('A' for Active; 'I' for Inactive)
ROOT
ATOM      1  C   UNL d   1      -3.150  -0.713  -1.440  0.00  0.00     0.020 A 
ATOM      2  C1  UNL d   1      -3.101  -1.753  -2.368  0.00  0.00     0.020 A 
ATOM      3  C2  UNL d   1      -1.879  -2.136  -2.923  0.00  0.00     0.034 A 
ATOM      4  C3  UNL d   1      -0.700  -1.480  -2.550  0.00  0.00     0.017 A 
ATOM      5  C4  UNL d   1      -0.750  -0.437  -1.619  0.00  0.00     0.017 A 
ATOM      6  C5  UNL d   1      -1.977  -0.057  -1.066  0.00  0.00     0.034 A 
ATOM      7 Cl   UNL d   1       0.662   0.420  -1.110  0.00  0.00    -0.070 Cl
ATOM      8 Cl1  UNL d   1       0.777  -2.007  -3.276  0.00  0.00    -0.070 Cl
ENDROOT
TORSDOF 0
ENDMDL
