MODEL 1
REMARK minimizedAffinity -4.1766963
REMARK minimizedRMSD -1
REMARK  0 active torsions:
REMARK  status: ('A' for Active; 'I' for Inactive)
ROOT
ATOM      1  C   UNL d   1       1.313   0.412  -2.600  0.00  0.00     0.020 A 
ATOM      2  C1  UNL d   1       1.371  -0.784  -3.314  0.00  0.00     0.020 A 
ATOM      3  C2  UNL d   1       0.324  -1.703  -3.224  0.00  0.00     0.034 A 
ATOM      4  C3  UNL d   1      -0.786  -1.428  -2.417  0.00  0.00     0.017 A 
ATOM      5  C4  UNL d   1      -0.843  -0.227  -1.700  0.00  0.00     0.017 A 
ATOM      6  C5  UNL d   1       0.208   0.690  -1.794  0.00  0.00     0.034 A 
ATOM      7 Cl   UNL d   1      -2.180   0.183  -0.684  0.00  0.00    -0.070 Cl
ATOM      8 Cl1  UNL d   1      -2.045  -2.609  -2.352  0.00  0.00    -0.070 Cl
ENDROOT
TORSDOF 0
ENDMDL
