MODEL 1
REMARK minimizedAffinity 0.0107075777
REMARK minimizedRMSD -1
REMARK  0 active torsions:
REMARK  status: ('A' for Active; 'I' for Inactive)
ROOT
ATOM      1  C   UNL d   1       2.658  -0.949  -3.096  0.00  0.00     0.020 A 
ATOM      2  C1  UNL d   1       1.918  -2.005  -3.628  0.00  0.00     0.020 A 
ATOM      3  C2  UNL d   1       0.623  -2.251  -3.168  0.00  0.00     0.034 A 
ATOM      4  C3  UNL d   1       0.063  -1.440  -2.174  0.00  0.00     0.017 A 
ATOM      5  C4  UNL d   1       0.805  -0.381  -1.641  0.00  0.00     0.017 A 
ATOM      6  C5  UNL d   1       2.102  -0.138  -2.105  0.00  0.00     0.034 A 
ATOM      7 Cl   UNL d   1       0.182   0.663  -0.412  0.00  0.00    -0.070 Cl
ATOM      8 Cl1  UNL d   1      -1.545  -1.802  -1.653  0.00  0.00    -0.070 Cl
ENDROOT
TORSDOF 0
ENDMDL
