MODEL 1
REMARK minimizedAffinity -5.2988925
REMARK minimizedRMSD -1
REMARK  0 active torsions:
REMARK  status: ('A' for Active; 'I' for Inactive)
ROOT
ATOM      1  C   UNL d   1      -1.868  -0.367  -0.994  0.00  0.00     0.020 A 
ATOM      2  C1  UNL d   1      -0.775   0.239  -1.612  0.00  0.00     0.020 A 
ATOM      3  C2  UNL d   1       0.404   0.450  -0.895  0.00  0.00     0.034 A 
ATOM      4  C3  UNL d   1       0.493   0.056   0.445  0.00  0.00     0.017 A 
ATOM      5  C4  UNL d   1      -0.605  -0.552   1.065  0.00  0.00     0.017 A 
ATOM      6  C5  UNL d   1      -1.783  -0.761   0.342  0.00  0.00     0.034 A 
ATOM      7 Cl   UNL d   1      -0.571  -1.066   2.715  0.00  0.00    -0.070 Cl
ATOM      8 Cl1  UNL d   1       1.982   0.348   1.272  0.00  0.00    -0.070 Cl
ENDROOT
TORSDOF 0
ENDMDL
