MODEL 1
REMARK minimizedAffinity -4.75588083
REMARK minimizedRMSD -1
REMARK  0 active torsions:
REMARK  status: ('A' for Active; 'I' for Inactive)
ROOT
ATOM      1  C   UNL d   1      -1.460  -0.323   2.553  0.00  0.00     0.020 A 
ATOM      2  C1  UNL d   1      -2.343  -0.299   1.474  0.00  0.00     0.020 A 
ATOM      3  C2  UNL d   1      -1.859  -0.103   0.179  0.00  0.00     0.034 A 
ATOM      4  C3  UNL d   1      -0.488   0.069  -0.041  0.00  0.00     0.017 A 
ATOM      5  C4  UNL d   1       0.399   0.044   1.042  0.00  0.00     0.017 A 
ATOM      6  C5  UNL d   1      -0.092  -0.152   2.337  0.00  0.00     0.034 A 
ATOM      7 Cl   UNL d   1       2.104   0.250   0.849  0.00  0.00    -0.070 Cl
ATOM      8 Cl1  UNL d   1       0.041   0.307  -1.669  0.00  0.00    -0.070 Cl
ENDROOT
TORSDOF 0
ENDMDL
