MODEL 1
REMARK minimizedAffinity -2.44216132
REMARK minimizedRMSD -1
REMARK  0 active torsions:
REMARK  status: ('A' for Active; 'I' for Inactive)
ROOT
ATOM      1  C   UNL d   1      -2.609  -1.584  -2.312  0.00  0.00     0.020 A 
ATOM      2  C1  UNL d   1      -2.812  -0.627  -1.318  0.00  0.00     0.020 A 
ATOM      3  C2  UNL d   1      -1.724   0.059  -0.777  0.00  0.00     0.034 A 
ATOM      4  C3  UNL d   1      -0.427  -0.209  -1.229  0.00  0.00     0.017 A 
ATOM      5  C4  UNL d   1      -0.224  -1.170  -2.227  0.00  0.00     0.017 A 
ATOM      6  C5  UNL d   1      -1.317  -1.855  -2.765  0.00  0.00     0.034 A 
ATOM      7 Cl   UNL d   1       1.347  -1.556  -2.836  0.00  0.00    -0.070 Cl
ATOM      8 Cl1  UNL d   1       0.873   0.678  -0.516  0.00  0.00    -0.070 Cl
ENDROOT
TORSDOF 0
ENDMDL
