MODEL 1
REMARK minimizedAffinity -4.33556795
REMARK minimizedRMSD -1
REMARK  0 active torsions:
REMARK  status: ('A' for Active; 'I' for Inactive)
ROOT
ATOM      1  C   UNL d   1       0.385   0.759   2.290  0.00  0.00     0.020 A 
ATOM      2  C1  UNL d   1      -0.906   0.330   2.597  0.00  0.00     0.020 A 
ATOM      3  C2  UNL d   1      -1.765  -0.084   1.577  0.00  0.00     0.034 A 
ATOM      4  C3  UNL d   1      -1.335  -0.068   0.245  0.00  0.00     0.017 A 
ATOM      5  C4  UNL d   1      -0.040   0.363  -0.062  0.00  0.00     0.017 A 
ATOM      6  C5  UNL d   1       0.816   0.776   0.964  0.00  0.00     0.034 A 
ATOM      7 Cl   UNL d   1       0.562   0.410  -1.681  0.00  0.00    -0.070 Cl
ATOM      8 Cl1  UNL d   1      -2.451  -0.594  -0.965  0.00  0.00    -0.070 Cl
ENDROOT
TORSDOF 0
ENDMDL
