MODEL 1
REMARK minimizedAffinity -1.67027748
REMARK minimizedRMSD -1
REMARK  0 active torsions:
REMARK  status: ('A' for Active; 'I' for Inactive)
ROOT
ATOM      1  C   UNL d   1      -0.504   0.749  -1.188  0.00  0.00     0.020 A 
ATOM      2  C1  UNL d   1      -1.585   0.580  -0.323  0.00  0.00     0.020 A 
ATOM      3  C2  UNL d   1      -1.367   0.450   1.050  0.00  0.00     0.034 A 
ATOM      4  C3  UNL d   1      -0.065   0.489   1.563  0.00  0.00     0.017 A 
ATOM      5  C4  UNL d   1       1.019   0.658   0.694  0.00  0.00     0.017 A 
ATOM      6  C5  UNL d   1       0.795   0.788  -0.680  0.00  0.00     0.034 A 
ATOM      7 Cl   UNL d   1       2.654   0.716   1.252  0.00  0.00    -0.070 Cl
ATOM      8 Cl1  UNL d   1       0.131   0.322   3.271  0.00  0.00    -0.070 Cl
ENDROOT
TORSDOF 0
ENDMDL
