MODEL 1
REMARK minimizedAffinity -5.30450058
REMARK minimizedRMSD -1
REMARK  0 active torsions:
REMARK  status: ('A' for Active; 'I' for Inactive)
ROOT
ATOM      1  C   UNL d   1       0.164   0.176   1.993  0.00  0.00     0.020 A 
ATOM      2  C1  UNL d   1      -1.189  -0.146   2.090  0.00  0.00     0.020 A 
ATOM      3  C2  UNL d   1      -1.972  -0.221   0.936  0.00  0.00     0.034 A 
ATOM      4  C3  UNL d   1      -1.404   0.027  -0.318  0.00  0.00     0.017 A 
ATOM      5  C4  UNL d   1      -0.046   0.351  -0.414  0.00  0.00     0.017 A 
ATOM      6  C5  UNL d   1       0.735   0.425   0.744  0.00  0.00     0.034 A 
ATOM      7 Cl   UNL d   1       0.727   0.671  -1.927  0.00  0.00    -0.070 Cl
ATOM      8 Cl1  UNL d   1      -2.432  -0.083  -1.703  0.00  0.00    -0.070 Cl
ENDROOT
TORSDOF 0
ENDMDL
