MODEL 1
REMARK minimizedAffinity -5.89760351
REMARK minimizedRMSD -1
REMARK  0 active torsions:
REMARK  status: ('A' for Active; 'I' for Inactive)
ROOT
ATOM      1  C   UNL d   1      -3.185  -0.836   1.006  0.00  0.00     0.020 A 
ATOM      2  C1  UNL d   1      -3.415  -0.446  -0.313  0.00  0.00     0.020 A 
ATOM      3  C2  UNL d   1      -2.370   0.077  -1.078  0.00  0.00     0.034 A 
ATOM      4  C3  UNL d   1      -1.091   0.211  -0.526  0.00  0.00     0.017 A 
ATOM      5  C4  UNL d   1      -0.862  -0.181   0.798  0.00  0.00     0.017 A 
ATOM      6  C5  UNL d   1      -1.911  -0.704   1.560  0.00  0.00     0.034 A 
ATOM      7 Cl   UNL d   1       0.689  -0.046   1.549  0.00  0.00    -0.070 Cl
ATOM      8 Cl1  UNL d   1       0.154   0.864  -1.530  0.00  0.00    -0.070 Cl
ENDROOT
TORSDOF 0
ENDMDL
