MODEL 1
REMARK minimizedAffinity 10.3122377
REMARK minimizedRMSD -1
REMARK  1 active torsions:
REMARK  status: ('A' for Active; 'I' for Inactive)
REMARK    1  A    between atoms: C1_2  and  C2_3 
ROOT
ATOM      1  C2  UNL d   1      -3.973  -4.245  -2.135  0.00  0.00    -0.081 A 
ATOM      2  C3  UNL d   1      -3.770  -5.092  -1.039  0.00  0.00     0.006 A 
ATOM      3  C4  UNL d   1      -2.967  -4.689   0.030  0.00  0.00     0.002 A 
ATOM      4  C5  UNL d   1      -2.359  -3.429   0.024  0.00  0.00    -0.080 A 
ATOM      5  C6  UNL d   1      -1.519  -2.971   1.179  0.00  0.00     0.076 C 
ATOM      6  C7  UNL d   1      -2.547  -2.588  -1.078  0.00  0.00     0.002 A 
ATOM      7  C8  UNL d   1      -3.350  -2.992  -2.148  0.00  0.00     0.006 A 
ENDROOT
BRANCH   1   8
ATOM      8  C1  UNL d   1      -4.891  -4.651  -3.259  0.00  0.00     0.054 C 
ATOM      9  C   UNL d   1      -5.540  -6.000  -2.984  0.00  0.00     0.018 C 
ENDBRANCH   1   8
TORSDOF 1
ENDMDL
