MODEL 1
REMARK minimizedAffinity 9.34601974
REMARK minimizedRMSD -1
REMARK  1 active torsions:
REMARK  status: ('A' for Active; 'I' for Inactive)
REMARK    1  A    between atoms: C1_2  and  C2_3 
ROOT
ATOM      1  C2  UNL d   1      -5.173   4.530   4.048  0.00  0.00    -0.081 A 
ATOM      2  C3  UNL d   1      -5.092   4.080   2.724  0.00  0.00     0.006 A 
ATOM      3  C4  UNL d   1      -4.379   2.920   2.413  0.00  0.00     0.002 A 
ATOM      4  C5  UNL d   1      -3.743   2.186   3.420  0.00  0.00    -0.080 A 
ATOM      5  C6  UNL d   1      -3.000   0.922   3.104  0.00  0.00     0.076 C 
ATOM      6  C7  UNL d   1      -3.810   2.645   4.740  0.00  0.00     0.002 A 
ATOM      7  C8  UNL d   1      -4.522   3.805   5.052  0.00  0.00     0.006 A 
ENDROOT
BRANCH   1   8
ATOM      8  C1  UNL d   1      -5.995   5.745   4.395  0.00  0.00     0.054 C 
ATOM      9  C   UNL d   1      -5.999   6.000   5.896  0.00  0.00     0.018 C 
ENDBRANCH   1   8
TORSDOF 1
ENDMDL
