MODEL 1
REMARK minimizedAffinity 4.02648067
REMARK minimizedRMSD -1
REMARK  1 active torsions:
REMARK  status: ('A' for Active; 'I' for Inactive)
REMARK    1  A    between atoms: C1_2  and  C2_3 
ROOT
ATOM      1  C2  UNL d   1      -1.899  -2.289  -3.688  0.00  0.00    -0.081 A 
ATOM      2  C3  UNL d   1      -1.290  -1.492  -2.712  0.00  0.00     0.006 A 
ATOM      3  C4  UNL d   1      -1.640  -1.628  -1.366  0.00  0.00     0.002 A 
ATOM      4  C5  UNL d   1      -2.599  -2.568  -0.974  0.00  0.00    -0.080 A 
ATOM      5  C6  UNL d   1      -2.962  -2.746   0.470  0.00  0.00     0.076 C 
ATOM      6  C7  UNL d   1      -3.220  -3.353  -1.952  0.00  0.00     0.002 A 
ATOM      7  C8  UNL d   1      -2.870  -3.217  -3.297  0.00  0.00     0.006 A 
ENDROOT
BRANCH   1   8
ATOM      8  C1  UNL d   1      -1.476  -2.190  -5.132  0.00  0.00     0.054 C 
ATOM      9  C   UNL d   1      -1.115  -3.556  -5.698  0.00  0.00     0.018 C 
ENDBRANCH   1   8
TORSDOF 1
ENDMDL
