MODEL 1
REMARK minimizedAffinity 12.1446018
REMARK minimizedRMSD -1
REMARK  1 active torsions:
REMARK  status: ('A' for Active; 'I' for Inactive)
REMARK    1  A    between atoms: C1_2  and  C2_3 
ROOT
ATOM      1  C2  UNL d   1      -5.222   4.337   2.035  0.00  0.00    -0.081 A 
ATOM      2  C3  UNL d   1      -4.494   3.683   1.033  0.00  0.00     0.006 A 
ATOM      3  C4  UNL d   1      -4.516   4.155  -0.281  0.00  0.00     0.002 A 
ATOM      4  C5  UNL d   1      -5.258   5.294  -0.614  0.00  0.00    -0.080 A 
ATOM      5  C6  UNL d   1      -5.265   5.829  -2.015  0.00  0.00     0.076 C 
ATOM      6  C7  UNL d   1      -5.998   5.938   0.383  0.00  0.00     0.002 A 
ATOM      7  C8  UNL d   1      -5.978   5.465   1.697  0.00  0.00     0.006 A 
ENDROOT
BRANCH   1   8
ATOM      8  C1  UNL d   1      -5.149   3.868   3.465  0.00  0.00     0.054 C 
ATOM      9  C   UNL d   1      -5.137   5.043   4.433  0.00  0.00     0.018 C 
ENDBRANCH   1   8
TORSDOF 1
ENDMDL
