MODEL 1
REMARK minimizedAffinity 3.99566317
REMARK minimizedRMSD -1
REMARK  1 active torsions:
REMARK  status: ('A' for Active; 'I' for Inactive)
REMARK    1  A    between atoms: C1_2  and  C2_3 
ROOT
ATOM      1  C2  UNL d   1      -4.742  -4.891  -3.472  0.00  0.00    -0.081 A 
ATOM      2  C3  UNL d   1      -4.256  -3.664  -3.002  0.00  0.00     0.006 A 
ATOM      3  C4  UNL d   1      -3.756  -3.552  -1.703  0.00  0.00     0.002 A 
ATOM      4  C5  UNL d   1      -3.726  -4.664  -0.855  0.00  0.00    -0.080 A 
ATOM      5  C6  UNL d   1      -3.164  -4.564   0.532  0.00  0.00     0.076 C 
ATOM      6  C7  UNL d   1      -4.228  -5.885  -1.318  0.00  0.00     0.002 A 
ATOM      7  C8  UNL d   1      -4.729  -5.998  -2.617  0.00  0.00     0.006 A 
ENDROOT
BRANCH   1   8
ATOM      8  C1  UNL d   1      -5.222  -5.031  -4.894  0.00  0.00     0.054 C 
ATOM      9  C   UNL d   1      -4.077  -4.868  -5.883  0.00  0.00     0.018 C 
ENDBRANCH   1   8
TORSDOF 1
ENDMDL
