MODEL 1
REMARK minimizedAffinity 13.1723337
REMARK minimizedRMSD -1
REMARK  1 active torsions:
REMARK  status: ('A' for Active; 'I' for Inactive)
REMARK    1  A    between atoms: C1_2  and  C2_3 
ROOT
ATOM      1  C2  UNL d   1      -4.199  -4.197  -1.398  0.00  0.00    -0.081 A 
ATOM      2  C3  UNL d   1      -3.981  -5.169  -0.414  0.00  0.00     0.006 A 
ATOM      3  C4  UNL d   1      -3.056  -4.946   0.609  0.00  0.00     0.002 A 
ATOM      4  C5  UNL d   1      -2.342  -3.745   0.671  0.00  0.00    -0.080 A 
ATOM      5  C6  UNL d   1      -1.369  -3.481   1.781  0.00  0.00     0.076 C 
ATOM      6  C7  UNL d   1      -2.547  -2.781  -0.322  0.00  0.00     0.002 A 
ATOM      7  C8  UNL d   1      -3.470  -3.004  -1.346  0.00  0.00     0.006 A 
ENDROOT
BRANCH   1   8
ATOM      8  C1  UNL d   1      -5.242  -4.408  -2.466  0.00  0.00     0.054 C 
ATOM      9  C   UNL d   1      -4.705  -5.268  -3.601  0.00  0.00     0.018 C 
ENDBRANCH   1   8
TORSDOF 1
ENDMDL
