MODEL 1
REMARK minimizedAffinity -0.0844654515
REMARK minimizedRMSD -1
REMARK  1 active torsions:
REMARK  status: ('A' for Active; 'I' for Inactive)
REMARK    1  A    between atoms: C1_2  and  C2_3 
ROOT
ATOM      1  C2  UNL d   1      -0.842  -1.771   0.467  0.00  0.00    -0.081 A 
ATOM      2  C3  UNL d   1      -1.630  -1.425  -0.638  0.00  0.00     0.006 A 
ATOM      3  C4  UNL d   1      -1.991  -2.392  -1.580  0.00  0.00     0.002 A 
ATOM      4  C5  UNL d   1      -1.579  -3.720  -1.428  0.00  0.00    -0.080 A 
ATOM      5  C6  UNL d   1      -1.985  -4.773  -2.416  0.00  0.00     0.076 C 
ATOM      6  C7  UNL d   1      -0.778  -4.061  -0.334  0.00  0.00     0.002 A 
ATOM      7  C8  UNL d   1      -0.415  -3.095   0.608  0.00  0.00     0.006 A 
ENDROOT
BRANCH   1   8
ATOM      8  C1  UNL d   1      -0.505  -0.744   1.518  0.00  0.00     0.054 C 
ATOM      9  C   UNL d   1       0.607   0.184   1.049  0.00  0.00     0.018 C 
ENDBRANCH   1   8
TORSDOF 1
ENDMDL
