MODEL 1
REMARK minimizedAffinity -4.28781271
REMARK minimizedRMSD -1
REMARK  1 active torsions:
REMARK  status: ('A' for Active; 'I' for Inactive)
REMARK    1  A    between atoms: C1_2  and  C2_3 
ROOT
ATOM      1  C2  UNL d   1       5.602   5.129   3.696  0.00  0.00    -0.081 A 
ATOM      2  C3  UNL d   1       4.790   5.657   2.685  0.00  0.00     0.006 A 
ATOM      3  C4  UNL d   1       4.376   4.856   1.618  0.00  0.00     0.002 A 
ATOM      4  C5  UNL d   1       4.759   3.513   1.548  0.00  0.00    -0.080 A 
ATOM      5  C6  UNL d   1       4.297   2.634   0.424  0.00  0.00     0.076 C 
ATOM      6  C7  UNL d   1       5.585   2.989   2.549  0.00  0.00     0.002 A 
ATOM      7  C8  UNL d   1       6.000   3.790   3.616  0.00  0.00     0.006 A 
ENDROOT
BRANCH   1   8
ATOM      8  C1  UNL d   1       5.997   5.973   4.881  0.00  0.00     0.054 C 
ATOM      9  C   UNL d   1       4.914   5.966   5.950  0.00  0.00     0.018 C 
ENDBRANCH   1   8
TORSDOF 1
ENDMDL
