MODEL 1
REMARK minimizedAffinity 4.14377594
REMARK minimizedRMSD -1
REMARK  1 active torsions:
REMARK  status: ('A' for Active; 'I' for Inactive)
REMARK    1  A    between atoms: C1_2  and  C2_3 
ROOT
ATOM      1  C2  UNL d   1      -2.604  -3.058  -3.869  0.00  0.00    -0.081 A 
ATOM      2  C3  UNL d   1      -2.788  -3.084  -2.481  0.00  0.00     0.006 A 
ATOM      3  C4  UNL d   1      -3.772  -3.895  -1.912  0.00  0.00     0.002 A 
ATOM      4  C5  UNL d   1      -4.583  -4.699  -2.719  0.00  0.00    -0.080 A 
ATOM      5  C6  UNL d   1      -5.623  -5.598  -2.119  0.00  0.00     0.076 C 
ATOM      6  C7  UNL d   1      -4.412  -4.660  -4.107  0.00  0.00     0.002 A 
ATOM      7  C8  UNL d   1      -3.428  -3.849  -4.677  0.00  0.00     0.006 A 
ENDROOT
BRANCH   1   8
ATOM      8  C1  UNL d   1      -1.501  -2.233  -4.481  0.00  0.00     0.054 C 
ATOM      9  C   UNL d   1      -1.513  -2.333  -6.000  0.00  0.00     0.018 C 
ENDBRANCH   1   8
TORSDOF 1
ENDMDL
