MODEL 1
REMARK minimizedAffinity 1.61464846
REMARK minimizedRMSD -1
REMARK  1 active torsions:
REMARK  status: ('A' for Active; 'I' for Inactive)
REMARK    1  A    between atoms: C1_2  and  C2_3 
ROOT
ATOM      1  C2  UNL d   1      -3.454  -4.913  -4.850  0.00  0.00    -0.081 A 
ATOM      2  C3  UNL d   1      -4.847  -4.918  -4.990  0.00  0.00     0.006 A 
ATOM      3  C4  UNL d   1      -5.666  -5.279  -3.918  0.00  0.00     0.002 A 
ATOM      4  C5  UNL d   1      -5.106  -5.634  -2.686  0.00  0.00    -0.080 A 
ATOM      5  C6  UNL d   1      -5.974  -5.995  -1.517  0.00  0.00     0.076 C 
ATOM      6  C7  UNL d   1      -3.713  -5.647  -2.550  0.00  0.00     0.002 A 
ATOM      7  C8  UNL d   1      -2.894  -5.286  -3.623  0.00  0.00     0.006 A 
ENDROOT
BRANCH   1   8
ATOM      8  C1  UNL d   1      -2.570  -4.462  -5.985  0.00  0.00     0.054 C 
ATOM      9  C   UNL d   1      -2.074  -3.039  -5.768  0.00  0.00     0.018 C 
ENDBRANCH   1   8
TORSDOF 1
ENDMDL
