MODEL 1
REMARK minimizedAffinity 7.77481699
REMARK minimizedRMSD -1
REMARK  1 active torsions:
REMARK  status: ('A' for Active; 'I' for Inactive)
REMARK    1  A    between atoms: C1_2  and  C2_3 
ROOT
ATOM      1  C2  UNL d   1       1.426  -2.940  -5.965  0.00  0.00    -0.081 A 
ATOM      2  C3  UNL d   1       0.643  -1.780  -5.979  0.00  0.00     0.006 A 
ATOM      3  C4  UNL d   1      -0.751  -1.867  -5.998  0.00  0.00     0.002 A 
ATOM      4  C5  UNL d   1      -1.385  -3.114  -5.996  0.00  0.00    -0.080 A 
ATOM      5  C6  UNL d   1      -2.881  -3.221  -5.985  0.00  0.00     0.076 C 
ATOM      6  C7  UNL d   1      -0.602  -4.273  -6.000  0.00  0.00     0.002 A 
ATOM      7  C8  UNL d   1       0.792  -4.187  -5.982  0.00  0.00     0.006 A 
ENDROOT
BRANCH   1   8
ATOM      8  C1  UNL d   1       2.928  -2.849  -5.880  0.00  0.00     0.054 C 
ATOM      9  C   UNL d   1       3.527  -4.121  -5.296  0.00  0.00     0.018 C 
ENDBRANCH   1   8
TORSDOF 1
ENDMDL
