MODEL 1
REMARK minimizedAffinity 12.2407894
REMARK minimizedRMSD -1
REMARK  1 active torsions:
REMARK  status: ('A' for Active; 'I' for Inactive)
REMARK    1  A    between atoms: C1_2  and  C2_3 
ROOT
ATOM      1  C2  UNL d   1      -0.389  -3.004  -5.895  0.00  0.00    -0.081 A 
ATOM      2  C3  UNL d   1       0.605  -2.021  -5.812  0.00  0.00     0.006 A 
ATOM      3  C4  UNL d   1       1.955  -2.380  -5.779  0.00  0.00     0.002 A 
ATOM      4  C5  UNL d   1       2.333  -3.726  -5.837  0.00  0.00    -0.080 A 
ATOM      5  C6  UNL d   1       3.779  -4.123  -5.833  0.00  0.00     0.076 C 
ATOM      6  C7  UNL d   1       1.339  -4.709  -5.903  0.00  0.00     0.002 A 
ATOM      7  C8  UNL d   1      -0.010  -4.350  -5.935  0.00  0.00     0.006 A 
ENDROOT
BRANCH   1   8
ATOM      8  C1  UNL d   1      -1.842  -2.617  -5.996  0.00  0.00     0.054 C 
ATOM      9  C   UNL d   1      -2.744  -3.843  -5.972  0.00  0.00     0.018 C 
ENDBRANCH   1   8
TORSDOF 1
ENDMDL
