MODEL 1
REMARK minimizedAffinity 13.6519804
REMARK minimizedRMSD -1
REMARK  1 active torsions:
REMARK  status: ('A' for Active; 'I' for Inactive)
REMARK    1  A    between atoms: C1_2  and  C2_3 
ROOT
ATOM      1  C2  UNL d   1       1.205   1.260   1.960  0.00  0.00    -0.081 A 
ATOM      2  C3  UNL d   1       1.598   0.059   2.565  0.00  0.00     0.006 A 
ATOM      3  C4  UNL d   1       2.849  -0.497   2.289  0.00  0.00     0.002 A 
ATOM      4  C5  UNL d   1       3.731   0.141   1.410  0.00  0.00    -0.080 A 
ATOM      5  C6  UNL d   1       5.089  -0.430   1.128  0.00  0.00     0.076 C 
ATOM      6  C7  UNL d   1       3.332   1.331   0.792  0.00  0.00     0.002 A 
ATOM      7  C8  UNL d   1       2.081   1.887   1.068  0.00  0.00     0.006 A 
ENDROOT
BRANCH   1   8
ATOM      8  C1  UNL d   1      -0.117   1.896   2.306  0.00  0.00     0.054 C 
ATOM      9  C   UNL d   1      -0.472   3.002   1.323  0.00  0.00     0.018 C 
ENDBRANCH   1   8
TORSDOF 1
ENDMDL
