MODEL 1
REMARK minimizedAffinity -3.84360147
REMARK minimizedRMSD -1
REMARK  0 active torsions:
REMARK  status: ('A' for Active; 'I' for Inactive)
ROOT
ATOM      1  C   UNL d   1      -2.445   0.954   1.198  0.00  0.00     0.124 A 
ATOM      2  C1  UNL d   1      -1.832   1.051  -0.044  0.00  0.00     0.062 A 
ATOM      3  C2  UNL d   1      -0.486   0.726  -0.188  0.00  0.00     0.162 A 
ATOM      4  C3  UNL d   1       0.256   0.299   0.913  0.00  0.00    -0.034 A 
ATOM      5  C4  UNL d   1      -0.367   0.205   2.159  0.00  0.00     0.162 A 
ATOM      6  C5  UNL d   1      -1.712   0.531   2.297  0.00  0.00     0.062 A 
ATOM      7  F   UNL d   1      -2.302   0.437   3.498  0.00  0.00    -0.097 F 
ATOM      8  F1  UNL d   1       0.318  -0.202   3.238  0.00  0.00    -0.096 F 
ATOM      9  I   UNL d   1       2.268  -0.189   0.701  0.00  0.00    -0.060 I 
ATOM     10  F2  UNL d   1       0.080   0.829  -1.400  0.00  0.00    -0.096 F 
ATOM     11  F3  UNL d   1      -2.538   1.461  -1.108  0.00  0.00    -0.097 F 
ATOM     12  F4  UNL d   1      -3.739   1.269   1.334  0.00  0.00    -0.092 F 
ENDROOT
TORSDOF 0
ENDMDL
