MODEL 1
REMARK minimizedAffinity 0.13591747
REMARK minimizedRMSD -1
REMARK  0 active torsions:
REMARK  status: ('A' for Active; 'I' for Inactive)
ROOT
ATOM      1  C   UNL d   1      -1.296   0.496   2.188  0.00  0.00     0.124 A 
ATOM      2  C1  UNL d   1       0.031   0.109   2.061  0.00  0.00     0.062 A 
ATOM      3  C2  UNL d   1       0.621   0.032   0.802  0.00  0.00     0.162 A 
ATOM      4  C3  UNL d   1      -0.116   0.344  -0.340  0.00  0.00    -0.034 A 
ATOM      5  C4  UNL d   1      -1.451   0.731  -0.205  0.00  0.00     0.162 A 
ATOM      6  C5  UNL d   1      -2.035   0.806   1.056  0.00  0.00     0.062 A 
ATOM      7  F   UNL d   1      -3.317   1.180   1.176  0.00  0.00    -0.097 F 
ATOM      8  F1  UNL d   1      -2.188   1.038  -1.282  0.00  0.00    -0.096 F 
ATOM      9  I   UNL d   1       0.761   0.230  -2.224  0.00  0.00    -0.060 I 
ATOM     10  F2  UNL d   1       1.905  -0.345   0.709  0.00  0.00    -0.096 F 
ATOM     11  F3  UNL d   1       0.748  -0.193   3.153  0.00  0.00    -0.097 F 
ATOM     12  F4  UNL d   1      -1.861   0.568   3.400  0.00  0.00    -0.092 F 
ENDROOT
TORSDOF 0
ENDMDL
