MODEL 1
REMARK minimizedAffinity 1.65259433
REMARK minimizedRMSD -1
REMARK  0 active torsions:
REMARK  status: ('A' for Active; 'I' for Inactive)
ROOT
ATOM      1  C   UNL d   1      -1.089   0.404   1.974  0.00  0.00     0.124 A 
ATOM      2  C1  UNL d   1      -1.841   0.580   0.821  0.00  0.00     0.062 A 
ATOM      3  C2  UNL d   1      -1.239   0.475  -0.430  0.00  0.00     0.162 A 
ATOM      4  C3  UNL d   1       0.123   0.192  -0.534  0.00  0.00    -0.034 A 
ATOM      5  C4  UNL d   1       0.873   0.018   0.630  0.00  0.00     0.162 A 
ATOM      6  C5  UNL d   1       0.267   0.123   1.878  0.00  0.00     0.062 A 
ATOM      7  F   UNL d   1       0.995  -0.047   2.991  0.00  0.00    -0.097 F 
ATOM      8  F1  UNL d   1       2.185  -0.255   0.566  0.00  0.00    -0.096 F 
ATOM      9  I   UNL d   1       1.026   0.035  -2.402  0.00  0.00    -0.060 I 
ATOM     10  F2  UNL d   1      -1.990   0.650  -1.527  0.00  0.00    -0.096 F 
ATOM     11  F3  UNL d   1      -3.150   0.852   0.912  0.00  0.00    -0.097 F 
ATOM     12  F4  UNL d   1      -1.670   0.506   3.177  0.00  0.00    -0.092 F 
ENDROOT
TORSDOF 0
ENDMDL
