MODEL 1
REMARK minimizedAffinity 1.71468508
REMARK minimizedRMSD -1
REMARK  0 active torsions:
REMARK  status: ('A' for Active; 'I' for Inactive)
ROOT
ATOM      1  C   UNL d   1       1.388  -1.622  -3.865  0.00  0.00     0.124 A 
ATOM      2  C1  UNL d   1       1.167  -0.258  -3.741  0.00  0.00     0.062 A 
ATOM      3  C2  UNL d   1       0.819   0.285  -2.507  0.00  0.00     0.162 A 
ATOM      4  C3  UNL d   1       0.690  -0.536  -1.388  0.00  0.00    -0.034 A 
ATOM      5  C4  UNL d   1       0.912  -1.908  -1.521  0.00  0.00     0.162 A 
ATOM      6  C5  UNL d   1       1.260  -2.446  -2.756  0.00  0.00     0.062 A 
ATOM      7  F   UNL d   1       1.472  -3.765  -2.874  0.00  0.00    -0.097 F 
ATOM      8  F1  UNL d   1       0.797  -2.727  -0.465  0.00  0.00    -0.096 F 
ATOM      9  I   UNL d   1       0.170   0.272   0.458  0.00  0.00    -0.060 I 
ATOM     10  F2  UNL d   1       0.613   1.608  -2.416  0.00  0.00    -0.096 F 
ATOM     11  F3  UNL d   1       1.289   0.540  -4.811  0.00  0.00    -0.097 F 
ATOM     12  F4  UNL d   1       1.721  -2.142  -5.054  0.00  0.00    -0.092 F 
ENDROOT
TORSDOF 0
ENDMDL
