MODEL 1
REMARK minimizedAffinity 2.1363132
REMARK minimizedRMSD -1
REMARK  0 active torsions:
REMARK  status: ('A' for Active; 'I' for Inactive)
ROOT
ATOM      1  C   UNL d   1       1.302  -0.922  -2.834  0.00  0.00     0.124 A 
ATOM      2  C1  UNL d   1       1.624   0.298  -2.255  0.00  0.00     0.062 A 
ATOM      3  C2  UNL d   1       1.206   0.589  -0.960  0.00  0.00     0.162 A 
ATOM      4  C3  UNL d   1       0.461  -0.341  -0.234  0.00  0.00    -0.034 A 
ATOM      5  C4  UNL d   1       0.140  -1.564  -0.824  0.00  0.00     0.162 A 
ATOM      6  C5  UNL d   1       0.560  -1.851  -2.119  0.00  0.00     0.062 A 
ATOM      7  F   UNL d   1       0.248  -3.030  -2.677  0.00  0.00    -0.097 F 
ATOM      8  F1  UNL d   1      -0.574  -2.481  -0.155  0.00  0.00    -0.096 F 
ATOM      9  I   UNL d   1      -0.166   0.092   1.703  0.00  0.00    -0.060 I 
ATOM     10  F2  UNL d   1       1.531   1.776  -0.425  0.00  0.00    -0.096 F 
ATOM     11  F3  UNL d   1       2.339   1.198  -2.945  0.00  0.00    -0.097 F 
ATOM     12  F4  UNL d   1       1.704  -1.200  -4.081  0.00  0.00    -0.092 F 
ENDROOT
TORSDOF 0
ENDMDL
