MODEL 1
REMARK minimizedAffinity 2.64604974
REMARK minimizedRMSD -1
REMARK  0 active torsions:
REMARK  status: ('A' for Active; 'I' for Inactive)
ROOT
ATOM      1  C   UNL d   1       0.284   0.226  -2.628  0.00  0.00     0.124 A 
ATOM      2  C1  UNL d   1      -0.915   0.426  -1.957  0.00  0.00     0.062 A 
ATOM      3  C2  UNL d   1      -0.943   0.448  -0.566  0.00  0.00     0.162 A 
ATOM      4  C3  UNL d   1       0.231   0.270   0.165  0.00  0.00    -0.034 A 
ATOM      5  C4  UNL d   1       1.433   0.069  -0.516  0.00  0.00     0.162 A 
ATOM      6  C5  UNL d   1       1.456   0.048  -1.907  0.00  0.00     0.062 A 
ATOM      7  F   UNL d   1       2.616  -0.146  -2.553  0.00  0.00    -0.097 F 
ATOM      8  F1  UNL d   1       2.581  -0.105   0.155  0.00  0.00    -0.096 F 
ATOM      9  I   UNL d   1       0.193   0.303   2.246  0.00  0.00    -0.060 I 
ATOM     10  F2  UNL d   1      -2.116   0.643   0.055  0.00  0.00    -0.096 F 
ATOM     11  F3  UNL d   1      -2.049   0.598  -2.652  0.00  0.00    -0.097 F 
ATOM     12  F4  UNL d   1       0.309   0.204  -3.967  0.00  0.00    -0.092 F 
ENDROOT
TORSDOF 0
ENDMDL
