MODEL 1
REMARK minimizedAffinity 0.663798392
REMARK minimizedRMSD -1
REMARK  0 active torsions:
REMARK  status: ('A' for Active; 'I' for Inactive)
ROOT
ATOM      1  C   UNL d   1       1.594  -0.055   1.266  0.00  0.00     0.124 A 
ATOM      2  C1  UNL d   1       0.887   0.092   2.451  0.00  0.00     0.062 A 
ATOM      3  C2  UNL d   1      -0.486   0.315   2.424  0.00  0.00     0.162 A 
ATOM      4  C3  UNL d   1      -1.163   0.391   1.207  0.00  0.00    -0.034 A 
ATOM      5  C4  UNL d   1      -0.445   0.244   0.019  0.00  0.00     0.162 A 
ATOM      6  C5  UNL d   1       0.928   0.021   0.051  0.00  0.00     0.062 A 
ATOM      7  F   UNL d   1       1.609  -0.121  -1.095  0.00  0.00    -0.097 F 
ATOM      8  F1  UNL d   1      -1.064   0.312  -1.169  0.00  0.00    -0.096 F 
ATOM      9  I   UNL d   1      -3.217   0.725   1.162  0.00  0.00    -0.060 I 
ATOM     10  F2  UNL d   1      -1.144   0.453   3.585  0.00  0.00    -0.096 F 
ATOM     11  F3  UNL d   1       1.529   0.019   3.626  0.00  0.00    -0.097 F 
ATOM     12  F4  UNL d   1       2.916  -0.269   1.295  0.00  0.00    -0.092 F 
ENDROOT
TORSDOF 0
ENDMDL
