MODEL 1
REMARK minimizedAffinity -1.26669776
REMARK minimizedRMSD -1
REMARK  0 active torsions:
REMARK  status: ('A' for Active; 'I' for Inactive)
ROOT
ATOM      1  C   UNL d   1      -0.986   0.509   2.143  0.00  0.00     0.124 A 
ATOM      2  C1  UNL d   1      -1.748   0.747   1.008  0.00  0.00     0.062 A 
ATOM      3  C2  UNL d   1      -1.168   0.665  -0.255  0.00  0.00     0.162 A 
ATOM      4  C3  UNL d   1       0.182   0.343  -0.389  0.00  0.00    -0.034 A 
ATOM      5  C4  UNL d   1       0.943   0.106   0.757  0.00  0.00     0.162 A 
ATOM      6  C5  UNL d   1       0.359   0.189   2.016  0.00  0.00     0.062 A 
ATOM      7  F   UNL d   1       1.097  -0.041   3.112  0.00  0.00    -0.097 F 
ATOM      8  F1  UNL d   1       2.244  -0.207   0.663  0.00  0.00    -0.096 F 
ATOM      9  I   UNL d   1       1.053   0.219  -2.276  0.00  0.00    -0.060 I 
ATOM     10  F2  UNL d   1      -1.929   0.900  -1.334  0.00  0.00    -0.096 F 
ATOM     11  F3  UNL d   1      -3.047   1.057   1.127  0.00  0.00    -0.097 F 
ATOM     12  F4  UNL d   1      -1.546   0.589   3.357  0.00  0.00    -0.092 F 
ENDROOT
TORSDOF 0
ENDMDL
