MODEL 1
REMARK minimizedAffinity -0.64964056
REMARK minimizedRMSD -1
REMARK  0 active torsions:
REMARK  status: ('A' for Active; 'I' for Inactive)
ROOT
ATOM      1  C   UNL d   1      -1.478   0.777   1.906  0.00  0.00     0.124 A 
ATOM      2  C1  UNL d   1      -2.117   0.756   0.674  0.00  0.00     0.062 A 
ATOM      3  C2  UNL d   1      -1.391   0.507  -0.487  0.00  0.00     0.162 A 
ATOM      4  C3  UNL d   1      -0.017   0.275  -0.422  0.00  0.00    -0.034 A 
ATOM      5  C4  UNL d   1       0.619   0.299   0.820  0.00  0.00     0.162 A 
ATOM      6  C5  UNL d   1      -0.111   0.549   1.978  0.00  0.00     0.062 A 
ATOM      7  F   UNL d   1       0.509   0.568   3.167  0.00  0.00    -0.097 F 
ATOM      8  F1  UNL d   1       1.939   0.080   0.919  0.00  0.00    -0.096 F 
ATOM      9  I   UNL d   1       1.071  -0.098  -2.156  0.00  0.00    -0.060 I 
ATOM     10  F2  UNL d   1      -2.035   0.493  -1.663  0.00  0.00    -0.096 F 
ATOM     11  F3  UNL d   1      -3.437   0.978   0.602  0.00  0.00    -0.097 F 
ATOM     12  F4  UNL d   1      -2.178   1.018   3.022  0.00  0.00    -0.092 F 
ENDROOT
TORSDOF 0
ENDMDL
