MODEL 1
REMARK minimizedAffinity -2.31352949
REMARK minimizedRMSD -1
REMARK  0 active torsions:
REMARK  status: ('A' for Active; 'I' for Inactive)
ROOT
ATOM      1  C   UNL d   1       1.202  -0.475   0.847  0.00  0.00     0.124 A 
ATOM      2  C1  UNL d   1       1.769  -1.547   0.172  0.00  0.00     0.062 A 
ATOM      3  C2  UNL d   1       1.577  -1.691  -1.199  0.00  0.00     0.162 A 
ATOM      4  C3  UNL d   1       0.815  -0.760  -1.905  0.00  0.00    -0.034 A 
ATOM      5  C4  UNL d   1       0.247   0.315  -1.218  0.00  0.00     0.162 A 
ATOM      6  C5  UNL d   1       0.442   0.455   0.152  0.00  0.00     0.062 A 
ATOM      7  F   UNL d   1      -0.107   1.491   0.803  0.00  0.00    -0.097 F 
ATOM      8  F1  UNL d   1      -0.491   1.229  -1.866  0.00  0.00    -0.096 F 
ATOM      9  I   UNL d   1       0.526  -0.971  -3.955  0.00  0.00    -0.060 I 
ATOM     10  F2  UNL d   1       2.137  -2.736  -1.826  0.00  0.00    -0.096 F 
ATOM     11  F3  UNL d   1       2.503  -2.447   0.842  0.00  0.00    -0.097 F 
ATOM     12  F4  UNL d   1       1.388  -0.339   2.167  0.00  0.00    -0.092 F 
ENDROOT
TORSDOF 0
ENDMDL
