MODEL 1
REMARK minimizedAffinity -0.661288202
REMARK minimizedRMSD -1
REMARK  0 active torsions:
REMARK  status: ('A' for Active; 'I' for Inactive)
ROOT
ATOM      1  C   UNL d   1       0.367  -0.539  -2.139  0.00  0.00     0.124 A 
ATOM      2  C1  UNL d   1       1.291  -1.215  -1.353  0.00  0.00     0.062 A 
ATOM      3  C2  UNL d   1       1.279  -1.060   0.031  0.00  0.00     0.162 A 
ATOM      4  C3  UNL d   1       0.339  -0.226   0.637  0.00  0.00    -0.034 A 
ATOM      5  C4  UNL d   1      -0.586   0.451  -0.160  0.00  0.00     0.162 A 
ATOM      6  C5  UNL d   1      -0.570   0.293  -1.542  0.00  0.00     0.062 A 
ATOM      7  F   UNL d   1      -1.462   0.946  -2.300  0.00  0.00    -0.097 F 
ATOM      8  F1  UNL d   1      -1.503   1.260   0.391  0.00  0.00    -0.096 F 
ATOM      9  I   UNL d   1       0.318   0.009   2.705  0.00  0.00    -0.060 I 
ATOM     10  F2  UNL d   1       2.183  -1.725   0.765  0.00  0.00    -0.096 F 
ATOM     11  F3  UNL d   1       2.197  -2.018  -1.927  0.00  0.00    -0.097 F 
ATOM     12  F4  UNL d   1       0.381  -0.689  -3.469  0.00  0.00    -0.092 F 
ENDROOT
TORSDOF 0
ENDMDL
