MODEL 1
REMARK minimizedAffinity 0.0789746419
REMARK minimizedRMSD -1
REMARK  0 active torsions:
REMARK  status: ('A' for Active; 'I' for Inactive)
ROOT
ATOM      1  C   UNL d   1      -1.507   0.363   2.050  0.00  0.00     0.124 A 
ATOM      2  C1  UNL d   1      -2.158   0.625   0.852  0.00  0.00     0.062 A 
ATOM      3  C2  UNL d   1      -1.452   0.604  -0.347  0.00  0.00     0.162 A 
ATOM      4  C3  UNL d   1      -0.086   0.320  -0.355  0.00  0.00    -0.034 A 
ATOM      5  C4  UNL d   1       0.561   0.058   0.854  0.00  0.00     0.162 A 
ATOM      6  C5  UNL d   1      -0.149   0.080   2.049  0.00  0.00     0.062 A 
ATOM      7  F   UNL d   1       0.481  -0.173   3.206  0.00  0.00    -0.097 F 
ATOM      8  F1  UNL d   1       1.873  -0.219   0.882  0.00  0.00    -0.096 F 
ATOM      9  I   UNL d   1       0.973   0.288  -2.146  0.00  0.00    -0.060 I 
ATOM     10  F2  UNL d   1      -2.106   0.861  -1.490  0.00  0.00    -0.096 F 
ATOM     11  F3  UNL d   1      -3.470   0.900   0.849  0.00  0.00    -0.097 F 
ATOM     12  F4  UNL d   1      -2.189   0.384   3.202  0.00  0.00    -0.092 F 
ENDROOT
TORSDOF 0
ENDMDL
