MODEL 1
REMARK minimizedAffinity -3.2342546
REMARK minimizedRMSD -1
REMARK  0 active torsions:
REMARK  status: ('A' for Active; 'I' for Inactive)
ROOT
ATOM      1  C   UNL d   1       0.540  -0.825  -2.484  0.00  0.00     0.124 A 
ATOM      2  C1  UNL d   1       1.394  -1.545  -1.661  0.00  0.00     0.062 A 
ATOM      3  C2  UNL d   1       1.405  -1.314  -0.289  0.00  0.00     0.162 A 
ATOM      4  C3  UNL d   1       0.556  -0.358   0.270  0.00  0.00    -0.034 A 
ATOM      5  C4  UNL d   1      -0.300   0.363  -0.564  0.00  0.00     0.162 A 
ATOM      6  C5  UNL d   1      -0.306   0.128  -1.935  0.00  0.00     0.062 A 
ATOM      7  F   UNL d   1      -1.133   0.825  -2.729  0.00  0.00    -0.097 F 
ATOM      8  F1  UNL d   1      -1.129   1.289  -0.060  0.00  0.00    -0.096 F 
ATOM      9  I   UNL d   1       0.568  -0.009   2.322  0.00  0.00    -0.060 I 
ATOM     10  F2  UNL d   1       2.241  -2.025   0.482  0.00  0.00    -0.096 F 
ATOM     11  F3  UNL d   1       2.214  -2.466  -2.189  0.00  0.00    -0.097 F 
ATOM     12  F4  UNL d   1       0.533  -1.049  -3.805  0.00  0.00    -0.092 F 
ENDROOT
TORSDOF 0
ENDMDL
