MODEL 1
REMARK minimizedAffinity 1.08149445
REMARK minimizedRMSD -1
REMARK  0 active torsions:
REMARK  status: ('A' for Active; 'I' for Inactive)
ROOT
ATOM      1  C   UNL d   1       0.587  -0.256  -2.913  0.00  0.00     0.124 A 
ATOM      2  C1  UNL d   1       1.256  -1.351  -2.383  0.00  0.00     0.062 A 
ATOM      3  C2  UNL d   1       1.510  -1.421  -1.016  0.00  0.00     0.162 A 
ATOM      4  C3  UNL d   1       1.094  -0.394  -0.169  0.00  0.00    -0.034 A 
ATOM      5  C4  UNL d   1       0.423   0.704  -0.710  0.00  0.00     0.162 A 
ATOM      6  C5  UNL d   1       0.172   0.770  -2.076  0.00  0.00     0.062 A 
ATOM      7  F   UNL d   1      -0.475   1.828  -2.586  0.00  0.00    -0.097 F 
ATOM      8  F1  UNL d   1       0.009   1.709   0.076  0.00  0.00    -0.096 F 
ATOM      9  I   UNL d   1       1.473  -0.496   1.875  0.00  0.00    -0.060 I 
ATOM     10  F2  UNL d   1       2.159  -2.491  -0.531  0.00  0.00    -0.096 F 
ATOM     11  F3  UNL d   1       1.660  -2.343  -3.189  0.00  0.00    -0.097 F 
ATOM     12  F4  UNL d   1       0.345  -0.190  -4.228  0.00  0.00    -0.092 F 
ENDROOT
TORSDOF 0
ENDMDL
