MODEL 1
REMARK minimizedAffinity 9.336689
REMARK minimizedRMSD -1
REMARK  2 active torsions:
REMARK  status: ('A' for Active; 'I' for Inactive)
REMARK    1  A    between atoms: C2'_3  and  C1'_4 
REMARK    2  A    between atoms: C1'_4  and  C1_5 
ROOT
ATOM      1  C1  I4B d   1       4.036  -1.003   2.392  0.00  0.00    -0.075 A 
ATOM      2  C2  I4B d   1       5.194  -1.477   2.955  0.00  0.00     0.003 A 
ATOM      3  C3  I4B d   1       5.415  -1.349   4.348  0.00  0.00     0.002 A 
ATOM      4  C4  I4B d   1       4.480  -0.698   5.127  0.00  0.00    -0.004 A 
ATOM      5  C5  I4B d   1       3.295  -0.238   4.558  0.00  0.00     0.002 A 
ATOM      6  C6  I4B d   1       3.066  -0.403   3.185  0.00  0.00     0.003 A 
ENDROOT
BRANCH   1   7
ATOM      7  C1' I4B d   1       3.850  -1.126   0.913  0.00  0.00     0.060 C 
BRANCH   7   8
ATOM      8  C2' I4B d   1       3.452   0.234   0.378  0.00  0.00    -0.013 C 
ATOM      9  C4' I4B d   1       4.656   1.119   0.188  0.00  0.00     0.013 C 
ATOM     10  C3' I4B d   1       2.723   0.027  -0.916  0.00  0.00     0.013 C 
ENDBRANCH   7   8
ENDBRANCH   1   7
TORSDOF 2
ENDMDL
