MODEL 1
REMARK minimizedAffinity 14.2976084
REMARK minimizedRMSD -1
REMARK  2 active torsions:
REMARK  status: ('A' for Active; 'I' for Inactive)
REMARK    1  A    between atoms: C2'_3  and  C1'_4 
REMARK    2  A    between atoms: C1'_4  and  C1_5 
ROOT
ATOM      1  C1  I4B d   1       4.767   1.655   0.237  0.00  0.00    -0.075 A 
ATOM      2  C2  I4B d   1       3.750   0.839   0.664  0.00  0.00     0.003 A 
ATOM      3  C3  I4B d   1       2.964   0.128  -0.276  0.00  0.00     0.002 A 
ATOM      4  C4  I4B d   1       3.195   0.302  -1.625  0.00  0.00    -0.004 A 
ATOM      5  C5  I4B d   1       4.242   1.112  -2.055  0.00  0.00     0.002 A 
ATOM      6  C6  I4B d   1       5.041   1.784  -1.119  0.00  0.00     0.003 A 
ENDROOT
BRANCH   1   7
ATOM      7  C1' I4B d   1       5.556   2.416   1.254  0.00  0.00     0.060 C 
BRANCH   7   8
ATOM      8  C2' I4B d   1       4.729   3.609   1.690  0.00  0.00    -0.013 C 
ATOM      9  C4' I4B d   1       3.357   3.184   2.143  0.00  0.00     0.013 C 
ATOM     10  C3' I4B d   1       5.470   4.310   2.789  0.00  0.00     0.013 C 
ENDBRANCH   7   8
ENDBRANCH   1   7
TORSDOF 2
ENDMDL
