MODEL 1
REMARK minimizedAffinity 12.1686039
REMARK minimizedRMSD -1
REMARK  2 active torsions:
REMARK  status: ('A' for Active; 'I' for Inactive)
REMARK    1  A    between atoms: C2'_3  and  C1'_4 
REMARK    2  A    between atoms: C1'_4  and  C1_5 
ROOT
ATOM      1  C1  I4B d   1       3.850   1.288  -1.358  0.00  0.00    -0.075 A 
ATOM      2  C2  I4B d   1       3.887   0.914  -2.678  0.00  0.00     0.003 A 
ATOM      3  C3  I4B d   1       4.989   1.276  -3.491  0.00  0.00     0.002 A 
ATOM      4  C4  I4B d   1       6.000   2.050  -2.959  0.00  0.00    -0.004 A 
ATOM      5  C5  I4B d   1       5.972   2.409  -1.615  0.00  0.00     0.002 A 
ATOM      6  C6  I4B d   1       4.896   2.015  -0.806  0.00  0.00     0.003 A 
ENDROOT
BRANCH   1   7
ATOM      7  C1' I4B d   1       2.656   0.916  -0.537  0.00  0.00     0.060 C 
BRANCH   7   8
ATOM      8  C2' I4B d   1       1.912   2.191  -0.192  0.00  0.00    -0.013 C 
ATOM      9  C4' I4B d   1       0.497   2.152  -0.706  0.00  0.00     0.013 C 
ATOM     10  C3' I4B d   1       1.943   2.356   1.298  0.00  0.00     0.013 C 
ENDBRANCH   7   8
ENDBRANCH   1   7
TORSDOF 2
ENDMDL
