MODEL 1
REMARK minimizedAffinity 10.9394999
REMARK minimizedRMSD -1
REMARK  2 active torsions:
REMARK  status: ('A' for Active; 'I' for Inactive)
REMARK    1  A    between atoms: C2'_3  and  C1'_4 
REMARK    2  A    between atoms: C1'_4  and  C1_5 
ROOT
ATOM      1  C1  I4B d   1      -1.990  -3.228  -4.434  0.00  0.00    -0.075 A 
ATOM      2  C2  I4B d   1      -2.922  -3.845  -5.231  0.00  0.00     0.003 A 
ATOM      3  C3  I4B d   1      -3.827  -3.073  -5.998  0.00  0.00     0.002 A 
ATOM      4  C4  I4B d   1      -3.798  -1.696  -5.901  0.00  0.00    -0.004 A 
ATOM      5  C5  I4B d   1      -2.837  -1.072  -5.110  0.00  0.00     0.002 A 
ATOM      6  C6  I4B d   1      -1.919  -1.842  -4.381  0.00  0.00     0.003 A 
ENDROOT
BRANCH   1   7
ATOM      7  C1' I4B d   1      -1.071  -4.075  -3.611  0.00  0.00     0.060 C 
BRANCH   7   8
ATOM      8  C2' I4B d   1      -1.920  -5.032  -2.799  0.00  0.00    -0.013 C 
ATOM      9  C4' I4B d   1      -2.654  -6.000  -3.690  0.00  0.00     0.013 C 
ATOM     10  C3' I4B d   1      -1.018  -5.754  -1.843  0.00  0.00     0.013 C 
ENDBRANCH   7   8
ENDBRANCH   1   7
TORSDOF 2
ENDMDL
