MODEL 1
REMARK minimizedAffinity 3.96868634
REMARK minimizedRMSD -1
REMARK  2 active torsions:
REMARK  status: ('A' for Active; 'I' for Inactive)
REMARK    1  A    between atoms: C2'_3  and  C1'_4 
REMARK    2  A    between atoms: C1'_4  and  C1_5 
ROOT
ATOM      1  C1  I4B d   1       4.386   1.088   0.786  0.00  0.00    -0.075 A 
ATOM      2  C2  I4B d   1       3.450   0.537  -0.054  0.00  0.00     0.003 A 
ATOM      3  C3  I4B d   1       3.555   0.718  -1.455  0.00  0.00     0.002 A 
ATOM      4  C4  I4B d   1       4.575   1.494  -1.965  0.00  0.00    -0.004 A 
ATOM      5  C5  I4B d   1       5.536   2.032  -1.114  0.00  0.00     0.002 A 
ATOM      6  C6  I4B d   1       5.448   1.818   0.269  0.00  0.00     0.003 A 
ENDROOT
BRANCH   1   7
ATOM      7  C1' I4B d   1       4.226   0.904   2.262  0.00  0.00     0.060 C 
BRANCH   7   8
ATOM      8  C2' I4B d   1       4.388  -0.571   2.569  0.00  0.00    -0.013 C 
ATOM      9  C4' I4B d   1       5.534  -0.808   3.516  0.00  0.00     0.013 C 
ATOM     10  C3' I4B d   1       3.096  -1.067   3.147  0.00  0.00     0.013 C 
ENDBRANCH   7   8
ENDBRANCH   1   7
TORSDOF 2
ENDMDL
