MODEL 1
REMARK minimizedAffinity 14.95156
REMARK minimizedRMSD -1
REMARK  2 active torsions:
REMARK  status: ('A' for Active; 'I' for Inactive)
REMARK    1  A    between atoms: C2'_3  and  C1'_4 
REMARK    2  A    between atoms: C1'_4  and  C1_5 
ROOT
ATOM      1  C1  I4B d   1       1.412   2.256   0.686  0.00  0.00    -0.075 A 
ATOM      2  C2  I4B d   1       1.291   1.381  -0.365  0.00  0.00     0.003 A 
ATOM      3  C3  I4B d   1       2.294   0.411  -0.604  0.00  0.00     0.002 A 
ATOM      4  C4  I4B d   1       3.418   0.385   0.195  0.00  0.00    -0.004 A 
ATOM      5  C5  I4B d   1       3.529   1.258   1.273  0.00  0.00     0.002 A 
ATOM      6  C6  I4B d   1       2.515   2.192   1.528  0.00  0.00     0.003 A 
ENDROOT
BRANCH   1   7
ATOM      7  C1' I4B d   1       0.350   3.290   0.890  0.00  0.00     0.060 C 
BRANCH   7   8
ATOM      8  C2' I4B d   1       0.737   4.126   2.092  0.00  0.00    -0.013 C 
ATOM      9  C4' I4B d   1       0.278   5.552   1.936  0.00  0.00     0.013 C 
ATOM     10  C3' I4B d   1       0.134   3.493   3.311  0.00  0.00     0.013 C 
ENDBRANCH   7   8
ENDBRANCH   1   7
TORSDOF 2
ENDMDL
