MODEL 1
REMARK minimizedAffinity -5.63899088
REMARK minimizedRMSD -1
REMARK  0 active torsions:
REMARK  status: ('A' for Active; 'I' for Inactive)
ROOT
ATOM      1  O1  BZF d   1       0.441   1.400  -4.889  0.00  0.00    -0.204 OA
ATOM      2  C2  BZF d   1       1.413   1.097  -3.955  0.00  0.00     0.174 A 
ATOM      3  C3  BZF d   1       1.186  -0.113  -3.404  0.00  0.00    -0.012 A 
ATOM      4  C3A BZF d   1       0.050  -0.636  -4.099  0.00  0.00    -0.107 A 
ATOM      5  C4  BZF d   1      -0.645  -1.809  -4.014  0.00  0.00     0.055 A 
ATOM      6  C5  BZF d   1      -1.750  -1.979  -4.785  0.00  0.00    -0.016 A 
ATOM      7  C6  BZF d   1      -2.193  -0.997  -5.647  0.00  0.00     0.022 A 
ATOM      8  C7  BZF d   1      -1.534   0.181  -5.770  0.00  0.00     0.029 A 
ATOM      9  C7A BZF d   1      -0.397   0.343  -5.016  0.00  0.00     0.058 A 
ENDROOT
TORSDOF 0
ENDMDL
