MODEL 1
REMARK minimizedAffinity -3.55506706
REMARK minimizedRMSD -1
REMARK  0 active torsions:
REMARK  status: ('A' for Active; 'I' for Inactive)
ROOT
ATOM      1  O1  BZF d   1       1.229   0.622  -0.503  0.00  0.00    -0.204 OA
ATOM      2  C2  BZF d   1       0.491  -0.348   0.146  0.00  0.00     0.174 A 
ATOM      3  C3  BZF d   1      -0.106  -1.169  -0.742  0.00  0.00    -0.012 A 
ATOM      4  C3A BZF d   1       0.358  -0.737  -2.025  0.00  0.00    -0.107 A 
ATOM      5  C4  BZF d   1       0.131  -1.170  -3.300  0.00  0.00     0.055 A 
ATOM      6  C5  BZF d   1       0.679  -0.484  -4.337  0.00  0.00    -0.016 A 
ATOM      7  C6  BZF d   1       1.453   0.640  -4.137  0.00  0.00     0.022 A 
ATOM      8  C7  BZF d   1       1.710   1.105  -2.890  0.00  0.00     0.029 A 
ATOM      9  C7A BZF d   1       1.185   0.394  -1.838  0.00  0.00     0.058 A 
ENDROOT
TORSDOF 0
ENDMDL
