MODEL 1
REMARK minimizedAffinity -1.8551693
REMARK minimizedRMSD -1
REMARK  0 active torsions:
REMARK  status: ('A' for Active; 'I' for Inactive)
ROOT
ATOM      1  O1  BZF d   1       1.100   0.234  -0.232  0.00  0.00    -0.204 OA
ATOM      2  C2  BZF d   1      -0.146  -0.091   0.266  0.00  0.00     0.174 A 
ATOM      3  C3  BZF d   1      -0.986  -0.433  -0.732  0.00  0.00    -0.012 A 
ATOM      4  C3A BZF d   1      -0.190  -0.403  -1.921  0.00  0.00    -0.107 A 
ATOM      5  C4  BZF d   1      -0.455  -0.664  -3.235  0.00  0.00     0.055 A 
ATOM      6  C5  BZF d   1       0.525  -0.471  -4.157  0.00  0.00    -0.016 A 
ATOM      7  C6  BZF d   1       1.777  -0.013  -3.801  0.00  0.00     0.022 A 
ATOM      8  C7  BZF d   1       2.088   0.254  -2.509  0.00  0.00     0.029 A 
ATOM      9  C7A BZF d   1       1.110   0.029  -1.571  0.00  0.00     0.058 A 
ENDROOT
TORSDOF 0
ENDMDL
