MODEL 1
REMARK minimizedAffinity -4.27341986
REMARK minimizedRMSD -1
REMARK  0 active torsions:
REMARK  status: ('A' for Active; 'I' for Inactive)
ROOT
ATOM      1  O1  BZF d   1       1.659  -1.310   0.734  0.00  0.00    -0.204 OA
ATOM      2  C2  BZF d   1       0.892  -1.505  -0.399  0.00  0.00     0.174 A 
ATOM      3  C3  BZF d   1      -0.191  -0.703  -0.387  0.00  0.00    -0.012 A 
ATOM      4  C3A BZF d   1      -0.048   0.107   0.783  0.00  0.00    -0.107 A 
ATOM      5  C4  BZF d   1      -0.799   1.108   1.331  0.00  0.00     0.055 A 
ATOM      6  C5  BZF d   1      -0.419   1.643   2.521  0.00  0.00    -0.016 A 
ATOM      7  C6  BZF d   1       0.701   1.199   3.192  0.00  0.00     0.022 A 
ATOM      8  C7  BZF d   1       1.481   0.212   2.686  0.00  0.00     0.029 A 
ATOM      9  C7A BZF d   1       1.118  -0.308   1.468  0.00  0.00     0.058 A 
ENDROOT
TORSDOF 0
ENDMDL
