MODEL 1
REMARK minimizedAffinity -2.00916433
REMARK minimizedRMSD -1
REMARK  0 active torsions:
REMARK  status: ('A' for Active; 'I' for Inactive)
ROOT
ATOM      1  O1  BZF d   1       0.668   0.437  -0.769  0.00  0.00    -0.204 OA
ATOM      2  C2  BZF d   1       0.125  -0.806  -1.031  0.00  0.00     0.174 A 
ATOM      3  C3  BZF d   1      -0.615  -1.234   0.012  0.00  0.00    -0.012 A 
ATOM      4  C3A BZF d   1      -0.606  -0.153   0.949  0.00  0.00    -0.107 A 
ATOM      5  C4  BZF d   1      -1.177   0.032   2.175  0.00  0.00     0.055 A 
ATOM      6  C5  BZF d   1      -0.913   1.175   2.862  0.00  0.00    -0.016 A 
ATOM      7  C6  BZF d   1      -0.078   2.149   2.356  0.00  0.00     0.022 A 
ATOM      8  C7  BZF d   1       0.508   2.013   1.142  0.00  0.00     0.029 A 
ATOM      9  C7A BZF d   1       0.216   0.875   0.431  0.00  0.00     0.058 A 
ENDROOT
TORSDOF 0
ENDMDL
