MODEL 1
REMARK minimizedAffinity -2.55646634
REMARK minimizedRMSD -1
REMARK  0 active torsions:
REMARK  status: ('A' for Active; 'I' for Inactive)
ROOT
ATOM      1  O1  BZF d   1      -1.373   0.428   2.501  0.00  0.00    -0.204 OA
ATOM      2  C2  BZF d   1      -0.814   1.569   3.043  0.00  0.00     0.174 A 
ATOM      3  C3  BZF d   1       0.248   1.973   2.316  0.00  0.00    -0.012 A 
ATOM      4  C3A BZF d   1       0.304   1.078   1.202  0.00  0.00    -0.107 A 
ATOM      5  C4  BZF d   1       1.131   0.976   0.120  0.00  0.00     0.055 A 
ATOM      6  C5  BZF d   1       0.961  -0.057  -0.747  0.00  0.00    -0.016 A 
ATOM      7  C6  BZF d   1      -0.021  -1.007  -0.560  0.00  0.00     0.022 A 
ATOM      8  C7  BZF d   1      -0.869  -0.945   0.496  0.00  0.00     0.029 A 
ATOM      9  C7A BZF d   1      -0.721   0.115   1.355  0.00  0.00     0.058 A 
ENDROOT
TORSDOF 0
ENDMDL
