MODEL 1
REMARK minimizedAffinity -4.21056032
REMARK minimizedRMSD -1
REMARK  0 active torsions:
REMARK  status: ('A' for Active; 'I' for Inactive)
ROOT
ATOM      1  O1  BZF d   1       1.360  -0.654   0.053  0.00  0.00    -0.204 OA
ATOM      2  C2  BZF d   1       0.684  -1.050  -1.085  0.00  0.00     0.174 A 
ATOM      3  C3  BZF d   1      -0.618  -0.706  -1.012  0.00  0.00    -0.012 A 
ATOM      4  C3A BZF d   1      -0.746   0.027   0.210  0.00  0.00    -0.107 A 
ATOM      5  C4  BZF d   1      -1.795   0.645   0.829  0.00  0.00     0.055 A 
ATOM      6  C5  BZF d   1      -1.601   1.210   2.050  0.00  0.00    -0.016 A 
ATOM      7  C6  BZF d   1      -0.375   1.171   2.682  0.00  0.00     0.022 A 
ATOM      8  C7  BZF d   1       0.696   0.575   2.104  0.00  0.00     0.029 A 
ATOM      9  C7A BZF d   1       0.512   0.032   0.856  0.00  0.00     0.058 A 
ENDROOT
TORSDOF 0
ENDMDL
