MODEL 1
REMARK minimizedAffinity -3.92888212
REMARK minimizedRMSD -1
REMARK  0 active torsions:
REMARK  status: ('A' for Active; 'I' for Inactive)
ROOT
ATOM      1  O1  BZF d   1       1.439   0.246  -2.076  0.00  0.00    -0.204 OA
ATOM      2  C2  BZF d   1       0.498  -0.440  -1.333  0.00  0.00     0.174 A 
ATOM      3  C3  BZF d   1      -0.632  -0.627  -2.046  0.00  0.00    -0.012 A 
ATOM      4  C3A BZF d   1      -0.348  -0.101  -3.345  0.00  0.00    -0.107 A 
ATOM      5  C4  BZF d   1      -1.071  -0.011  -4.500  0.00  0.00     0.055 A 
ATOM      6  C5  BZF d   1      -0.528   0.625  -5.571  0.00  0.00    -0.016 A 
ATOM      7  C6  BZF d   1       0.731   1.187  -5.521  0.00  0.00     0.022 A 
ATOM      8  C7  BZF d   1       1.488   1.118  -4.399  0.00  0.00     0.029 A 
ATOM      9  C7A BZF d   1       0.956   0.447  -3.326  0.00  0.00     0.058 A 
ENDROOT
TORSDOF 0
ENDMDL
