MODEL 1
REMARK minimizedAffinity 3.60888219
REMARK minimizedRMSD -1
REMARK  1 active torsions:
REMARK  status: ('A' for Active; 'I' for Inactive)
REMARK    1  A    between atoms: C1_2  and  C2_3 
ROOT
ATOM      1  C2  UNL d   1       0.256   1.110   1.872  0.00  0.00    -0.081 A 
ATOM      2  C3  UNL d   1      -0.807   0.608   2.633  0.00  0.00     0.006 A 
ATOM      3  C4  UNL d   1      -1.906   0.014   2.008  0.00  0.00     0.002 A 
ATOM      4  C5  UNL d   1      -1.957  -0.096   0.614  0.00  0.00    -0.080 A 
ATOM      5  C6  UNL d   1      -3.116  -0.759  -0.068  0.00  0.00     0.076 C 
ATOM      6  C7  UNL d   1      -0.902   0.421  -0.147  0.00  0.00     0.002 A 
ATOM      7  C8  UNL d   1       0.196   1.016   0.478  0.00  0.00     0.006 A 
ENDROOT
BRANCH   1   8
ATOM      8  C1  UNL d   1       1.472   1.693   2.546  0.00  0.00     0.054 C 
ATOM      9  C   UNL d   1       2.730   1.449   1.726  0.00  0.00     0.018 C 
ENDBRANCH   1   8
TORSDOF 1
ENDMDL
