MODEL 1
REMARK minimizedAffinity -3.5387044
REMARK minimizedRMSD -1
REMARK  1 active torsions:
REMARK  status: ('A' for Active; 'I' for Inactive)
REMARK    1  A    between atoms: C1_2  and  C2_3 
ROOT
ATOM      1  C2  UNL d   1       1.291   1.426   0.997  0.00  0.00    -0.081 A 
ATOM      2  C3  UNL d   1       0.698   1.993   2.132  0.00  0.00     0.006 A 
ATOM      3  C4  UNL d   1      -0.474   1.450   2.665  0.00  0.00     0.002 A 
ATOM      4  C5  UNL d   1      -1.067   0.327   2.077  0.00  0.00    -0.080 A 
ATOM      5  C6  UNL d   1      -2.308  -0.284   2.657  0.00  0.00     0.076 C 
ATOM      6  C7  UNL d   1      -0.485  -0.229   0.934  0.00  0.00     0.002 A 
ATOM      7  C8  UNL d   1       0.686   0.314   0.400  0.00  0.00     0.006 A 
ENDROOT
BRANCH   1   8
ATOM      8  C1  UNL d   1       2.590   1.969   0.459  0.00  0.00     0.054 C 
ATOM      9  C   UNL d   1       2.645   1.867  -1.059  0.00  0.00     0.018 C 
ENDBRANCH   1   8
TORSDOF 1
ENDMDL
