MODEL 1
REMARK minimizedAffinity 0.869940937
REMARK minimizedRMSD -1
REMARK  1 active torsions:
REMARK  status: ('A' for Active; 'I' for Inactive)
REMARK    1  A    between atoms: C1_2  and  C2_3 
ROOT
ATOM      1  C2  UNL d   1      -0.518   1.222   1.852  0.00  0.00    -0.081 A 
ATOM      2  C3  UNL d   1      -1.437   0.491   2.616  0.00  0.00     0.006 A 
ATOM      3  C4  UNL d   1      -2.287  -0.434   2.006  0.00  0.00     0.002 A 
ATOM      4  C5  UNL d   1      -2.229  -0.649   0.625  0.00  0.00    -0.080 A 
ATOM      5  C6  UNL d   1      -3.115  -1.661  -0.038  0.00  0.00     0.076 C 
ATOM      6  C7  UNL d   1      -1.323   0.093  -0.141  0.00  0.00     0.002 A 
ATOM      7  C8  UNL d   1      -0.473   1.019   0.468  0.00  0.00     0.006 A 
ENDROOT
BRANCH   1   8
ATOM      8  C1  UNL d   1       0.445   2.173   2.515  0.00  0.00     0.054 C 
ATOM      9  C   UNL d   1       1.850   1.592   2.566  0.00  0.00     0.018 C 
ENDBRANCH   1   8
TORSDOF 1
ENDMDL
