MODEL 1
REMARK minimizedAffinity -2.38999271
REMARK minimizedRMSD -1
REMARK  1 active torsions:
REMARK  status: ('A' for Active; 'I' for Inactive)
REMARK    1  A    between atoms: C1_2  and  C2_3 
ROOT
ATOM      1  C2  UNL d   1       0.835   0.336   1.592  0.00  0.00    -0.081 A 
ATOM      2  C3  UNL d   1       0.655  -0.517   0.496  0.00  0.00     0.006 A 
ATOM      3  C4  UNL d   1      -0.628  -0.906   0.104  0.00  0.00     0.002 A 
ATOM      4  C5  UNL d   1      -1.752  -0.442   0.796  0.00  0.00    -0.080 A 
ATOM      5  C6  UNL d   1      -3.137  -0.828   0.367  0.00  0.00     0.076 C 
ATOM      6  C7  UNL d   1      -1.572   0.396   1.901  0.00  0.00     0.002 A 
ATOM      7  C8  UNL d   1      -0.289   0.784   2.294  0.00  0.00     0.006 A 
ENDROOT
BRANCH   1   8
ATOM      8  C1  UNL d   1       2.214   0.809   1.977  0.00  0.00     0.054 C 
ATOM      9  C   UNL d   1       3.067   1.086   0.747  0.00  0.00     0.018 C 
ENDBRANCH   1   8
TORSDOF 1
ENDMDL
