MODEL 1
REMARK minimizedAffinity 3.97009635
REMARK minimizedRMSD -1
REMARK  1 active torsions:
REMARK  status: ('A' for Active; 'I' for Inactive)
REMARK    1  A    between atoms: C1_2  and  C2_3 
ROOT
ATOM      1  C2  UNL d   1      -0.367  -0.382  -0.009  0.00  0.00    -0.081 A 
ATOM      2  C3  UNL d   1       0.659   0.427   0.494  0.00  0.00     0.006 A 
ATOM      3  C4  UNL d   1       0.561   0.985   1.771  0.00  0.00     0.002 A 
ATOM      4  C5  UNL d   1      -0.560   0.737   2.569  0.00  0.00    -0.080 A 
ATOM      5  C6  UNL d   1      -0.665   1.304   3.953  0.00  0.00     0.076 C 
ATOM      6  C7  UNL d   1      -1.594  -0.057   2.061  0.00  0.00     0.002 A 
ATOM      7  C8  UNL d   1      -1.497  -0.615   0.784  0.00  0.00     0.006 A 
ENDROOT
BRANCH   1   8
ATOM      8  C1  UNL d   1      -0.235  -1.038  -1.360  0.00  0.00     0.054 C 
ATOM      9  C   UNL d   1      -0.062  -0.003  -2.462  0.00  0.00     0.018 C 
ENDBRANCH   1   8
TORSDOF 1
ENDMDL
