MODEL 1
REMARK minimizedAffinity 4.08443928
REMARK minimizedRMSD -1
REMARK  1 active torsions:
REMARK  status: ('A' for Active; 'I' for Inactive)
REMARK    1  A    between atoms: C1_2  and  C2_3 
ROOT
ATOM      1  C2  UNL d   1      -0.640   0.492   0.800  0.00  0.00    -0.081 A 
ATOM      2  C3  UNL d   1      -1.612  -0.051   1.649  0.00  0.00     0.006 A 
ATOM      3  C4  UNL d   1      -1.629   0.278   3.007  0.00  0.00     0.002 A 
ATOM      4  C5  UNL d   1      -0.680   1.160   3.536  0.00  0.00    -0.080 A 
ATOM      5  C6  UNL d   1      -0.706   1.545   4.985  0.00  0.00     0.076 C 
ATOM      6  C7  UNL d   1       0.301   1.688   2.691  0.00  0.00     0.002 A 
ATOM      7  C8  UNL d   1       0.319   1.359   1.333  0.00  0.00     0.006 A 
ENDROOT
BRANCH   1   8
ATOM      8  C1  UNL d   1      -0.658   0.190  -0.677  0.00  0.00     0.054 C 
ATOM      9  C   UNL d   1      -0.664   1.468  -1.503  0.00  0.00     0.018 C 
ENDBRANCH   1   8
TORSDOF 1
ENDMDL
