MODEL 1
REMARK minimizedAffinity 0.256554127
REMARK minimizedRMSD -1
REMARK  1 active torsions:
REMARK  status: ('A' for Active; 'I' for Inactive)
REMARK    1  A    between atoms: C1_2  and  C2_3 
ROOT
ATOM      1  C2  UNL d   1       0.844   1.160   0.881  0.00  0.00    -0.081 A 
ATOM      2  C3  UNL d   1       0.588   1.341   2.245  0.00  0.00     0.006 A 
ATOM      3  C4  UNL d   1      -0.604   0.880   2.810  0.00  0.00     0.002 A 
ATOM      4  C5  UNL d   1      -1.555   0.223   2.022  0.00  0.00    -0.080 A 
ATOM      5  C6  UNL d   1      -2.824  -0.305   2.621  0.00  0.00     0.076 C 
ATOM      6  C7  UNL d   1      -1.307   0.057   0.655  0.00  0.00     0.002 A 
ATOM      7  C8  UNL d   1      -0.116   0.519   0.090  0.00  0.00     0.006 A 
ENDROOT
BRANCH   1   8
ATOM      8  C1  UNL d   1       2.156   1.599   0.282  0.00  0.00     0.054 C 
ATOM      9  C   UNL d   1       3.327   0.861   0.915  0.00  0.00     0.018 C 
ENDBRANCH   1   8
TORSDOF 1
ENDMDL
