MODEL 1
REMARK minimizedAffinity -3.21334672
REMARK minimizedRMSD -1
REMARK  1 active torsions:
REMARK  status: ('A' for Active; 'I' for Inactive)
REMARK    1  A    between atoms: C1_2  and  C2_3 
ROOT
ATOM      1  C2  UNL d   1       0.449   0.571   1.578  0.00  0.00    -0.081 A 
ATOM      2  C3  UNL d   1       0.479  -0.072   0.334  0.00  0.00     0.006 A 
ATOM      3  C4  UNL d   1      -0.679  -0.647  -0.193  0.00  0.00     0.002 A 
ATOM      4  C5  UNL d   1      -1.887  -0.582   0.508  0.00  0.00    -0.080 A 
ATOM      5  C6  UNL d   1      -3.145  -1.168  -0.061  0.00  0.00     0.076 C 
ATOM      6  C7  UNL d   1      -1.914   0.046   1.758  0.00  0.00     0.002 A 
ATOM      7  C8  UNL d   1      -0.756   0.621   2.287  0.00  0.00     0.006 A 
ENDROOT
BRANCH   1   8
ATOM      8  C1  UNL d   1       1.682   1.249   2.120  0.00  0.00     0.054 C 
ATOM      9  C   UNL d   1       2.771   1.345   1.062  0.00  0.00     0.018 C 
ENDBRANCH   1   8
TORSDOF 1
ENDMDL
