MODEL 1
REMARK minimizedAffinity 3.84158206
REMARK minimizedRMSD -1
REMARK  1 active torsions:
REMARK  status: ('A' for Active; 'I' for Inactive)
REMARK    1  A    between atoms: C1_2  and  C2_3 
ROOT
ATOM      1  C2  UNL d   1      -0.410  -0.810   2.767  0.00  0.00    -0.081 A 
ATOM      2  C3  UNL d   1       0.647  -0.503   1.903  0.00  0.00     0.006 A 
ATOM      3  C4  UNL d   1       0.397   0.054   0.647  0.00  0.00     0.002 A 
ATOM      4  C5  UNL d   1      -0.914   0.323   0.238  0.00  0.00    -0.080 A 
ATOM      5  C6  UNL d   1      -1.195   0.949  -1.095  0.00  0.00     0.076 C 
ATOM      6  C7  UNL d   1      -1.972   0.001   1.095  0.00  0.00     0.002 A 
ATOM      7  C8  UNL d   1      -1.722  -0.558   2.350  0.00  0.00     0.006 A 
ENDROOT
BRANCH   1   8
ATOM      8  C1  UNL d   1      -0.140  -1.351   4.148  0.00  0.00     0.054 C 
ATOM      9  C   UNL d   1       0.538  -0.311   5.027  0.00  0.00     0.018 C 
ENDBRANCH   1   8
TORSDOF 1
ENDMDL
