MODEL 1
REMARK minimizedAffinity -2.44299936
REMARK minimizedRMSD -1
REMARK  0 active torsions:
REMARK  status: ('A' for Active; 'I' for Inactive)
ROOT
ATOM      1  C   UNL d   1      -2.549   1.834   1.223  0.00  0.00     0.077 C 
ATOM      2  C1  UNL d   1      -1.286   1.041   1.067  0.00  0.00    -0.074 A 
ATOM      3  C2  UNL d   1      -0.386   0.906   2.129  0.00  0.00    -0.005 A 
ATOM      4  C3  UNL d   1       0.780   0.157   1.972  0.00  0.00     0.006 A 
ATOM      5  C4  UNL d   1       1.058  -0.463   0.754  0.00  0.00    -0.005 A 
ATOM      6  C5  UNL d   1       0.169  -0.340  -0.319  0.00  0.00    -0.074 A 
ATOM      7  C6  UNL d   1       0.448  -1.009  -1.633  0.00  0.00     0.077 C 
ATOM      8  C7  UNL d   1      -1.004   0.408  -0.151  0.00  0.00    -0.001 A 
ENDROOT
TORSDOF 0
ENDMDL
