MODEL 1
REMARK minimizedAffinity -6.02153587
REMARK minimizedRMSD -1
REMARK  0 active torsions:
REMARK  status: ('A' for Active; 'I' for Inactive)
ROOT
ATOM      1  C   UNL d   1       0.765  -0.880  -0.207  0.00  0.00     0.077 C 
ATOM      2  C1  UNL d   1      -0.169   0.226   0.182  0.00  0.00    -0.074 A 
ATOM      3  C2  UNL d   1      -1.049   0.079   1.259  0.00  0.00    -0.005 A 
ATOM      4  C3  UNL d   1      -1.905   1.121   1.616  0.00  0.00     0.006 A 
ATOM      5  C4  UNL d   1      -1.890   2.319   0.900  0.00  0.00    -0.005 A 
ATOM      6  C5  UNL d   1      -1.016   2.485  -0.179  0.00  0.00    -0.074 A 
ATOM      7  C6  UNL d   1      -0.980   3.769  -0.953  0.00  0.00     0.077 C 
ATOM      8  C7  UNL d   1      -0.154   1.436  -0.527  0.00  0.00    -0.001 A 
ENDROOT
TORSDOF 0
ENDMDL
