MODEL 1
REMARK minimizedAffinity -4.47208071
REMARK minimizedRMSD -1
REMARK  0 active torsions:
REMARK  status: ('A' for Active; 'I' for Inactive)
ROOT
ATOM      1  C   UNL d   1      -0.161   3.991  -1.027  0.00  0.00     0.077 C 
ATOM      2  C1  UNL d   1      -0.663   2.737  -0.375  0.00  0.00    -0.074 A 
ATOM      3  C2  UNL d   1      -1.825   2.747   0.404  0.00  0.00    -0.005 A 
ATOM      4  C3  UNL d   1      -2.284   1.571   0.996  0.00  0.00     0.006 A 
ATOM      5  C4  UNL d   1      -1.588   0.375   0.816  0.00  0.00    -0.005 A 
ATOM      6  C5  UNL d   1      -0.425   0.346   0.040  0.00  0.00    -0.074 A 
ATOM      7  C6  UNL d   1       0.329  -0.933  -0.172  0.00  0.00     0.077 C 
ATOM      8  C7  UNL d   1       0.026   1.530  -0.558  0.00  0.00    -0.001 A 
ENDROOT
TORSDOF 0
ENDMDL
