MODEL 1
REMARK minimizedAffinity -3.49159122
REMARK minimizedRMSD -1
REMARK  0 active torsions:
REMARK  status: ('A' for Active; 'I' for Inactive)
ROOT
ATOM      1  C   UNL d   1       0.818  -5.159  -0.093  0.00  0.00     0.077 C 
ATOM      2  C1  UNL d   1       0.642  -3.906  -0.899  0.00  0.00    -0.074 A 
ATOM      3  C2  UNL d   1       0.065  -3.946  -2.173  0.00  0.00    -0.005 A 
ATOM      4  C3  UNL d   1      -0.101  -2.772  -2.907  0.00  0.00     0.006 A 
ATOM      5  C4  UNL d   1       0.307  -1.548  -2.375  0.00  0.00    -0.005 A 
ATOM      6  C5  UNL d   1       0.884  -1.488  -1.103  0.00  0.00    -0.074 A 
ATOM      7  C6  UNL d   1       1.319  -0.179  -0.513  0.00  0.00     0.077 C 
ATOM      8  C7  UNL d   1       1.042  -2.672  -0.369  0.00  0.00    -0.001 A 
ENDROOT
TORSDOF 0
ENDMDL
