MODEL 1
REMARK minimizedAffinity -4.37169313
REMARK minimizedRMSD -1
REMARK  0 active torsions:
REMARK  status: ('A' for Active; 'I' for Inactive)
ROOT
ATOM      1  C   UNL d   1      -0.026   3.689  -0.757  0.00  0.00     0.077 C 
ATOM      2  C1  UNL d   1      -0.432   2.422  -0.063  0.00  0.00    -0.074 A 
ATOM      3  C2  UNL d   1      -1.296   2.450   1.036  0.00  0.00    -0.005 A 
ATOM      4  C3  UNL d   1      -1.672   1.263   1.665  0.00  0.00     0.006 A 
ATOM      5  C4  UNL d   1      -1.188   0.038   1.202  0.00  0.00    -0.005 A 
ATOM      6  C5  UNL d   1      -0.324  -0.009   0.103  0.00  0.00    -0.074 A 
ATOM      7  C6  UNL d   1       0.196  -1.317  -0.414  0.00  0.00     0.077 C 
ATOM      8  C7  UNL d   1       0.043   1.188  -0.528  0.00  0.00    -0.001 A 
ENDROOT
TORSDOF 0
ENDMDL
