MODEL 1
REMARK minimizedAffinity -5.80657339
REMARK minimizedRMSD -1
REMARK  0 active torsions:
REMARK  status: ('A' for Active; 'I' for Inactive)
ROOT
ATOM      1  C   UNL d   1      -2.299   2.450   1.763  0.00  0.00     0.077 C 
ATOM      2  C1  UNL d   1      -1.240   2.227   0.724  0.00  0.00    -0.074 A 
ATOM      3  C2  UNL d   1      -0.772   3.283  -0.064  0.00  0.00    -0.005 A 
ATOM      4  C3  UNL d   1       0.220   3.061  -1.020  0.00  0.00     0.006 A 
ATOM      5  C4  UNL d   1       0.752   1.784  -1.197  0.00  0.00    -0.005 A 
ATOM      6  C5  UNL d   1       0.297   0.716  -0.417  0.00  0.00    -0.074 A 
ATOM      7  C6  UNL d   1       0.866  -0.662  -0.588  0.00  0.00     0.077 C 
ATOM      8  C7  UNL d   1      -0.695   0.947   0.546  0.00  0.00    -0.001 A 
ENDROOT
TORSDOF 0
ENDMDL
