MODEL 1
REMARK minimizedAffinity -6.00381422
REMARK minimizedRMSD -1
REMARK  0 active torsions:
REMARK  status: ('A' for Active; 'I' for Inactive)
ROOT
ATOM      1  C   UNL d   1       0.844  -1.003  -0.181  0.00  0.00     0.077 C 
ATOM      2  C1  UNL d   1       0.068   0.136   0.412  0.00  0.00    -0.074 A 
ATOM      3  C2  UNL d   1      -0.514   0.027   1.679  0.00  0.00    -0.005 A 
ATOM      4  C3  UNL d   1      -1.225   1.097   2.221  0.00  0.00     0.006 A 
ATOM      5  C4  UNL d   1      -1.361   2.286   1.503  0.00  0.00    -0.005 A 
ATOM      6  C5  UNL d   1      -0.786   2.414   0.234  0.00  0.00    -0.074 A 
ATOM      7  C6  UNL d   1      -0.915   3.687  -0.547  0.00  0.00     0.077 C 
ATOM      8  C7  UNL d   1      -0.067   1.336  -0.301  0.00  0.00    -0.001 A 
ENDROOT
TORSDOF 0
ENDMDL
