MODEL 1
REMARK minimizedAffinity -3.19850469
REMARK minimizedRMSD -1
REMARK  0 active torsions:
REMARK  status: ('A' for Active; 'I' for Inactive)
ROOT
ATOM      1  C   UNL d   1      -0.236  -4.046  -1.648  0.00  0.00     0.077 C 
ATOM      2  C1  UNL d   1      -0.108  -2.552  -1.624  0.00  0.00    -0.074 A 
ATOM      3  C2  UNL d   1       0.201  -1.838  -2.787  0.00  0.00    -0.005 A 
ATOM      4  C3  UNL d   1       0.307  -0.448  -2.751  0.00  0.00     0.006 A 
ATOM      5  C4  UNL d   1       0.105   0.242  -1.555  0.00  0.00    -0.005 A 
ATOM      6  C5  UNL d   1      -0.206  -0.455  -0.383  0.00  0.00    -0.074 A 
ATOM      7  C6  UNL d   1      -0.437   0.272   0.909  0.00  0.00     0.077 C 
ATOM      8  C7  UNL d   1      -0.318  -1.851  -0.428  0.00  0.00    -0.001 A 
ENDROOT
TORSDOF 0
ENDMDL
