MODEL 1
REMARK minimizedAffinity -4.28157759
REMARK minimizedRMSD -1
REMARK  0 active torsions:
REMARK  status: ('A' for Active; 'I' for Inactive)
ROOT
ATOM      1  C   UNL d   1       0.764  -0.969  -0.310  0.00  0.00     0.077 C 
ATOM      2  C1  UNL d   1      -0.107   0.156   0.166  0.00  0.00    -0.074 A 
ATOM      3  C2  UNL d   1      -0.972  -0.014   1.251  0.00  0.00    -0.005 A 
ATOM      4  C3  UNL d   1      -1.769   1.044   1.688  0.00  0.00     0.006 A 
ATOM      5  C4  UNL d   1      -1.708   2.281   1.045  0.00  0.00    -0.005 A 
ATOM      6  C5  UNL d   1      -0.848   2.470  -0.041  0.00  0.00    -0.074 A 
ATOM      7  C6  UNL d   1      -0.763   3.797  -0.737  0.00  0.00     0.077 C 
ATOM      8  C7  UNL d   1      -0.046   1.404  -0.470  0.00  0.00    -0.001 A 
ENDROOT
TORSDOF 0
ENDMDL
