MODEL 1
REMARK minimizedAffinity -5.01220989
REMARK minimizedRMSD -1
REMARK  0 active torsions:
REMARK  status: ('A' for Active; 'I' for Inactive)
ROOT
ATOM      1  C   UNL d   1      -2.252   1.888   0.746  0.00  0.00     0.077 C 
ATOM      2  C1  UNL d   1      -0.979   1.671  -0.016  0.00  0.00    -0.074 A 
ATOM      3  C2  UNL d   1      -0.515   2.625  -0.928  0.00  0.00    -0.005 A 
ATOM      4  C3  UNL d   1       0.675   2.414  -1.623  0.00  0.00     0.006 A 
ATOM      5  C4  UNL d   1       1.414   1.249  -1.413  0.00  0.00    -0.005 A 
ATOM      6  C5  UNL d   1       0.967   0.284  -0.504  0.00  0.00    -0.074 A 
ATOM      7  C6  UNL d   1       1.754  -0.969  -0.260  0.00  0.00     0.077 C 
ATOM      8  C7  UNL d   1      -0.227   0.507   0.195  0.00  0.00    -0.001 A 
ENDROOT
TORSDOF 0
ENDMDL
