MODEL 1
REMARK minimizedAffinity -5.4385457
REMARK minimizedRMSD -1
REMARK  0 active torsions:
REMARK  status: ('A' for Active; 'I' for Inactive)
ROOT
ATOM      1  C   UNL d   1      -0.280  -0.456   1.390  0.00  0.00     0.077 C 
ATOM      2  C1  UNL d   1      -0.793   0.921   1.087  0.00  0.00    -0.074 A 
ATOM      3  C2  UNL d   1      -1.653   1.579   1.972  0.00  0.00    -0.005 A 
ATOM      4  C3  UNL d   1      -2.114   2.862   1.681  0.00  0.00     0.006 A 
ATOM      5  C4  UNL d   1      -1.721   3.500   0.503  0.00  0.00    -0.005 A 
ATOM      6  C5  UNL d   1      -0.862   2.858  -0.394  0.00  0.00    -0.074 A 
ATOM      7  C6  UNL d   1      -0.422   3.533  -1.659  0.00  0.00     0.077 C 
ATOM      8  C7  UNL d   1      -0.397   1.571  -0.090  0.00  0.00    -0.001 A 
ENDROOT
TORSDOF 0
ENDMDL
