MODEL 1
REMARK minimizedAffinity -5.79987574
REMARK minimizedRMSD -1
REMARK  0 active torsions:
REMARK  status: ('A' for Active; 'I' for Inactive)
ROOT
ATOM      1  C   UNL d   1       0.899  -4.878   0.165  0.00  0.00     0.077 C 
ATOM      2  C1  UNL d   1       0.652  -3.717  -0.752  0.00  0.00    -0.074 A 
ATOM      3  C2  UNL d   1       0.353  -3.919  -2.103  0.00  0.00    -0.005 A 
ATOM      4  C3  UNL d   1       0.116  -2.830  -2.942  0.00  0.00     0.006 A 
ATOM      5  C4  UNL d   1       0.176  -1.530  -2.439  0.00  0.00    -0.005 A 
ATOM      6  C5  UNL d   1       0.473  -1.308  -1.090  0.00  0.00    -0.074 A 
ATOM      7  C6  UNL d   1       0.532   0.083  -0.531  0.00  0.00     0.077 C 
ATOM      8  C7  UNL d   1       0.703  -2.408  -0.252  0.00  0.00    -0.001 A 
ENDROOT
TORSDOF 0
ENDMDL
