MODEL 1
REMARK minimizedAffinity -4.5697546
REMARK minimizedRMSD -1
REMARK  0 active torsions:
REMARK  status: ('A' for Active; 'I' for Inactive)
ROOT
ATOM      1  C   UNL d   1      -2.584   1.465   0.979  0.00  0.00     0.077 C 
ATOM      2  C1  UNL d   1      -1.297   1.101   0.301  0.00  0.00    -0.074 A 
ATOM      3  C2  UNL d   1      -0.425   2.090  -0.166  0.00  0.00    -0.005 A 
ATOM      4  C3  UNL d   1       0.773   1.736  -0.787  0.00  0.00     0.006 A 
ATOM      5  C4  UNL d   1       1.110   0.391  -0.947  0.00  0.00    -0.005 A 
ATOM      6  C5  UNL d   1       0.252  -0.611  -0.486  0.00  0.00    -0.074 A 
ATOM      7  C6  UNL d   1       0.604  -2.061  -0.641  0.00  0.00     0.077 C 
ATOM      8  C7  UNL d   1      -0.947  -0.248   0.143  0.00  0.00    -0.001 A 
ENDROOT
TORSDOF 0
ENDMDL
