MODEL 1
REMARK minimizedAffinity -5.2007699
REMARK minimizedRMSD -1
REMARK  0 active torsions:
REMARK  status: ('A' for Active; 'I' for Inactive)
ROOT
ATOM      1  C   UNL d   1       1.975  -4.987   0.506  0.00  0.00     0.077 C 
ATOM      2  C1  UNL d   1       1.363  -3.884  -0.304  0.00  0.00    -0.074 A 
ATOM      3  C2  UNL d   1       0.897  -4.119  -1.602  0.00  0.00    -0.005 A 
ATOM      4  C3  UNL d   1       0.321  -3.085  -2.340  0.00  0.00     0.006 A 
ATOM      5  C4  UNL d   1       0.206  -1.808  -1.789  0.00  0.00    -0.005 A 
ATOM      6  C5  UNL d   1       0.665  -1.554  -0.493  0.00  0.00    -0.074 A 
ATOM      7  C6  UNL d   1       0.540  -0.190   0.118  0.00  0.00     0.077 C 
ATOM      8  C7  UNL d   1       1.236  -2.600   0.245  0.00  0.00    -0.001 A 
ENDROOT
TORSDOF 0
ENDMDL
