MODEL 1
REMARK minimizedAffinity -4.75891018
REMARK minimizedRMSD -1
REMARK  0 active torsions:
REMARK  status: ('A' for Active; 'I' for Inactive)
ROOT
ATOM      1  C   UNL d   1       1.401  -0.287  -1.222  0.00  0.00     0.077 C 
ATOM      2  C1  UNL d   1       0.439   0.195  -0.177  0.00  0.00    -0.074 A 
ATOM      3  C2  UNL d   1       0.361  -0.430   1.072  0.00  0.00    -0.005 A 
ATOM      4  C3  UNL d   1      -0.532   0.035   2.037  0.00  0.00     0.006 A 
ATOM      5  C4  UNL d   1      -1.355   1.129   1.763  0.00  0.00    -0.005 A 
ATOM      6  C5  UNL d   1      -1.291   1.767   0.521  0.00  0.00    -0.074 A 
ATOM      7  C6  UNL d   1      -2.162   2.949   0.214  0.00  0.00     0.077 C 
ATOM      8  C7  UNL d   1      -0.386   1.298  -0.441  0.00  0.00    -0.001 A 
ENDROOT
TORSDOF 0
ENDMDL
