MODEL 1
REMARK minimizedAffinity -3.77269626
REMARK minimizedRMSD -1
REMARK  0 active torsions:
REMARK  status: ('A' for Active; 'I' for Inactive)
ROOT
ATOM      1  C   UNL d   1       0.356  -1.550  -0.165  0.00  0.00     0.077 C 
ATOM      2  C1  UNL d   1       0.101  -0.082  -0.335  0.00  0.00    -0.074 A 
ATOM      3  C2  UNL d   1       0.635   0.620  -1.421  0.00  0.00    -0.005 A 
ATOM      4  C3  UNL d   1       0.381   1.983  -1.571  0.00  0.00     0.006 A 
ATOM      5  C4  UNL d   1      -0.409   2.657  -0.639  0.00  0.00    -0.005 A 
ATOM      6  C5  UNL d   1      -0.952   1.972   0.452  0.00  0.00    -0.074 A 
ATOM      7  C6  UNL d   1      -1.812   2.680   1.457  0.00  0.00     0.077 C 
ATOM      8  C7  UNL d   1      -0.698   0.601   0.592  0.00  0.00    -0.001 A 
ENDROOT
TORSDOF 0
ENDMDL
