MODEL 1
REMARK minimizedAffinity -0.115747035
REMARK minimizedRMSD -1
REMARK  0 active torsions:
REMARK  status: ('A' for Active; 'I' for Inactive)
ROOT
ATOM      1  C   UNL d   1       1.545  -0.188  -1.626  0.00  0.00     0.023 A 
ATOM      2  C1  UNL d   1       1.446  -0.206  -0.235  0.00  0.00     0.003 A 
ATOM      3  C2  UNL d   1       1.209   0.978   0.465  0.00  0.00     0.048 A 
ATOM      4  C3  UNL d   1       1.072   2.178  -0.232  0.00  0.00     0.023 A 
ATOM      5  C4  UNL d   1       1.169   2.201  -1.624  0.00  0.00     0.048 A 
ATOM      6  C5  UNL d   1       1.406   1.014  -2.320  0.00  0.00     0.003 A 
ATOM      7  I   UNL d   1       0.719   3.942   0.808  0.00  0.00    -0.146 I 
ENDROOT
TORSDOF 0
ENDMDL
