MODEL 1
REMARK minimizedAffinity 0.258545637
REMARK minimizedRMSD -1
REMARK  0 active torsions:
REMARK  status: ('A' for Active; 'I' for Inactive)
ROOT
ATOM      1  C   UNL d   1       1.218   0.729  -2.682  0.00  0.00     0.023 A 
ATOM      2  C1  UNL d   1       1.225   2.038  -2.198  0.00  0.00     0.003 A 
ATOM      3  C2  UNL d   1       1.103   2.277  -0.827  0.00  0.00     0.048 A 
ATOM      4  C3  UNL d   1       0.977   1.204   0.054  0.00  0.00     0.023 A 
ATOM      5  C4  UNL d   1       0.970  -0.107  -0.426  0.00  0.00     0.048 A 
ATOM      6  C5  UNL d   1       1.091  -0.342  -1.797  0.00  0.00     0.003 A 
ATOM      7  I   UNL d   1       0.797   1.558   2.094  0.00  0.00    -0.146 I 
ENDROOT
TORSDOF 0
ENDMDL
