MODEL 1
REMARK minimizedAffinity 1.65991986
REMARK minimizedRMSD -1
REMARK  0 active torsions:
REMARK  status: ('A' for Active; 'I' for Inactive)
ROOT
ATOM      1  C   UNL d   1       1.025  -0.134   0.037  0.00  0.00     0.023 A 
ATOM      2  C1  UNL d   1       0.602   0.307  -1.217  0.00  0.00     0.003 A 
ATOM      3  C2  UNL d   1       0.705   1.658  -1.554  0.00  0.00     0.048 A 
ATOM      4  C3  UNL d   1       1.233   2.562  -0.633  0.00  0.00     0.023 A 
ATOM      5  C4  UNL d   1       1.658   2.125   0.623  0.00  0.00     0.048 A 
ATOM      6  C5  UNL d   1       1.552   0.773   0.956  0.00  0.00     0.003 A 
ATOM      7  I   UNL d   1       1.387   4.574  -1.132  0.00  0.00    -0.146 I 
ENDROOT
TORSDOF 0
ENDMDL
