MODEL 1
REMARK minimizedAffinity -3.5575335
REMARK minimizedRMSD -1
REMARK  0 active torsions:
REMARK  status: ('A' for Active; 'I' for Inactive)
ROOT
ATOM      1  C   UNL d   1       1.019   3.340  -0.637  0.00  0.00     0.023 A 
ATOM      2  C1  UNL d   1       1.464   2.746  -1.817  0.00  0.00     0.003 A 
ATOM      3  C2  UNL d   1       1.620   1.360  -1.888  0.00  0.00     0.048 A 
ATOM      4  C3  UNL d   1       1.328   0.574  -0.773  0.00  0.00     0.023 A 
ATOM      5  C4  UNL d   1       0.882   1.164   0.410  0.00  0.00     0.048 A 
ATOM      6  C5  UNL d   1       0.728   2.550   0.476  0.00  0.00     0.003 A 
ATOM      7  I   UNL d   1       1.560  -1.489  -0.875  0.00  0.00    -0.146 I 
ENDROOT
TORSDOF 0
ENDMDL
