MODEL 1
REMARK minimizedAffinity 1.14600599
REMARK minimizedRMSD -1
REMARK  0 active torsions:
REMARK  status: ('A' for Active; 'I' for Inactive)
ROOT
ATOM      1  C   UNL d   1       1.444  -0.252  -0.622  0.00  0.00     0.023 A 
ATOM      2  C1  UNL d   1       1.774   0.054   0.698  0.00  0.00     0.003 A 
ATOM      3  C2  UNL d   1       1.596   1.352   1.181  0.00  0.00     0.048 A 
ATOM      4  C3  UNL d   1       1.086   2.339   0.338  0.00  0.00     0.023 A 
ATOM      5  C4  UNL d   1       0.753   2.038  -0.983  0.00  0.00     0.048 A 
ATOM      6  C5  UNL d   1       0.934   0.739  -1.462  0.00  0.00     0.003 A 
ATOM      7  I   UNL d   1       0.820   4.272   1.055  0.00  0.00    -0.146 I 
ENDROOT
TORSDOF 0
ENDMDL
