MODEL 1
REMARK minimizedAffinity -2.01906013
REMARK minimizedRMSD -1
REMARK  0 active torsions:
REMARK  status: ('A' for Active; 'I' for Inactive)
ROOT
ATOM      1  C   UNL d   1       0.971   2.757  -0.291  0.00  0.00     0.023 A 
ATOM      2  C1  UNL d   1       1.141   2.159  -1.540  0.00  0.00     0.003 A 
ATOM      3  C2  UNL d   1       1.227   0.769  -1.643  0.00  0.00     0.048 A 
ATOM      4  C3  UNL d   1       1.141  -0.017  -0.494  0.00  0.00     0.023 A 
ATOM      5  C4  UNL d   1       0.970   0.578   0.757  0.00  0.00     0.048 A 
ATOM      6  C5  UNL d   1       0.886   1.968   0.856  0.00  0.00     0.003 A 
ATOM      7  I   UNL d   1       1.268  -2.086  -0.646  0.00  0.00    -0.146 I 
ENDROOT
TORSDOF 0
ENDMDL
