MODEL 1
REMARK minimizedAffinity 5.85045624
REMARK minimizedRMSD -1
REMARK  0 active torsions:
REMARK  status: ('A' for Active; 'I' for Inactive)
ROOT
ATOM      1  C   UNL d   1       1.394  -0.215   0.750  0.00  0.00     0.023 A 
ATOM      2  C1  UNL d   1       1.720  -0.380  -0.596  0.00  0.00     0.003 A 
ATOM      3  C2  UNL d   1       1.624   0.700  -1.476  0.00  0.00     0.048 A 
ATOM      4  C3  UNL d   1       1.203   1.942  -1.003  0.00  0.00     0.023 A 
ATOM      5  C4  UNL d   1       0.877   2.112   0.344  0.00  0.00     0.048 A 
ATOM      6  C5  UNL d   1       0.974   1.029   1.220  0.00  0.00     0.003 A 
ATOM      7  I   UNL d   1       1.060   3.551  -2.311  0.00  0.00    -0.146 I 
ENDROOT
TORSDOF 0
ENDMDL
