MODEL 1
REMARK minimizedAffinity 1.77833545
REMARK minimizedRMSD -1
REMARK  0 active torsions:
REMARK  status: ('A' for Active; 'I' for Inactive)
ROOT
ATOM      1  C   UNL d   1       1.077   4.528  -0.380  0.00  0.00     0.023 A 
ATOM      2  C1  UNL d   1       0.995   3.637   0.691  0.00  0.00     0.003 A 
ATOM      3  C2  UNL d   1       0.947   2.262   0.454  0.00  0.00     0.048 A 
ATOM      4  C3  UNL d   1       0.984   1.784  -0.856  0.00  0.00     0.023 A 
ATOM      5  C4  UNL d   1       1.068   2.672  -1.930  0.00  0.00     0.048 A 
ATOM      6  C5  UNL d   1       1.114   4.046  -1.688  0.00  0.00     0.003 A 
ATOM      7  I   UNL d   1       0.914  -0.263  -1.211  0.00  0.00    -0.146 I 
ENDROOT
TORSDOF 0
ENDMDL
