MODEL 1
REMARK minimizedAffinity 1.45454323
REMARK minimizedRMSD -1
REMARK  0 active torsions:
REMARK  status: ('A' for Active; 'I' for Inactive)
ROOT
ATOM      1  C   UNL d   1       0.716   2.113  -1.363  0.00  0.00     0.023 A 
ATOM      2  C1  UNL d   1       0.562   1.564  -0.090  0.00  0.00     0.003 A 
ATOM      3  C2  UNL d   1       1.338   0.470   0.298  0.00  0.00     0.048 A 
ATOM      4  C3  UNL d   1       2.267  -0.069  -0.592  0.00  0.00     0.023 A 
ATOM      5  C4  UNL d   1       2.425   0.478  -1.867  0.00  0.00     0.048 A 
ATOM      6  C5  UNL d   1       1.646   1.571  -2.250  0.00  0.00     0.003 A 
ATOM      7  I   UNL d   1       3.423  -1.698  -0.017  0.00  0.00    -0.146 I 
ENDROOT
TORSDOF 0
ENDMDL
