MODEL 1
REMARK minimizedAffinity 11.4315443
REMARK minimizedRMSD -1
REMARK  0 active torsions:
REMARK  status: ('A' for Active; 'I' for Inactive)
ROOT
ATOM      1  C   UNL d   1       0.371   1.745  -2.288  0.00  0.00     0.023 A 
ATOM      2  C1  UNL d   1       0.971   2.704  -1.472  0.00  0.00     0.003 A 
ATOM      3  C2  UNL d   1       1.865   2.312  -0.473  0.00  0.00     0.048 A 
ATOM      4  C3  UNL d   1       2.155   0.959  -0.297  0.00  0.00     0.023 A 
ATOM      5  C4  UNL d   1       1.558  -0.003  -1.113  0.00  0.00     0.048 A 
ATOM      6  C5  UNL d   1       0.665   0.393  -2.109  0.00  0.00     0.003 A 
ATOM      7  I   UNL d   1       3.485   0.374   1.188  0.00  0.00    -0.146 I 
ENDROOT
TORSDOF 0
ENDMDL
