MODEL 1
REMARK minimizedAffinity 2.58513784
REMARK minimizedRMSD -1
REMARK  0 active torsions:
REMARK  status: ('A' for Active; 'I' for Inactive)
ROOT
ATOM      1  C   UNL d   1       1.718   0.327  -1.995  0.00  0.00     0.023 A 
ATOM      2  C1  UNL d   1       1.502  -0.432  -0.845  0.00  0.00     0.003 A 
ATOM      3  C2  UNL d   1       0.899   0.147   0.273  0.00  0.00     0.048 A 
ATOM      4  C3  UNL d   1       0.512   1.487   0.234  0.00  0.00     0.023 A 
ATOM      5  C4  UNL d   1       0.725   2.250  -0.916  0.00  0.00     0.048 A 
ATOM      6  C5  UNL d   1       1.330   1.666  -2.030  0.00  0.00     0.003 A 
ATOM      7  I   UNL d   1      -0.387   2.352   1.896  0.00  0.00    -0.146 I 
ENDROOT
TORSDOF 0
ENDMDL
