MODEL 1
REMARK minimizedAffinity 2.92630553
REMARK minimizedRMSD -1
REMARK  0 active torsions:
REMARK  status: ('A' for Active; 'I' for Inactive)
ROOT
ATOM      1  C   UNL d   1      -2.757   2.553   2.269  0.00  0.00     0.023 A 
ATOM      2  C1  UNL d   1      -1.908   2.710   3.366  0.00  0.00     0.003 A 
ATOM      3  C2  UNL d   1      -1.977   1.816   4.437  0.00  0.00     0.048 A 
ATOM      4  C3  UNL d   1      -2.896   0.768   4.404  0.00  0.00     0.023 A 
ATOM      5  C4  UNL d   1      -3.746   0.606   3.309  0.00  0.00     0.048 A 
ATOM      6  C5  UNL d   1      -3.674   1.503   2.241  0.00  0.00     0.003 A 
ATOM      7  I   UNL d   1      -3.000  -0.563   5.997  0.00  0.00    -0.146 I 
ENDROOT
TORSDOF 0
ENDMDL
