MODEL 1
REMARK minimizedAffinity 2.04599547
REMARK minimizedRMSD -1
REMARK  0 active torsions:
REMARK  status: ('A' for Active; 'I' for Inactive)
ROOT
ATOM      1  C   UNL d   1       1.510  -0.039   0.914  0.00  0.00     0.023 A 
ATOM      2  C1  UNL d   1       1.003  -0.515  -0.295  0.00  0.00     0.003 A 
ATOM      3  C2  UNL d   1       0.568   0.381  -1.273  0.00  0.00     0.048 A 
ATOM      4  C3  UNL d   1       0.643   1.753  -1.036  0.00  0.00     0.023 A 
ATOM      5  C4  UNL d   1       1.150   2.235   0.172  0.00  0.00     0.048 A 
ATOM      6  C5  UNL d   1       1.584   1.335   1.147  0.00  0.00     0.003 A 
ATOM      7  I   UNL d   1      -0.005   3.090  -2.490  0.00  0.00    -0.146 I 
ENDROOT
TORSDOF 0
ENDMDL
