MODEL 1
REMARK minimizedAffinity 4.10569477
REMARK minimizedRMSD -1
REMARK  0 active torsions:
REMARK  status: ('A' for Active; 'I' for Inactive)
ROOT
ATOM      1  C   UNL d   1       1.045   0.639  -2.848  0.00  0.00     0.023 A 
ATOM      2  C1  UNL d   1       0.816   1.972  -2.506  0.00  0.00     0.003 A 
ATOM      3  C2  UNL d   1       0.823   2.361  -1.165  0.00  0.00     0.048 A 
ATOM      4  C3  UNL d   1       1.061   1.413  -0.171  0.00  0.00     0.023 A 
ATOM      5  C4  UNL d   1       1.292   0.078  -0.508  0.00  0.00     0.048 A 
ATOM      6  C5  UNL d   1       1.282  -0.307  -1.850  0.00  0.00     0.003 A 
ATOM      7  I   UNL d   1       1.073   1.991   1.825  0.00  0.00    -0.146 I 
ENDROOT
TORSDOF 0
ENDMDL
