MODEL 1
REMARK minimizedAffinity -2.96138763
REMARK minimizedRMSD -1
REMARK  0 active torsions:
REMARK  status: ('A' for Active; 'I' for Inactive)
ROOT
ATOM      1  C   UNL d   1       1.126   0.078  -0.005  0.00  0.00     0.023 A 
ATOM      2  C1  UNL d   1       1.600   0.590  -1.213  0.00  0.00     0.003 A 
ATOM      3  C2  UNL d   1       1.589   1.968  -1.440  0.00  0.00     0.048 A 
ATOM      4  C3  UNL d   1       1.103   2.828  -0.455  0.00  0.00     0.023 A 
ATOM      5  C4  UNL d   1       0.629   2.319   0.755  0.00  0.00     0.048 A 
ATOM      6  C5  UNL d   1       0.641   0.941   0.977  0.00  0.00     0.003 A 
ATOM      7  I   UNL d   1       1.086   4.879  -0.791  0.00  0.00    -0.146 I 
ENDROOT
TORSDOF 0
ENDMDL
