MODEL 1
REMARK minimizedAffinity 6.28304434
REMARK minimizedRMSD -1
REMARK  0 active torsions:
REMARK  status: ('A' for Active; 'I' for Inactive)
ROOT
ATOM      1  C   UNL d   1       1.138   0.043  -0.158  0.00  0.00     0.023 A 
ATOM      2  C1  UNL d   1       0.852   0.998   0.817  0.00  0.00     0.003 A 
ATOM      3  C2  UNL d   1       0.877   2.356   0.495  0.00  0.00     0.048 A 
ATOM      4  C3  UNL d   1       1.188   2.753  -0.805  0.00  0.00     0.023 A 
ATOM      5  C4  UNL d   1       1.475   1.801  -1.785  0.00  0.00     0.048 A 
ATOM      6  C5  UNL d   1       1.450   0.444  -1.458  0.00  0.00     0.003 A 
ATOM      7  I   UNL d   1       1.226   4.774  -1.287  0.00  0.00    -0.146 I 
ENDROOT
TORSDOF 0
ENDMDL
