MODEL 1
REMARK minimizedAffinity 5.20945549
REMARK minimizedRMSD -1
REMARK  0 active torsions:
REMARK  status: ('A' for Active; 'I' for Inactive)
ROOT
ATOM      1  C   UNL d   1      -1.764   1.628   5.445  0.00  0.00     0.023 A 
ATOM      2  C1  UNL d   1      -2.646   0.700   5.999  0.00  0.00     0.003 A 
ATOM      3  C2  UNL d   1      -3.862   0.427   5.369  0.00  0.00     0.048 A 
ATOM      4  C3  UNL d   1      -4.189   1.085   4.184  0.00  0.00     0.023 A 
ATOM      5  C4  UNL d   1      -3.309   2.014   3.625  0.00  0.00     0.048 A 
ATOM      6  C5  UNL d   1      -2.095   2.284   4.259  0.00  0.00     0.003 A 
ATOM      7  I   UNL d   1      -5.998   0.680   3.244  0.00  0.00    -0.146 I 
ENDROOT
TORSDOF 0
ENDMDL
