MODEL 1
REMARK minimizedAffinity -2.03277254
REMARK minimizedRMSD -1
REMARK  0 active torsions:
REMARK  status: ('A' for Active; 'I' for Inactive)
ROOT
ATOM      1  C1  DEN d   1      -1.290   0.704  -0.089  0.00  0.00     0.130 A 
ATOM      2  C2  DEN d   1      -1.931   0.110   1.082  0.00  0.00    -0.031 A 
ATOM      3  C3  DEN d   1      -0.925  -0.710   1.786  0.00  0.00     0.027 A 
ATOM      4  C4  DEN d   1       1.551  -1.112   1.185  0.00  0.00     0.027 A 
ATOM      5  C5  DEN d   1       2.545  -0.830   0.275  0.00  0.00    -0.003 A 
ATOM      6  C6  DEN d   1       2.324  -0.050  -0.830  0.00  0.00     0.001 A 
ATOM      7  C7  DEN d   1       1.090   0.511  -1.028  0.00  0.00     0.017 A 
ATOM      8  C8  DEN d   1       0.080   0.225  -0.119  0.00  0.00    -0.094 A 
ATOM      9  C9  DEN d   1       0.327  -0.556   0.998  0.00  0.00    -0.072 A 
ENDROOT
TORSDOF 0
ENDMDL
