MODEL 1
REMARK minimizedAffinity -4.8566618
REMARK minimizedRMSD -1
REMARK  0 active torsions:
REMARK  status: ('A' for Active; 'I' for Inactive)
ROOT
ATOM      1  C1  DEN d   1      -0.771   1.162  -2.000  0.00  0.00     0.130 A 
ATOM      2  C2  DEN d   1      -2.082   1.541  -1.482  0.00  0.00    -0.031 A 
ATOM      3  C3  DEN d   1      -2.240   0.930  -0.147  0.00  0.00     0.027 A 
ATOM      4  C4  DEN d   1      -0.588  -0.554   1.163  0.00  0.00     0.027 A 
ATOM      5  C5  DEN d   1       0.649  -1.159   1.128  0.00  0.00    -0.003 A 
ATOM      6  C6  DEN d   1       1.479  -1.062   0.042  0.00  0.00     0.001 A 
ATOM      7  C7  DEN d   1       1.100  -0.305  -1.035  0.00  0.00     0.017 A 
ATOM      8  C8  DEN d   1      -0.149   0.302  -1.010  0.00  0.00    -0.094 A 
ATOM      9  C9  DEN d   1      -0.968   0.201   0.102  0.00  0.00    -0.072 A 
ENDROOT
TORSDOF 0
ENDMDL
