MODEL 1
REMARK minimizedAffinity -4.92857647
REMARK minimizedRMSD -1
REMARK  0 active torsions:
REMARK  status: ('A' for Active; 'I' for Inactive)
ROOT
ATOM      1  C1  DEN d   1       1.037  -1.159   1.920  0.00  0.00     0.130 A 
ATOM      2  C2  DEN d   1       2.387  -1.324   1.390  0.00  0.00    -0.031 A 
ATOM      3  C3  DEN d   1       2.345  -1.046  -0.060  0.00  0.00     0.027 A 
ATOM      4  C4  DEN d   1       0.332  -0.373  -1.525  0.00  0.00     0.027 A 
ATOM      5  C5  DEN d   1      -1.022  -0.119  -1.525  0.00  0.00    -0.003 A 
ATOM      6  C6  DEN d   1      -1.784  -0.226  -0.392  0.00  0.00     0.001 A 
ATOM      7  C7  DEN d   1      -1.190  -0.553   0.798  0.00  0.00     0.017 A 
ATOM      8  C8  DEN d   1       0.173  -0.818   0.804  0.00  0.00    -0.094 A 
ATOM      9  C9  DEN d   1       0.929  -0.692  -0.349  0.00  0.00    -0.072 A 
ENDROOT
TORSDOF 0
ENDMDL
