MODEL 1
REMARK minimizedAffinity -1.36187625
REMARK minimizedRMSD -1
REMARK  0 active torsions:
REMARK  status: ('A' for Active; 'I' for Inactive)
ROOT
ATOM      1  C1  DEN d   1      -1.426   1.612  -2.935  0.00  0.00     0.130 A 
ATOM      2  C2  DEN d   1      -2.617   0.850  -3.303  0.00  0.00    -0.031 A 
ATOM      3  C3  DEN d   1      -2.943  -0.057  -2.185  0.00  0.00     0.027 A 
ATOM      4  C4  DEN d   1      -1.731  -0.351   0.073  0.00  0.00     0.027 A 
ATOM      5  C5  DEN d   1      -0.664   0.068   0.837  0.00  0.00    -0.003 A 
ATOM      6  C6  DEN d   1       0.235   0.998   0.388  0.00  0.00     0.001 A 
ATOM      7  C7  DEN d   1       0.059   1.574  -0.843  0.00  0.00     0.017 A 
ATOM      8  C8  DEN d   1      -1.010   1.151  -1.622  0.00  0.00    -0.094 A 
ATOM      9  C9  DEN d   1      -1.915   0.219  -1.145  0.00  0.00    -0.072 A 
ENDROOT
TORSDOF 0
ENDMDL
