MODEL 1
REMARK minimizedAffinity -6.3071599
REMARK minimizedRMSD -1
REMARK  0 active torsions:
REMARK  status: ('A' for Active; 'I' for Inactive)
ROOT
ATOM      1  C1  DEN d   1      -1.031  -1.107   0.320  0.00  0.00     0.130 A 
ATOM      2  C2  DEN d   1       0.413  -1.138   0.106  0.00  0.00    -0.031 A 
ATOM      3  C3  DEN d   1       0.756  -0.063  -0.848  0.00  0.00     0.027 A 
ATOM      4  C4  DEN d   1      -0.801   1.639  -2.002  0.00  0.00     0.027 A 
ATOM      5  C5  DEN d   1      -2.108   2.050  -2.142  0.00  0.00    -0.003 A 
ATOM      6  C6  DEN d   1      -3.143   1.421  -1.503  0.00  0.00     0.001 A 
ATOM      7  C7  DEN d   1      -2.884   0.374  -0.658  0.00  0.00     0.017 A 
ATOM      8  C8  DEN d   1      -1.569  -0.050  -0.518  0.00  0.00    -0.094 A 
ATOM      9  C9  DEN d   1      -0.535   0.606  -1.163  0.00  0.00    -0.072 A 
ENDROOT
TORSDOF 0
ENDMDL
