MODEL 1
REMARK minimizedAffinity 6.74794626
REMARK minimizedRMSD -1
REMARK  0 active torsions:
REMARK  status: ('A' for Active; 'I' for Inactive)
ROOT
ATOM      1  C1  DEN d   1       2.833   2.606  -1.262  0.00  0.00     0.130 A 
ATOM      2  C2  DEN d   1       4.036   2.082  -1.902  0.00  0.00    -0.031 A 
ATOM      3  C3  DEN d   1       4.152   0.651  -1.555  0.00  0.00     0.027 A 
ATOM      4  C4  DEN d   1       2.592  -0.797  -0.099  0.00  0.00     0.027 A 
ATOM      5  C5  DEN d   1       1.449  -0.791   0.670  0.00  0.00    -0.003 A 
ATOM      6  C6  DEN d   1       0.712   0.345   0.874  0.00  0.00     0.001 A 
ATOM      7  C7  DEN d   1       1.085   1.514   0.266  0.00  0.00     0.017 A 
ATOM      8  C8  DEN d   1       2.240   1.519  -0.504  0.00  0.00    -0.094 A 
ATOM      9  C9  DEN d   1       2.965   0.357  -0.708  0.00  0.00    -0.072 A 
ENDROOT
TORSDOF 0
ENDMDL
