MODEL 1
REMARK minimizedAffinity 8.95563602
REMARK minimizedRMSD -1
REMARK  0 active torsions:
REMARK  status: ('A' for Active; 'I' for Inactive)
ROOT
ATOM      1  C1  DEN d   1      -3.246  -5.104  -2.167  0.00  0.00     0.130 A 
ATOM      2  C2  DEN d   1      -4.312  -5.807  -2.875  0.00  0.00    -0.031 A 
ATOM      3  C3  DEN d   1      -5.434  -6.000  -1.934  0.00  0.00     0.027 A 
ATOM      4  C4  DEN d   1      -5.625  -5.276   0.534  0.00  0.00     0.027 A 
ATOM      5  C5  DEN d   1      -4.970  -4.659   1.577  0.00  0.00    -0.003 A 
ATOM      6  C6  DEN d   1      -3.692  -4.181   1.456  0.00  0.00     0.001 A 
ATOM      7  C7  DEN d   1      -3.045  -4.272   0.252  0.00  0.00     0.017 A 
ATOM      8  C8  DEN d   1      -3.696  -4.900  -0.802  0.00  0.00    -0.094 A 
ATOM      9  C9  DEN d   1      -4.992  -5.366  -0.663  0.00  0.00    -0.072 A 
ENDROOT
TORSDOF 0
ENDMDL
