MODEL 1
REMARK minimizedAffinity 3.45402837
REMARK minimizedRMSD -1
REMARK  0 active torsions:
REMARK  status: ('A' for Active; 'I' for Inactive)
ROOT
ATOM      1  C1  DEN d   1      -0.005  -0.975   3.266  0.00  0.00     0.130 A 
ATOM      2  C2  DEN d   1       0.791  -1.726   4.233  0.00  0.00    -0.031 A 
ATOM      3  C3  DEN d   1       2.111  -1.994   3.628  0.00  0.00     0.027 A 
ATOM      4  C4  DEN d   1       2.997  -1.319   1.301  0.00  0.00     0.027 A 
ATOM      5  C5  DEN d   1       2.681  -0.681   0.122  0.00  0.00    -0.003 A 
ATOM      6  C6  DEN d   1       1.447  -0.131  -0.104  0.00  0.00     0.001 A 
ATOM      7  C7  DEN d   1       0.497  -0.169   0.882  0.00  0.00     0.017 A 
ATOM      8  C8  DEN d   1       0.805  -0.816   2.072  0.00  0.00    -0.094 A 
ATOM      9  C9  DEN d   1       2.062  -1.355   2.285  0.00  0.00    -0.072 A 
ENDROOT
TORSDOF 0
ENDMDL
