MODEL 1
REMARK minimizedAffinity 8.0295372
REMARK minimizedRMSD -1
REMARK  0 active torsions:
REMARK  status: ('A' for Active; 'I' for Inactive)
ROOT
ATOM      1  C1  DEN d   1      -1.276  -5.940  -3.594  0.00  0.00     0.130 A 
ATOM      2  C2  DEN d   1      -2.077  -5.964  -4.815  0.00  0.00    -0.031 A 
ATOM      3  C3  DEN d   1      -1.154  -5.986  -5.967  0.00  0.00     0.027 A 
ATOM      4  C4  DEN d   1       1.425  -5.990  -5.980  0.00  0.00     0.027 A 
ATOM      5  C5  DEN d   1       2.552  -5.964  -5.188  0.00  0.00    -0.003 A 
ATOM      6  C6  DEN d   1       2.482  -5.894  -3.822  0.00  0.00     0.001 A 
ATOM      7  C7  DEN d   1       1.260  -5.893  -3.203  0.00  0.00     0.017 A 
ATOM      8  C8  DEN d   1       0.119  -5.913  -3.996  0.00  0.00    -0.094 A 
ATOM      9  C9  DEN d   1       0.210  -5.996  -5.375  0.00  0.00    -0.072 A 
ENDROOT
TORSDOF 0
ENDMDL
