MODEL 1
REMARK minimizedAffinity -2.61935663
REMARK minimizedRMSD -1
REMARK  0 active torsions:
REMARK  status: ('A' for Active; 'I' for Inactive)
ROOT
ATOM      1  C1  DEN d   1       0.942   1.107  -0.451  0.00  0.00     0.130 A 
ATOM      2  C2  DEN d   1       2.145   1.102  -1.279  0.00  0.00    -0.031 A 
ATOM      3  C3  DEN d   1       2.996  -0.024  -0.842  0.00  0.00     0.027 A 
ATOM      4  C4  DEN d   1       2.566  -1.753   1.023  0.00  0.00     0.027 A 
ATOM      5  C5  DEN d   1       1.687  -2.147   2.007  0.00  0.00    -0.003 A 
ATOM      6  C6  DEN d   1       0.524  -1.470   2.262  0.00  0.00     0.001 A 
ATOM      7  C7  DEN d   1       0.186  -0.388   1.492  0.00  0.00     0.017 A 
ATOM      8  C8  DEN d   1       1.071   0.020   0.503  0.00  0.00    -0.094 A 
ATOM      9  C9  DEN d   1       2.236  -0.685   0.253  0.00  0.00    -0.072 A 
ENDROOT
TORSDOF 0
ENDMDL
