MODEL 1
REMARK minimizedAffinity -7.14865541
REMARK minimizedRMSD -1
REMARK  0 active torsions:
REMARK  status: ('A' for Active; 'I' for Inactive)
ROOT
ATOM      1  C1  DEN d   1      -0.017   0.473  -0.047  0.00  0.00     0.130 A 
ATOM      2  C2  DEN d   1      -1.134   1.095   0.660  0.00  0.00    -0.031 A 
ATOM      3  C3  DEN d   1      -1.461   0.253   1.828  0.00  0.00     0.027 A 
ATOM      4  C4  DEN d   1      -0.348  -1.939   2.611  0.00  0.00     0.027 A 
ATOM      5  C5  DEN d   1       0.633  -2.863   2.327  0.00  0.00    -0.003 A 
ATOM      6  C6  DEN d   1       1.437  -2.759   1.223  0.00  0.00     0.001 A 
ATOM      7  C7  DEN d   1       1.304  -1.683   0.385  0.00  0.00     0.017 A 
ATOM      8  C8  DEN d   1       0.312  -0.751   0.661  0.00  0.00    -0.094 A 
ATOM      9  C9  DEN d   1      -0.482  -0.867   1.789  0.00  0.00    -0.072 A 
ENDROOT
TORSDOF 0
ENDMDL
