MODEL 1
REMARK minimizedAffinity 1.02721417
REMARK minimizedRMSD -1
REMARK  0 active torsions:
REMARK  status: ('A' for Active; 'I' for Inactive)
ROOT
ATOM      1  C1  DEN d   1       1.984  -1.308   1.315  0.00  0.00     0.130 A 
ATOM      2  C2  DEN d   1       2.993  -0.779   0.401  0.00  0.00    -0.031 A 
ATOM      3  C3  DEN d   1       2.432   0.419  -0.254  0.00  0.00     0.027 A 
ATOM      4  C4  DEN d   1       0.113   1.504   0.059  0.00  0.00     0.027 A 
ATOM      5  C5  DEN d   1      -1.092   1.406   0.719  0.00  0.00    -0.003 A 
ATOM      6  C6  DEN d   1      -1.367   0.386   1.591  0.00  0.00     0.001 A 
ATOM      7  C7  DEN d   1      -0.406  -0.553   1.861  0.00  0.00     0.017 A 
ATOM      8  C8  DEN d   1       0.808  -0.465   1.194  0.00  0.00    -0.094 A 
ATOM      9  C9  DEN d   1       1.071   0.581   0.326  0.00  0.00    -0.072 A 
ENDROOT
TORSDOF 0
ENDMDL
