MODEL 1
REMARK minimizedAffinity -1.93364823
REMARK minimizedRMSD -1
REMARK  0 active torsions:
REMARK  status: ('A' for Active; 'I' for Inactive)
ROOT
ATOM      1  C1  DEN d   1      -0.453   2.440  -2.081  0.00  0.00     0.130 A 
ATOM      2  C2  DEN d   1      -1.344   2.270  -3.225  0.00  0.00    -0.031 A 
ATOM      3  C3  DEN d   1      -2.321   1.215  -2.890  0.00  0.00     0.027 A 
ATOM      4  C4  DEN d   1      -2.544  -0.160  -0.720  0.00  0.00     0.027 A 
ATOM      5  C5  DEN d   1      -2.008  -0.380   0.530  0.00  0.00    -0.003 A 
ATOM      6  C6  DEN d   1      -0.905   0.296   0.980  0.00  0.00     0.001 A 
ATOM      7  C7  DEN d   1      -0.329   1.256   0.192  0.00  0.00     0.017 A 
ATOM      8  C8  DEN d   1      -0.859   1.478  -1.072  0.00  0.00    -0.094 A 
ATOM      9  C9  DEN d   1      -1.982   0.794  -1.504  0.00  0.00    -0.072 A 
ENDROOT
TORSDOF 0
ENDMDL
