MODEL 1
REMARK minimizedAffinity -4.893538
REMARK minimizedRMSD -1
REMARK  0 active torsions:
REMARK  status: ('A' for Active; 'I' for Inactive)
ROOT
ATOM      1  C   UNL d   1      -1.462   3.708   0.819  0.00  0.00    -0.002 A 
ATOM      2  C1  UNL d   1      -0.801   3.685  -0.401  0.00  0.00     0.010 A 
ATOM      3  C2  UNL d   1      -0.287   2.489  -0.908  0.00  0.00     0.041 A 
ATOM      4  C3  UNL d   1      -0.452   1.306  -0.161  0.00  0.00    -0.075 A 
ATOM      5  S   UNL d   1       0.092  -0.274  -0.584  0.00  0.00     0.015 SA
ATOM      6  C4  UNL d   1      -0.540  -0.956   0.844  0.00  0.00     0.022 A 
ATOM      7  C5  UNL d   1      -1.155  -0.015   1.636  0.00  0.00     0.026 A 
ATOM      8  C6  UNL d   1      -1.115   1.304   1.070  0.00  0.00    -0.082 A 
ATOM      9  C7  UNL d   1      -1.623   2.532   1.557  0.00  0.00     0.045 A 
ENDROOT
TORSDOF 0
ENDMDL
