MODEL 1
REMARK minimizedAffinity -2.34192944
REMARK minimizedRMSD -1
REMARK  0 active torsions:
REMARK  status: ('A' for Active; 'I' for Inactive)
ROOT
ATOM      1  C   UNL d   1       0.373  -3.085  -3.072  0.00  0.00    -0.002 A 
ATOM      2  C1  UNL d   1       1.093  -3.607  -2.008  0.00  0.00     0.010 A 
ATOM      3  C2  UNL d   1       1.310  -2.848  -0.856  0.00  0.00     0.041 A 
ATOM      4  C3  UNL d   1       0.784  -1.543  -0.791  0.00  0.00    -0.075 A 
ATOM      5  S   UNL d   1       0.923  -0.430   0.518  0.00  0.00     0.015 SA
ATOM      6  C4  UNL d   1       0.028   0.765  -0.305  0.00  0.00     0.022 A 
ATOM      7  C5  UNL d   1      -0.374   0.342  -1.549  0.00  0.00     0.026 A 
ATOM      8  C6  UNL d   1       0.054  -0.995  -1.850  0.00  0.00    -0.082 A 
ATOM      9  C7  UNL d   1      -0.148  -1.790  -3.004  0.00  0.00     0.045 A 
ENDROOT
TORSDOF 0
ENDMDL
