MODEL 1
REMARK minimizedAffinity -2.6587007
REMARK minimizedRMSD -1
REMARK  0 active torsions:
REMARK  status: ('A' for Active; 'I' for Inactive)
ROOT
ATOM      1  C   UNL d   1      -0.781   3.853   0.336  0.00  0.00    -0.002 A 
ATOM      2  C1  UNL d   1      -0.060   3.329  -0.728  0.00  0.00     0.010 A 
ATOM      3  C2  UNL d   1       0.186   1.958  -0.812  0.00  0.00     0.041 A 
ATOM      4  C3  UNL d   1      -0.311   1.113   0.200  0.00  0.00    -0.075 A 
ATOM      5  S   UNL d   1      -0.133  -0.599   0.305  0.00  0.00     0.015 SA
ATOM      6  C4  UNL d   1      -1.010  -0.675   1.764  0.00  0.00     0.022 A 
ATOM      7  C5  UNL d   1      -1.435   0.565   2.176  0.00  0.00     0.026 A 
ATOM      8  C6  UNL d   1      -1.040   1.616   1.281  0.00  0.00    -0.082 A 
ATOM      9  C7  UNL d   1      -1.272   3.012   1.338  0.00  0.00     0.045 A 
ENDROOT
TORSDOF 0
ENDMDL
