MODEL 1
REMARK minimizedAffinity -3.45608711
REMARK minimizedRMSD -1
REMARK  0 active torsions:
REMARK  status: ('A' for Active; 'I' for Inactive)
ROOT
ATOM      1  C   UNL d   1      -2.246   1.514   1.528  0.00  0.00    -0.002 A 
ATOM      2  C1  UNL d   1      -1.956   0.267   2.063  0.00  0.00     0.010 A 
ATOM      3  C2  UNL d   1      -0.928  -0.513   1.529  0.00  0.00     0.041 A 
ATOM      4  C3  UNL d   1      -0.187  -0.012   0.441  0.00  0.00    -0.075 A 
ATOM      5  S   UNL d   1       1.117  -0.790  -0.375  0.00  0.00     0.015 SA
ATOM      6  C4  UNL d   1       1.321   0.516  -1.451  0.00  0.00     0.022 A 
ATOM      7  C5  UNL d   1       0.424   1.529  -1.209  0.00  0.00     0.026 A 
ATOM      8  C6  UNL d   1      -0.460   1.242  -0.114  0.00  0.00    -0.082 A 
ATOM      9  C7  UNL d   1      -1.510   2.008   0.448  0.00  0.00     0.045 A 
ENDROOT
TORSDOF 0
ENDMDL
