MODEL 1
REMARK minimizedAffinity -4.57998657
REMARK minimizedRMSD -1
REMARK  0 active torsions:
REMARK  status: ('A' for Active; 'I' for Inactive)
ROOT
ATOM      1  C   UNL d   1      -1.510   1.612   2.282  0.00  0.00    -0.002 A 
ATOM      2  C1  UNL d   1      -2.163   1.996   1.120  0.00  0.00     0.010 A 
ATOM      3  C2  UNL d   1      -1.834   1.413  -0.106  0.00  0.00     0.041 A 
ATOM      4  C3  UNL d   1      -0.829   0.427  -0.143  0.00  0.00    -0.075 A 
ATOM      5  S   UNL d   1      -0.260  -0.426  -1.530  0.00  0.00     0.015 SA
ATOM      6  C4  UNL d   1       0.863  -1.320  -0.612  0.00  0.00     0.022 A 
ATOM      7  C5  UNL d   1       0.819  -0.990   0.722  0.00  0.00     0.026 A 
ATOM      8  C6  UNL d   1      -0.157   0.022   1.014  0.00  0.00    -0.082 A 
ATOM      9  C7  UNL d   1      -0.513   0.633   2.241  0.00  0.00     0.045 A 
ENDROOT
TORSDOF 0
ENDMDL
