MODEL 1
REMARK minimizedAffinity 0.0954687223
REMARK minimizedRMSD -1
REMARK  0 active torsions:
REMARK  status: ('A' for Active; 'I' for Inactive)
ROOT
ATOM      1  C   UNL d   1       1.506   0.180  -1.795  0.00  0.00    -0.002 A 
ATOM      2  C1  UNL d   1       1.170   1.526  -1.829  0.00  0.00     0.010 A 
ATOM      3  C2  UNL d   1       0.335   2.074  -0.853  0.00  0.00     0.041 A 
ATOM      4  C3  UNL d   1      -0.159   1.239   0.168  0.00  0.00    -0.075 A 
ATOM      5  S   UNL d   1      -1.196   1.691   1.470  0.00  0.00     0.015 SA
ATOM      6  C4  UNL d   1      -1.216   0.108   2.101  0.00  0.00     0.022 A 
ATOM      7  C5  UNL d   1      -0.456  -0.757   1.350  0.00  0.00     0.026 A 
ATOM      8  C6  UNL d   1       0.166  -0.119   0.224  0.00  0.00    -0.082 A 
ATOM      9  C7  UNL d   1       1.014  -0.645  -0.780  0.00  0.00     0.045 A 
ENDROOT
TORSDOF 0
ENDMDL
