MODEL 1
REMARK minimizedAffinity -3.70373321
REMARK minimizedRMSD -1
REMARK  0 active torsions:
REMARK  status: ('A' for Active; 'I' for Inactive)
ROOT
ATOM      1  C   UNL d   1       0.619  -0.203  -1.254  0.00  0.00    -0.002 A 
ATOM      2  C1  UNL d   1       0.990  -0.952  -0.146  0.00  0.00     0.010 A 
ATOM      3  C2  UNL d   1       0.386  -0.734   1.094  0.00  0.00     0.041 A 
ATOM      4  C3  UNL d   1      -0.609   0.258   1.202  0.00  0.00    -0.075 A 
ATOM      5  S   UNL d   1      -1.486   0.699   2.619  0.00  0.00     0.015 SA
ATOM      6  C4  UNL d   1      -2.376   1.891   1.787  0.00  0.00     0.022 A 
ATOM      7  C5  UNL d   1      -2.025   1.964   0.460  0.00  0.00     0.026 A 
ATOM      8  C6  UNL d   1      -1.001   1.024   0.101  0.00  0.00    -0.082 A 
ATOM      9  C7  UNL d   1      -0.369   0.780  -1.142  0.00  0.00     0.045 A 
ENDROOT
TORSDOF 0
ENDMDL
