MODEL 1
REMARK minimizedAffinity -3.26671457
REMARK minimizedRMSD -1
REMARK  0 active torsions:
REMARK  status: ('A' for Active; 'I' for Inactive)
ROOT
ATOM      1  C   UNL d   1      -1.926   1.424   1.207  0.00  0.00    -0.002 A 
ATOM      2  C1  UNL d   1      -1.567   2.475   0.377  0.00  0.00     0.010 A 
ATOM      3  C2  UNL d   1      -0.559   2.315  -0.576  0.00  0.00     0.041 A 
ATOM      4  C3  UNL d   1       0.087   1.068  -0.683  0.00  0.00    -0.075 A 
ATOM      5  S   UNL d   1       1.348   0.640  -1.777  0.00  0.00     0.015 SA
ATOM      6  C4  UNL d   1       1.439  -0.950  -1.168  0.00  0.00     0.022 A 
ATOM      7  C5  UNL d   1       0.536  -1.166  -0.154  0.00  0.00     0.026 A 
ATOM      8  C6  UNL d   1      -0.259  -0.007   0.142  0.00  0.00    -0.082 A 
ATOM      9  C7  UNL d   1      -1.284   0.187   1.099  0.00  0.00     0.045 A 
ENDROOT
TORSDOF 0
ENDMDL
