MODEL 1
REMARK minimizedAffinity 1.62718117
REMARK minimizedRMSD -1
REMARK  0 active torsions:
REMARK  status: ('A' for Active; 'I' for Inactive)
ROOT
ATOM      1  C   UNL d   1      -1.606   1.179   1.869  0.00  0.00    -0.002 A 
ATOM      2  C1  UNL d   1      -1.314  -0.146   2.156  0.00  0.00     0.010 A 
ATOM      3  C2  UNL d   1      -0.449  -0.876   1.338  0.00  0.00     0.041 A 
ATOM      4  C3  UNL d   1       0.125  -0.244   0.218  0.00  0.00    -0.075 A 
ATOM      5  S   UNL d   1       1.213  -0.940  -0.924  0.00  0.00     0.015 SA
ATOM      6  C4  UNL d   1       1.317   0.506  -1.820  0.00  0.00     0.022 A 
ATOM      7  C5  UNL d   1       0.546   1.506  -1.275  0.00  0.00     0.026 A 
ATOM      8  C6  UNL d   1      -0.153   1.090  -0.092  0.00  0.00    -0.082 A 
ATOM      9  C7  UNL d   1      -1.035   1.803   0.756  0.00  0.00     0.045 A 
ENDROOT
TORSDOF 0
ENDMDL
