MODEL 1
REMARK minimizedAffinity -4.04712439
REMARK minimizedRMSD -1
REMARK  0 active torsions:
REMARK  status: ('A' for Active; 'I' for Inactive)
ROOT
ATOM      1  C   UNL d   1      -1.453   0.700   2.263  0.00  0.00    -0.002 A 
ATOM      2  C1  UNL d   1      -1.253   1.770   1.403  0.00  0.00     0.010 A 
ATOM      3  C2  UNL d   1      -0.470   1.624   0.256  0.00  0.00     0.041 A 
ATOM      4  C3  UNL d   1       0.113   0.370  -0.015  0.00  0.00    -0.075 A 
ATOM      5  S   UNL d   1       1.109  -0.043  -1.360  0.00  0.00     0.015 SA
ATOM      6  C4  UNL d   1       1.292  -1.651  -0.826  0.00  0.00     0.022 A 
ATOM      7  C5  UNL d   1       0.617  -1.884   0.349  0.00  0.00     0.026 A 
ATOM      8  C6  UNL d   1      -0.075  -0.723   0.835  0.00  0.00    -0.082 A 
ATOM      9  C7  UNL d   1      -0.873  -0.542   1.990  0.00  0.00     0.045 A 
ENDROOT
TORSDOF 0
ENDMDL
