MODEL 1
REMARK minimizedAffinity -4.31512117
REMARK minimizedRMSD -1
REMARK  0 active torsions:
REMARK  status: ('A' for Active; 'I' for Inactive)
ROOT
ATOM      1  C   UNL d   1      -1.760   1.509   1.414  0.00  0.00    -0.002 A 
ATOM      2  C1  UNL d   1      -1.297   0.281   1.864  0.00  0.00     0.010 A 
ATOM      3  C2  UNL d   1      -0.227  -0.352   1.227  0.00  0.00     0.041 A 
ATOM      4  C3  UNL d   1       0.376   0.278   0.121  0.00  0.00    -0.075 A 
ATOM      5  S   UNL d   1       1.700  -0.308  -0.815  0.00  0.00     0.015 SA
ATOM      6  C4  UNL d   1       1.682   1.058  -1.834  0.00  0.00     0.022 A 
ATOM      7  C5  UNL d   1       0.696   1.950  -1.483  0.00  0.00     0.026 A 
ATOM      8  C6  UNL d   1      -0.073   1.515  -0.351  0.00  0.00    -0.082 A 
ATOM      9  C7  UNL d   1      -1.160   2.130   0.316  0.00  0.00     0.045 A 
ENDROOT
TORSDOF 0
ENDMDL
