MODEL 1
REMARK minimizedAffinity -4.31766748
REMARK minimizedRMSD -1
REMARK  0 active torsions:
REMARK  status: ('A' for Active; 'I' for Inactive)
ROOT
ATOM      1  C   UNL d   1       1.409  -0.383  -1.172  0.00  0.00    -0.002 A 
ATOM      2  C1  UNL d   1       1.122   0.872  -1.689  0.00  0.00     0.010 A 
ATOM      3  C2  UNL d   1       0.133   1.670  -1.109  0.00  0.00     0.041 A 
ATOM      4  C3  UNL d   1      -0.567   1.181   0.011  0.00  0.00    -0.075 A 
ATOM      5  S   UNL d   1      -1.817   1.982   0.887  0.00  0.00     0.015 SA
ATOM      6  C4  UNL d   1      -1.998   0.678   1.968  0.00  0.00     0.022 A 
ATOM      7  C5  UNL d   1      -1.134  -0.353   1.683  0.00  0.00     0.026 A 
ATOM      8  C6  UNL d   1      -0.294  -0.079   0.551  0.00  0.00    -0.082 A 
ATOM      9  C7  UNL d   1       0.713  -0.865  -0.060  0.00  0.00     0.045 A 
ENDROOT
TORSDOF 0
ENDMDL
