MODEL 1
REMARK minimizedAffinity 9.68858528
REMARK minimizedRMSD -1
REMARK  0 active torsions:
REMARK  status: ('A' for Active; 'I' for Inactive)
ROOT
ATOM      1  N1  IND d   1       0.501  -0.892   2.792  0.00  0.00    -0.196 N 
ATOM      2  C2  IND d   1       1.246  -0.239   1.851  0.00  0.00     0.054 A 
ATOM      3  C3  IND d   1       2.459  -0.824   1.723  0.00  0.00    -0.031 A 
ATOM      4  C4  IND d   1       3.393  -2.923   2.884  0.00  0.00     0.051 A 
ATOM      5  C5  IND d   1       3.095  -3.841   3.852  0.00  0.00    -0.031 A 
ATOM      6  C6  IND d   1       1.892  -3.825   4.527  0.00  0.00     0.015 A 
ATOM      7  C7  IND d   1       0.933  -2.892   4.251  0.00  0.00    -0.016 A 
ATOM      8  C8  IND d   1       1.234  -1.953   3.274  0.00  0.00    -0.047 A 
ATOM      9  C9  IND d   1       2.471  -1.939   2.615  0.00  0.00    -0.096 A 
ATOM     10  HN1 IND d   1      -0.293  -0.676   3.042  0.00  0.00     0.298 HD
ENDROOT
TORSDOF 0
ENDMDL
