MODEL 1
REMARK minimizedAffinity 8.25809765
REMARK minimizedRMSD -1
REMARK  0 active torsions:
REMARK  status: ('A' for Active; 'I' for Inactive)
ROOT
ATOM      1  N1  IND d   1       3.156  -5.990  -4.871  0.00  0.00    -0.196 N 
ATOM      2  C2  IND d   1       1.837  -5.993  -4.514  0.00  0.00     0.054 A 
ATOM      3  C3  IND d   1       1.714  -5.996  -3.168  0.00  0.00    -0.031 A 
ATOM      4  C4  IND d   1       3.541  -5.893  -1.358  0.00  0.00     0.051 A 
ATOM      5  C5  IND d   1       4.898  -5.912  -1.195  0.00  0.00    -0.031 A 
ATOM      6  C6  IND d   1       5.761  -5.956  -2.271  0.00  0.00     0.015 A 
ATOM      7  C7  IND d   1       5.298  -5.971  -3.556  0.00  0.00    -0.016 A 
ATOM      8  C8  IND d   1       3.920  -5.959  -3.725  0.00  0.00    -0.047 A 
ATOM      9  C9  IND d   1       3.039  -5.957  -2.636  0.00  0.00    -0.096 A 
ATOM     10  HN1 IND d   1       3.459  -6.004  -5.676  0.00  0.00     0.298 HD
ENDROOT
TORSDOF 0
ENDMDL
