MODEL 1
REMARK minimizedAffinity 0.347449809
REMARK minimizedRMSD -1
REMARK  0 active torsions:
REMARK  status: ('A' for Active; 'I' for Inactive)
ROOT
ATOM      1  N1  IND d   1       5.597  -5.888  -1.218  0.00  0.00    -0.196 N 
ATOM      2  C2  IND d   1       4.517  -5.828  -0.382  0.00  0.00     0.054 A 
ATOM      3  C3  IND d   1       3.370  -5.807  -1.098  0.00  0.00    -0.031 A 
ATOM      4  C4  IND d   1       3.028  -5.965  -3.644  0.00  0.00     0.051 A 
ATOM      5  C5  IND d   1       3.717  -5.999  -4.824  0.00  0.00    -0.031 A 
ATOM      6  C6  IND d   1       5.097  -5.999  -4.862  0.00  0.00     0.015 A 
ATOM      7  C7  IND d   1       5.841  -5.978  -3.717  0.00  0.00    -0.016 A 
ATOM      8  C8  IND d   1       5.144  -5.938  -2.518  0.00  0.00    -0.047 A 
ATOM      9  C9  IND d   1       3.745  -5.894  -2.474  0.00  0.00    -0.096 A 
ATOM     10  HN1 IND d   1       6.421  -5.894  -0.972  0.00  0.00     0.298 HD
ENDROOT
TORSDOF 0
ENDMDL
