MODEL 1
REMARK minimizedAffinity 6.3165369
REMARK minimizedRMSD -1
REMARK  0 active torsions:
REMARK  status: ('A' for Active; 'I' for Inactive)
ROOT
ATOM      1  N1  IND d   1       0.783  -2.369   3.223  0.00  0.00    -0.196 N 
ATOM      2  C2  IND d   1       1.165  -1.244   2.547  0.00  0.00     0.054 A 
ATOM      3  C3  IND d   1       2.501  -1.064   2.650  0.00  0.00    -0.031 A 
ATOM      4  C4  IND d   1       4.267  -2.549   3.792  0.00  0.00     0.051 A 
ATOM      5  C5  IND d   1       4.396  -3.664   4.572  0.00  0.00    -0.031 A 
ATOM      6  C6  IND d   1       3.305  -4.421   4.947  0.00  0.00     0.015 A 
ATOM      7  C7  IND d   1       2.040  -4.096   4.545  0.00  0.00    -0.016 A 
ATOM      8  C8  IND d   1       1.905  -2.961   3.759  0.00  0.00    -0.047 A 
ATOM      9  C9  IND d   1       3.003  -2.164   3.410  0.00  0.00    -0.096 A 
ATOM     10  HN1 IND d   1      -0.024  -2.658   3.300  0.00  0.00     0.298 HD
ENDROOT
TORSDOF 0
ENDMDL
