MODEL 1
REMARK minimizedAffinity 4.43934441
REMARK minimizedRMSD -1
REMARK  0 active torsions:
REMARK  status: ('A' for Active; 'I' for Inactive)
ROOT
ATOM      1  N1  IND d   1      -0.465  -5.130   4.509  0.00  0.00    -0.196 N 
ATOM      2  C2  IND d   1      -0.312  -5.982   5.567  0.00  0.00     0.054 A 
ATOM      3  C3  IND d   1       0.969  -5.970   6.000  0.00  0.00    -0.031 A 
ATOM      4  C4  IND d   1       2.957  -4.552   5.184  0.00  0.00     0.051 A 
ATOM      5  C5  IND d   1       3.316  -3.656   4.216  0.00  0.00    -0.031 A 
ATOM      6  C6  IND d   1       2.414  -3.194   3.280  0.00  0.00     0.015 A 
ATOM      7  C7  IND d   1       1.110  -3.604   3.283  0.00  0.00    -0.016 A 
ATOM      8  C8  IND d   1       0.744  -4.520   4.259  0.00  0.00    -0.047 A 
ATOM      9  C9  IND d   1       1.666  -5.025   5.186  0.00  0.00    -0.096 A 
ATOM     10  HN1 IND d   1      -1.194  -4.998   4.072  0.00  0.00     0.298 HD
ENDROOT
TORSDOF 0
ENDMDL
