MODEL 1
REMARK minimizedAffinity 7.15180731
REMARK minimizedRMSD -1
REMARK  0 active torsions:
REMARK  status: ('A' for Active; 'I' for Inactive)
ROOT
ATOM      1  N1  IND d   1      -1.097  -3.077   0.315  0.00  0.00    -0.196 N 
ATOM      2  C2  IND d   1      -1.540  -2.003  -0.405  0.00  0.00     0.054 A 
ATOM      3  C3  IND d   1      -0.832  -0.897  -0.086  0.00  0.00    -0.031 A 
ATOM      4  C4  IND d   1       1.166  -0.641   1.517  0.00  0.00     0.051 A 
ATOM      5  C5  IND d   1       1.911  -1.334   2.430  0.00  0.00    -0.031 A 
ATOM      6  C6  IND d   1       1.688  -2.671   2.688  0.00  0.00     0.015 A 
ATOM      7  C7  IND d   1       0.716  -3.371   2.031  0.00  0.00    -0.016 A 
ATOM      8  C8  IND d   1      -0.047  -2.668   1.109  0.00  0.00    -0.047 A 
ATOM      9  C9  IND d   1       0.146  -1.301   0.873  0.00  0.00    -0.096 A 
ATOM     10  HN1 IND d   1      -1.419  -3.873   0.279  0.00  0.00     0.298 HD
ENDROOT
TORSDOF 0
ENDMDL
