MODEL 1
REMARK minimizedAffinity 6.92553997
REMARK minimizedRMSD -1
REMARK  0 active torsions:
REMARK  status: ('A' for Active; 'I' for Inactive)
ROOT
ATOM      1  N1  IND d   1       1.371  -1.479   1.561  0.00  0.00    -0.196 N 
ATOM      2  C2  IND d   1       2.123  -0.342   1.458  0.00  0.00     0.054 A 
ATOM      3  C3  IND d   1       3.115  -0.350   2.376  0.00  0.00    -0.031 A 
ATOM      4  C4  IND d   1       3.753  -2.173   4.078  0.00  0.00     0.051 A 
ATOM      5  C5  IND d   1       3.339  -3.379   4.572  0.00  0.00    -0.031 A 
ATOM      6  C6  IND d   1       2.227  -4.026   4.075  0.00  0.00     0.015 A 
ATOM      7  C7  IND d   1       1.490  -3.496   3.054  0.00  0.00    -0.016 A 
ATOM      8  C8  IND d   1       1.904  -2.269   2.555  0.00  0.00    -0.047 A 
ATOM      9  C9  IND d   1       3.007  -1.587   3.084  0.00  0.00    -0.096 A 
ATOM     10  HN1 IND d   1       0.680  -1.668   1.084  0.00  0.00     0.298 HD
ENDROOT
TORSDOF 0
ENDMDL
