MODEL 1
REMARK minimizedAffinity 9.80217648
REMARK minimizedRMSD -1
REMARK  0 active torsions:
REMARK  status: ('A' for Active; 'I' for Inactive)
ROOT
ATOM      1  N1  IND d   1      -2.185  -0.326  -2.873  0.00  0.00    -0.196 N 
ATOM      2  C2  IND d   1      -3.152   0.253  -3.647  0.00  0.00     0.054 A 
ATOM      3  C3  IND d   1      -3.628   1.368  -3.049  0.00  0.00    -0.031 A 
ATOM      4  C4  IND d   1      -2.894   2.484  -0.848  0.00  0.00     0.051 A 
ATOM      5  C5  IND d   1      -2.070   2.305   0.228  0.00  0.00    -0.031 A 
ATOM      6  C6  IND d   1      -1.224   1.220   0.326  0.00  0.00     0.015 A 
ATOM      7  C7  IND d   1      -1.161   0.274  -0.658  0.00  0.00    -0.016 A 
ATOM      8  C8  IND d   1      -2.001   0.449  -1.749  0.00  0.00    -0.047 A 
ATOM      9  C9  IND d   1      -2.892   1.526  -1.834  0.00  0.00    -0.096 A 
ATOM     10  HN1 IND d   1      -1.762  -1.051  -3.058  0.00  0.00     0.298 HD
ENDROOT
TORSDOF 0
ENDMDL
