MODEL 1
REMARK minimizedAffinity 10.345582
REMARK minimizedRMSD -1
REMARK  0 active torsions:
REMARK  status: ('A' for Active; 'I' for Inactive)
ROOT
ATOM      1  N1  IND d   1      -0.472  -3.058   0.342  0.00  0.00    -0.196 N 
ATOM      2  C2  IND d   1      -0.741  -2.213  -0.698  0.00  0.00     0.054 A 
ATOM      3  C3  IND d   1      -0.155  -1.012  -0.491  0.00  0.00    -0.031 A 
ATOM      4  C4  IND d   1       1.374  -0.248   1.434  0.00  0.00     0.051 A 
ATOM      5  C5  IND d   1       1.879  -0.657   2.636  0.00  0.00    -0.031 A 
ATOM      6  C6  IND d   1       1.623  -1.915   3.144  0.00  0.00     0.015 A 
ATOM      7  C7  IND d   1       0.859  -2.817   2.460  0.00  0.00    -0.016 A 
ATOM      8  C8  IND d   1       0.339  -2.402   1.243  0.00  0.00    -0.047 A 
ATOM      9  C9  IND d   1       0.559  -1.112   0.742  0.00  0.00    -0.096 A 
ATOM     10  HN1 IND d   1      -0.760  -3.865   0.421  0.00  0.00     0.298 HD
ENDROOT
TORSDOF 0
ENDMDL
