MODEL 1
REMARK minimizedAffinity 7.96414566
REMARK minimizedRMSD -1
REMARK  0 active torsions:
REMARK  status: ('A' for Active; 'I' for Inactive)
ROOT
ATOM      1  N1  IND d   1      -3.801   1.893  -2.905  0.00  0.00    -0.196 N 
ATOM      2  C2  IND d   1      -5.044   1.906  -3.474  0.00  0.00     0.054 A 
ATOM      3  C3  IND d   1      -5.998   1.932  -2.517  0.00  0.00    -0.031 A 
ATOM      4  C4  IND d   1      -5.746   2.058   0.042  0.00  0.00     0.051 A 
ATOM      5  C5  IND d   1      -4.807   2.032   1.034  0.00  0.00    -0.031 A 
ATOM      6  C6  IND d   1      -3.456   1.960   0.758  0.00  0.00     0.015 A 
ATOM      7  C7  IND d   1      -2.993   1.922  -0.526  0.00  0.00    -0.016 A 
ATOM      8  C8  IND d   1      -3.944   1.941  -1.536  0.00  0.00    -0.047 A 
ATOM      9  C9  IND d   1      -5.318   1.971  -1.262  0.00  0.00    -0.096 A 
ATOM     10  HN1 IND d   1      -3.055   1.860  -3.331  0.00  0.00     0.298 HD
ENDROOT
TORSDOF 0
ENDMDL
