MODEL 1
REMARK minimizedAffinity 1.1150701
REMARK minimizedRMSD -1
REMARK  0 active torsions:
REMARK  status: ('A' for Active; 'I' for Inactive)
ROOT
ATOM      1  N1  IND d   1      -5.942   1.453  -5.769  0.00  0.00    -0.196 N 
ATOM      2  C2  IND d   1      -5.626   2.437  -4.874  0.00  0.00     0.054 A 
ATOM      3  C3  IND d   1      -4.772   1.965  -3.938  0.00  0.00    -0.031 A 
ATOM      4  C4  IND d   1      -3.683  -0.359  -3.740  0.00  0.00     0.051 A 
ATOM      5  C5  IND d   1      -3.692  -1.604  -4.304  0.00  0.00    -0.031 A 
ATOM      6  C6  IND d   1      -4.465  -1.899  -5.408  0.00  0.00     0.015 A 
ATOM      7  C7  IND d   1      -5.252  -0.953  -6.000  0.00  0.00    -0.016 A 
ATOM      8  C8  IND d   1      -5.251   0.311  -5.426  0.00  0.00    -0.047 A 
ATOM      9  C9  IND d   1      -4.502   0.605  -4.280  0.00  0.00    -0.096 A 
ATOM     10  HN1 IND d   1      -6.481   1.533  -6.434  0.00  0.00     0.298 HD
ENDROOT
TORSDOF 0
ENDMDL
