MODEL 1
REMARK minimizedAffinity 10.4852438
REMARK minimizedRMSD -1
REMARK  0 active torsions:
REMARK  status: ('A' for Active; 'I' for Inactive)
ROOT
ATOM      1  C1  DEN d   1       0.148  -4.716  -0.143  0.00  0.00     0.130 A 
ATOM      2  C2  DEN d   1      -1.061  -4.610  -0.956  0.00  0.00    -0.031 A 
ATOM      3  C3  DEN d   1      -1.040  -3.300  -1.637  0.00  0.00     0.027 A 
ATOM      4  C4  DEN d   1       0.739  -1.436  -1.517  0.00  0.00     0.027 A 
ATOM      5  C5  DEN d   1       1.937  -1.064  -0.949  0.00  0.00    -0.003 A 
ATOM      6  C6  DEN d   1       2.601  -1.861  -0.055  0.00  0.00     0.001 A 
ATOM      7  C7  DEN d   1       2.093  -3.092   0.264  0.00  0.00     0.017 A 
ATOM      8  C8  DEN d   1       0.881  -3.472  -0.298  0.00  0.00    -0.094 A 
ATOM      9  C9  DEN d   1       0.231  -2.657  -1.209  0.00  0.00    -0.072 A 
ENDROOT
TORSDOF 0
ENDMDL
