MODEL 1
REMARK minimizedAffinity 6.12936306
REMARK minimizedRMSD -1
REMARK  0 active torsions:
REMARK  status: ('A' for Active; 'I' for Inactive)
ROOT
ATOM      1  C1  DEN d   1       1.015   1.023  -0.591  0.00  0.00     0.130 A 
ATOM      2  C2  DEN d   1       1.293   2.097   0.359  0.00  0.00    -0.031 A 
ATOM      3  C3  DEN d   1       2.256   1.587   1.356  0.00  0.00     0.027 A 
ATOM      4  C4  DEN d   1       3.342  -0.747   1.516  0.00  0.00     0.027 A 
ATOM      5  C5  DEN d   1       3.406  -1.997   0.942  0.00  0.00    -0.003 A 
ATOM      6  C6  DEN d   1       2.659  -2.336  -0.155  0.00  0.00     0.001 A 
ATOM      7  C7  DEN d   1       1.847  -1.399  -0.739  0.00  0.00     0.017 A 
ATOM      8  C8  DEN d   1       1.771  -0.139  -0.161  0.00  0.00    -0.094 A 
ATOM      9  C9  DEN d   1       2.545   0.188   0.940  0.00  0.00    -0.072 A 
ENDROOT
TORSDOF 0
ENDMDL
