MODEL 1
REMARK minimizedAffinity 3.08261132
REMARK minimizedRMSD -1
REMARK  0 active torsions:
REMARK  status: ('A' for Active; 'I' for Inactive)
ROOT
ATOM      1  C1  DEN d   1       4.895   0.310  -1.299  0.00  0.00     0.130 A 
ATOM      2  C2  DEN d   1       4.774   1.763  -1.201  0.00  0.00    -0.031 A 
ATOM      3  C3  DEN d   1       3.416   2.076  -0.714  0.00  0.00     0.027 A 
ATOM      4  C4  DEN d   1       1.501   0.461  -0.098  0.00  0.00     0.027 A 
ATOM      5  C5  DEN d   1       1.127  -0.863  -0.029  0.00  0.00    -0.003 A 
ATOM      6  C6  DEN d   1       1.965  -1.879  -0.407  0.00  0.00     0.001 A 
ATOM      7  C7  DEN d   1       3.235  -1.589  -0.829  0.00  0.00     0.017 A 
ATOM      8  C8  DEN d   1       3.616  -0.256  -0.909  0.00  0.00    -0.094 A 
ATOM      9  C9  DEN d   1       2.759   0.756  -0.511  0.00  0.00    -0.072 A 
ENDROOT
TORSDOF 0
ENDMDL
