MODEL 1
REMARK minimizedAffinity 3.80102825
REMARK minimizedRMSD -1
REMARK  0 active torsions:
REMARK  status: ('A' for Active; 'I' for Inactive)
ROOT
ATOM      1  C1  DEN d   1       0.038  -0.824  -0.320  0.00  0.00     0.130 A 
ATOM      2  C2  DEN d   1      -1.013  -1.660  -0.894  0.00  0.00    -0.031 A 
ATOM      3  C3  DEN d   1      -0.375  -2.645  -1.789  0.00  0.00     0.027 A 
ATOM      4  C4  DEN d   1       2.126  -2.961  -2.335  0.00  0.00     0.027 A 
ATOM      5  C5  DEN d   1       3.396  -2.482  -2.098  0.00  0.00    -0.003 A 
ATOM      6  C6  DEN d   1       3.630  -1.405  -1.285  0.00  0.00     0.001 A 
ATOM      7  C7  DEN d   1       2.583  -0.798  -0.643  0.00  0.00     0.017 A 
ATOM      8  C8  DEN d   1       1.299  -1.270  -0.883  0.00  0.00    -0.094 A 
ATOM      9  C9  DEN d   1       1.084  -2.368  -1.699  0.00  0.00    -0.072 A 
ENDROOT
TORSDOF 0
ENDMDL
