MODEL 1
REMARK minimizedAffinity -3.44244647
REMARK minimizedRMSD -1
REMARK  0 active torsions:
REMARK  status: ('A' for Active; 'I' for Inactive)
ROOT
ATOM      1  C1  DEN d   1       2.962   0.496  -0.092  0.00  0.00     0.130 A 
ATOM      2  C2  DEN d   1       4.068   1.133  -0.802  0.00  0.00    -0.031 A 
ATOM      3  C3  DEN d   1       4.398   0.300  -1.976  0.00  0.00     0.027 A 
ATOM      4  C4  DEN d   1       3.307  -1.900  -2.762  0.00  0.00     0.027 A 
ATOM      5  C5  DEN d   1       2.339  -2.838  -2.477  0.00  0.00    -0.003 A 
ATOM      6  C6  DEN d   1       1.540  -2.748  -1.368  0.00  0.00     0.001 A 
ATOM      7  C7  DEN d   1       1.665  -1.675  -0.526  0.00  0.00     0.017 A 
ATOM      8  C8  DEN d   1       2.643  -0.729  -0.803  0.00  0.00    -0.094 A 
ATOM      9  C9  DEN d   1       3.433  -0.831  -1.936  0.00  0.00    -0.072 A 
ENDROOT
TORSDOF 0
ENDMDL
