MODEL 1
REMARK minimizedAffinity 2.25687337
REMARK minimizedRMSD -1
REMARK  0 active torsions:
REMARK  status: ('A' for Active; 'I' for Inactive)
ROOT
ATOM      1  C1  DEN d   1      -0.381  -1.996  -0.609  0.00  0.00     0.130 A 
ATOM      2  C2  DEN d   1      -1.467  -1.248   0.019  0.00  0.00    -0.031 A 
ATOM      3  C3  DEN d   1      -0.973   0.111   0.317  0.00  0.00     0.027 A 
ATOM      4  C4  DEN d   1       1.354   1.127  -0.136  0.00  0.00     0.027 A 
ATOM      5  C5  DEN d   1       2.611   0.874  -0.641  0.00  0.00    -0.003 A 
ATOM      6  C6  DEN d   1       2.965  -0.353  -1.135  0.00  0.00     0.001 A 
ATOM      7  C7  DEN d   1       2.039  -1.362  -1.177  0.00  0.00     0.017 A 
ATOM      8  C8  DEN d   1       0.773  -1.116  -0.663  0.00  0.00    -0.094 A 
ATOM      9  C9  DEN d   1       0.430   0.134  -0.179  0.00  0.00    -0.072 A 
ENDROOT
TORSDOF 0
ENDMDL
