MODEL 1
REMARK minimizedAffinity 14.6341791
REMARK minimizedRMSD -1
REMARK  0 active torsions:
REMARK  status: ('A' for Active; 'I' for Inactive)
ROOT
ATOM      1  C1  DEN d   1      -1.224  -1.428  -2.597  0.00  0.00     0.130 A 
ATOM      2  C2  DEN d   1      -1.038  -2.846  -2.896  0.00  0.00    -0.031 A 
ATOM      3  C3  DEN d   1      -0.011  -3.376  -1.977  0.00  0.00     0.027 A 
ATOM      4  C4  DEN d   1       1.300  -2.147  -0.127  0.00  0.00     0.027 A 
ATOM      5  C5  DEN d   1       1.495  -0.932   0.493  0.00  0.00    -0.003 A 
ATOM      6  C6  DEN d   1       0.828   0.200   0.108  0.00  0.00     0.001 A 
ATOM      7  C7  DEN d   1      -0.100   0.132  -0.898  0.00  0.00     0.017 A 
ATOM      8  C8  DEN d   1      -0.297  -1.088  -1.533  0.00  0.00    -0.094 A 
ATOM      9  C9  DEN d   1       0.379  -2.224  -1.120  0.00  0.00    -0.072 A 
ENDROOT
TORSDOF 0
ENDMDL
