MODEL 1
REMARK minimizedAffinity 15.5373182
REMARK minimizedRMSD -1
REMARK  0 active torsions:
REMARK  status: ('A' for Active; 'I' for Inactive)
ROOT
ATOM      1  C1  DEN d   1      -2.370  -0.405   0.943  0.00  0.00     0.130 A 
ATOM      2  C2  DEN d   1      -3.228   0.594   1.574  0.00  0.00    -0.031 A 
ATOM      3  C3  DEN d   1      -2.743   0.808   2.952  0.00  0.00     0.027 A 
ATOM      4  C4  DEN d   1      -0.753  -0.300   4.162  0.00  0.00     0.027 A 
ATOM      5  C5  DEN d   1       0.266  -1.219   4.038  0.00  0.00    -0.003 A 
ATOM      6  C6  DEN d   1       0.454  -1.950   2.895  0.00  0.00     0.001 A 
ATOM      7  C7  DEN d   1      -0.360  -1.742   1.814  0.00  0.00     0.017 A 
ATOM      8  C8  DEN d   1      -1.394  -0.822   1.934  0.00  0.00    -0.094 A 
ATOM      9  C9  DEN d   1      -1.560  -0.084   3.093  0.00  0.00    -0.072 A 
ENDROOT
TORSDOF 0
ENDMDL
