MODEL 1
REMARK minimizedAffinity 17.9010983
REMARK minimizedRMSD -1
REMARK  0 active torsions:
REMARK  status: ('A' for Active; 'I' for Inactive)
ROOT
ATOM      1  C1  DEN d   1       1.430  -1.524   4.245  0.00  0.00     0.130 A 
ATOM      2  C2  DEN d   1       1.840  -2.618   3.368  0.00  0.00    -0.031 A 
ATOM      3  C3  DEN d   1       0.766  -2.836   2.378  0.00  0.00     0.027 A 
ATOM      4  C4  DEN d   1      -1.478  -1.591   2.117  0.00  0.00     0.027 A 
ATOM      5  C5  DEN d   1      -2.275  -0.594   2.635  0.00  0.00    -0.003 A 
ATOM      6  C6  DEN d   1      -1.912   0.133   3.737  0.00  0.00     0.001 A 
ATOM      7  C7  DEN d   1      -0.699  -0.094   4.331  0.00  0.00     0.017 A 
ATOM      8  C8  DEN d   1       0.108  -1.103   3.819  0.00  0.00    -0.094 A 
ATOM      9  C9  DEN d   1      -0.272  -1.819   2.697  0.00  0.00    -0.072 A 
ENDROOT
TORSDOF 0
ENDMDL
