MODEL 1
REMARK minimizedAffinity 8.09034061
REMARK minimizedRMSD -1
REMARK  0 active torsions:
REMARK  status: ('A' for Active; 'I' for Inactive)
ROOT
ATOM      1  C1  DEN d   1       3.990   5.980  -0.857  0.00  0.00     0.130 A 
ATOM      2  C2  DEN d   1       4.926   5.910  -1.976  0.00  0.00    -0.031 A 
ATOM      3  C3  DEN d   1       5.878   4.813  -1.706  0.00  0.00     0.027 A 
ATOM      4  C4  DEN d   1       5.990   3.224   0.322  0.00  0.00     0.027 A 
ATOM      5  C5  DEN d   1       5.414   2.905   1.531  0.00  0.00    -0.003 A 
ATOM      6  C6  DEN d   1       4.353   3.605   2.042  0.00  0.00     0.001 A 
ATOM      7  C7  DEN d   1       3.806   4.632   1.318  0.00  0.00     0.017 A 
ATOM      8  C8  DEN d   1       4.386   4.963   0.101  0.00  0.00    -0.094 A 
ATOM      9  C9  DEN d   1       5.451   4.236  -0.404  0.00  0.00    -0.072 A 
ENDROOT
TORSDOF 0
ENDMDL
