MODEL 1
REMARK minimizedAffinity 26.2603493
REMARK minimizedRMSD -1
REMARK  0 active torsions:
REMARK  status: ('A' for Active; 'I' for Inactive)
ROOT
ATOM      1  C1  DEN d   1      -0.442  -4.539  -1.932  0.00  0.00     0.130 A 
ATOM      2  C2  DEN d   1      -1.842  -4.226  -2.207  0.00  0.00    -0.031 A 
ATOM      3  C3  DEN d   1      -2.119  -4.575  -3.615  0.00  0.00     0.027 A 
ATOM      4  C4  DEN d   1      -0.528  -5.570  -5.385  0.00  0.00     0.027 A 
ATOM      5  C5  DEN d   1       0.760  -5.995  -5.623  0.00  0.00    -0.003 A 
ATOM      6  C6  DEN d   1       1.738  -5.934  -4.666  0.00  0.00     0.001 A 
ATOM      7  C7  DEN d   1       1.433  -5.478  -3.411  0.00  0.00     0.017 A 
ATOM      8  C8  DEN d   1       0.138  -5.040  -3.165  0.00  0.00    -0.094 A 
ATOM      9  C9  DEN d   1      -0.840  -5.121  -4.142  0.00  0.00    -0.072 A 
ENDROOT
TORSDOF 0
ENDMDL
