MODEL 1
REMARK minimizedAffinity 20.6819153
REMARK minimizedRMSD -1
REMARK  0 active torsions:
REMARK  status: ('A' for Active; 'I' for Inactive)
ROOT
ATOM      1  C1  DEN d   1      -3.515   1.700   4.336  0.00  0.00     0.130 A 
ATOM      2  C2  DEN d   1      -2.279   1.391   5.051  0.00  0.00    -0.031 A 
ATOM      3  C3  DEN d   1      -1.607   0.283   4.342  0.00  0.00     0.027 A 
ATOM      4  C4  DEN d   1      -2.353  -0.974   2.217  0.00  0.00     0.027 A 
ATOM      5  C5  DEN d   1      -3.339  -1.075   1.261  0.00  0.00    -0.003 A 
ATOM      6  C6  DEN d   1      -4.460  -0.288   1.282  0.00  0.00     0.001 A 
ATOM      7  C7  DEN d   1      -4.601   0.667   2.254  0.00  0.00     0.017 A 
ATOM      8  C8  DEN d   1      -3.615   0.770   3.226  0.00  0.00    -0.094 A 
ATOM      9  C9  DEN d   1      -2.483  -0.026   3.180  0.00  0.00    -0.072 A 
ENDROOT
TORSDOF 0
ENDMDL
