MODEL 1
REMARK minimizedAffinity 6.45130539
REMARK minimizedRMSD -1
REMARK  0 active torsions:
REMARK  status: ('A' for Active; 'I' for Inactive)
ROOT
ATOM      1  C1  DEN d   1       5.999  -4.642  -1.048  0.00  0.00     0.130 A 
ATOM      2  C2  DEN d   1       5.541  -5.992  -0.731  0.00  0.00    -0.031 A 
ATOM      3  C3  DEN d   1       4.174  -5.893  -0.181  0.00  0.00     0.027 A 
ATOM      4  C4  DEN d   1       2.729  -3.792   0.205  0.00  0.00     0.027 A 
ATOM      5  C5  DEN d   1       2.694  -2.419   0.101  0.00  0.00    -0.003 A 
ATOM      6  C6  DEN d   1       3.761  -1.694  -0.359  0.00  0.00     0.001 A 
ATOM      7  C7  DEN d   1       4.894  -2.343  -0.773  0.00  0.00     0.017 A 
ATOM      8  C8  DEN d   1       4.940  -3.726  -0.664  0.00  0.00    -0.094 A 
ATOM      9  C9  DEN d   1       3.846  -4.442  -0.208  0.00  0.00    -0.072 A 
ENDROOT
TORSDOF 0
ENDMDL
