MODEL 1
REMARK minimizedAffinity 13.4296227
REMARK minimizedRMSD -1
REMARK  0 active torsions:
REMARK  status: ('A' for Active; 'I' for Inactive)
ROOT
ATOM      1  C1  DEN d   1      -2.634  -0.817   1.138  0.00  0.00     0.130 A 
ATOM      2  C2  DEN d   1      -2.481  -2.107   0.471  0.00  0.00    -0.031 A 
ATOM      3  C3  DEN d   1      -1.373  -2.831   1.126  0.00  0.00     0.027 A 
ATOM      4  C4  DEN d   1       0.109  -2.085   3.101  0.00  0.00     0.027 A 
ATOM      5  C5  DEN d   1       0.365  -1.065   3.990  0.00  0.00    -0.003 A 
ATOM      6  C6  DEN d   1      -0.333   0.113   3.969  0.00  0.00     0.001 A 
ATOM      7  C7  DEN d   1      -1.352   0.283   3.069  0.00  0.00     0.017 A 
ATOM      8  C8  DEN d   1      -1.610  -0.738   2.165  0.00  0.00    -0.094 A 
ATOM      9  C9  DEN d   1      -0.902  -1.927   2.210  0.00  0.00    -0.072 A 
ENDROOT
TORSDOF 0
ENDMDL
