MODEL 1
REMARK minimizedAffinity 7.1457634
REMARK minimizedRMSD -1
REMARK  0 active torsions:
REMARK  status: ('A' for Active; 'I' for Inactive)
ROOT
ATOM      1  C1  DEN d   1      -3.883   2.034   6.000  0.00  0.00     0.130 A 
ATOM      2  C2  DEN d   1      -5.308   2.354   5.996  0.00  0.00    -0.031 A 
ATOM      3  C3  DEN d   1      -5.869   1.924   4.700  0.00  0.00     0.027 A 
ATOM      4  C4  DEN d   1      -4.677   0.797   2.710  0.00  0.00     0.027 A 
ATOM      5  C5  DEN d   1      -3.466   0.335   2.241  0.00  0.00    -0.003 A 
ATOM      6  C6  DEN d   1      -2.313   0.438   2.973  0.00  0.00     0.001 A 
ATOM      7  C7  DEN d   1      -2.354   0.974   4.233  0.00  0.00     0.017 A 
ATOM      8  C8  DEN d   1      -3.569   1.449   4.709  0.00  0.00    -0.094 A 
ATOM      9  C9  DEN d   1      -4.726   1.325   3.959  0.00  0.00    -0.072 A 
ENDROOT
TORSDOF 0
ENDMDL
