MODEL 1
REMARK minimizedAffinity 13.0663919
REMARK minimizedRMSD -1
REMARK  0 active torsions:
REMARK  status: ('A' for Active; 'I' for Inactive)
ROOT
ATOM      1  C1  DEN d   1      -2.039   0.875   4.665  0.00  0.00     0.130 A 
ATOM      2  C2  DEN d   1      -3.371   1.422   4.908  0.00  0.00    -0.031 A 
ATOM      3  C3  DEN d   1      -4.270   0.921   3.850  0.00  0.00     0.027 A 
ATOM      4  C4  DEN d   1      -3.734  -0.643   1.870  0.00  0.00     0.027 A 
ATOM      5  C5  DEN d   1      -2.737  -1.356   1.241  0.00  0.00    -0.003 A 
ATOM      6  C6  DEN d   1      -1.442  -1.348   1.685  0.00  0.00     0.001 A 
ATOM      7  C7  DEN d   1      -1.117  -0.648   2.817  0.00  0.00     0.017 A 
ATOM      8  C8  DEN d   1      -2.114   0.079   3.453  0.00  0.00    -0.094 A 
ATOM      9  C9  DEN d   1      -3.421   0.048   2.995  0.00  0.00    -0.072 A 
ENDROOT
TORSDOF 0
ENDMDL
