MODEL 1
REMARK minimizedAffinity 12.140584
REMARK minimizedRMSD -1
REMARK  0 active torsions:
REMARK  status: ('A' for Active; 'I' for Inactive)
ROOT
ATOM      1  C1  DEN d   1       1.814   2.783   0.627  0.00  0.00     0.130 A 
ATOM      2  C2  DEN d   1       2.485   1.487   0.573  0.00  0.00    -0.031 A 
ATOM      3  C3  DEN d   1       2.747   1.167  -0.845  0.00  0.00     0.027 A 
ATOM      4  C4  DEN d   1       2.187   2.549  -2.950  0.00  0.00     0.027 A 
ATOM      5  C5  DEN d   1       1.608   3.712  -3.408  0.00  0.00    -0.003 A 
ATOM      6  C6  DEN d   1       1.032   4.623  -2.563  0.00  0.00     0.001 A 
ATOM      7  C7  DEN d   1       1.062   4.408  -1.210  0.00  0.00     0.017 A 
ATOM      8  C8  DEN d   1       1.637   3.234  -0.741  0.00  0.00    -0.094 A 
ATOM      9  C9  DEN d   1       2.225   2.331  -1.611  0.00  0.00    -0.072 A 
ENDROOT
TORSDOF 0
ENDMDL
