MODEL 1
REMARK minimizedAffinity 9.55324745
REMARK minimizedRMSD -1
REMARK  0 active torsions:
REMARK  status: ('A' for Active; 'I' for Inactive)
ROOT
ATOM      1  C1  DEN d   1       4.638   3.756   2.414  0.00  0.00     0.130 A 
ATOM      2  C2  DEN d   1       5.930   4.077   1.814  0.00  0.00    -0.031 A 
ATOM      3  C3  DEN d   1       5.999   3.414   0.496  0.00  0.00     0.027 A 
ATOM      4  C4  DEN d   1       4.237   1.934  -0.669  0.00  0.00     0.027 A 
ATOM      5  C5  DEN d   1       2.987   1.369  -0.546  0.00  0.00    -0.003 A 
ATOM      6  C6  DEN d   1       2.221   1.530   0.578  0.00  0.00     0.001 A 
ATOM      7  C7  DEN d   1       2.678   2.313   1.605  0.00  0.00     0.017 A 
ATOM      8  C8  DEN d   1       3.940   2.880   1.491  0.00  0.00    -0.094 A 
ATOM      9  C9  DEN d   1       4.695   2.715   0.342  0.00  0.00    -0.072 A 
ENDROOT
TORSDOF 0
ENDMDL
