MODEL 1
REMARK minimizedAffinity 12.5322905
REMARK minimizedRMSD -1
REMARK  0 active torsions:
REMARK  status: ('A' for Active; 'I' for Inactive)
ROOT
ATOM      1  C1  DEN d   1      -5.507  -0.923   0.350  0.00  0.00     0.130 A 
ATOM      2  C2  DEN d   1      -5.350   0.205   1.264  0.00  0.00    -0.031 A 
ATOM      3  C3  DEN d   1      -5.445   1.449   0.474  0.00  0.00     0.027 A 
ATOM      4  C4  DEN d   1      -5.822   1.736  -2.062  0.00  0.00     0.027 A 
ATOM      5  C5  DEN d   1      -6.000   1.068  -3.253  0.00  0.00    -0.003 A 
ATOM      6  C6  DEN d   1      -5.992  -0.299  -3.331  0.00  0.00     0.001 A 
ATOM      7  C7  DEN d   1      -5.847  -1.044  -2.191  0.00  0.00     0.017 A 
ATOM      8  C8  DEN d   1      -5.660  -0.377  -0.987  0.00  0.00    -0.094 A 
ATOM      9  C9  DEN d   1      -5.683   1.006  -0.927  0.00  0.00    -0.072 A 
ENDROOT
TORSDOF 0
ENDMDL
