MODEL 1
REMARK minimizedAffinity 16.4944668
REMARK minimizedRMSD -1
REMARK  0 active torsions:
REMARK  status: ('A' for Active; 'I' for Inactive)
ROOT
ATOM      1  C1  DEN d   1       2.414   1.992   1.137  0.00  0.00     0.130 A 
ATOM      2  C2  DEN d   1       2.193   1.459  -0.204  0.00  0.00    -0.031 A 
ATOM      3  C3  DEN d   1       3.320   1.885  -1.057  0.00  0.00     0.027 A 
ATOM      4  C4  DEN d   1       5.378   3.309  -0.433  0.00  0.00     0.027 A 
ATOM      5  C5  DEN d   1       5.999   4.000   0.584  0.00  0.00    -0.003 A 
ATOM      6  C6  DEN d   1       5.455   4.098   1.838  0.00  0.00     0.001 A 
ATOM      7  C7  DEN d   1       4.278   3.457   2.119  0.00  0.00     0.017 A 
ATOM      8  C8  DEN d   1       3.643   2.764   1.097  0.00  0.00    -0.094 A 
ATOM      9  C9  DEN d   1       4.214   2.667  -0.161  0.00  0.00    -0.072 A 
ENDROOT
TORSDOF 0
ENDMDL
