MODEL 1
REMARK minimizedAffinity -1.89896786
REMARK minimizedRMSD -1
REMARK  0 active torsions:
REMARK  status: ('A' for Active; 'I' for Inactive)
ROOT
ATOM      1  C   UNL d   1      -0.504  -0.905  -0.601  0.00  0.00     0.023 A 
ATOM      2  C1  UNL d   1      -0.405  -0.662   0.769  0.00  0.00     0.003 A 
ATOM      3  C2  UNL d   1       0.391   0.385   1.238  0.00  0.00     0.048 A 
ATOM      4  C3  UNL d   1       1.085   1.186   0.331  0.00  0.00     0.023 A 
ATOM      5  C4  UNL d   1       0.988   0.947  -1.041  0.00  0.00     0.048 A 
ATOM      6  C5  UNL d   1       0.191  -0.101  -1.505  0.00  0.00     0.003 A 
ATOM      7  I   UNL d   1       2.271   2.744   1.026  0.00  0.00    -0.146 I 
ENDROOT
TORSDOF 0
ENDMDL
