MODEL 1
REMARK minimizedAffinity 2.49707937
REMARK minimizedRMSD -1
REMARK  0 active torsions:
REMARK  status: ('A' for Active; 'I' for Inactive)
ROOT
ATOM      1  C   UNL d   1      -1.693  -1.256   1.709  0.00  0.00     0.023 A 
ATOM      2  C1  UNL d   1      -1.355  -2.208   0.746  0.00  0.00     0.003 A 
ATOM      3  C2  UNL d   1      -0.756  -1.809  -0.451  0.00  0.00     0.048 A 
ATOM      4  C3  UNL d   1      -0.498  -0.458  -0.679  0.00  0.00     0.023 A 
ATOM      5  C4  UNL d   1      -0.834   0.497   0.282  0.00  0.00     0.048 A 
ATOM      6  C5  UNL d   1      -1.433   0.094   1.477  0.00  0.00     0.003 A 
ATOM      7  I   UNL d   1       0.393   0.137  -2.459  0.00  0.00    -0.146 I 
ENDROOT
TORSDOF 0
ENDMDL
