MODEL 1
REMARK minimizedAffinity -2.24879766
REMARK minimizedRMSD -1
REMARK  0 active torsions:
REMARK  status: ('A' for Active; 'I' for Inactive)
ROOT
ATOM      1  C   UNL d   1       2.529   3.830   1.156  0.00  0.00     0.023 A 
ATOM      2  C1  UNL d   1       2.904   2.680   0.460  0.00  0.00     0.003 A 
ATOM      3  C2  UNL d   1       1.962   1.684   0.197  0.00  0.00     0.048 A 
ATOM      4  C3  UNL d   1       0.646   1.844   0.631  0.00  0.00     0.023 A 
ATOM      5  C4  UNL d   1       0.266   2.993   1.327  0.00  0.00     0.048 A 
ATOM      6  C5  UNL d   1       1.212   3.986   1.589  0.00  0.00     0.003 A 
ATOM      7  I   UNL d   1      -0.758   0.362   0.241  0.00  0.00    -0.146 I 
ENDROOT
TORSDOF 0
ENDMDL
