MODEL 1
REMARK minimizedAffinity 4.89693785
REMARK minimizedRMSD -1
REMARK  0 active torsions:
REMARK  status: ('A' for Active; 'I' for Inactive)
ROOT
ATOM      1  C   UNL d   1      -2.024  -0.127   1.564  0.00  0.00     0.023 A 
ATOM      2  C1  UNL d   1      -1.106  -1.169   1.423  0.00  0.00     0.003 A 
ATOM      3  C2  UNL d   1      -0.093  -1.084   0.465  0.00  0.00     0.048 A 
ATOM      4  C3  UNL d   1      -0.003   0.045  -0.347  0.00  0.00     0.023 A 
ATOM      5  C4  UNL d   1      -0.918   1.091  -0.209  0.00  0.00     0.048 A 
ATOM      6  C5  UNL d   1      -1.929   1.001   0.749  0.00  0.00     0.003 A 
ATOM      7  I   UNL d   1       1.504   0.174  -1.773  0.00  0.00    -0.146 I 
ENDROOT
TORSDOF 0
ENDMDL
