MODEL 1
REMARK minimizedAffinity 5.00080919
REMARK minimizedRMSD -1
REMARK  0 active torsions:
REMARK  status: ('A' for Active; 'I' for Inactive)
ROOT
ATOM      1  C   UNL d   1      -2.005  -0.215   2.904  0.00  0.00     0.023 A 
ATOM      2  C1  UNL d   1      -0.751  -0.812   2.772  0.00  0.00     0.003 A 
ATOM      3  C2  UNL d   1      -0.088  -0.782   1.543  0.00  0.00     0.048 A 
ATOM      4  C3  UNL d   1      -0.684  -0.151   0.451  0.00  0.00     0.023 A 
ATOM      5  C4  UNL d   1      -1.938   0.448   0.579  0.00  0.00     0.048 A 
ATOM      6  C5  UNL d   1      -2.597   0.415   1.809  0.00  0.00     0.003 A 
ATOM      7  I   UNL d   1       0.301  -0.105  -1.378  0.00  0.00    -0.146 I 
ENDROOT
TORSDOF 0
ENDMDL
