MODEL 1
REMARK minimizedAffinity -0.326562434
REMARK minimizedRMSD -1
REMARK  0 active torsions:
REMARK  status: ('A' for Active; 'I' for Inactive)
ROOT
ATOM      1  C   UNL d   1      -1.340  -0.627   1.124  0.00  0.00     0.023 A 
ATOM      2  C1  UNL d   1      -1.639   0.417   0.247  0.00  0.00     0.003 A 
ATOM      3  C2  UNL d   1      -0.711   1.438   0.034  0.00  0.00     0.048 A 
ATOM      4  C3  UNL d   1       0.515   1.409   0.698  0.00  0.00     0.023 A 
ATOM      5  C4  UNL d   1       0.819   0.367   1.575  0.00  0.00     0.048 A 
ATOM      6  C5  UNL d   1      -0.113  -0.652   1.787  0.00  0.00     0.003 A 
ATOM      7  I   UNL d   1       1.897   2.928   0.381  0.00  0.00    -0.146 I 
ENDROOT
TORSDOF 0
ENDMDL
