MODEL 1
REMARK minimizedAffinity -3.10053349
REMARK minimizedRMSD -1
REMARK  0 active torsions:
REMARK  status: ('A' for Active; 'I' for Inactive)
ROOT
ATOM      1  C   UNL d   1      -1.189  -0.891   0.939  0.00  0.00     0.023 A 
ATOM      2  C1  UNL d   1      -1.813   0.258   1.425  0.00  0.00     0.003 A 
ATOM      3  C2  UNL d   1      -1.288   1.517   1.130  0.00  0.00     0.048 A 
ATOM      4  C3  UNL d   1      -0.139   1.621   0.347  0.00  0.00     0.023 A 
ATOM      5  C4  UNL d   1       0.489   0.474  -0.143  0.00  0.00     0.048 A 
ATOM      6  C5  UNL d   1      -0.040  -0.783   0.156  0.00  0.00     0.003 A 
ATOM      7  I   UNL d   1       0.645   3.495  -0.094  0.00  0.00    -0.146 I 
ENDROOT
TORSDOF 0
ENDMDL
