MODEL 1
REMARK minimizedAffinity -1.10893512
REMARK minimizedRMSD -1
REMARK  0 active torsions:
REMARK  status: ('A' for Active; 'I' for Inactive)
ROOT
ATOM      1  C   UNL d   1      -1.334  -2.549   0.572  0.00  0.00     0.023 A 
ATOM      2  C1  UNL d   1      -0.938  -2.048  -0.669  0.00  0.00     0.003 A 
ATOM      3  C2  UNL d   1      -0.490  -0.730  -0.781  0.00  0.00     0.048 A 
ATOM      4  C3  UNL d   1      -0.440   0.081   0.352  0.00  0.00     0.023 A 
ATOM      5  C4  UNL d   1      -0.835  -0.416   1.595  0.00  0.00     0.048 A 
ATOM      6  C5  UNL d   1      -1.282  -1.734   1.702  0.00  0.00     0.003 A 
ATOM      7  I   UNL d   1       0.226   2.043   0.188  0.00  0.00    -0.146 I 
ENDROOT
TORSDOF 0
ENDMDL
