MODEL 1
REMARK minimizedAffinity -4.0081706
REMARK minimizedRMSD -1
REMARK  0 active torsions:
REMARK  status: ('A' for Active; 'I' for Inactive)
ROOT
ATOM      1  C   UNL d   1      -0.887  -2.840  -0.852  0.00  0.00     0.023 A 
ATOM      2  C1  UNL d   1      -0.297  -2.109  -1.884  0.00  0.00     0.003 A 
ATOM      3  C2  UNL d   1       0.094  -0.786  -1.670  0.00  0.00     0.048 A 
ATOM      4  C3  UNL d   1      -0.107  -0.199  -0.421  0.00  0.00     0.023 A 
ATOM      5  C4  UNL d   1      -0.696  -0.926   0.615  0.00  0.00     0.048 A 
ATOM      6  C5  UNL d   1      -1.086  -2.249   0.396  0.00  0.00     0.003 A 
ATOM      7  I   UNL d   1       0.473   1.770  -0.100  0.00  0.00    -0.146 I 
ENDROOT
TORSDOF 0
ENDMDL
