MODEL 1
REMARK minimizedAffinity -3.81107903
REMARK minimizedRMSD -1
REMARK  0 active torsions:
REMARK  status: ('A' for Active; 'I' for Inactive)
ROOT
ATOM      1  C   UNL d   1      -1.052  -0.162   1.085  0.00  0.00     0.023 A 
ATOM      2  C1  UNL d   1      -1.248  -1.542   1.154  0.00  0.00     0.003 A 
ATOM      3  C2  UNL d   1      -0.955  -2.346   0.050  0.00  0.00     0.048 A 
ATOM      4  C3  UNL d   1      -0.466  -1.763  -1.119  0.00  0.00     0.023 A 
ATOM      5  C4  UNL d   1      -0.268  -0.384  -1.192  0.00  0.00     0.048 A 
ATOM      6  C5  UNL d   1      -0.563   0.416  -0.086  0.00  0.00     0.003 A 
ATOM      7  I   UNL d   1      -0.029  -2.958  -2.763  0.00  0.00    -0.146 I 
ENDROOT
TORSDOF 0
ENDMDL
