MODEL 1
REMARK minimizedAffinity -2.20474482
REMARK minimizedRMSD -1
REMARK  0 active torsions:
REMARK  status: ('A' for Active; 'I' for Inactive)
ROOT
ATOM      1  C   UNL d   1       0.103  -0.795  -0.901  0.00  0.00     0.023 A 
ATOM      2  C1  UNL d   1       0.267   0.258  -1.802  0.00  0.00     0.003 A 
ATOM      3  C2  UNL d   1       0.496   1.552  -1.332  0.00  0.00     0.048 A 
ATOM      4  C3  UNL d   1       0.561   1.787   0.041  0.00  0.00     0.023 A 
ATOM      5  C4  UNL d   1       0.398   0.738   0.947  0.00  0.00     0.048 A 
ATOM      6  C5  UNL d   1       0.168  -0.555   0.471  0.00  0.00     0.003 A 
ATOM      7  I   UNL d   1       0.903   3.713   0.744  0.00  0.00    -0.146 I 
ENDROOT
TORSDOF 0
ENDMDL
