MODEL 1
REMARK minimizedAffinity -5.25201178
REMARK minimizedRMSD -1
REMARK  0 active torsions:
REMARK  status: ('A' for Active; 'I' for Inactive)
ROOT
ATOM      1  C   UNL d   1       0.005  -3.410  -0.476  0.00  0.00     0.023 A 
ATOM      2  C1  UNL d   1       0.273  -2.658  -1.621  0.00  0.00     0.003 A 
ATOM      3  C2  UNL d   1       0.269  -1.263  -1.558  0.00  0.00     0.048 A 
ATOM      4  C3  UNL d   1      -0.003  -0.626  -0.347  0.00  0.00     0.023 A 
ATOM      5  C4  UNL d   1      -0.271  -1.375   0.800  0.00  0.00     0.048 A 
ATOM      6  C5  UNL d   1      -0.266  -2.769   0.732  0.00  0.00     0.003 A 
ATOM      7  I   UNL d   1      -0.009   1.450  -0.251  0.00  0.00    -0.146 I 
ENDROOT
TORSDOF 0
ENDMDL
