MODEL 1
REMARK minimizedAffinity -4.36495161
REMARK minimizedRMSD -1
REMARK  0 active torsions:
REMARK  status: ('A' for Active; 'I' for Inactive)
ROOT
ATOM      1  C   UNL d   1      -0.753  -0.992   0.729  0.00  0.00     0.023 A 
ATOM      2  C1  UNL d   1       0.640  -0.956   0.668  0.00  0.00     0.003 A 
ATOM      3  C2  UNL d   1       1.301   0.262   0.498  0.00  0.00     0.048 A 
ATOM      4  C3  UNL d   1       0.563   1.440   0.392  0.00  0.00     0.023 A 
ATOM      5  C4  UNL d   1      -0.831   1.409   0.454  0.00  0.00     0.048 A 
ATOM      6  C5  UNL d   1      -1.488   0.189   0.622  0.00  0.00     0.003 A 
ATOM      7  I   UNL d   1       1.546   3.255   0.140  0.00  0.00    -0.146 I 
ENDROOT
TORSDOF 0
ENDMDL
