MODEL 1
REMARK minimizedAffinity -2.24758959
REMARK minimizedRMSD -1
REMARK  0 active torsions:
REMARK  status: ('A' for Active; 'I' for Inactive)
ROOT
ATOM      1  C   UNL d   1      -0.605  -2.717   0.450  0.00  0.00     0.023 A 
ATOM      2  C1  UNL d   1       0.096  -2.268  -0.669  0.00  0.00     0.003 A 
ATOM      3  C2  UNL d   1       0.412  -0.914  -0.799  0.00  0.00     0.048 A 
ATOM      4  C3  UNL d   1       0.025  -0.015   0.194  0.00  0.00     0.023 A 
ATOM      5  C4  UNL d   1      -0.675  -0.460   1.316  0.00  0.00     0.048 A 
ATOM      6  C5  UNL d   1      -0.990  -1.814   1.442  0.00  0.00     0.003 A 
ATOM      7  I   UNL d   1       0.495   2.000   0.002  0.00  0.00    -0.146 I 
ENDROOT
TORSDOF 0
ENDMDL
