MODEL 1
REMARK minimizedAffinity -5.1063242
REMARK minimizedRMSD -1
REMARK  0 active torsions:
REMARK  status: ('A' for Active; 'I' for Inactive)
ROOT
ATOM      1  C   UNL d   1      -0.223  -3.064   0.182  0.00  0.00     0.023 A 
ATOM      2  C1  UNL d   1       0.687  -2.605  -0.770  0.00  0.00     0.003 A 
ATOM      3  C2  UNL d   1       0.960  -1.240  -0.876  0.00  0.00     0.048 A 
ATOM      4  C3  UNL d   1       0.320  -0.339  -0.026  0.00  0.00     0.023 A 
ATOM      5  C4  UNL d   1      -0.591  -0.794   0.930  0.00  0.00     0.048 A 
ATOM      6  C5  UNL d   1      -0.861  -2.160   1.031  0.00  0.00     0.003 A 
ATOM      7  I   UNL d   1       0.724   1.694  -0.181  0.00  0.00    -0.146 I 
ENDROOT
TORSDOF 0
ENDMDL
