MODEL 1
REMARK minimizedAffinity 0.0696434155
REMARK minimizedRMSD -1
REMARK  1 active torsions:
REMARK  status: ('A' for Active; 'I' for Inactive)
REMARK    1  A    between atoms: C1_2  and  C2_3 
ROOT
ATOM      1  C2  UNL d   1      -5.839  -4.703   0.065  0.00  0.00    -0.073 A 
ATOM      2  C3  UNL d   1      -5.643  -5.935  -0.569  0.00  0.00    -0.002 A 
ATOM      3  C4  UNL d   1      -5.489  -5.999  -1.954  0.00  0.00     0.004 A 
ATOM      4  C5  UNL d   1      -5.521  -4.833  -2.719  0.00  0.00    -0.004 A 
ATOM      5  C6  UNL d   1      -5.704  -3.591  -2.103  0.00  0.00    -0.075 A 
ATOM      6  C7  UNL d   1      -5.744  -2.327  -2.911  0.00  0.00     0.076 C 
ATOM      7  C8  UNL d   1      -5.861  -3.535  -0.711  0.00  0.00     0.001 A 
ENDROOT
BRANCH   1   8
ATOM      8  C1  UNL d   1      -6.000  -4.628   1.561  0.00  0.00     0.053 C 
ATOM      9  C   UNL d   1      -5.916  -6.000   2.212  0.00  0.00     0.018 C 
ENDBRANCH   1   8
TORSDOF 1
ENDMDL
