MODEL 1
REMARK minimizedAffinity -0.27922833
REMARK minimizedRMSD -1
REMARK  1 active torsions:
REMARK  status: ('A' for Active; 'I' for Inactive)
REMARK    1  A    between atoms: C1_2  and  C2_3 
ROOT
ATOM      1  C2  UNL d   1      -5.919  -3.846  -1.574  0.00  0.00    -0.073 A 
ATOM      2  C3  UNL d   1      -5.907  -5.228  -1.352  0.00  0.00    -0.002 A 
ATOM      3  C4  UNL d   1      -5.840  -5.732  -0.053  0.00  0.00     0.004 A 
ATOM      4  C5  UNL d   1      -5.791  -4.863   1.036  0.00  0.00    -0.004 A 
ATOM      5  C6  UNL d   1      -5.814  -3.479   0.835  0.00  0.00    -0.075 A 
ATOM      6  C7  UNL d   1      -5.759  -2.530   1.996  0.00  0.00     0.076 C 
ATOM      7  C8  UNL d   1      -5.879  -2.980  -0.472  0.00  0.00     0.001 A 
ENDROOT
BRANCH   1   8
ATOM      8  C1  UNL d   1      -5.999  -3.296  -2.975  0.00  0.00     0.053 C 
ATOM      9  C   UNL d   1      -5.747  -1.797  -3.014  0.00  0.00     0.018 C 
ENDBRANCH   1   8
TORSDOF 1
ENDMDL
