MODEL 1
REMARK minimizedAffinity 1.28652573
REMARK minimizedRMSD -1
REMARK  1 active torsions:
REMARK  status: ('A' for Active; 'I' for Inactive)
REMARK    1  A    between atoms: C1_2  and  C2_3 
ROOT
ATOM      1  C2  UNL d   1       3.121   0.367   2.023  0.00  0.00    -0.073 A 
ATOM      2  C3  UNL d   1       2.526  -0.586   2.856  0.00  0.00    -0.002 A 
ATOM      3  C4  UNL d   1       1.273  -0.345   3.421  0.00  0.00     0.004 A 
ATOM      4  C5  UNL d   1       0.600   0.848   3.153  0.00  0.00    -0.004 A 
ATOM      5  C6  UNL d   1       1.173   1.808   2.313  0.00  0.00    -0.075 A 
ATOM      6  C7  UNL d   1       0.464   3.096   2.017  0.00  0.00     0.076 C 
ATOM      7  C8  UNL d   1       2.433   1.559   1.752  0.00  0.00     0.001 A 
ENDROOT
BRANCH   1   8
ATOM      8  C1  UNL d   1       4.471   0.108   1.406  0.00  0.00     0.053 C 
ATOM      9  C   UNL d   1       5.585   0.133   2.440  0.00  0.00     0.018 C 
ENDBRANCH   1   8
TORSDOF 1
ENDMDL
