MODEL 1
REMARK minimizedAffinity 6.70856237
REMARK minimizedRMSD -1
REMARK  1 active torsions:
REMARK  status: ('A' for Active; 'I' for Inactive)
REMARK    1  A    between atoms: C1_2  and  C2_3 
ROOT
ATOM      1  C2  UNL d   1      -1.216   1.754   2.905  0.00  0.00    -0.073 A 
ATOM      2  C3  UNL d   1      -2.103   1.559   1.840  0.00  0.00    -0.002 A 
ATOM      3  C4  UNL d   1      -2.478   0.269   1.461  0.00  0.00     0.004 A 
ATOM      4  C5  UNL d   1      -1.975  -0.837   2.146  0.00  0.00    -0.004 A 
ATOM      5  C6  UNL d   1      -1.097  -0.663   3.220  0.00  0.00    -0.075 A 
ATOM      6  C7  UNL d   1      -0.546  -1.843   3.966  0.00  0.00     0.076 C 
ATOM      7  C8  UNL d   1      -0.724   0.636   3.593  0.00  0.00     0.001 A 
ENDROOT
BRANCH   1   8
ATOM      8  C1  UNL d   1      -0.814   3.145   3.322  0.00  0.00     0.053 C 
ATOM      9  C   UNL d   1      -1.997   4.099   3.337  0.00  0.00     0.018 C 
ENDBRANCH   1   8
TORSDOF 1
ENDMDL
