MODEL 1
REMARK minimizedAffinity 4.09545612
REMARK minimizedRMSD -1
REMARK  1 active torsions:
REMARK  status: ('A' for Active; 'I' for Inactive)
REMARK    1  A    between atoms: C1_2  and  C2_3 
ROOT
ATOM      1  C2  UNL d   1       0.613  -0.484   3.342  0.00  0.00    -0.073 A 
ATOM      2  C3  UNL d   1       0.104   0.618   2.645  0.00  0.00    -0.002 A 
ATOM      3  C4  UNL d   1       0.947   1.405   1.860  0.00  0.00     0.004 A 
ATOM      4  C5  UNL d   1       2.303   1.095   1.757  0.00  0.00    -0.004 A 
ATOM      5  C6  UNL d   1       2.828  -0.009   2.437  0.00  0.00    -0.075 A 
ATOM      6  C7  UNL d   1       4.285  -0.354   2.339  0.00  0.00     0.076 C 
ATOM      7  C8  UNL d   1       1.976  -0.793   3.226  0.00  0.00     0.001 A 
ENDROOT
BRANCH   1   8
ATOM      8  C1  UNL d   1      -0.295  -1.341   4.187  0.00  0.00     0.053 C 
ATOM      9  C   UNL d   1      -1.757  -1.169   3.807  0.00  0.00     0.018 C 
ENDBRANCH   1   8
TORSDOF 1
ENDMDL
