MODEL 1
REMARK minimizedAffinity 7.1665082
REMARK minimizedRMSD -1
REMARK  1 active torsions:
REMARK  status: ('A' for Active; 'I' for Inactive)
REMARK    1  A    between atoms: C1_2  and  C2_3 
ROOT
ATOM      1  C2  UNL d   1      -5.321  -3.197  -0.830  0.00  0.00    -0.073 A 
ATOM      2  C3  UNL d   1      -5.657  -3.928  -1.975  0.00  0.00    -0.002 A 
ATOM      3  C4  UNL d   1      -5.590  -5.322  -1.967  0.00  0.00     0.004 A 
ATOM      4  C5  UNL d   1      -5.192  -5.998  -0.813  0.00  0.00    -0.004 A 
ATOM      5  C6  UNL d   1      -4.864  -5.286   0.344  0.00  0.00    -0.075 A 
ATOM      6  C7  UNL d   1      -4.433  -5.998   1.593  0.00  0.00     0.076 C 
ATOM      7  C8  UNL d   1      -4.932  -3.886   0.327  0.00  0.00     0.001 A 
ENDROOT
BRANCH   1   8
ATOM      8  C1  UNL d   1      -5.399  -1.692  -0.833  0.00  0.00     0.053 C 
ATOM      9  C   UNL d   1      -5.778  -1.143  -2.199  0.00  0.00     0.018 C 
ENDBRANCH   1   8
TORSDOF 1
ENDMDL
