MODEL 1
REMARK minimizedAffinity 6.74874401
REMARK minimizedRMSD -1
REMARK  1 active torsions:
REMARK  status: ('A' for Active; 'I' for Inactive)
REMARK    1  A    between atoms: C1_2  and  C2_3 
ROOT
ATOM      1  C2  UNL d   1      -2.935   2.093   1.999  0.00  0.00    -0.073 A 
ATOM      2  C3  UNL d   1      -2.841   0.999   2.867  0.00  0.00    -0.002 A 
ATOM      3  C4  UNL d   1      -1.918  -0.019   2.621  0.00  0.00     0.004 A 
ATOM      4  C5  UNL d   1      -1.076   0.050   1.511  0.00  0.00    -0.004 A 
ATOM      5  C6  UNL d   1      -1.147   1.140   0.638  0.00  0.00    -0.075 A 
ATOM      6  C7  UNL d   1      -0.251   1.228  -0.562  0.00  0.00     0.076 C 
ATOM      7  C8  UNL d   1      -2.078   2.157   0.890  0.00  0.00     0.001 A 
ENDROOT
BRANCH   1   8
ATOM      8  C1  UNL d   1      -3.925   3.197   2.263  0.00  0.00     0.053 C 
ATOM      9  C   UNL d   1      -3.340   4.288   3.147  0.00  0.00     0.018 C 
ENDBRANCH   1   8
TORSDOF 1
ENDMDL
