MODEL 1
REMARK minimizedAffinity 10.9951935
REMARK minimizedRMSD -1
REMARK  1 active torsions:
REMARK  status: ('A' for Active; 'I' for Inactive)
REMARK    1  A    between atoms: C1_2  and  C2_3 
ROOT
ATOM      1  C2  UNL d   1       2.342   3.199  -2.490  0.00  0.00    -0.073 A 
ATOM      2  C3  UNL d   1       1.797   4.442  -2.829  0.00  0.00    -0.002 A 
ATOM      3  C4  UNL d   1       2.444   5.267  -3.750  0.00  0.00     0.004 A 
ATOM      4  C5  UNL d   1       3.635   4.855  -4.347  0.00  0.00    -0.004 A 
ATOM      5  C6  UNL d   1       4.189   3.610  -4.031  0.00  0.00    -0.075 A 
ATOM      6  C7  UNL d   1       5.471   3.153  -4.662  0.00  0.00     0.076 C 
ATOM      7  C8  UNL d   1       3.535   2.789  -3.102  0.00  0.00     0.001 A 
ENDROOT
BRANCH   1   8
ATOM      8  C1  UNL d   1       1.645   2.302  -1.500  0.00  0.00     0.053 C 
ATOM      9  C   UNL d   1       1.104   1.041  -2.156  0.00  0.00     0.018 C 
ENDBRANCH   1   8
TORSDOF 1
ENDMDL
