MODEL 1
REMARK minimizedAffinity 10.3705578
REMARK minimizedRMSD -1
REMARK  1 active torsions:
REMARK  status: ('A' for Active; 'I' for Inactive)
REMARK    1  A    between atoms: C1_2  and  C2_3 
ROOT
ATOM      1  C2  UNL d   1       2.274   3.345  -2.276  0.00  0.00    -0.073 A 
ATOM      2  C3  UNL d   1       1.688   4.597  -2.495  0.00  0.00    -0.002 A 
ATOM      3  C4  UNL d   1       2.227   5.473  -3.439  0.00  0.00     0.004 A 
ATOM      4  C5  UNL d   1       3.352   5.104  -4.177  0.00  0.00    -0.004 A 
ATOM      5  C6  UNL d   1       3.945   3.852  -3.981  0.00  0.00    -0.075 A 
ATOM      6  C7  UNL d   1       5.156   3.441  -4.765  0.00  0.00     0.076 C 
ATOM      7  C8  UNL d   1       3.399   2.980  -3.030  0.00  0.00     0.001 A 
ENDROOT
BRANCH   1   8
ATOM      8  C1  UNL d   1       1.692   2.394  -1.263  0.00  0.00     0.053 C 
ATOM      9  C   UNL d   1       1.895   2.885   0.162  0.00  0.00     0.018 C 
ENDBRANCH   1   8
TORSDOF 1
ENDMDL
