MODEL 1
REMARK minimizedAffinity 11.8055916
REMARK minimizedRMSD -1
REMARK  1 active torsions:
REMARK  status: ('A' for Active; 'I' for Inactive)
REMARK    1  A    between atoms: C1_2  and  C2_3 
ROOT
ATOM      1  C2  UNL d   1       2.467   4.098  -3.086  0.00  0.00    -0.073 A 
ATOM      2  C3  UNL d   1       3.717   3.998  -3.707  0.00  0.00    -0.002 A 
ATOM      3  C4  UNL d   1       3.856   4.296  -5.064  0.00  0.00     0.004 A 
ATOM      4  C5  UNL d   1       2.750   4.703  -5.810  0.00  0.00    -0.004 A 
ATOM      5  C6  UNL d   1       1.495   4.820  -5.205  0.00  0.00    -0.075 A 
ATOM      6  C7  UNL d   1       0.295   5.255  -5.994  0.00  0.00     0.076 C 
ATOM      7  C8  UNL d   1       1.363   4.517  -3.843  0.00  0.00     0.001 A 
ENDROOT
BRANCH   1   8
ATOM      8  C1  UNL d   1       2.313   3.784  -1.621  0.00  0.00     0.053 C 
ATOM      9  C   UNL d   1       1.846   2.356  -1.390  0.00  0.00     0.018 C 
ENDBRANCH   1   8
TORSDOF 1
ENDMDL
