MODEL 1
REMARK minimizedAffinity 3.83855939
REMARK minimizedRMSD -1
REMARK  1 active torsions:
REMARK  status: ('A' for Active; 'I' for Inactive)
REMARK    1  A    between atoms: C1_2  and  C2_3 
ROOT
ATOM      1  C2  UNL d   1      -5.890  -2.247  -1.243  0.00  0.00    -0.073 A 
ATOM      2  C3  UNL d   1      -5.929  -1.749  -2.550  0.00  0.00    -0.002 A 
ATOM      3  C4  UNL d   1      -5.979  -2.624  -3.636  0.00  0.00     0.004 A 
ATOM      4  C5  UNL d   1      -5.999  -4.003  -3.427  0.00  0.00    -0.004 A 
ATOM      5  C6  UNL d   1      -5.973  -4.519  -2.128  0.00  0.00    -0.075 A 
ATOM      6  C7  UNL d   1      -5.991  -6.000  -1.886  0.00  0.00     0.076 C 
ATOM      7  C8  UNL d   1      -5.920  -3.634  -1.042  0.00  0.00     0.001 A 
ENDROOT
BRANCH   1   8
ATOM      8  C1  UNL d   1      -5.843  -1.306  -0.067  0.00  0.00     0.053 C 
ATOM      9  C   UNL d   1      -4.769  -1.700   0.935  0.00  0.00     0.018 C 
ENDBRANCH   1   8
TORSDOF 1
ENDMDL
