MODEL 1
REMARK minimizedAffinity 4.34208584
REMARK minimizedRMSD -1
REMARK  1 active torsions:
REMARK  status: ('A' for Active; 'I' for Inactive)
REMARK    1  A    between atoms: C1_2  and  C2_3 
ROOT
ATOM      1  C2  UNL d   1       2.257   1.536   2.302  0.00  0.00    -0.073 A 
ATOM      2  C3  UNL d   1       1.840   2.871   2.356  0.00  0.00    -0.002 A 
ATOM      3  C4  UNL d   1       0.674   3.218   3.040  0.00  0.00     0.004 A 
ATOM      4  C5  UNL d   1      -0.083   2.237   3.681  0.00  0.00    -0.004 A 
ATOM      5  C6  UNL d   1       0.324   0.900   3.648  0.00  0.00    -0.075 A 
ATOM      6  C7  UNL d   1      -0.480  -0.168   4.330  0.00  0.00     0.076 C 
ATOM      7  C8  UNL d   1       1.494   0.558   2.957  0.00  0.00     0.001 A 
ENDROOT
BRANCH   1   8
ATOM      8  C1  UNL d   1       3.518   1.157   1.570  0.00  0.00     0.053 C 
ATOM      9  C   UNL d   1       4.310   0.092   2.313  0.00  0.00     0.018 C 
ENDBRANCH   1   8
TORSDOF 1
ENDMDL
