MODEL 1
REMARK minimizedAffinity 13.1560316
REMARK minimizedRMSD -1
REMARK  1 active torsions:
REMARK  status: ('A' for Active; 'I' for Inactive)
REMARK    1  A    between atoms: C1_2  and  C2_3 
ROOT
ATOM      1  C2  UNL d   1       2.299   4.846  -5.062  0.00  0.00    -0.073 A 
ATOM      2  C3  UNL d   1       1.868   3.696  -5.734  0.00  0.00    -0.002 A 
ATOM      3  C4  UNL d   1       2.762   2.658  -6.000  0.00  0.00     0.004 A 
ATOM      4  C5  UNL d   1       4.093   2.756  -5.592  0.00  0.00    -0.004 A 
ATOM      5  C6  UNL d   1       4.540   3.892  -4.909  0.00  0.00    -0.075 A 
ATOM      6  C7  UNL d   1       5.968   4.013  -4.465  0.00  0.00     0.076 C 
ATOM      7  C8  UNL d   1       3.636   4.931  -4.648  0.00  0.00     0.001 A 
ENDROOT
BRANCH   1   8
ATOM      8  C1  UNL d   1       1.336   5.967  -4.767  0.00  0.00     0.053 C 
ATOM      9  C   UNL d   1      -0.099   5.585  -5.092  0.00  0.00     0.018 C 
ENDBRANCH   1   8
TORSDOF 1
ENDMDL
