MODEL 1
REMARK minimizedAffinity -4.20019341
REMARK minimizedRMSD -1
REMARK  0 active torsions:
REMARK  status: ('A' for Active; 'I' for Inactive)
ROOT
ATOM      1  C4' PXY d   1       0.731   0.019  -1.890  0.00  0.00     0.077 C 
ATOM      2  C1' PXY d   1      -1.221  -0.178   3.547  0.00  0.00     0.077 C 
ATOM      3  C1  PXY d   1      -0.700  -0.117   2.125  0.00  0.00    -0.082 A 
ATOM      4  C2  PXY d   1      -1.496  -0.452   1.122  0.00  0.00     0.003 A 
ATOM      5  C3  PXY d   1      -1.031  -0.434  -0.168  0.00  0.00     0.003 A 
ATOM      6  C4  PXY d   1       0.245  -0.018  -0.439  0.00  0.00    -0.082 A 
ATOM      7  C5  PXY d   1       1.060   0.335   0.578  0.00  0.00     0.003 A 
ATOM      8  C6  PXY d   1       0.582   0.270   1.884  0.00  0.00     0.003 A 
ENDROOT
TORSDOF 0
ENDMDL
