MODEL 1
REMARK minimizedAffinity -4.04949951
REMARK minimizedRMSD -1
REMARK  0 active torsions:
REMARK  status: ('A' for Active; 'I' for Inactive)
ROOT
ATOM      1  C4' PXY d   1       1.083  -1.472  -3.044  0.00  0.00     0.077 C 
ATOM      2  C1' PXY d   1      -1.610  -0.310   1.937  0.00  0.00     0.077 C 
ATOM      3  C1  PXY d   1      -0.907  -0.603   0.626  0.00  0.00    -0.082 A 
ATOM      4  C2  PXY d   1      -0.759  -1.857   0.229  0.00  0.00     0.003 A 
ATOM      5  C3  PXY d   1      -0.098  -2.141  -0.938  0.00  0.00     0.003 A 
ATOM      6  C4  PXY d   1       0.371  -1.129  -1.733  0.00  0.00    -0.082 A 
ATOM      7  C5  PXY d   1       0.215   0.153  -1.339  0.00  0.00     0.003 A 
ATOM      8  C6  PXY d   1      -0.423   0.418  -0.131  0.00  0.00     0.003 A 
ENDROOT
TORSDOF 0
ENDMDL
