MODEL 1
REMARK minimizedAffinity -3.67508888
REMARK minimizedRMSD -1
REMARK  0 active torsions:
REMARK  status: ('A' for Active; 'I' for Inactive)
ROOT
ATOM      1  C4' PXY d   1      -3.891   0.219   1.875  0.00  0.00     0.077 C 
ATOM      2  C1' PXY d   1       1.843  -0.337   1.400  0.00  0.00     0.077 C 
ATOM      3  C1  PXY d   1       0.340  -0.195   1.537  0.00  0.00    -0.082 A 
ATOM      4  C2  PXY d   1      -0.421  -0.228   0.455  0.00  0.00     0.003 A 
ATOM      5  C3  PXY d   1      -1.779  -0.070   0.558  0.00  0.00     0.003 A 
ATOM      6  C4  PXY d   1      -2.370   0.071   1.785  0.00  0.00    -0.082 A 
ATOM      7  C5  PXY d   1      -1.601   0.094   2.895  0.00  0.00     0.003 A 
ATOM      8  C6  PXY d   1      -0.220  -0.027   2.765  0.00  0.00     0.003 A 
ENDROOT
TORSDOF 0
ENDMDL
