MODEL 1
REMARK minimizedAffinity -5.54179287
REMARK minimizedRMSD -1
REMARK  0 active torsions:
REMARK  status: ('A' for Active; 'I' for Inactive)
ROOT
ATOM      1  C4' PXY d   1       0.678   0.129  -1.808  0.00  0.00     0.077 C 
ATOM      2  C1' PXY d   1      -1.973  -0.087   3.324  0.00  0.00     0.077 C 
ATOM      3  C1  PXY d   1      -1.266  -0.027   1.984  0.00  0.00    -0.082 A 
ATOM      4  C2  PXY d   1      -1.969   0.184   0.883  0.00  0.00     0.003 A 
ATOM      5  C3  PXY d   1      -1.350   0.209  -0.340  0.00  0.00     0.003 A 
ATOM      6  C4  PXY d   1       0.009   0.070  -0.433  0.00  0.00    -0.082 A 
ATOM      7  C5  PXY d   1       0.734  -0.135   0.687  0.00  0.00     0.003 A 
ATOM      8  C6  PXY d   1       0.082  -0.199   1.915  0.00  0.00     0.003 A 
ENDROOT
TORSDOF 0
ENDMDL
