MODEL 1
REMARK minimizedAffinity -4.16595936
REMARK minimizedRMSD -1
REMARK  0 active torsions:
REMARK  status: ('A' for Active; 'I' for Inactive)
ROOT
ATOM      1  C4' PXY d   1       0.799   0.403  -2.282  0.00  0.00     0.077 C 
ATOM      2  C1' PXY d   1      -0.626  -0.466   3.252  0.00  0.00     0.077 C 
ATOM      3  C1  PXY d   1      -0.243  -0.229   1.804  0.00  0.00    -0.082 A 
ATOM      4  C2  PXY d   1      -1.122  -0.477   0.847  0.00  0.00     0.003 A 
ATOM      5  C3  PXY d   1      -0.782  -0.299  -0.470  0.00  0.00     0.003 A 
ATOM      6  C4  PXY d   1       0.453   0.188  -0.806  0.00  0.00    -0.082 A 
ATOM      7  C5  PXY d   1       1.351   0.453   0.165  0.00  0.00     0.003 A 
ATOM      8  C6  PXY d   1       1.001   0.227   1.493  0.00  0.00     0.003 A 
ENDROOT
TORSDOF 0
ENDMDL
