MODEL 1
REMARK minimizedAffinity -3.77716422
REMARK minimizedRMSD -1
REMARK  0 active torsions:
REMARK  status: ('A' for Active; 'I' for Inactive)
ROOT
ATOM      1  C4' PXY d   1      -2.023  -0.130   3.716  0.00  0.00     0.077 C 
ATOM      2  C1' PXY d   1      -0.498   0.335  -1.840  0.00  0.00     0.077 C 
ATOM      3  C1  PXY d   1      -0.887   0.207  -0.381  0.00  0.00    -0.082 A 
ATOM      4  C2  PXY d   1      -2.163   0.260  -0.036  0.00  0.00     0.003 A 
ATOM      5  C3  PXY d   1      -2.530   0.178   1.282  0.00  0.00     0.003 A 
ATOM      6  C4  PXY d   1      -1.585  -0.014   2.254  0.00  0.00    -0.082 A 
ATOM      7  C5  PXY d   1      -0.281  -0.080   1.910  0.00  0.00     0.003 A 
ATOM      8  C6  PXY d   1       0.074   0.047   0.570  0.00  0.00     0.003 A 
ENDROOT
TORSDOF 0
ENDMDL
