MODEL 1
REMARK minimizedAffinity -5.8212142
REMARK minimizedRMSD -1
REMARK  0 active torsions:
REMARK  status: ('A' for Active; 'I' for Inactive)
ROOT
ATOM      1  C4' PXY d   1      -0.932  -0.995   3.879  0.00  0.00     0.077 C 
ATOM      2  C1' PXY d   1      -1.070   1.323  -1.414  0.00  0.00     0.077 C 
ATOM      3  C1  PXY d   1      -1.044   0.722  -0.023  0.00  0.00    -0.082 A 
ATOM      4  C2  PXY d   1       0.094   0.262   0.470  0.00  0.00     0.003 A 
ATOM      5  C3  PXY d   1       0.129  -0.314   1.714  0.00  0.00     0.003 A 
ATOM      6  C4  PXY d   1      -1.003  -0.371   2.483  0.00  0.00    -0.082 A 
ATOM      7  C5  PXY d   1      -2.166   0.105   1.991  0.00  0.00     0.003 A 
ATOM      8  C6  PXY d   1      -2.189   0.649   0.709  0.00  0.00     0.003 A 
ENDROOT
TORSDOF 0
ENDMDL
