MODEL 1
REMARK minimizedAffinity -5.14283609
REMARK minimizedRMSD -1
REMARK  0 active torsions:
REMARK  status: ('A' for Active; 'I' for Inactive)
ROOT
ATOM      1  C4' PXY d   1      -1.889  -0.475   3.409  0.00  0.00     0.077 C 
ATOM      2  C1' PXY d   1       0.337   0.471  -1.841  0.00  0.00     0.077 C 
ATOM      3  C1  PXY d   1      -0.256   0.230  -0.467  0.00  0.00    -0.082 A 
ATOM      4  C2  PXY d   1       0.528  -0.154   0.526  0.00  0.00     0.003 A 
ATOM      5  C3  PXY d   1       0.002  -0.407   1.767  0.00  0.00     0.003 A 
ATOM      6  C4  PXY d   1      -1.332  -0.212   2.007  0.00  0.00    -0.082 A 
ATOM      7  C5  PXY d   1      -2.137   0.191   1.001  0.00  0.00     0.003 A 
ATOM      8  C6  PXY d   1      -1.590   0.402  -0.261  0.00  0.00     0.003 A 
ENDROOT
TORSDOF 0
ENDMDL
