MODEL 1
REMARK minimizedAffinity -4.29211521
REMARK minimizedRMSD -1
REMARK  0 active torsions:
REMARK  status: ('A' for Active; 'I' for Inactive)
ROOT
ATOM      1  C4' PXY d   1      -3.788   0.078   1.869  0.00  0.00     0.077 C 
ATOM      2  C1' PXY d   1       1.941   0.063   1.101  0.00  0.00     0.077 C 
ATOM      3  C1  PXY d   1       0.440   0.060   1.313  0.00  0.00    -0.082 A 
ATOM      4  C2  PXY d   1      -0.367   0.229   0.279  0.00  0.00     0.003 A 
ATOM      5  C3  PXY d   1      -1.726   0.261   0.457  0.00  0.00     0.003 A 
ATOM      6  C4  PXY d   1      -2.266   0.065   1.700  0.00  0.00    -0.082 A 
ATOM      7  C5  PXY d   1      -1.450  -0.120   2.759  0.00  0.00     0.003 A 
ATOM      8  C6  PXY d   1      -0.072  -0.108   2.563  0.00  0.00     0.003 A 
ENDROOT
TORSDOF 0
ENDMDL
