MODEL 1
REMARK minimizedAffinity -4.54067945
REMARK minimizedRMSD -1
REMARK  0 active torsions:
REMARK  status: ('A' for Active; 'I' for Inactive)
ROOT
ATOM      1  C4' PXY d   1       1.473  -0.018   0.775  0.00  0.00     0.077 C 
ATOM      2  C1' PXY d   1      -4.045  -0.332   2.467  0.00  0.00     0.077 C 
ATOM      3  C1  PXY d   1      -2.594  -0.249   2.036  0.00  0.00    -0.082 A 
ATOM      4  C2  PXY d   1      -2.296   0.198   0.827  0.00  0.00     0.003 A 
ATOM      5  C3  PXY d   1      -0.991   0.249   0.409  0.00  0.00     0.003 A 
ATOM      6  C4  PXY d   1       0.023  -0.110   1.256  0.00  0.00    -0.082 A 
ATOM      7  C5  PXY d   1      -0.273  -0.557   2.495  0.00  0.00     0.003 A 
ATOM      8  C6  PXY d   1      -1.606  -0.640   2.886  0.00  0.00     0.003 A 
ENDROOT
TORSDOF 0
ENDMDL
