MODEL 1
REMARK minimizedAffinity -2.84070945
REMARK minimizedRMSD -1
REMARK  0 active torsions:
REMARK  status: ('A' for Active; 'I' for Inactive)
ROOT
ATOM      1  C4' PXY d   1       1.086  -0.217  -3.426  0.00  0.00     0.077 C 
ATOM      2  C1' PXY d   1       0.168   0.638   2.216  0.00  0.00     0.077 C 
ATOM      3  C1  PXY d   1       0.397   0.409   0.735  0.00  0.00    -0.082 A 
ATOM      4  C2  PXY d   1       1.631   0.289   0.275  0.00  0.00     0.003 A 
ATOM      5  C3  PXY d   1       1.858   0.114  -1.066  0.00  0.00     0.003 A 
ATOM      6  C4  PXY d   1       0.807   0.006  -1.937  0.00  0.00    -0.082 A 
ATOM      7  C5  PXY d   1      -0.456   0.117  -1.474  0.00  0.00     0.003 A 
ATOM      8  C6  PXY d   1      -0.663   0.336  -0.115  0.00  0.00     0.003 A 
ENDROOT
TORSDOF 0
ENDMDL
