MODEL 1
REMARK minimizedAffinity -4.38731813
REMARK minimizedRMSD -1
REMARK  0 active torsions:
REMARK  status: ('A' for Active; 'I' for Inactive)
ROOT
ATOM      1  C4' PXY d   1       1.264   0.268  -2.580  0.00  0.00     0.077 C 
ATOM      2  C1' PXY d   1      -0.818  -0.443   2.765  0.00  0.00     0.077 C 
ATOM      3  C1  PXY d   1      -0.265  -0.247   1.368  0.00  0.00    -0.082 A 
ATOM      4  C2  PXY d   1      -0.965  -0.659   0.323  0.00  0.00     0.003 A 
ATOM      5  C3  PXY d   1      -0.465  -0.519  -0.946  0.00  0.00     0.003 A 
ATOM      6  C4  PXY d   1       0.740   0.099  -1.151  0.00  0.00    -0.082 A 
ATOM      7  C5  PXY d   1       1.455   0.532  -0.092  0.00  0.00     0.003 A 
ATOM      8  C6  PXY d   1       0.949   0.343   1.191  0.00  0.00     0.003 A 
ENDROOT
TORSDOF 0
ENDMDL
