MODEL 1
REMARK minimizedAffinity -5.2176466
REMARK minimizedRMSD -1
REMARK  0 active torsions:
REMARK  status: ('A' for Active; 'I' for Inactive)
ROOT
ATOM      1  C4' PXY d   1       2.082   0.013   1.495  0.00  0.00     0.077 C 
ATOM      2  C1' PXY d   1      -3.696   0.063   1.673  0.00  0.00     0.077 C 
ATOM      3  C1  PXY d   1      -2.180   0.054   1.639  0.00  0.00    -0.082 A 
ATOM      4  C2  PXY d   1      -1.551   0.167   0.480  0.00  0.00     0.003 A 
ATOM      5  C3  PXY d   1      -0.182   0.129   0.427  0.00  0.00     0.003 A 
ATOM      6  C4  PXY d   1       0.553   0.027   1.578  0.00  0.00    -0.082 A 
ATOM      7  C5  PXY d   1      -0.081  -0.078   2.765  0.00  0.00     0.003 A 
ATOM      8  C6  PXY d   1      -1.473  -0.078   2.793  0.00  0.00     0.003 A 
ENDROOT
TORSDOF 0
ENDMDL
