MODEL 1
REMARK minimizedAffinity -5.59848738
REMARK minimizedRMSD -1
REMARK  0 active torsions:
REMARK  status: ('A' for Active; 'I' for Inactive)
ROOT
ATOM      1  C4' PXY d   1       0.509   0.653  -1.610  0.00  0.00     0.077 C 
ATOM      2  C1' PXY d   1      -1.717  -0.217   3.654  0.00  0.00     0.077 C 
ATOM      3  C1  PXY d   1      -1.123   0.018   2.279  0.00  0.00    -0.082 A 
ATOM      4  C2  PXY d   1      -1.902  -0.045   1.211  0.00  0.00     0.003 A 
ATOM      5  C3  PXY d   1      -1.375   0.133  -0.043  0.00  0.00     0.003 A 
ATOM      6  C4  PXY d   1      -0.048   0.432  -0.201  0.00  0.00    -0.082 A 
ATOM      7  C5  PXY d   1       0.750   0.508   0.884  0.00  0.00     0.003 A 
ATOM      8  C6  PXY d   1       0.205   0.283   2.145  0.00  0.00     0.003 A 
ENDROOT
TORSDOF 0
ENDMDL
