MODEL 1
REMARK minimizedAffinity -5.62037659
REMARK minimizedRMSD -1
REMARK  0 active torsions:
REMARK  status: ('A' for Active; 'I' for Inactive)
ROOT
ATOM      1  C4' PXY d   1      -3.402   0.148   1.712  0.00  0.00     0.077 C 
ATOM      2  C1' PXY d   1       2.319   0.711   1.104  0.00  0.00     0.077 C 
ATOM      3  C1  PXY d   1       0.817   0.571   1.253  0.00  0.00    -0.082 A 
ATOM      4  C2  PXY d   1       0.298   0.325   2.445  0.00  0.00     0.003 A 
ATOM      5  C3  PXY d   1      -1.056   0.163   2.592  0.00  0.00     0.003 A 
ATOM      6  C4  PXY d   1      -1.892   0.307   1.517  0.00  0.00    -0.082 A 
ATOM      7  C5  PXY d   1      -1.371   0.568   0.299  0.00  0.00     0.003 A 
ATOM      8  C6  PXY d   1       0.010   0.688   0.164  0.00  0.00     0.003 A 
ENDROOT
TORSDOF 0
ENDMDL
