MODEL 1
REMARK minimizedAffinity -5.18057966
REMARK minimizedRMSD -1
REMARK  0 active torsions:
REMARK  status: ('A' for Active; 'I' for Inactive)
ROOT
ATOM      1  C4' PXY d   1      -3.231   3.351   3.377  0.00  0.00     0.077 C 
ATOM      2  C1' PXY d   1      -0.700  -1.608   1.823  0.00  0.00     0.077 C 
ATOM      3  C1  PXY d   1      -1.358  -0.308   2.242  0.00  0.00    -0.082 A 
ATOM      4  C2  PXY d   1      -2.466   0.089   1.637  0.00  0.00     0.003 A 
ATOM      5  C3  PXY d   1      -3.056   1.278   1.982  0.00  0.00     0.003 A 
ATOM      6  C4  PXY d   1      -2.537   2.041   2.993  0.00  0.00    -0.082 A 
ATOM      7  C5  PXY d   1      -1.414   1.637   3.623  0.00  0.00     0.003 A 
ATOM      8  C6  PXY d   1      -0.807   0.448   3.230  0.00  0.00     0.003 A 
ENDROOT
TORSDOF 0
ENDMDL
