MODEL 1
REMARK minimizedAffinity -4.60551453
REMARK minimizedRMSD -1
REMARK  0 active torsions:
REMARK  status: ('A' for Active; 'I' for Inactive)
ROOT
ATOM      1  C4' PXY d   1      -3.509   0.028   1.718  0.00  0.00     0.077 C 
ATOM      2  C1' PXY d   1       2.248  -0.493   1.687  0.00  0.00     0.077 C 
ATOM      3  C1  PXY d   1       0.737  -0.365   1.705  0.00  0.00    -0.082 A 
ATOM      4  C2  PXY d   1       0.101   0.027   0.613  0.00  0.00     0.003 A 
ATOM      5  C3  PXY d   1      -1.262   0.179   0.621  0.00  0.00     0.003 A 
ATOM      6  C4  PXY d   1      -1.986  -0.124   1.743  0.00  0.00    -0.082 A 
ATOM      7  C5  PXY d   1      -1.345  -0.535   2.858  0.00  0.00     0.003 A 
ATOM      8  C6  PXY d   1       0.042  -0.644   2.841  0.00  0.00     0.003 A 
ENDROOT
TORSDOF 0
ENDMDL
