MODEL 1
REMARK minimizedAffinity -5.74166584
REMARK minimizedRMSD -1
REMARK  0 active torsions:
REMARK  status: ('A' for Active; 'I' for Inactive)
ROOT
ATOM      1  C4' PXY d   1       1.147   0.281  -1.401  0.00  0.00     0.077 C 
ATOM      2  C1' PXY d   1      -1.848  -0.443   3.490  0.00  0.00     0.077 C 
ATOM      3  C1  PXY d   1      -1.052  -0.248   2.215  0.00  0.00    -0.082 A 
ATOM      4  C2  PXY d   1      -1.687  -0.141   1.058  0.00  0.00     0.003 A 
ATOM      5  C3  PXY d   1      -0.982   0.004  -0.109  0.00  0.00     0.003 A 
ATOM      6  C4  PXY d   1       0.385   0.093  -0.086  0.00  0.00    -0.082 A 
ATOM      7  C5  PXY d   1       1.039  -0.005   1.091  0.00  0.00     0.003 A 
ATOM      8  C6  PXY d   1       0.307  -0.192   2.259  0.00  0.00     0.003 A 
ENDROOT
TORSDOF 0
ENDMDL
