MODEL 1
REMARK minimizedAffinity -2.14673209
REMARK minimizedRMSD -1
REMARK  0 active torsions:
REMARK  status: ('A' for Active; 'I' for Inactive)
ROOT
ATOM      1  C4' PXY d   1      -2.992   0.798   0.940  0.00  0.00     0.077 C 
ATOM      2  C1' PXY d   1       2.704   0.187   1.709  0.00  0.00     0.077 C 
ATOM      3  C1  PXY d   1       1.212   0.351   1.495  0.00  0.00    -0.082 A 
ATOM      4  C2  PXY d   1       0.423   0.575   2.533  0.00  0.00     0.003 A 
ATOM      5  C3  PXY d   1      -0.932   0.694   2.361  0.00  0.00     0.003 A 
ATOM      6  C4  PXY d   1      -1.479   0.636   1.108  0.00  0.00    -0.082 A 
ATOM      7  C5  PXY d   1      -0.680   0.418   0.042  0.00  0.00     0.003 A 
ATOM      8  C6  PXY d   1       0.689   0.259   0.242  0.00  0.00     0.003 A 
ENDROOT
TORSDOF 0
ENDMDL
