MODEL 1
REMARK minimizedAffinity -0.799194098
REMARK minimizedRMSD -1
REMARK  1 active torsions:
REMARK  status: ('A' for Active; 'I' for Inactive)
REMARK    1  A    between atoms: C1_2  and  C2_3 
ROOT
ATOM      1  C2  UNL d   1       0.403  -3.036   2.179  0.00  0.00    -0.081 A 
ATOM      2  C3  UNL d   1       0.830  -2.649   0.903  0.00  0.00     0.006 A 
ATOM      3  C4  UNL d   1       2.023  -3.147   0.374  0.00  0.00     0.002 A 
ATOM      4  C5  UNL d   1       2.804  -4.046   1.109  0.00  0.00    -0.080 A 
ATOM      5  C6  UNL d   1       4.072  -4.611   0.540  0.00  0.00     0.076 C 
ATOM      6  C7  UNL d   1       2.386  -4.419   2.390  0.00  0.00     0.002 A 
ATOM      7  C8  UNL d   1       1.194  -3.921   2.920  0.00  0.00     0.006 A 
ENDROOT
BRANCH   1   8
ATOM      8  C1  UNL d   1      -0.916  -2.551   2.726  0.00  0.00     0.054 C 
ATOM      9  C   UNL d   1      -2.069  -2.932   1.808  0.00  0.00     0.018 C 
ENDBRANCH   1   8
TORSDOF 1
ENDMDL
