MODEL 1
REMARK minimizedAffinity 1.94830263
REMARK minimizedRMSD -1
REMARK  1 active torsions:
REMARK  status: ('A' for Active; 'I' for Inactive)
REMARK    1  A    between atoms: C1_2  and  C2_3 
ROOT
ATOM      1  C2  UNL d   1       2.049  -3.228   0.446  0.00  0.00    -0.081 A 
ATOM      2  C3  UNL d   1       2.057  -1.933  -0.085  0.00  0.00     0.006 A 
ATOM      3  C4  UNL d   1       1.194  -0.956   0.417  0.00  0.00     0.002 A 
ATOM      4  C5  UNL d   1       0.314  -1.257   1.463  0.00  0.00    -0.080 A 
ATOM      5  C6  UNL d   1      -0.597  -0.210   2.031  0.00  0.00     0.076 C 
ATOM      6  C7  UNL d   1       0.293  -2.556   1.981  0.00  0.00     0.002 A 
ATOM      7  C8  UNL d   1       1.156  -3.533   1.479  0.00  0.00     0.006 A 
ENDROOT
BRANCH   1   8
ATOM      8  C1  UNL d   1       3.024  -4.266  -0.050  0.00  0.00     0.054 C 
ATOM      9  C   UNL d   1       4.123  -4.525   0.971  0.00  0.00     0.018 C 
ENDBRANCH   1   8
TORSDOF 1
ENDMDL
