MODEL 1
REMARK minimizedAffinity -2.33966231
REMARK minimizedRMSD -1
REMARK  1 active torsions:
REMARK  status: ('A' for Active; 'I' for Inactive)
REMARK    1  A    between atoms: C1_2  and  C2_3 
ROOT
ATOM      1  C2  UNL d   1       2.829  -3.703   0.056  0.00  0.00    -0.081 A 
ATOM      2  C3  UNL d   1       2.039  -3.841   1.204  0.00  0.00     0.006 A 
ATOM      3  C4  UNL d   1       1.170  -2.819   1.592  0.00  0.00     0.002 A 
ATOM      4  C5  UNL d   1       1.070  -1.646   0.836  0.00  0.00    -0.080 A 
ATOM      5  C6  UNL d   1       0.118  -0.554   1.225  0.00  0.00     0.076 C 
ATOM      6  C7  UNL d   1       1.872  -1.501  -0.301  0.00  0.00     0.002 A 
ATOM      7  C8  UNL d   1       2.742  -2.522  -0.689  0.00  0.00     0.006 A 
ENDROOT
BRANCH   1   8
ATOM      8  C1  UNL d   1       3.720  -4.830  -0.401  0.00  0.00     0.054 C 
ATOM      9  C   UNL d   1       5.168  -4.588   0.001  0.00  0.00     0.018 C 
ENDBRANCH   1   8
TORSDOF 1
ENDMDL
