MODEL 1
REMARK minimizedAffinity 1.2181946
REMARK minimizedRMSD -1
REMARK  1 active torsions:
REMARK  status: ('A' for Active; 'I' for Inactive)
REMARK    1  A    between atoms: C1_2  and  C2_3 
ROOT
ATOM      1  C2  UNL d   1       2.016  -3.096   0.574  0.00  0.00    -0.081 A 
ATOM      2  C3  UNL d   1       2.234  -1.850  -0.026  0.00  0.00     0.006 A 
ATOM      3  C4  UNL d   1       1.370  -0.782   0.224  0.00  0.00     0.002 A 
ATOM      4  C5  UNL d   1       0.278  -0.939   1.085  0.00  0.00    -0.080 A 
ATOM      5  C6  UNL d   1      -0.640   0.207   1.386  0.00  0.00     0.076 C 
ATOM      6  C7  UNL d   1       0.050  -2.189   1.671  0.00  0.00     0.002 A 
ATOM      7  C8  UNL d   1       0.914  -3.257   1.421  0.00  0.00     0.006 A 
ENDROOT
BRANCH   1   8
ATOM      8  C1  UNL d   1       2.984  -4.232   0.357  0.00  0.00     0.054 C 
ATOM      9  C   UNL d   1       3.303  -4.944   1.664  0.00  0.00     0.018 C 
ENDBRANCH   1   8
TORSDOF 1
ENDMDL
