MODEL 1
REMARK minimizedAffinity -0.410413504
REMARK minimizedRMSD -1
REMARK  1 active torsions:
REMARK  status: ('A' for Active; 'I' for Inactive)
REMARK    1  A    between atoms: C1_2  and  C2_3 
ROOT
ATOM      1  C2  UNL d   1       2.720  -4.044   2.658  0.00  0.00    -0.081 A 
ATOM      2  C3  UNL d   1       1.661  -3.235   3.089  0.00  0.00     0.006 A 
ATOM      3  C4  UNL d   1       0.986  -2.411   2.185  0.00  0.00     0.002 A 
ATOM      4  C5  UNL d   1       1.351  -2.389   0.835  0.00  0.00    -0.080 A 
ATOM      5  C6  UNL d   1       0.614  -1.532  -0.151  0.00  0.00     0.076 C 
ATOM      6  C7  UNL d   1       2.420  -3.183   0.408  0.00  0.00     0.002 A 
ATOM      7  C8  UNL d   1       3.097  -4.006   1.311  0.00  0.00     0.006 A 
ENDROOT
BRANCH   1   8
ATOM      8  C1  UNL d   1       3.409  -4.981   3.616  0.00  0.00     0.054 C 
ATOM      9  C   UNL d   1       4.102  -4.217   4.735  0.00  0.00     0.018 C 
ENDBRANCH   1   8
TORSDOF 1
ENDMDL
