MODEL 1
REMARK minimizedAffinity 19.6504574
REMARK minimizedRMSD -1
REMARK  0 active torsions:
REMARK  status: ('A' for Active; 'I' for Inactive)
ROOT
ATOM      1  C   UNL d   1       5.588  -4.353  -0.229  0.00  0.00     0.077 C 
ATOM      2  C1  UNL d   1       4.309  -3.572  -0.304  0.00  0.00    -0.074 A 
ATOM      3  C2  UNL d   1       4.289  -2.199  -0.040  0.00  0.00    -0.005 A 
ATOM      4  C3  UNL d   1       3.094  -1.484  -0.123  0.00  0.00     0.006 A 
ATOM      5  C4  UNL d   1       1.910  -2.134  -0.470  0.00  0.00    -0.005 A 
ATOM      6  C5  UNL d   1       1.910  -3.507  -0.739  0.00  0.00    -0.074 A 
ATOM      7  C6  UNL d   1       0.647  -4.219  -1.123  0.00  0.00     0.077 C 
ATOM      8  C7  UNL d   1       3.116  -4.217  -0.660  0.00  0.00    -0.001 A 
ENDROOT
TORSDOF 0
ENDMDL
