MODEL 1
REMARK minimizedAffinity 3.49477553
REMARK minimizedRMSD -1
REMARK  0 active torsions:
REMARK  status: ('A' for Active; 'I' for Inactive)
ROOT
ATOM      1  C   UNL d   1      -3.272  -6.000  -5.556  0.00  0.00     0.077 C 
ATOM      2  C1  UNL d   1      -1.981  -5.311  -5.227  0.00  0.00    -0.074 A 
ATOM      3  C2  UNL d   1      -1.522  -4.239  -5.999  0.00  0.00    -0.005 A 
ATOM      4  C3  UNL d   1      -0.324  -3.602  -5.675  0.00  0.00     0.006 A 
ATOM      5  C4  UNL d   1       0.425  -4.029  -4.578  0.00  0.00    -0.005 A 
ATOM      6  C5  UNL d   1      -0.019  -5.099  -3.794  0.00  0.00    -0.074 A 
ATOM      7  C6  UNL d   1       0.769  -5.564  -2.606  0.00  0.00     0.077 C 
ATOM      8  C7  UNL d   1      -1.227  -5.729  -4.122  0.00  0.00    -0.001 A 
ENDROOT
TORSDOF 0
ENDMDL
