MODEL 1
REMARK minimizedAffinity 8.24047089
REMARK minimizedRMSD -1
REMARK  0 active torsions:
REMARK  status: ('A' for Active; 'I' for Inactive)
ROOT
ATOM      1  C   UNL d   1       0.323  -3.537  -5.660  0.00  0.00     0.077 C 
ATOM      2  C1  UNL d   1      -1.172  -3.506  -5.772  0.00  0.00    -0.074 A 
ATOM      3  C2  UNL d   1      -1.859  -2.293  -5.880  0.00  0.00    -0.005 A 
ATOM      4  C3  UNL d   1      -3.249  -2.279  -5.993  0.00  0.00     0.006 A 
ATOM      5  C4  UNL d   1      -3.965  -3.477  -5.999  0.00  0.00    -0.005 A 
ATOM      6  C5  UNL d   1      -3.295  -4.700  -5.893  0.00  0.00    -0.074 A 
ATOM      7  C6  UNL d   1      -4.048  -5.997  -5.908  0.00  0.00     0.077 C 
ATOM      8  C7  UNL d   1      -1.897  -4.705  -5.787  0.00  0.00    -0.001 A 
ENDROOT
TORSDOF 0
ENDMDL
