MODEL 1
REMARK minimizedAffinity 4.10564661
REMARK minimizedRMSD -1
REMARK  0 active torsions:
REMARK  status: ('A' for Active; 'I' for Inactive)
ROOT
ATOM      1  C   UNL d   1       0.634  -5.461  -2.591  0.00  0.00     0.077 C 
ATOM      2  C1  UNL d   1      -0.157  -4.996  -3.777  0.00  0.00    -0.074 A 
ATOM      3  C2  UNL d   1       0.267  -3.903  -4.541  0.00  0.00    -0.005 A 
ATOM      4  C3  UNL d   1      -0.475  -3.488  -5.647  0.00  0.00     0.006 A 
ATOM      5  C4  UNL d   1      -1.646  -4.160  -6.000  0.00  0.00    -0.005 A 
ATOM      6  C5  UNL d   1      -2.085  -5.255  -5.249  0.00  0.00    -0.074 A 
ATOM      7  C6  UNL d   1      -3.335  -5.995  -5.621  0.00  0.00     0.077 C 
ATOM      8  C7  UNL d   1      -1.330  -5.670  -4.143  0.00  0.00    -0.001 A 
ENDROOT
TORSDOF 0
ENDMDL
