MODEL 1
REMARK minimizedAffinity 15.5687189
REMARK minimizedRMSD -1
REMARK  0 active torsions:
REMARK  status: ('A' for Active; 'I' for Inactive)
ROOT
ATOM      1  C   UNL d   1      -2.525   1.190   1.533  0.00  0.00     0.077 C 
ATOM      2  C1  UNL d   1      -1.340   1.729   0.788  0.00  0.00    -0.074 A 
ATOM      3  C2  UNL d   1      -0.039   1.517   1.257  0.00  0.00    -0.005 A 
ATOM      4  C3  UNL d   1       1.054   2.016   0.548  0.00  0.00     0.006 A 
ATOM      5  C4  UNL d   1       0.857   2.731  -0.634  0.00  0.00    -0.005 A 
ATOM      6  C5  UNL d   1      -0.436   2.952  -1.118  0.00  0.00    -0.074 A 
ATOM      7  C6  UNL d   1      -0.664   3.710  -2.392  0.00  0.00     0.077 C 
ATOM      8  C7  UNL d   1      -1.528   2.441  -0.404  0.00  0.00    -0.001 A 
ENDROOT
TORSDOF 0
ENDMDL
