MODEL 1
REMARK minimizedAffinity 6.29309416
REMARK minimizedRMSD -1
REMARK  0 active torsions:
REMARK  status: ('A' for Active; 'I' for Inactive)
ROOT
ATOM      1  C   UNL d   1       0.757   2.559   0.006  0.00  0.00     0.077 C 
ATOM      2  C1  UNL d   1       0.087   3.705  -0.693  0.00  0.00    -0.074 A 
ATOM      3  C2  UNL d   1       0.720   4.946  -0.808  0.00  0.00    -0.005 A 
ATOM      4  C3  UNL d   1       0.089   6.000  -1.469  0.00  0.00     0.006 A 
ATOM      5  C4  UNL d   1      -1.180   5.823  -2.021  0.00  0.00    -0.005 A 
ATOM      6  C5  UNL d   1      -1.829   4.588  -1.917  0.00  0.00    -0.074 A 
ATOM      7  C6  UNL d   1      -3.189   4.378  -2.514  0.00  0.00     0.077 C 
ATOM      8  C7  UNL d   1      -1.185   3.532  -1.257  0.00  0.00    -0.001 A 
ENDROOT
TORSDOF 0
ENDMDL
