MODEL 1
REMARK minimizedAffinity 7.97829962
REMARK minimizedRMSD -1
REMARK  0 active torsions:
REMARK  status: ('A' for Active; 'I' for Inactive)
ROOT
ATOM      1  C   UNL d   1      -1.187  -3.672  -4.160  0.00  0.00     0.077 C 
ATOM      2  C1  UNL d   1      -2.440  -4.431  -4.481  0.00  0.00    -0.074 A 
ATOM      3  C2  UNL d   1      -2.599  -5.066  -5.717  0.00  0.00    -0.005 A 
ATOM      4  C3  UNL d   1      -3.766  -5.776  -5.998  0.00  0.00     0.006 A 
ATOM      5  C4  UNL d   1      -4.785  -5.858  -5.048  0.00  0.00    -0.005 A 
ATOM      6  C5  UNL d   1      -4.643  -5.230  -3.806  0.00  0.00    -0.074 A 
ATOM      7  C6  UNL d   1      -5.724  -5.316  -2.770  0.00  0.00     0.077 C 
ATOM      8  C7  UNL d   1      -3.465  -4.524  -3.529  0.00  0.00    -0.001 A 
ENDROOT
TORSDOF 0
ENDMDL
