MODEL 1
REMARK minimizedAffinity 6.00763798
REMARK minimizedRMSD -1
REMARK  0 active torsions:
REMARK  status: ('A' for Active; 'I' for Inactive)
ROOT
ATOM      1  C   UNL d   1      -1.124  -3.561  -1.936  0.00  0.00     0.077 C 
ATOM      2  C1  UNL d   1      -0.826  -3.161  -3.351  0.00  0.00    -0.074 A 
ATOM      3  C2  UNL d   1       0.219  -3.759  -4.063  0.00  0.00    -0.005 A 
ATOM      4  C3  UNL d   1       0.477  -3.384  -5.381  0.00  0.00     0.006 A 
ATOM      5  C4  UNL d   1      -0.305  -2.408  -6.000  0.00  0.00    -0.005 A 
ATOM      6  C5  UNL d   1      -1.354  -1.799  -5.304  0.00  0.00    -0.074 A 
ATOM      7  C6  UNL d   1      -2.211  -0.755  -5.958  0.00  0.00     0.077 C 
ATOM      8  C7  UNL d   1      -1.612  -2.187  -3.982  0.00  0.00    -0.001 A 
ENDROOT
TORSDOF 0
ENDMDL
