MODEL 1
REMARK minimizedAffinity 5.00778866
REMARK minimizedRMSD -1
REMARK  0 active torsions:
REMARK  status: ('A' for Active; 'I' for Inactive)
ROOT
ATOM      1  C1  BNZ d   1       2.605   6.000   5.270  0.00  0.00     0.000 A 
ATOM      2  C2  BNZ d   1       2.044   4.824   4.850  0.00  0.00     0.000 A 
ATOM      3  C3  BNZ d   1       2.697   3.636   5.022  0.00  0.00     0.000 A 
ATOM      4  C4  BNZ d   1       3.927   3.629   5.576  0.00  0.00     0.000 A 
ATOM      5  C5  BNZ d   1       4.510   4.808   5.997  0.00  0.00     0.000 A 
ATOM      6  C6  BNZ d   1       3.833   5.997   5.858  0.00  0.00     0.000 A 
ENDROOT
TORSDOF 0
ENDMDL
