MODEL 1
REMARK minimizedAffinity 3.19738412
REMARK minimizedRMSD -1
REMARK  0 active torsions:
REMARK  status: ('A' for Active; 'I' for Inactive)
ROOT
ATOM      1  C1  BNZ d   1       2.172  -1.699   0.144  0.00  0.00     0.000 A 
ATOM      2  C2  BNZ d   1       1.415  -0.744   0.769  0.00  0.00     0.000 A 
ATOM      3  C3  BNZ d   1       0.649  -1.059   1.856  0.00  0.00     0.000 A 
ATOM      4  C4  BNZ d   1       0.609  -2.334   2.292  0.00  0.00     0.000 A 
ATOM      5  C5  BNZ d   1       1.359  -3.311   1.667  0.00  0.00     0.000 A 
ATOM      6  C6  BNZ d   1       2.160  -2.982   0.597  0.00  0.00     0.000 A 
ENDROOT
TORSDOF 0
ENDMDL
