MODEL 1
REMARK minimizedAffinity 1.32251549
REMARK minimizedRMSD -1
REMARK  0 active torsions:
REMARK  status: ('A' for Active; 'I' for Inactive)
ROOT
ATOM      1  C1  BNZ d   1       3.791  -3.303   2.876  0.00  0.00     0.000 A 
ATOM      2  C2  BNZ d   1       2.985  -2.949   1.827  0.00  0.00     0.000 A 
ATOM      3  C3  BNZ d   1       3.162  -3.503   0.591  0.00  0.00     0.000 A 
ATOM      4  C4  BNZ d   1       4.168  -4.380   0.395  0.00  0.00     0.000 A 
ATOM      5  C5  BNZ d   1       4.995  -4.740   1.440  0.00  0.00     0.000 A 
ATOM      6  C6  BNZ d   1       4.790  -4.209   2.693  0.00  0.00     0.000 A 
ENDROOT
TORSDOF 0
ENDMDL
