MODEL 1
REMARK minimizedAffinity -0.285396218
REMARK minimizedRMSD -1
REMARK  0 active torsions:
REMARK  status: ('A' for Active; 'I' for Inactive)
ROOT
ATOM      1  C1  BNZ d   1       2.622   5.717   3.730  0.00  0.00     0.000 A 
ATOM      2  C2  BNZ d   1       3.945   5.752   3.378  0.00  0.00     0.000 A 
ATOM      3  C3  BNZ d   1       4.919   5.873   4.329  0.00  0.00     0.000 A 
ATOM      4  C4  BNZ d   1       4.568   6.000   5.625  0.00  0.00     0.000 A 
ATOM      5  C5  BNZ d   1       3.237   5.976   5.995  0.00  0.00     0.000 A 
ATOM      6  C6  BNZ d   1       2.261   5.815   5.038  0.00  0.00     0.000 A 
ENDROOT
TORSDOF 0
ENDMDL
