MODEL 1
REMARK minimizedAffinity -1.55024076
REMARK minimizedRMSD -1
REMARK  0 active torsions:
REMARK  status: ('A' for Active; 'I' for Inactive)
ROOT
ATOM      1  C   UNL d   1      -5.997   4.589   5.420  0.00  0.00     0.077 C 
ATOM      2  C1  UNL d   1      -5.815   4.670   3.933  0.00  0.00    -0.074 A 
ATOM      3  C2  UNL d   1      -5.999   5.877   3.251  0.00  0.00    -0.005 A 
ATOM      4  C3  UNL d   1      -5.816   5.939   1.870  0.00  0.00     0.006 A 
ATOM      5  C4  UNL d   1      -5.448   4.797   1.158  0.00  0.00    -0.005 A 
ATOM      6  C5  UNL d   1      -5.258   3.582   1.823  0.00  0.00    -0.074 A 
ATOM      7  C6  UNL d   1      -4.852   2.347   1.075  0.00  0.00     0.077 C 
ATOM      8  C7  UNL d   1      -5.437   3.529   3.212  0.00  0.00    -0.001 A 
ENDROOT
TORSDOF 0
ENDMDL
