MODEL 1
REMARK minimizedAffinity 1.40858555
REMARK minimizedRMSD -1
REMARK  0 active torsions:
REMARK  status: ('A' for Active; 'I' for Inactive)
ROOT
ATOM      1  C   UNL d   1      -5.835   2.588   5.804  0.00  0.00     0.077 C 
ATOM      2  C1  UNL d   1      -5.894   3.661   4.758  0.00  0.00    -0.074 A 
ATOM      3  C2  UNL d   1      -5.906   5.013   5.115  0.00  0.00    -0.005 A 
ATOM      4  C3  UNL d   1      -5.951   6.000   4.130  0.00  0.00     0.006 A 
ATOM      5  C4  UNL d   1      -5.985   5.645   2.781  0.00  0.00    -0.005 A 
ATOM      6  C5  UNL d   1      -5.973   4.298   2.405  0.00  0.00    -0.074 A 
ATOM      7  C6  UNL d   1      -6.000   3.900   0.959  0.00  0.00     0.077 C 
ATOM      8  C7  UNL d   1      -5.920   3.313   3.400  0.00  0.00    -0.001 A 
ENDROOT
TORSDOF 0
ENDMDL
