MODEL 1
REMARK minimizedAffinity -3.06669307
REMARK minimizedRMSD -1
REMARK  0 active torsions:
REMARK  status: ('A' for Active; 'I' for Inactive)
ROOT
ATOM      1  C   UNL d   1      -3.742   2.837   5.895  0.00  0.00     0.077 C 
ATOM      2  C1  UNL d   1      -4.515   3.940   5.234  0.00  0.00    -0.074 A 
ATOM      3  C2  UNL d   1      -5.205   4.890   5.994  0.00  0.00    -0.005 A 
ATOM      4  C3  UNL d   1      -5.911   5.915   5.365  0.00  0.00     0.006 A 
ATOM      5  C4  UNL d   1      -5.936   6.000   3.972  0.00  0.00    -0.005 A 
ATOM      6  C5  UNL d   1      -5.251   5.059   3.196  0.00  0.00    -0.074 A 
ATOM      7  C6  UNL d   1      -5.259   5.142   1.698  0.00  0.00     0.077 C 
ATOM      8  C7  UNL d   1      -4.537   4.036   3.835  0.00  0.00    -0.001 A 
ENDROOT
TORSDOF 0
ENDMDL
