MODEL 1
REMARK minimizedAffinity -2.06698108
REMARK minimizedRMSD -1
REMARK  0 active torsions:
REMARK  status: ('A' for Active; 'I' for Inactive)
ROOT
ATOM      1  C   UNL d   1      -5.459   2.511   5.450  0.00  0.00     0.077 C 
ATOM      2  C1  UNL d   1      -5.649   3.637   4.477  0.00  0.00    -0.074 A 
ATOM      3  C2  UNL d   1      -5.725   4.962   4.918  0.00  0.00    -0.005 A 
ATOM      4  C3  UNL d   1      -5.892   6.000   4.000  0.00  0.00     0.006 A 
ATOM      5  C4  UNL d   1      -5.984   5.723   2.636  0.00  0.00    -0.005 A 
ATOM      6  C5  UNL d   1      -5.910   4.405   2.177  0.00  0.00    -0.074 A 
ATOM      7  C6  UNL d   1      -5.998   4.091   0.713  0.00  0.00     0.077 C 
ATOM      8  C7  UNL d   1      -5.735   3.368   3.104  0.00  0.00    -0.001 A 
ENDROOT
TORSDOF 0
ENDMDL
