MODEL 1
REMARK minimizedAffinity -0.10415709
REMARK minimizedRMSD -1
REMARK  0 active torsions:
REMARK  status: ('A' for Active; 'I' for Inactive)
ROOT
ATOM      1  C   UNL d   1       0.926   0.555   1.179  0.00  0.00     0.077 C 
ATOM      2  C1  UNL d   1      -0.365  -0.013   0.667  0.00  0.00    -0.074 A 
ATOM      3  C2  UNL d   1      -1.506  -0.046   1.475  0.00  0.00    -0.005 A 
ATOM      4  C3  UNL d   1      -2.701  -0.569   0.983  0.00  0.00     0.006 A 
ATOM      5  C4  UNL d   1      -2.768  -1.064  -0.320  0.00  0.00    -0.005 A 
ATOM      6  C5  UNL d   1      -1.637  -1.038  -1.143  0.00  0.00    -0.074 A 
ATOM      7  C6  UNL d   1      -1.694  -1.557  -2.549  0.00  0.00     0.077 C 
ATOM      8  C7  UNL d   1      -0.441  -0.505  -0.643  0.00  0.00    -0.001 A 
ENDROOT
TORSDOF 0
ENDMDL
