MODEL 1
REMARK minimizedAffinity -0.0874506608
REMARK minimizedRMSD -1
REMARK  0 active torsions:
REMARK  status: ('A' for Active; 'I' for Inactive)
ROOT
ATOM      1  C   UNL d   1      -5.805   2.962   0.369  0.00  0.00     0.077 C 
ATOM      2  C1  UNL d   1      -5.645   3.843   1.573  0.00  0.00    -0.074 A 
ATOM      3  C2  UNL d   1      -6.000   5.195   1.526  0.00  0.00    -0.005 A 
ATOM      4  C3  UNL d   1      -5.854   5.999   2.656  0.00  0.00     0.006 A 
ATOM      5  C4  UNL d   1      -5.354   5.461   3.842  0.00  0.00    -0.005 A 
ATOM      6  C5  UNL d   1      -4.995   4.111   3.908  0.00  0.00    -0.074 A 
ATOM      7  C6  UNL d   1      -4.465   3.514   5.178  0.00  0.00     0.077 C 
ATOM      8  C7  UNL d   1      -5.151   3.307   2.770  0.00  0.00    -0.001 A 
ENDROOT
TORSDOF 0
ENDMDL
