MODEL 1
REMARK minimizedAffinity -1.91689694
REMARK minimizedRMSD -1
REMARK  0 active torsions:
REMARK  status: ('A' for Active; 'I' for Inactive)
ROOT
ATOM      1  C   UNL d   1      -5.836   4.760   1.691  0.00  0.00     0.077 C 
ATOM      2  C1  UNL d   1      -5.824   4.752   3.190  0.00  0.00    -0.074 A 
ATOM      3  C2  UNL d   1      -6.000   5.934   3.917  0.00  0.00    -0.005 A 
ATOM      4  C3  UNL d   1      -5.996   5.910   5.311  0.00  0.00     0.006 A 
ATOM      5  C4  UNL d   1      -5.817   4.705   5.993  0.00  0.00    -0.005 A 
ATOM      6  C5  UNL d   1      -5.640   3.513   5.283  0.00  0.00    -0.074 A 
ATOM      7  C6  UNL d   1      -5.456   2.208   6.000  0.00  0.00     0.077 C 
ATOM      8  C7  UNL d   1      -5.652   3.545   3.882  0.00  0.00    -0.001 A 
ENDROOT
TORSDOF 0
ENDMDL
