MODEL 1
REMARK minimizedAffinity -1.91632652
REMARK minimizedRMSD -1
REMARK  0 active torsions:
REMARK  status: ('A' for Active; 'I' for Inactive)
ROOT
ATOM      1  C   UNL d   1      -5.921   4.792   5.994  0.00  0.00     0.077 C 
ATOM      2  C1  UNL d   1      -5.479   4.514   4.588  0.00  0.00    -0.074 A 
ATOM      3  C2  UNL d   1      -4.647   3.428   4.297  0.00  0.00    -0.005 A 
ATOM      4  C3  UNL d   1      -4.252   3.177   2.983  0.00  0.00     0.006 A 
ATOM      5  C4  UNL d   1      -4.684   4.008   1.949  0.00  0.00    -0.005 A 
ATOM      6  C5  UNL d   1      -5.516   5.098   2.220  0.00  0.00    -0.074 A 
ATOM      7  C6  UNL d   1      -5.997   5.995   1.119  0.00  0.00     0.077 C 
ATOM      8  C7  UNL d   1      -5.914   5.340   3.542  0.00  0.00    -0.001 A 
ENDROOT
TORSDOF 0
ENDMDL
