MODEL 1
REMARK minimizedAffinity -2.21321845
REMARK minimizedRMSD -1
REMARK  0 active torsions:
REMARK  status: ('A' for Active; 'I' for Inactive)
ROOT
ATOM      1  C   UNL d   1      -5.988   2.257   5.963  0.00  0.00     0.077 C 
ATOM      2  C1  UNL d   1      -5.984   3.567   5.233  0.00  0.00    -0.074 A 
ATOM      3  C2  UNL d   1      -5.998   4.779   5.930  0.00  0.00    -0.005 A 
ATOM      4  C3  UNL d   1      -5.985   5.989   5.237  0.00  0.00     0.006 A 
ATOM      5  C4  UNL d   1      -5.958   6.000   3.842  0.00  0.00    -0.005 A 
ATOM      6  C5  UNL d   1      -5.944   4.797   3.127  0.00  0.00    -0.074 A 
ATOM      7  C6  UNL d   1      -5.905   4.791   1.628  0.00  0.00     0.077 C 
ATOM      8  C7  UNL d   1      -5.950   3.585   3.831  0.00  0.00    -0.001 A 
ENDROOT
TORSDOF 0
ENDMDL
