MODEL 1
REMARK minimizedAffinity 0.243788958
REMARK minimizedRMSD -1
REMARK  0 active torsions:
REMARK  status: ('A' for Active; 'I' for Inactive)
ROOT
ATOM      1  C   UNL d   1      -5.271   1.832   3.769  0.00  0.00     0.077 C 
ATOM      2  C1  UNL d   1      -4.991   3.286   3.535  0.00  0.00    -0.074 A 
ATOM      3  C2  UNL d   1      -4.123   3.995   4.371  0.00  0.00    -0.005 A 
ATOM      4  C3  UNL d   1      -3.866   5.346   4.135  0.00  0.00     0.006 A 
ATOM      5  C4  UNL d   1      -4.472   6.000   3.062  0.00  0.00    -0.005 A 
ATOM      6  C5  UNL d   1      -5.342   5.307   2.214  0.00  0.00    -0.074 A 
ATOM      7  C6  UNL d   1      -5.995   5.992   1.051  0.00  0.00     0.077 C 
ATOM      8  C7  UNL d   1      -5.591   3.948   2.454  0.00  0.00    -0.001 A 
ENDROOT
TORSDOF 0
ENDMDL
