MODEL 1
REMARK minimizedAffinity -3.03171396
REMARK minimizedRMSD -1
REMARK  0 active torsions:
REMARK  status: ('A' for Active; 'I' for Inactive)
ROOT
ATOM      1  C   UNL d   1      -5.985   4.457   1.500  0.00  0.00     0.077 C 
ATOM      2  C1  UNL d   1      -5.565   4.450   2.940  0.00  0.00    -0.074 A 
ATOM      3  C2  UNL d   1      -4.804   5.496   3.471  0.00  0.00    -0.005 A 
ATOM      4  C3  UNL d   1      -4.428   5.481   4.814  0.00  0.00     0.006 A 
ATOM      5  C4  UNL d   1      -4.810   4.422   5.638  0.00  0.00    -0.005 A 
ATOM      6  C5  UNL d   1      -5.572   3.368   5.125  0.00  0.00    -0.074 A 
ATOM      7  C6  UNL d   1      -5.999   2.227   6.000  0.00  0.00     0.077 C 
ATOM      8  C7  UNL d   1      -5.951   3.394   3.776  0.00  0.00    -0.001 A 
ENDROOT
TORSDOF 0
ENDMDL
