MODEL 1
REMARK minimizedAffinity -3.23839927
REMARK minimizedRMSD -1
REMARK  0 active torsions:
REMARK  status: ('A' for Active; 'I' for Inactive)
ROOT
ATOM      1  C   UNL d   1      -5.999   4.774   0.800  0.00  0.00     0.077 C 
ATOM      2  C1  UNL d   1      -5.588   4.844   2.240  0.00  0.00    -0.074 A 
ATOM      3  C2  UNL d   1      -4.876   5.943   2.732  0.00  0.00    -0.005 A 
ATOM      4  C3  UNL d   1      -4.508   5.999   4.076  0.00  0.00     0.006 A 
ATOM      5  C4  UNL d   1      -4.848   4.958   4.941  0.00  0.00    -0.005 A 
ATOM      6  C5  UNL d   1      -5.560   3.851   4.468  0.00  0.00    -0.074 A 
ATOM      7  C6  UNL d   1      -5.942   2.728   5.387  0.00  0.00     0.077 C 
ATOM      8  C7  UNL d   1      -5.932   3.806   3.117  0.00  0.00    -0.001 A 
ENDROOT
TORSDOF 0
ENDMDL
