MODEL 1
REMARK minimizedAffinity -2.50561619
REMARK minimizedRMSD -1
REMARK  0 active torsions:
REMARK  status: ('A' for Active; 'I' for Inactive)
ROOT
ATOM      1  C   UNL d   1      -5.358   6.000   0.816  0.00  0.00     0.077 C 
ATOM      2  C1  UNL d   1      -5.588   5.240   2.088  0.00  0.00    -0.074 A 
ATOM      3  C2  UNL d   1      -5.690   3.845   2.083  0.00  0.00    -0.005 A 
ATOM      4  C3  UNL d   1      -5.894   3.151   3.276  0.00  0.00     0.006 A 
ATOM      5  C4  UNL d   1      -5.999   3.843   4.483  0.00  0.00    -0.005 A 
ATOM      6  C5  UNL d   1      -5.898   5.238   4.507  0.00  0.00    -0.074 A 
ATOM      7  C6  UNL d   1      -5.998   5.997   5.797  0.00  0.00     0.077 C 
ATOM      8  C7  UNL d   1      -5.686   5.928   3.306  0.00  0.00    -0.001 A 
ENDROOT
TORSDOF 0
ENDMDL
