MODEL 1
REMARK minimizedAffinity -2.99764585
REMARK minimizedRMSD -1
REMARK  0 active torsions:
REMARK  status: ('A' for Active; 'I' for Inactive)
ROOT
ATOM      1  C   UNL d   1      -5.626   1.707   3.749  0.00  0.00     0.077 C 
ATOM      2  C1  UNL d   1      -5.537   3.204   3.776  0.00  0.00    -0.074 A 
ATOM      3  C2  UNL d   1      -5.994   3.932   4.879  0.00  0.00    -0.005 A 
ATOM      4  C3  UNL d   1      -5.896   5.323   4.894  0.00  0.00     0.006 A 
ATOM      5  C4  UNL d   1      -5.341   6.000   3.807  0.00  0.00    -0.005 A 
ATOM      6  C5  UNL d   1      -4.878   5.289   2.695  0.00  0.00    -0.074 A 
ATOM      7  C6  UNL d   1      -4.270   6.000   1.522  0.00  0.00     0.077 C 
ATOM      8  C7  UNL d   1      -4.974   3.890   2.691  0.00  0.00    -0.001 A 
ENDROOT
TORSDOF 0
ENDMDL
