MODEL 1
REMARK minimizedAffinity -3.20143676
REMARK minimizedRMSD -1
REMARK  0 active torsions:
REMARK  status: ('A' for Active; 'I' for Inactive)
ROOT
ATOM      1  C   UNL d   1      -5.626   1.986   4.924  0.00  0.00     0.077 C 
ATOM      2  C1  UNL d   1      -5.634   3.388   4.391  0.00  0.00    -0.074 A 
ATOM      3  C2  UNL d   1      -6.000   4.464   5.205  0.00  0.00    -0.005 A 
ATOM      4  C3  UNL d   1      -5.993   5.764   4.699  0.00  0.00     0.006 A 
ATOM      5  C4  UNL d   1      -5.621   6.000   3.375  0.00  0.00    -0.005 A 
ATOM      6  C5  UNL d   1      -5.251   4.936   2.545  0.00  0.00    -0.074 A 
ATOM      7  C6  UNL d   1      -4.839   5.173   1.123  0.00  0.00     0.077 C 
ATOM      8  C7  UNL d   1      -5.254   3.634   3.064  0.00  0.00    -0.001 A 
ENDROOT
TORSDOF 0
ENDMDL
