MODEL 1
REMARK minimizedAffinity -3.38469076
REMARK minimizedRMSD -1
REMARK  0 active torsions:
REMARK  status: ('A' for Active; 'I' for Inactive)
ROOT
ATOM      1  C   UNL d   1      -5.998   2.686   5.839  0.00  0.00     0.077 C 
ATOM      2  C1  UNL d   1      -5.487   3.848   5.040  0.00  0.00    -0.074 A 
ATOM      3  C2  UNL d   1      -4.808   4.902   5.659  0.00  0.00    -0.005 A 
ATOM      4  C3  UNL d   1      -4.330   5.972   4.902  0.00  0.00     0.006 A 
ATOM      5  C4  UNL d   1      -4.525   5.997   3.520  0.00  0.00    -0.005 A 
ATOM      6  C5  UNL d   1      -5.201   4.951   2.884  0.00  0.00    -0.074 A 
ATOM      7  C6  UNL d   1      -5.411   4.958   1.399  0.00  0.00     0.077 C 
ATOM      8  C7  UNL d   1      -5.672   3.877   3.651  0.00  0.00    -0.001 A 
ENDROOT
TORSDOF 0
ENDMDL
