MODEL 1
REMARK minimizedAffinity -1.91986966
REMARK minimizedRMSD -1
REMARK  0 active torsions:
REMARK  status: ('A' for Active; 'I' for Inactive)
ROOT
ATOM      1  C   UNL d   1      -4.875   2.097   5.246  0.00  0.00     0.077 C 
ATOM      2  C1  UNL d   1      -5.221   3.456   4.714  0.00  0.00    -0.074 A 
ATOM      3  C2  UNL d   1      -5.683   4.465   5.565  0.00  0.00    -0.005 A 
ATOM      4  C3  UNL d   1      -5.991   5.727   5.057  0.00  0.00     0.006 A 
ATOM      5  C4  UNL d   1      -5.840   5.993   3.695  0.00  0.00    -0.005 A 
ATOM      6  C5  UNL d   1      -5.379   4.996   2.829  0.00  0.00    -0.074 A 
ATOM      7  C6  UNL d   1      -5.202   5.268   1.365  0.00  0.00     0.077 C 
ATOM      8  C7  UNL d   1      -5.065   3.733   3.348  0.00  0.00    -0.001 A 
ENDROOT
TORSDOF 0
ENDMDL
