MODEL 1
REMARK minimizedAffinity -2.68872619
REMARK minimizedRMSD -1
REMARK  0 active torsions:
REMARK  status: ('A' for Active; 'I' for Inactive)
ROOT
ATOM      1  C   UNL d   1       1.098  -0.347  -1.199  0.00  0.00     0.077 C 
ATOM      2  C1  UNL d   1       0.026  -0.803  -0.254  0.00  0.00    -0.074 A 
ATOM      3  C2  UNL d   1       0.348  -1.315   1.006  0.00  0.00    -0.005 A 
ATOM      4  C3  UNL d   1      -0.660  -1.726   1.878  0.00  0.00     0.006 A 
ATOM      5  C4  UNL d   1      -1.999  -1.628   1.498  0.00  0.00    -0.005 A 
ATOM      6  C5  UNL d   1      -2.341  -1.117   0.242  0.00  0.00    -0.074 A 
ATOM      7  C6  UNL d   1      -3.776  -0.995  -0.177  0.00  0.00     0.077 C 
ATOM      8  C7  UNL d   1      -1.322  -0.700  -0.625  0.00  0.00    -0.001 A 
ENDROOT
TORSDOF 0
ENDMDL
