MODEL 1
REMARK minimizedAffinity -3.23603034
REMARK minimizedRMSD -1
REMARK  0 active torsions:
REMARK  status: ('A' for Active; 'I' for Inactive)
ROOT
ATOM      1  C   UNL d   1      -6.000   4.544   1.602  0.00  0.00     0.077 C 
ATOM      2  C1  UNL d   1      -5.775   4.483   3.084  0.00  0.00    -0.074 A 
ATOM      3  C2  UNL d   1      -5.792   5.645   3.862  0.00  0.00    -0.005 A 
ATOM      4  C3  UNL d   1      -5.591   5.571   5.240  0.00  0.00     0.006 A 
ATOM      5  C4  UNL d   1      -5.372   4.337   5.853  0.00  0.00    -0.005 A 
ATOM      6  C5  UNL d   1      -5.352   3.164   5.091  0.00  0.00    -0.074 A 
ATOM      7  C6  UNL d   1      -5.127   1.829   5.736  0.00  0.00     0.077 C 
ATOM      8  C7  UNL d   1      -5.562   3.246   3.708  0.00  0.00    -0.001 A 
ENDROOT
TORSDOF 0
ENDMDL
