MODEL 1
REMARK minimizedAffinity -3.93062091
REMARK minimizedRMSD -1
REMARK  0 active torsions:
REMARK  status: ('A' for Active; 'I' for Inactive)
ROOT
ATOM      1  C1  DEN d   1      -1.561   0.243  -0.283  0.00  0.00     0.130 A 
ATOM      2  C2  DEN d   1      -0.434  -0.084  -1.153  0.00  0.00    -0.031 A 
ATOM      3  C3  DEN d   1       0.778  -0.178  -0.315  0.00  0.00     0.027 A 
ATOM      4  C4  DEN d   1       1.018   0.145   2.232  0.00  0.00     0.027 A 
ATOM      5  C5  DEN d   1       0.343   0.446   3.394  0.00  0.00    -0.003 A 
ATOM      6  C6  DEN d   1      -0.997   0.731   3.407  0.00  0.00     0.001 A 
ATOM      7  C7  DEN d   1      -1.714   0.677   2.241  0.00  0.00     0.017 A 
ATOM      8  C8  DEN d   1      -1.038   0.382   1.064  0.00  0.00    -0.094 A 
ATOM      9  C9  DEN d   1       0.314   0.085   1.074  0.00  0.00    -0.072 A 
ENDROOT
TORSDOF 0
ENDMDL
