MODEL 1
REMARK minimizedAffinity -4.8443799
REMARK minimizedRMSD -1
REMARK  0 active torsions:
REMARK  status: ('A' for Active; 'I' for Inactive)
ROOT
ATOM      1  C1  DEN d   1       0.119   0.522   3.664  0.00  0.00     0.130 A 
ATOM      2  C2  DEN d   1       1.514   0.102   3.561  0.00  0.00    -0.031 A 
ATOM      3  C3  DEN d   1       1.812  -0.145   2.136  0.00  0.00     0.027 A 
ATOM      4  C4  DEN d   1       0.259   0.087   0.090  0.00  0.00     0.027 A 
ATOM      5  C5  DEN d   1      -1.017   0.404  -0.321  0.00  0.00    -0.003 A 
ATOM      6  C6  DEN d   1      -2.005   0.747   0.564  0.00  0.00     0.001 A 
ATOM      7  C7  DEN d   1      -1.721   0.825   1.902  0.00  0.00     0.017 A 
ATOM      8  C8  DEN d   1      -0.438   0.500   2.324  0.00  0.00    -0.094 A 
ATOM      9  C9  DEN d   1       0.549   0.167   1.413  0.00  0.00    -0.072 A 
ENDROOT
TORSDOF 0
ENDMDL
