MODEL 1
REMARK minimizedAffinity -4.11189079
REMARK minimizedRMSD -1
REMARK  0 active torsions:
REMARK  status: ('A' for Active; 'I' for Inactive)
ROOT
ATOM      1  C1  DEN d   1       0.608   1.681   1.785  0.00  0.00     0.130 A 
ATOM      2  C2  DEN d   1      -0.572   1.799   2.638  0.00  0.00    -0.031 A 
ATOM      3  C3  DEN d   1      -1.630   0.936   2.075  0.00  0.00     0.027 A 
ATOM      4  C4  DEN d   1      -1.555  -0.567  -0.019  0.00  0.00     0.027 A 
ATOM      5  C5  DEN d   1      -0.772  -0.987  -1.072  0.00  0.00    -0.003 A 
ATOM      6  C6  DEN d   1       0.503  -0.525  -1.264  0.00  0.00     0.001 A 
ATOM      7  C7  DEN d   1       1.050   0.352  -0.364  0.00  0.00     0.017 A 
ATOM      8  C8  DEN d   1       0.264   0.785   0.696  0.00  0.00    -0.094 A 
ATOM      9  C9  DEN d   1      -1.018   0.297   0.879  0.00  0.00    -0.072 A 
ENDROOT
TORSDOF 0
ENDMDL
