MODEL 1
REMARK minimizedAffinity -6.75812197
REMARK minimizedRMSD -1
REMARK  0 active torsions:
REMARK  status: ('A' for Active; 'I' for Inactive)
ROOT
ATOM      1  C1  DEN d   1       0.239   0.670   3.200  0.00  0.00     0.130 A 
ATOM      2  C2  DEN d   1       1.554   0.053   3.052  0.00  0.00    -0.031 A 
ATOM      3  C3  DEN d   1       1.622  -0.564   1.712  0.00  0.00     0.027 A 
ATOM      4  C4  DEN d   1      -0.172  -0.619  -0.141  0.00  0.00     0.027 A 
ATOM      5  C5  DEN d   1      -1.453  -0.241  -0.474  0.00  0.00    -0.003 A 
ATOM      6  C6  DEN d   1      -2.266   0.432   0.399  0.00  0.00     0.001 A 
ATOM      7  C7  DEN d   1      -1.790   0.787   1.633  0.00  0.00     0.017 A 
ATOM      8  C8  DEN d   1      -0.501   0.403   1.979  0.00  0.00    -0.094 A 
ATOM      9  C9  DEN d   1       0.309  -0.266   1.078  0.00  0.00    -0.072 A 
ENDROOT
TORSDOF 0
ENDMDL
