MODEL 1
REMARK minimizedAffinity -6.90109873
REMARK minimizedRMSD -1
REMARK  0 active torsions:
REMARK  status: ('A' for Active; 'I' for Inactive)
ROOT
ATOM      1  C1  DEN d   1      -0.116   0.602   3.581  0.00  0.00     0.130 A 
ATOM      2  C2  DEN d   1       1.247   0.084   3.654  0.00  0.00    -0.031 A 
ATOM      3  C3  DEN d   1       1.675  -0.270   2.285  0.00  0.00     0.027 A 
ATOM      4  C4  DEN d   1       0.366  -0.062   0.072  0.00  0.00     0.027 A 
ATOM      5  C5  DEN d   1      -0.833   0.313  -0.492  0.00  0.00    -0.003 A 
ATOM      6  C6  DEN d   1      -1.881   0.775   0.260  0.00  0.00     0.001 A 
ATOM      7  C7  DEN d   1      -1.734   0.917   1.615  0.00  0.00     0.017 A 
ATOM      8  C8  DEN d   1      -0.530   0.533   2.192  0.00  0.00    -0.094 A 
ATOM      9  C9  DEN d   1       0.521   0.080   1.413  0.00  0.00    -0.072 A 
ENDROOT
TORSDOF 0
ENDMDL
