MODEL 1
REMARK minimizedAffinity -6.39798403
REMARK minimizedRMSD -1
REMARK  0 active torsions:
REMARK  status: ('A' for Active; 'I' for Inactive)
ROOT
ATOM      1  C1  DEN d   1      -1.288  -1.000  -0.306  0.00  0.00     0.130 A 
ATOM      2  C2  DEN d   1      -0.069  -1.249  -1.071  0.00  0.00    -0.031 A 
ATOM      3  C3  DEN d   1       1.021  -0.462  -0.460  0.00  0.00     0.027 A 
ATOM      4  C4  DEN d   1       0.941   1.106   1.587  0.00  0.00     0.027 A 
ATOM      5  C5  DEN d   1       0.125   1.644   2.557  0.00  0.00    -0.003 A 
ATOM      6  C6  DEN d   1      -1.216   1.368   2.619  0.00  0.00     0.001 A 
ATOM      7  C7  DEN d   1      -1.771   0.495   1.722  0.00  0.00     0.017 A 
ATOM      8  C8  DEN d   1      -0.956  -0.046   0.737  0.00  0.00    -0.094 A 
ATOM      9  C9  DEN d   1       0.399   0.236   0.697  0.00  0.00    -0.072 A 
ENDROOT
TORSDOF 0
ENDMDL
