MODEL 1
REMARK minimizedAffinity 9.70957565
REMARK minimizedRMSD -1
REMARK  0 active torsions:
REMARK  status: ('A' for Active; 'I' for Inactive)
ROOT
ATOM      1  O1  BZF d   1       3.712   4.464   5.998  0.00  0.00    -0.204 OA
ATOM      2  C2  BZF d   1       4.854   5.243   6.000  0.00  0.00     0.174 A 
ATOM      3  C3  BZF d   1       5.364   5.346   4.756  0.00  0.00    -0.012 A 
ATOM      4  C3A BZF d   1       4.435   4.661   3.910  0.00  0.00    -0.107 A 
ATOM      5  C4  BZF d   1       4.383   4.433   2.564  0.00  0.00     0.055 A 
ATOM      6  C5  BZF d   1       3.379   3.665   2.064  0.00  0.00    -0.016 A 
ATOM      7  C6  BZF d   1       2.416   3.107   2.878  0.00  0.00     0.022 A 
ATOM      8  C7  BZF d   1       2.423   3.310   4.218  0.00  0.00     0.029 A 
ATOM      9  C7A BZF d   1       3.417   4.112   4.724  0.00  0.00     0.058 A 
ENDROOT
TORSDOF 0
ENDMDL
