MODEL 1
REMARK minimizedAffinity 6.90260601
REMARK minimizedRMSD -1
REMARK  0 active torsions:
REMARK  status: ('A' for Active; 'I' for Inactive)
ROOT
ATOM      1  O1  BZF d   1      -1.899   0.898  -3.079  0.00  0.00    -0.204 OA
ATOM      2  C2  BZF d   1      -1.904   0.106  -1.947  0.00  0.00     0.174 A 
ATOM      3  C3  BZF d   1      -3.166  -0.190  -1.575  0.00  0.00    -0.012 A 
ATOM      4  C3A BZF d   1      -4.000   0.381  -2.588  0.00  0.00    -0.107 A 
ATOM      5  C4  BZF d   1      -5.351   0.410  -2.785  0.00  0.00     0.055 A 
ATOM      6  C5  BZF d   1      -5.851   1.114  -3.834  0.00  0.00    -0.016 A 
ATOM      7  C6  BZF d   1      -5.030   1.805  -4.702  0.00  0.00     0.022 A 
ATOM      8  C7  BZF d   1      -3.683   1.802  -4.549  0.00  0.00     0.029 A 
ATOM      9  C7A BZF d   1      -3.173   1.064  -3.509  0.00  0.00     0.058 A 
ENDROOT
TORSDOF 0
ENDMDL
