MODEL 1
REMARK minimizedAffinity 12.7964048
REMARK minimizedRMSD -1
REMARK  0 active torsions:
REMARK  status: ('A' for Active; 'I' for Inactive)
ROOT
ATOM      1  O1  BZF d   1       5.694   5.749   4.377  0.00  0.00    -0.204 OA
ATOM      2  C2  BZF d   1       5.876   5.662   3.010  0.00  0.00     0.174 A 
ATOM      3  C3  BZF d   1       4.985   4.812   2.462  0.00  0.00    -0.012 A 
ATOM      4  C3A BZF d   1       4.137   4.408   3.541  0.00  0.00    -0.107 A 
ATOM      5  C4  BZF d   1       3.052   3.583   3.624  0.00  0.00     0.055 A 
ATOM      6  C5  BZF d   1       2.496   3.344   4.841  0.00  0.00    -0.016 A 
ATOM      7  C6  BZF d   1       3.002   3.908   5.994  0.00  0.00     0.022 A 
ATOM      8  C7  BZF d   1       4.073   4.737   5.961  0.00  0.00     0.029 A 
ATOM      9  C7A BZF d   1       4.617   5.007   4.728  0.00  0.00     0.058 A 
ENDROOT
TORSDOF 0
ENDMDL
