MODEL 1
REMARK minimizedAffinity 14.2603836
REMARK minimizedRMSD -1
REMARK  0 active torsions:
REMARK  status: ('A' for Active; 'I' for Inactive)
ROOT
ATOM      1  O1  BZF d   1       4.462   5.773   2.399  0.00  0.00    -0.204 OA
ATOM      2  C2  BZF d   1       4.491   4.693   1.538  0.00  0.00     0.174 A 
ATOM      3  C3  BZF d   1       4.509   3.533   2.227  0.00  0.00    -0.012 A 
ATOM      4  C3A BZF d   1       4.397   3.911   3.602  0.00  0.00    -0.107 A 
ATOM      5  C4  BZF d   1       4.343   3.202   4.769  0.00  0.00     0.055 A 
ATOM      6  C5  BZF d   1       4.308   3.875   5.949  0.00  0.00    -0.016 A 
ATOM      7  C6  BZF d   1       4.330   5.253   6.000  0.00  0.00     0.022 A 
ATOM      8  C7  BZF d   1       4.378   5.999   4.869  0.00  0.00     0.029 A 
ATOM      9  C7A BZF d   1       4.380   5.323   3.674  0.00  0.00     0.058 A 
ENDROOT
TORSDOF 0
ENDMDL
