MODEL 1
REMARK minimizedAffinity 11.9433441
REMARK minimizedRMSD -1
REMARK  0 active torsions:
REMARK  status: ('A' for Active; 'I' for Inactive)
ROOT
ATOM      1  O1  BZF d   1       5.150   0.371  -3.502  0.00  0.00    -0.204 OA
ATOM      2  C2  BZF d   1       5.930   1.436  -3.094  0.00  0.00     0.174 A 
ATOM      3  C3  BZF d   1       5.459   1.960  -1.944  0.00  0.00    -0.012 A 
ATOM      4  C3A BZF d   1       4.369   1.115  -1.564  0.00  0.00    -0.107 A 
ATOM      5  C4  BZF d   1       3.510   1.111  -0.502  0.00  0.00     0.055 A 
ATOM      6  C5  BZF d   1       2.510   0.192  -0.465  0.00  0.00    -0.016 A 
ATOM      7  C6  BZF d   1       2.335  -0.732  -1.474  0.00  0.00     0.022 A 
ATOM      8  C7  BZF d   1       3.165  -0.770  -2.545  0.00  0.00     0.029 A 
ATOM      9  C7A BZF d   1       4.197   0.136  -2.569  0.00  0.00     0.058 A 
ENDROOT
TORSDOF 0
ENDMDL
