MODEL 1
REMARK minimizedAffinity 15.7874603
REMARK minimizedRMSD -1
REMARK  0 active torsions:
REMARK  status: ('A' for Active; 'I' for Inactive)
ROOT
ATOM      1  O1  BZF d   1      -5.426   3.373  -2.739  0.00  0.00    -0.204 OA
ATOM      2  C2  BZF d   1      -5.999   2.694  -1.681  0.00  0.00     0.174 A 
ATOM      3  C3  BZF d   1      -6.000   1.365  -1.910  0.00  0.00    -0.012 A 
ATOM      4  C3A BZF d   1      -5.306   1.196  -3.149  0.00  0.00    -0.107 A 
ATOM      5  C4  BZF d   1      -4.969   0.103  -3.895  0.00  0.00     0.055 A 
ATOM      6  C5  BZF d   1      -4.355   0.284  -5.094  0.00  0.00    -0.016 A 
ATOM      7  C6  BZF d   1      -4.068   1.544  -5.579  0.00  0.00     0.022 A 
ATOM      8  C7  BZF d   1      -4.378   2.658  -4.873  0.00  0.00     0.029 A 
ATOM      9  C7A BZF d   1      -4.969   2.476  -3.646  0.00  0.00     0.058 A 
ENDROOT
TORSDOF 0
ENDMDL
