MODEL 1
REMARK minimizedAffinity 6.4723711
REMARK minimizedRMSD -1
REMARK  0 active torsions:
REMARK  status: ('A' for Active; 'I' for Inactive)
ROOT
ATOM      1  O1  BZF d   1       2.630  -1.473  -2.875  0.00  0.00    -0.204 OA
ATOM      2  C2  BZF d   1       3.409  -1.580  -4.010  0.00  0.00     0.174 A 
ATOM      3  C3  BZF d   1       4.494  -0.783  -3.922  0.00  0.00    -0.012 A 
ATOM      4  C3A BZF d   1       4.433  -0.208  -2.614  0.00  0.00    -0.107 A 
ATOM      5  C4  BZF d   1       5.239   0.658  -1.930  0.00  0.00     0.055 A 
ATOM      6  C5  BZF d   1       4.858   1.080  -0.696  0.00  0.00    -0.016 A 
ATOM      7  C6  BZF d   1       3.677   0.661  -0.118  0.00  0.00     0.022 A 
ATOM      8  C7  BZF d   1       2.848  -0.200  -0.755  0.00  0.00     0.029 A 
ATOM      9  C7A BZF d   1       3.246  -0.654  -1.989  0.00  0.00     0.058 A 
ENDROOT
TORSDOF 0
ENDMDL
