MODEL 1
REMARK minimizedAffinity 9.21720409
REMARK minimizedRMSD -1
REMARK  0 active torsions:
REMARK  status: ('A' for Active; 'I' for Inactive)
ROOT
ATOM      1  O1  BZF d   1       3.149  -2.198  -0.823  0.00  0.00    -0.204 OA
ATOM      2  C2  BZF d   1       3.725  -1.882   0.392  0.00  0.00     0.174 A 
ATOM      3  C3  BZF d   1       2.810  -1.361   1.235  0.00  0.00    -0.012 A 
ATOM      4  C3A BZF d   1       1.566  -1.436   0.532  0.00  0.00    -0.107 A 
ATOM      5  C4  BZF d   1       0.285  -1.088   0.851  0.00  0.00     0.055 A 
ATOM      6  C5  BZF d   1      -0.690  -1.223  -0.086  0.00  0.00    -0.016 A 
ATOM      7  C6  BZF d   1      -0.418  -1.699  -1.352  0.00  0.00     0.022 A 
ATOM      8  C7  BZF d   1       0.837  -2.062  -1.714  0.00  0.00     0.029 A 
ATOM      9  C7A BZF d   1       1.818  -1.957  -0.758  0.00  0.00     0.058 A 
ENDROOT
TORSDOF 0
ENDMDL
