MODEL 1
REMARK minimizedAffinity 3.89130354
REMARK minimizedRMSD -1
REMARK  0 active torsions:
REMARK  status: ('A' for Active; 'I' for Inactive)
ROOT
ATOM      1  O1  BZF d   1       0.113   1.112  -0.369  0.00  0.00    -0.204 OA
ATOM      2  C2  BZF d   1       1.336   1.733  -0.201  0.00  0.00     0.174 A 
ATOM      3  C3  BZF d   1       2.331   0.824  -0.152  0.00  0.00    -0.012 A 
ATOM      4  C3A BZF d   1       1.700  -0.438  -0.391  0.00  0.00    -0.107 A 
ATOM      5  C4  BZF d   1       2.165  -1.719  -0.480  0.00  0.00     0.055 A 
ATOM      6  C5  BZF d   1       1.278  -2.734  -0.649  0.00  0.00    -0.016 A 
ATOM      7  C6  BZF d   1      -0.080  -2.506  -0.728  0.00  0.00     0.022 A 
ATOM      8  C7  BZF d   1      -0.589  -1.252  -0.651  0.00  0.00     0.029 A 
ATOM      9  C7A BZF d   1       0.308  -0.221  -0.513  0.00  0.00     0.058 A 
ENDROOT
TORSDOF 0
ENDMDL
