MODEL 1
REMARK minimizedAffinity 6.99324226
REMARK minimizedRMSD -1
REMARK  0 active torsions:
REMARK  status: ('A' for Active; 'I' for Inactive)
ROOT
ATOM      1  O1  BZF d   1      -0.280   0.267   0.059  0.00  0.00    -0.204 OA
ATOM      2  C2  BZF d   1       0.198  -0.495   1.108  0.00  0.00     0.174 A 
ATOM      3  C3  BZF d   1       0.322  -1.787   0.742  0.00  0.00    -0.012 A 
ATOM      4  C3A BZF d   1      -0.018  -1.819  -0.647  0.00  0.00    -0.107 A 
ATOM      5  C4  BZF d   1      -0.069  -2.817  -1.578  0.00  0.00     0.055 A 
ATOM      6  C5  BZF d   1      -0.511  -2.530  -2.831  0.00  0.00    -0.016 A 
ATOM      7  C6  BZF d   1      -0.915  -1.259  -3.184  0.00  0.00     0.022 A 
ATOM      8  C7  BZF d   1      -0.878  -0.236  -2.297  0.00  0.00     0.029 A 
ATOM      9  C7A BZF d   1      -0.400  -0.516  -1.040  0.00  0.00     0.058 A 
ENDROOT
TORSDOF 0
ENDMDL
