MODEL 1
REMARK minimizedAffinity 3.82971621
REMARK minimizedRMSD -1
REMARK  0 active torsions:
REMARK  status: ('A' for Active; 'I' for Inactive)
ROOT
ATOM      1  O1  BZF d   1      -0.866  -0.792   0.688  0.00  0.00    -0.204 OA
ATOM      2  C2  BZF d   1      -0.541  -1.246  -0.576  0.00  0.00     0.174 A 
ATOM      3  C3  BZF d   1       0.172  -0.320  -1.248  0.00  0.00    -0.012 A 
ATOM      4  C3A BZF d   1       0.379   0.745  -0.315  0.00  0.00    -0.107 A 
ATOM      5  C4  BZF d   1       1.031   1.943  -0.387  0.00  0.00     0.055 A 
ATOM      6  C5  BZF d   1       0.984   2.786   0.678  0.00  0.00    -0.016 A 
ATOM      7  C6  BZF d   1       0.291   2.466   1.827  0.00  0.00     0.022 A 
ATOM      8  C7  BZF d   1      -0.367   1.288   1.947  0.00  0.00     0.029 A 
ATOM      9  C7A BZF d   1      -0.294   0.420   0.885  0.00  0.00     0.058 A 
ENDROOT
TORSDOF 0
ENDMDL
