MODEL 1
REMARK minimizedAffinity 11.7015648
REMARK minimizedRMSD -1
REMARK  1 active torsions:
REMARK  status: ('A' for Active; 'I' for Inactive)
REMARK    1  A    between atoms: C1_2  and  C2_3 
ROOT
ATOM      1  C2  UNL d   1       3.517  -1.114   0.604  0.00  0.00    -0.076 A 
ATOM      2  C3  UNL d   1       2.399  -0.557  -0.039  0.00  0.00     0.004 A 
ATOM      3  C4  UNL d   1       2.448   0.726  -0.581  0.00  0.00    -0.003 A 
ATOM      4  C5  UNL d   1       3.618   1.473  -0.489  0.00  0.00     0.000 A 
ATOM      5  C6  UNL d   1       4.743   0.929   0.130  0.00  0.00     0.000 A 
ATOM      6  C7  UNL d   1       4.715  -0.369   0.667  0.00  0.00    -0.073 A 
ATOM      7  C8  UNL d   1       5.955  -0.904   1.329  0.00  0.00     0.078 C 
ENDROOT
BRANCH   1   8
ATOM      8  C1  UNL d   1       3.396  -2.500   1.197  0.00  0.00     0.053 C 
ATOM      9  C   UNL d   1       2.031  -2.750   1.820  0.00  0.00     0.018 C 
ENDBRANCH   1   8
TORSDOF 1
ENDMDL
