MODEL 1
REMARK minimizedAffinity 12.7639103
REMARK minimizedRMSD -1
REMARK  1 active torsions:
REMARK  status: ('A' for Active; 'I' for Inactive)
REMARK    1  A    between atoms: C1_2  and  C2_3 
ROOT
ATOM      1  C2  UNL d   1       3.289   1.065   0.771  0.00  0.00    -0.076 A 
ATOM      2  C3  UNL d   1       2.208   1.639   0.080  0.00  0.00     0.004 A 
ATOM      3  C4  UNL d   1       1.519   0.922  -0.896  0.00  0.00    -0.003 A 
ATOM      4  C5  UNL d   1       1.899  -0.381  -1.197  0.00  0.00     0.000 A 
ATOM      5  C6  UNL d   1       2.958  -0.972  -0.509  0.00  0.00     0.000 A 
ATOM      6  C7  UNL d   1       3.653  -0.269   0.490  0.00  0.00    -0.073 A 
ATOM      7  C8  UNL d   1       4.791  -0.954   1.196  0.00  0.00     0.078 C 
ENDROOT
BRANCH   1   8
ATOM      8  C1  UNL d   1       4.017   1.901   1.800  0.00  0.00     0.053 C 
ATOM      9  C   UNL d   1       3.086   2.840   2.552  0.00  0.00     0.018 C 
ENDBRANCH   1   8
TORSDOF 1
ENDMDL
