MODEL 1
REMARK minimizedAffinity 4.48526907
REMARK minimizedRMSD -1
REMARK  1 active torsions:
REMARK  status: ('A' for Active; 'I' for Inactive)
REMARK    1  A    between atoms: C1_2  and  C2_3 
ROOT
ATOM      1  C2  UNL d   1      -5.405   0.899  -2.760  0.00  0.00    -0.076 A 
ATOM      2  C3  UNL d   1      -5.999   2.124  -2.412  0.00  0.00     0.004 A 
ATOM      3  C4  UNL d   1      -5.651   2.781  -1.233  0.00  0.00    -0.003 A 
ATOM      4  C5  UNL d   1      -4.702   2.224  -0.383  0.00  0.00     0.000 A 
ATOM      5  C6  UNL d   1      -4.090   1.018  -0.721  0.00  0.00     0.000 A 
ATOM      6  C7  UNL d   1      -4.417   0.351  -1.914  0.00  0.00    -0.073 A 
ATOM      7  C8  UNL d   1      -3.729  -0.950  -2.225  0.00  0.00     0.078 C 
ENDROOT
BRANCH   1   8
ATOM      8  C1  UNL d   1      -5.842   0.219  -4.038  0.00  0.00     0.053 C 
ATOM      9  C   UNL d   1      -5.947   1.186  -5.206  0.00  0.00     0.018 C 
ENDBRANCH   1   8
TORSDOF 1
ENDMDL
