MODEL 1
REMARK minimizedAffinity 16.1661453
REMARK minimizedRMSD -1
REMARK  1 active torsions:
REMARK  status: ('A' for Active; 'I' for Inactive)
REMARK    1  A    between atoms: C1_2  and  C2_3 
ROOT
ATOM      1  C2  UNL d   1      -5.894   3.776   2.335  0.00  0.00    -0.076 A 
ATOM      2  C3  UNL d   1      -5.909   3.239   3.634  0.00  0.00     0.004 A 
ATOM      3  C4  UNL d   1      -5.952   4.069   4.753  0.00  0.00    -0.003 A 
ATOM      4  C5  UNL d   1      -5.981   5.450   4.591  0.00  0.00     0.000 A 
ATOM      5  C6  UNL d   1      -5.984   6.000   3.309  0.00  0.00     0.000 A 
ATOM      6  C7  UNL d   1      -5.958   5.177   2.170  0.00  0.00    -0.073 A 
ATOM      7  C8  UNL d   1      -5.957   5.823   0.812  0.00  0.00     0.078 C 
ENDROOT
BRANCH   1   8
ATOM      8  C1  UNL d   1      -5.820   2.828   1.160  0.00  0.00     0.053 C 
ATOM      9  C   UNL d   1      -5.518   3.543  -0.148  0.00  0.00     0.018 C 
ENDBRANCH   1   8
TORSDOF 1
ENDMDL
