MODEL 1
REMARK minimizedAffinity 15.5126619
REMARK minimizedRMSD -1
REMARK  1 active torsions:
REMARK  status: ('A' for Active; 'I' for Inactive)
REMARK    1  A    between atoms: C1_2  and  C2_3 
ROOT
ATOM      1  C2  UNL d   1      -4.819   0.689  -0.896  0.00  0.00    -0.076 A 
ATOM      2  C3  UNL d   1      -5.057   1.435   0.271  0.00  0.00     0.004 A 
ATOM      3  C4  UNL d   1      -4.016   1.761   1.139  0.00  0.00    -0.003 A 
ATOM      4  C5  UNL d   1      -2.719   1.347   0.853  0.00  0.00     0.000 A 
ATOM      5  C6  UNL d   1      -2.462   0.622  -0.310  0.00  0.00     0.000 A 
ATOM      6  C7  UNL d   1      -3.498   0.299  -1.204  0.00  0.00    -0.073 A 
ATOM      7  C8  UNL d   1      -3.165  -0.491  -2.440  0.00  0.00     0.078 C 
ENDROOT
BRANCH   1   8
ATOM      8  C1  UNL d   1      -5.992   0.343  -1.785  0.00  0.00     0.053 C 
ATOM      9  C   UNL d   1      -5.999   1.143  -3.079  0.00  0.00     0.018 C 
ENDBRANCH   1   8
TORSDOF 1
ENDMDL
