MODEL 1
REMARK minimizedAffinity 3.45542479
REMARK minimizedRMSD -1
REMARK  1 active torsions:
REMARK  status: ('A' for Active; 'I' for Inactive)
REMARK    1  A    between atoms: C1_2  and  C2_3 
ROOT
ATOM      1  C2  UNL d   1      -4.950   0.272  -2.314  0.00  0.00    -0.076 A 
ATOM      2  C3  UNL d   1      -6.000   0.221  -1.381  0.00  0.00     0.004 A 
ATOM      3  C4  UNL d   1      -5.768   0.459  -0.027  0.00  0.00    -0.003 A 
ATOM      4  C5  UNL d   1      -4.482   0.751   0.415  0.00  0.00     0.000 A 
ATOM      5  C6  UNL d   1      -3.432   0.823  -0.500  0.00  0.00     0.000 A 
ATOM      6  C7  UNL d   1      -3.652   0.602  -1.870  0.00  0.00    -0.073 A 
ATOM      7  C8  UNL d   1      -2.482   0.686  -2.812  0.00  0.00     0.078 C 
ENDROOT
BRANCH   1   8
ATOM      8  C1  UNL d   1      -5.257  -0.021  -3.766  0.00  0.00     0.053 C 
ATOM      9  C   UNL d   1      -6.000   1.119  -4.446  0.00  0.00     0.018 C 
ENDBRANCH   1   8
TORSDOF 1
ENDMDL
