MODEL 1
REMARK minimizedAffinity -3.2564106
REMARK minimizedRMSD -1
REMARK  0 active torsions:
REMARK  status: ('A' for Active; 'I' for Inactive)
ROOT
ATOM      1  C   UNL d   1       5.215   0.767   1.530  0.00  0.00     0.023 A 
ATOM      2  C1  UNL d   1       6.000   1.376   0.550  0.00  0.00     0.003 A 
ATOM      3  C2  UNL d   1       5.473   1.612  -0.721  0.00  0.00     0.048 A 
ATOM      4  C3  UNL d   1       4.160   1.239  -1.005  0.00  0.00     0.023 A 
ATOM      5  C4  UNL d   1       3.371   0.630  -0.028  0.00  0.00     0.048 A 
ATOM      6  C5  UNL d   1       3.902   0.395   1.242  0.00  0.00     0.003 A 
ATOM      7  I   UNL d   1       3.373   1.590  -2.897  0.00  0.00    -0.146 I 
ENDROOT
TORSDOF 0
ENDMDL
