MODEL 1
REMARK minimizedAffinity -2.78555226
REMARK minimizedRMSD -1
REMARK  0 active torsions:
REMARK  status: ('A' for Active; 'I' for Inactive)
ROOT
ATOM      1  C   UNL d   1       4.719   0.380   1.313  0.00  0.00     0.023 A 
ATOM      2  C1  UNL d   1       5.671   0.526   0.304  0.00  0.00     0.003 A 
ATOM      3  C2  UNL d   1       5.286   0.973  -0.961  0.00  0.00     0.048 A 
ATOM      4  C3  UNL d   1       3.947   1.273  -1.211  0.00  0.00     0.023 A 
ATOM      5  C4  UNL d   1       2.991   1.130  -0.204  0.00  0.00     0.048 A 
ATOM      6  C5  UNL d   1       3.381   0.682   1.059  0.00  0.00     0.003 A 
ATOM      7  I   UNL d   1       3.372   1.939  -3.094  0.00  0.00    -0.146 I 
ENDROOT
TORSDOF 0
ENDMDL
