MODEL 1
REMARK minimizedAffinity 8.81481647
REMARK minimizedRMSD -1
REMARK  0 active torsions:
REMARK  status: ('A' for Active; 'I' for Inactive)
ROOT
ATOM      1  C   UNL d   1      -1.729  -2.174  -2.625  0.00  0.00     0.023 A 
ATOM      2  C1  UNL d   1      -2.400  -2.344  -1.414  0.00  0.00     0.003 A 
ATOM      3  C2  UNL d   1      -3.606  -3.046  -1.374  0.00  0.00     0.048 A 
ATOM      4  C3  UNL d   1      -4.135  -3.578  -2.549  0.00  0.00     0.023 A 
ATOM      5  C4  UNL d   1      -3.468  -3.412  -3.764  0.00  0.00     0.048 A 
ATOM      6  C5  UNL d   1      -2.263  -2.708  -3.799  0.00  0.00     0.003 A 
ATOM      7  I   UNL d   1      -5.930  -4.624  -2.492  0.00  0.00    -0.146 I 
ENDROOT
TORSDOF 0
ENDMDL
