MODEL 1
REMARK minimizedAffinity -1.5762701
REMARK minimizedRMSD -1
REMARK  0 active torsions:
REMARK  status: ('A' for Active; 'I' for Inactive)
ROOT
ATOM      1  C   UNL d   1       1.608   0.724   3.205  0.00  0.00     0.023 A 
ATOM      2  C1  UNL d   1       2.642  -0.167   3.491  0.00  0.00     0.003 A 
ATOM      3  C2  UNL d   1       3.784  -0.194   2.688  0.00  0.00     0.048 A 
ATOM      4  C3  UNL d   1       3.886   0.675   1.602  0.00  0.00     0.023 A 
ATOM      5  C4  UNL d   1       2.854   1.569   1.313  0.00  0.00     0.048 A 
ATOM      6  C5  UNL d   1       1.714   1.591   2.118  0.00  0.00     0.003 A 
ATOM      7  I   UNL d   1       5.586   0.638   0.406  0.00  0.00    -0.146 I 
ENDROOT
TORSDOF 0
ENDMDL
