MODEL 1
REMARK minimizedAffinity 1.28369701
REMARK minimizedRMSD -1
REMARK  0 active torsions:
REMARK  status: ('A' for Active; 'I' for Inactive)
ROOT
ATOM      1  C   UNL d   1       3.568   0.070   1.685  0.00  0.00     0.023 A 
ATOM      2  C1  UNL d   1       2.582   0.993   1.334  0.00  0.00     0.003 A 
ATOM      3  C2  UNL d   1       2.546   1.522   0.043  0.00  0.00     0.048 A 
ATOM      4  C3  UNL d   1       3.499   1.123  -0.894  0.00  0.00     0.023 A 
ATOM      5  C4  UNL d   1       4.487   0.200  -0.549  0.00  0.00     0.048 A 
ATOM      6  C5  UNL d   1       4.519  -0.326   0.744  0.00  0.00     0.003 A 
ATOM      7  I   UNL d   1       3.448   1.909  -2.818  0.00  0.00    -0.146 I 
ENDROOT
TORSDOF 0
ENDMDL
