MODEL 1
REMARK minimizedAffinity 4.93616295
REMARK minimizedRMSD -1
REMARK  0 active torsions:
REMARK  status: ('A' for Active; 'I' for Inactive)
ROOT
ATOM      1  C   UNL d   1       3.730  -0.853   0.381  0.00  0.00     0.023 A 
ATOM      2  C1  UNL d   1       4.992  -0.833   0.973  0.00  0.00     0.003 A 
ATOM      3  C2  UNL d   1       5.645   0.383   1.188  0.00  0.00     0.048 A 
ATOM      4  C3  UNL d   1       5.030   1.575   0.808  0.00  0.00     0.023 A 
ATOM      5  C4  UNL d   1       3.766   1.560   0.215  0.00  0.00     0.048 A 
ATOM      6  C5  UNL d   1       3.117   0.342   0.002  0.00  0.00     0.003 A 
ATOM      7  I   UNL d   1       6.000   3.385   1.127  0.00  0.00    -0.146 I 
ENDROOT
TORSDOF 0
ENDMDL
