MODEL 1
REMARK minimizedAffinity 3.04279184
REMARK minimizedRMSD -1
REMARK  0 active torsions:
REMARK  status: ('A' for Active; 'I' for Inactive)
ROOT
ATOM      1  C   UNL d   1       1.998   2.253  -2.070  0.00  0.00     0.023 A 
ATOM      2  C1  UNL d   1       3.252   1.857  -2.537  0.00  0.00     0.003 A 
ATOM      3  C2  UNL d   1       4.098   1.106  -1.719  0.00  0.00     0.048 A 
ATOM      4  C3  UNL d   1       3.684   0.753  -0.435  0.00  0.00     0.023 A 
ATOM      5  C4  UNL d   1       2.430   1.146   0.036  0.00  0.00     0.048 A 
ATOM      6  C5  UNL d   1       1.588   1.898  -0.785  0.00  0.00     0.003 A 
ATOM      7  I   UNL d   1       4.941  -0.365   0.785  0.00  0.00    -0.146 I 
ENDROOT
TORSDOF 0
ENDMDL
