MODEL 1
REMARK minimizedAffinity 9.13331127
REMARK minimizedRMSD -1
REMARK  0 active torsions:
REMARK  status: ('A' for Active; 'I' for Inactive)
ROOT
ATOM      1  C   UNL d   1      -1.699  -3.368  -1.137  0.00  0.00     0.023 A 
ATOM      2  C1  UNL d   1      -0.710  -4.104  -1.790  0.00  0.00     0.003 A 
ATOM      3  C2  UNL d   1      -0.642  -4.101  -3.185  0.00  0.00     0.048 A 
ATOM      4  C3  UNL d   1      -1.566  -3.359  -3.920  0.00  0.00     0.023 A 
ATOM      5  C4  UNL d   1      -2.557  -2.620  -3.271  0.00  0.00     0.048 A 
ATOM      6  C5  UNL d   1      -2.621  -2.627  -1.877  0.00  0.00     0.003 A 
ATOM      7  I   UNL d   1      -1.466  -3.353  -5.996  0.00  0.00    -0.146 I 
ENDROOT
TORSDOF 0
ENDMDL
