MODEL 1
REMARK minimizedAffinity 17.0822716
REMARK minimizedRMSD -1
REMARK  0 active torsions:
REMARK  status: ('A' for Active; 'I' for Inactive)
ROOT
ATOM      1  C   UNL d   1       4.078  -0.029   0.377  0.00  0.00     0.023 A 
ATOM      2  C1  UNL d   1       3.011  -0.301   1.233  0.00  0.00     0.003 A 
ATOM      3  C2  UNL d   1       2.045   0.677   1.480  0.00  0.00     0.048 A 
ATOM      4  C3  UNL d   1       2.152   1.925   0.867  0.00  0.00     0.023 A 
ATOM      5  C4  UNL d   1       3.217   2.202   0.010  0.00  0.00     0.048 A 
ATOM      6  C5  UNL d   1       4.181   1.221  -0.234  0.00  0.00     0.003 A 
ATOM      7  I   UNL d   1       0.715   3.381   1.234  0.00  0.00    -0.146 I 
ENDROOT
TORSDOF 0
ENDMDL
