MODEL 1
REMARK minimizedAffinity 9.30346107
REMARK minimizedRMSD -1
REMARK  0 active torsions:
REMARK  status: ('A' for Active; 'I' for Inactive)
ROOT
ATOM      1  C   UNL d   1      -3.009  -2.823  -1.309  0.00  0.00     0.023 A 
ATOM      2  C1  UNL d   1      -1.979  -1.979  -1.722  0.00  0.00     0.003 A 
ATOM      3  C2  UNL d   1      -1.554  -1.992  -3.052  0.00  0.00     0.048 A 
ATOM      4  C3  UNL d   1      -2.164  -2.852  -3.964  0.00  0.00     0.023 A 
ATOM      5  C4  UNL d   1      -3.196  -3.699  -3.555  0.00  0.00     0.048 A 
ATOM      6  C5  UNL d   1      -3.617  -3.682  -2.224  0.00  0.00     0.003 A 
ATOM      7  I   UNL d   1      -1.533  -2.874  -5.944  0.00  0.00    -0.146 I 
ENDROOT
TORSDOF 0
ENDMDL
