MODEL 1
REMARK minimizedAffinity 12.827879
REMARK minimizedRMSD -1
REMARK  0 active torsions:
REMARK  status: ('A' for Active; 'I' for Inactive)
ROOT
ATOM      1  C   UNL d   1      -3.828  -3.035  -2.926  0.00  0.00     0.023 A 
ATOM      2  C1  UNL d   1      -3.915  -3.227  -1.547  0.00  0.00     0.003 A 
ATOM      3  C2  UNL d   1      -2.790  -3.041  -0.742  0.00  0.00     0.048 A 
ATOM      4  C3  UNL d   1      -1.580  -2.662  -1.322  0.00  0.00     0.023 A 
ATOM      5  C4  UNL d   1      -1.488  -2.468  -2.701  0.00  0.00     0.048 A 
ATOM      6  C5  UNL d   1      -2.616  -2.656  -3.502  0.00  0.00     0.003 A 
ATOM      7  I   UNL d   1       0.097  -2.384  -0.126  0.00  0.00    -0.146 I 
ENDROOT
TORSDOF 0
ENDMDL
