MODEL 1
REMARK minimizedAffinity 15.5457659
REMARK minimizedRMSD -1
REMARK  0 active torsions:
REMARK  status: ('A' for Active; 'I' for Inactive)
ROOT
ATOM      1  C   UNL d   1      -1.250  -3.278   2.540  0.00  0.00     0.023 A 
ATOM      2  C1  UNL d   1      -1.914  -4.335   1.916  0.00  0.00     0.003 A 
ATOM      3  C2  UNL d   1      -2.271  -4.239   0.570  0.00  0.00     0.048 A 
ATOM      4  C3  UNL d   1      -1.962  -3.084  -0.147  0.00  0.00     0.023 A 
ATOM      5  C4  UNL d   1      -1.297  -2.024   0.472  0.00  0.00     0.048 A 
ATOM      6  C5  UNL d   1      -0.942  -2.124   1.819  0.00  0.00     0.003 A 
ATOM      7  I   UNL d   1      -2.493  -2.939  -2.151  0.00  0.00    -0.146 I 
ENDROOT
TORSDOF 0
ENDMDL
