MODEL 1
REMARK minimizedAffinity 4.08127403
REMARK minimizedRMSD -1
REMARK  0 active torsions:
REMARK  status: ('A' for Active; 'I' for Inactive)
ROOT
ATOM      1  C   UNL d   1      -0.510  -3.661   1.183  0.00  0.00     0.023 A 
ATOM      2  C1  UNL d   1      -0.792  -2.508   0.450  0.00  0.00     0.003 A 
ATOM      3  C2  UNL d   1      -1.745  -2.543  -0.571  0.00  0.00     0.048 A 
ATOM      4  C3  UNL d   1      -2.412  -3.735  -0.852  0.00  0.00     0.023 A 
ATOM      5  C4  UNL d   1      -2.134  -4.891  -0.121  0.00  0.00     0.048 A 
ATOM      6  C5  UNL d   1      -1.180  -4.851   0.898  0.00  0.00     0.003 A 
ATOM      7  I   UNL d   1      -3.831  -3.789  -2.370  0.00  0.00    -0.146 I 
ENDROOT
TORSDOF 0
ENDMDL
