MODEL 1
REMARK minimizedAffinity 2.58589745
REMARK minimizedRMSD -1
REMARK  0 active torsions:
REMARK  status: ('A' for Active; 'I' for Inactive)
ROOT
ATOM      1  C   UNL d   1       1.494   1.870   0.828  0.00  0.00     0.023 A 
ATOM      2  C1  UNL d   1       1.518   0.651   1.507  0.00  0.00     0.003 A 
ATOM      3  C2  UNL d   1       2.734   0.002   1.734  0.00  0.00     0.048 A 
ATOM      4  C3  UNL d   1       3.920   0.577   1.281  0.00  0.00     0.023 A 
ATOM      5  C4  UNL d   1       3.900   1.797   0.602  0.00  0.00     0.048 A 
ATOM      6  C5  UNL d   1       2.683   2.442   0.377  0.00  0.00     0.003 A 
ATOM      7  I   UNL d   1       5.730  -0.387   1.618  0.00  0.00    -0.146 I 
ENDROOT
TORSDOF 0
ENDMDL
