MODEL 1
REMARK minimizedAffinity 2.16948223
REMARK minimizedRMSD -1
REMARK  0 active torsions:
REMARK  status: ('A' for Active; 'I' for Inactive)
ROOT
ATOM      1  C   UNL d   1       2.910   1.944  -5.475  0.00  0.00     0.023 A 
ATOM      2  C1  UNL d   1       1.768   2.307  -4.761  0.00  0.00     0.003 A 
ATOM      3  C2  UNL d   1       1.659   1.989  -3.406  0.00  0.00     0.048 A 
ATOM      4  C3  UNL d   1       2.697   1.309  -2.770  0.00  0.00     0.023 A 
ATOM      5  C4  UNL d   1       3.842   0.944  -3.479  0.00  0.00     0.048 A 
ATOM      6  C5  UNL d   1       3.946   1.264  -4.834  0.00  0.00     0.003 A 
ATOM      7  I   UNL d   1       2.537   0.834  -0.753  0.00  0.00    -0.146 I 
ENDROOT
TORSDOF 0
ENDMDL
