MODEL 1
REMARK minimizedAffinity 0.416871101
REMARK minimizedRMSD -1
REMARK  1 active torsions:
REMARK  status: ('A' for Active; 'I' for Inactive)
REMARK    1  A    between atoms: C1_2  and  C2_3 
ROOT
ATOM      1  C2  UNL d   1       2.892  -2.963  -5.743  0.00  0.00    -0.077 A 
ATOM      2  C3  UNL d   1       3.282  -4.302  -5.879  0.00  0.00     0.002 A 
ATOM      3  C4  UNL d   1       4.633  -4.635  -6.000  0.00  0.00     0.002 A 
ATOM      4  C5  UNL d   1       5.603  -3.635  -5.981  0.00  0.00    -0.004 A 
ATOM      5  C6  UNL d   1       5.224  -2.300  -5.849  0.00  0.00     0.002 A 
ATOM      6  C7  UNL d   1       3.875  -1.965  -5.729  0.00  0.00     0.002 A 
ENDROOT
BRANCH   1   7
ATOM      7  C1  UNL d   1       1.439  -2.606  -5.563  0.00  0.00     0.055 C 
ATOM      8  C   UNL d   1       1.282  -1.249  -4.892  0.00  0.00     0.019 C 
ENDBRANCH   1   7
TORSDOF 1
ENDMDL
