MODEL 1
REMARK minimizedAffinity 5.68182135
REMARK minimizedRMSD -1
REMARK  1 active torsions:
REMARK  status: ('A' for Active; 'I' for Inactive)
REMARK    1  A    between atoms: C1_2  and  C2_3 
ROOT
ATOM      1  C2  UNL d   1       4.816  -3.493  -5.404  0.00  0.00    -0.077 A 
ATOM      2  C3  UNL d   1       4.047  -2.975  -4.352  0.00  0.00     0.002 A 
ATOM      3  C4  UNL d   1       4.254  -1.669  -3.903  0.00  0.00     0.002 A 
ATOM      4  C5  UNL d   1       5.226  -0.870  -4.502  0.00  0.00    -0.004 A 
ATOM      5  C6  UNL d   1       5.997  -1.377  -5.547  0.00  0.00     0.002 A 
ATOM      6  C7  UNL d   1       5.793  -2.683  -5.996  0.00  0.00     0.002 A 
ENDROOT
BRANCH   1   7
ATOM      7  C1  UNL d   1       4.561  -4.884  -5.922  0.00  0.00     0.055 C 
ATOM      8  C   UNL d   1       5.848  -5.694  -5.992  0.00  0.00     0.019 C 
ENDBRANCH   1   7
TORSDOF 1
ENDMDL
