MODEL 1
REMARK minimizedAffinity 6.13520861
REMARK minimizedRMSD -1
REMARK  1 active torsions:
REMARK  status: ('A' for Active; 'I' for Inactive)
REMARK    1  A    between atoms: C1_2  and  C2_3 
ROOT
ATOM      1  C2  UNL d   1      -3.203   1.826  -2.844  0.00  0.00    -0.077 A 
ATOM      2  C3  UNL d   1      -2.041   2.389  -2.297  0.00  0.00     0.002 A 
ATOM      3  C4  UNL d   1      -0.876   1.629  -2.180  0.00  0.00     0.002 A 
ATOM      4  C5  UNL d   1      -0.860   0.304  -2.612  0.00  0.00    -0.004 A 
ATOM      5  C6  UNL d   1      -2.010  -0.265  -3.156  0.00  0.00     0.002 A 
ATOM      6  C7  UNL d   1      -3.177   0.493  -3.272  0.00  0.00     0.002 A 
ENDROOT
BRANCH   1   7
ATOM      7  C1  UNL d   1      -4.446   2.659  -3.015  0.00  0.00     0.055 C 
ATOM      8  C   UNL d   1      -4.132   3.993  -3.678  0.00  0.00     0.019 C 
ENDBRANCH   1   7
TORSDOF 1
ENDMDL
