MODEL 1
REMARK minimizedAffinity 1.01724279
REMARK minimizedRMSD -1
REMARK  1 active torsions:
REMARK  status: ('A' for Active; 'I' for Inactive)
REMARK    1  A    between atoms: C1_2  and  C2_3 
ROOT
ATOM      1  C2  UNL d   1      -3.896   2.883  -3.069  0.00  0.00    -0.077 A 
ATOM      2  C3  UNL d   1      -3.366   2.689  -1.785  0.00  0.00     0.002 A 
ATOM      3  C4  UNL d   1      -2.620   1.545  -1.495  0.00  0.00     0.002 A 
ATOM      4  C5  UNL d   1      -2.394   0.589  -2.483  0.00  0.00    -0.004 A 
ATOM      5  C6  UNL d   1      -2.919   0.772  -3.762  0.00  0.00     0.002 A 
ATOM      6  C7  UNL d   1      -3.665   1.914  -4.053  0.00  0.00     0.002 A 
ENDROOT
BRANCH   1   7
ATOM      7  C1  UNL d   1      -4.658   4.140  -3.397  0.00  0.00     0.055 C 
ATOM      8  C   UNL d   1      -5.996   4.182  -2.673  0.00  0.00     0.019 C 
ENDBRANCH   1   7
TORSDOF 1
ENDMDL
