MODEL 1
REMARK minimizedAffinity -2.15123439
REMARK minimizedRMSD -1
REMARK  0 active torsions:
REMARK  status: ('A' for Active; 'I' for Inactive)
ROOT
ATOM      1  N1  IND d   1       0.877  -0.806   0.209  0.00  0.00    -0.196 N 
ATOM      2  C2  IND d   1      -0.479  -0.978   0.158  0.00  0.00     0.054 A 
ATOM      3  C3  IND d   1      -1.111   0.174   0.474  0.00  0.00    -0.031 A 
ATOM      4  C4  IND d   1      -0.122   2.490   1.007  0.00  0.00     0.051 A 
ATOM      5  C5  IND d   1       1.067   3.133   1.209  0.00  0.00    -0.031 A 
ATOM      6  C6  IND d   1       2.278   2.483   1.083  0.00  0.00     0.015 A 
ATOM      7  C7  IND d   1       2.346   1.163   0.737  0.00  0.00    -0.016 A 
ATOM      8  C8  IND d   1       1.140   0.505   0.538  0.00  0.00    -0.047 A 
ATOM      9  C9  IND d   1      -0.093   1.149   0.706  0.00  0.00    -0.096 A 
ATOM     10  HN1 IND d   1       1.465  -1.415   0.059  0.00  0.00     0.298 HD
ENDROOT
TORSDOF 0
ENDMDL
