MODEL 1
REMARK minimizedAffinity -3.10690665
REMARK minimizedRMSD -1
REMARK  0 active torsions:
REMARK  status: ('A' for Active; 'I' for Inactive)
ROOT
ATOM      1  N1  IND d   1       1.118   1.381   0.404  0.00  0.00    -0.196 N 
ATOM      2  C2  IND d   1       0.433   2.539   0.647  0.00  0.00     0.054 A 
ATOM      3  C3  IND d   1      -0.899   2.327   0.552  0.00  0.00    -0.031 A 
ATOM      4  C4  IND d   1      -2.178   0.137   0.110  0.00  0.00     0.051 A 
ATOM      5  C5  IND d   1      -1.985  -1.178  -0.209  0.00  0.00    -0.031 A 
ATOM      6  C6  IND d   1      -0.722  -1.719  -0.339  0.00  0.00     0.015 A 
ATOM      7  C7  IND d   1       0.400  -0.964  -0.144  0.00  0.00    -0.016 A 
ATOM      8  C8  IND d   1       0.208   0.374   0.173  0.00  0.00    -0.047 A 
ATOM      9  C9  IND d   1      -1.071   0.938   0.265  0.00  0.00    -0.096 A 
ATOM     10  HN1 IND d   1       1.974   1.296   0.397  0.00  0.00     0.298 HD
ENDROOT
TORSDOF 0
ENDMDL
