MODEL 1
REMARK minimizedAffinity 1.23765886
REMARK minimizedRMSD -1
REMARK  0 active torsions:
REMARK  status: ('A' for Active; 'I' for Inactive)
ROOT
ATOM      1  N1  IND d   1       2.517   1.009   0.931  0.00  0.00    -0.196 N 
ATOM      2  C2  IND d   1       2.823   2.277   1.342  0.00  0.00     0.054 A 
ATOM      3  C3  IND d   1       1.709   3.041   1.378  0.00  0.00    -0.031 A 
ATOM      4  C4  IND d   1      -0.736   2.392   0.902  0.00  0.00     0.051 A 
ATOM      5  C5  IND d   1      -1.509   1.356   0.457  0.00  0.00    -0.031 A 
ATOM      6  C6  IND d   1      -0.968   0.126   0.144  0.00  0.00     0.015 A 
ATOM      7  C7  IND d   1       0.370  -0.119   0.275  0.00  0.00    -0.016 A 
ATOM      8  C8  IND d   1       1.158   0.933   0.720  0.00  0.00    -0.047 A 
ATOM      9  C9  IND d   1       0.621   2.196   0.999  0.00  0.00    -0.096 A 
ATOM     10  HN1 IND d   1       3.079   0.368   0.822  0.00  0.00     0.298 HD
ENDROOT
TORSDOF 0
ENDMDL
