MODEL 1
REMARK minimizedAffinity -3.08935952
REMARK minimizedRMSD -1
REMARK  0 active torsions:
REMARK  status: ('A' for Active; 'I' for Inactive)
ROOT
ATOM      1  N1  IND d   1      -1.539  -0.490   0.223  0.00  0.00    -0.196 N 
ATOM      2  C2  IND d   1      -0.573  -1.419  -0.047  0.00  0.00     0.054 A 
ATOM      3  C3  IND d   1       0.633  -0.821  -0.176  0.00  0.00    -0.031 A 
ATOM      4  C4  IND d   1       1.269   1.656   0.117  0.00  0.00     0.051 A 
ATOM      5  C5  IND d   1       0.723   2.890   0.331  0.00  0.00    -0.031 A 
ATOM      6  C6  IND d   1      -0.632   3.064   0.527  0.00  0.00     0.015 A 
ATOM      7  C7  IND d   1      -1.493   2.004   0.527  0.00  0.00    -0.016 A 
ATOM      8  C8  IND d   1      -0.943   0.750   0.303  0.00  0.00    -0.047 A 
ATOM      9  C9  IND d   1       0.425   0.572   0.061  0.00  0.00    -0.096 A 
ATOM     10  HN1 IND d   1      -2.377  -0.653   0.326  0.00  0.00     0.298 HD
ENDROOT
TORSDOF 0
ENDMDL
