MODEL 1
REMARK minimizedAffinity -3.73621202
REMARK minimizedRMSD -1
REMARK  0 active torsions:
REMARK  status: ('A' for Active; 'I' for Inactive)
ROOT
ATOM      1  N1  IND d   1       2.000  -0.387   0.718  0.00  0.00    -0.196 N 
ATOM      2  C2  IND d   1       1.288  -1.484   0.321  0.00  0.00     0.054 A 
ATOM      3  C3  IND d   1       0.028  -1.131  -0.015  0.00  0.00    -0.031 A 
ATOM      4  C4  IND d   1      -1.052   1.205  -0.088  0.00  0.00     0.051 A 
ATOM      5  C5  IND d   1      -0.809   2.514   0.220  0.00  0.00    -0.031 A 
ATOM      6  C6  IND d   1       0.409   2.932   0.717  0.00  0.00     0.015 A 
ATOM      7  C7  IND d   1       1.437   2.054   0.915  0.00  0.00    -0.016 A 
ATOM      8  C8  IND d   1       1.191   0.723   0.610  0.00  0.00    -0.047 A 
ATOM      9  C9  IND d   1      -0.056   0.286   0.146  0.00  0.00    -0.096 A 
ATOM     10  HN1 IND d   1       2.816  -0.389   0.990  0.00  0.00     0.298 HD
ENDROOT
TORSDOF 0
ENDMDL
