MODEL 1
REMARK minimizedAffinity -2.08518481
REMARK minimizedRMSD -1
REMARK  0 active torsions:
REMARK  status: ('A' for Active; 'I' for Inactive)
ROOT
ATOM      1  N1  IND d   1       0.844  -1.243  -0.317  0.00  0.00    -0.196 N 
ATOM      2  C2  IND d   1      -0.242  -2.045  -0.530  0.00  0.00     0.054 A 
ATOM      3  C3  IND d   1      -1.384  -1.371  -0.267  0.00  0.00    -0.031 A 
ATOM      4  C4  IND d   1      -1.710   1.087   0.426  0.00  0.00     0.051 A 
ATOM      5  C5  IND d   1      -1.012   2.208   0.780  0.00  0.00    -0.031 A 
ATOM      6  C6  IND d   1       0.367   2.237   0.784  0.00  0.00     0.015 A 
ATOM      7  C7  IND d   1       1.104   1.145   0.421  0.00  0.00    -0.016 A 
ATOM      8  C8  IND d   1       0.399   0.003   0.068  0.00  0.00    -0.047 A 
ATOM      9  C9  IND d   1      -1.000  -0.046   0.103  0.00  0.00    -0.096 A 
ATOM     10  HN1 IND d   1       1.666  -1.477  -0.409  0.00  0.00     0.298 HD
ENDROOT
TORSDOF 0
ENDMDL
