MODEL 1
REMARK minimizedAffinity 0.179644883
REMARK minimizedRMSD -1
REMARK  0 active torsions:
REMARK  status: ('A' for Active; 'I' for Inactive)
ROOT
ATOM      1  N1  IND d   1       0.862   2.188   0.240  0.00  0.00    -0.196 N 
ATOM      2  C2  IND d   1      -0.150   3.017   0.635  0.00  0.00     0.054 A 
ATOM      3  C3  IND d   1      -1.258   2.301   0.931  0.00  0.00    -0.031 A 
ATOM      4  C4  IND d   1      -1.602  -0.251   0.936  0.00  0.00     0.051 A 
ATOM      5  C5  IND d   1      -0.977  -1.422   0.613  0.00  0.00    -0.031 A 
ATOM      6  C6  IND d   1       0.320  -1.452   0.143  0.00  0.00     0.015 A 
ATOM      7  C7  IND d   1       1.048  -0.306  -0.012  0.00  0.00    -0.016 A 
ATOM      8  C8  IND d   1       0.414   0.887   0.308  0.00  0.00    -0.047 A 
ATOM      9  C9  IND d   1      -0.917   0.926   0.745  0.00  0.00    -0.096 A 
ATOM     10  HN1 IND d   1       1.646   2.437  -0.009  0.00  0.00     0.298 HD
ENDROOT
TORSDOF 0
ENDMDL
