MODEL 1
REMARK minimizedAffinity -4.11941624
REMARK minimizedRMSD -1
REMARK  0 active torsions:
REMARK  status: ('A' for Active; 'I' for Inactive)
ROOT
ATOM      1  N1  IND d   1       2.535   0.671   0.470  0.00  0.00    -0.196 N 
ATOM      2  C2  IND d   1       2.948   1.902   0.897  0.00  0.00     0.054 A 
ATOM      3  C3  IND d   1       1.883   2.706   1.115  0.00  0.00    -0.031 A 
ATOM      4  C4  IND d   1      -0.630   2.178   0.931  0.00  0.00     0.051 A 
ATOM      5  C5  IND d   1      -1.499   1.197   0.543  0.00  0.00    -0.031 A 
ATOM      6  C6  IND d   1      -1.059  -0.035   0.104  0.00  0.00     0.015 A 
ATOM      7  C7  IND d   1       0.272  -0.337   0.047  0.00  0.00    -0.016 A 
ATOM      8  C8  IND d   1       1.158   0.659   0.434  0.00  0.00    -0.047 A 
ATOM      9  C9  IND d   1       0.718   1.925   0.841  0.00  0.00    -0.096 A 
ATOM     10  HN1 IND d   1       3.049   0.015   0.258  0.00  0.00     0.298 HD
ENDROOT
TORSDOF 0
ENDMDL
