MODEL 1
REMARK minimizedAffinity 2.05638576
REMARK minimizedRMSD -1
REMARK  0 active torsions:
REMARK  status: ('A' for Active; 'I' for Inactive)
ROOT
ATOM      1  N1  IND d   1       2.357   0.681   1.014  0.00  0.00    -0.196 N 
ATOM      2  C2  IND d   1       2.723   1.889   1.540  0.00  0.00     0.054 A 
ATOM      3  C3  IND d   1       1.650   2.705   1.634  0.00  0.00    -0.031 A 
ATOM      4  C4  IND d   1      -0.819   2.232   1.080  0.00  0.00     0.051 A 
ATOM      5  C5  IND d   1      -1.638   1.282   0.538  0.00  0.00    -0.031 A 
ATOM      6  C6  IND d   1      -1.158   0.058   0.120  0.00  0.00     0.015 A 
ATOM      7  C7  IND d   1       0.163  -0.268   0.241  0.00  0.00    -0.016 A 
ATOM      8  C8  IND d   1       0.999   0.697   0.785  0.00  0.00    -0.047 A 
ATOM      9  C9  IND d   1       0.525   1.957   1.171  0.00  0.00    -0.096 A 
ATOM     10  HN1 IND d   1       2.886   0.023   0.853  0.00  0.00     0.298 HD
ENDROOT
TORSDOF 0
ENDMDL
