MODEL 1
REMARK minimizedAffinity -3.32134128
REMARK minimizedRMSD -1
REMARK  0 active torsions:
REMARK  status: ('A' for Active; 'I' for Inactive)
ROOT
ATOM      1  N1  IND d   1       1.813   0.268   0.566  0.00  0.00    -0.196 N 
ATOM      2  C2  IND d   1       1.786  -1.097   0.506  0.00  0.00     0.054 A 
ATOM      3  C3  IND d   1       0.509  -1.542   0.504  0.00  0.00    -0.031 A 
ATOM      4  C4  IND d   1      -1.690  -0.204   0.492  0.00  0.00     0.051 A 
ATOM      5  C5  IND d   1      -2.176   1.070   0.578  0.00  0.00    -0.031 A 
ATOM      6  C6  IND d   1      -1.340   2.165   0.664  0.00  0.00     0.015 A 
ATOM      7  C7  IND d   1       0.019   2.026   0.655  0.00  0.00    -0.016 A 
ATOM      8  C8  IND d   1       0.516   0.733   0.575  0.00  0.00    -0.047 A 
ATOM      9  C9  IND d   1      -0.327  -0.385   0.531  0.00  0.00    -0.096 A 
ATOM     10  HN1 IND d   1       2.521   0.755   0.595  0.00  0.00     0.298 HD
ENDROOT
TORSDOF 0
ENDMDL
