MODEL 1
REMARK minimizedAffinity -1.85054207
REMARK minimizedRMSD -1
REMARK  0 active torsions:
REMARK  status: ('A' for Active; 'I' for Inactive)
ROOT
ATOM      1  N1  IND d   1       2.746  -0.134   0.111  0.00  0.00    -0.196 N 
ATOM      2  C2  IND d   1       1.841  -1.039  -0.368  0.00  0.00     0.054 A 
ATOM      3  C3  IND d   1       0.592  -0.524  -0.327  0.00  0.00    -0.031 A 
ATOM      4  C4  IND d   1      -0.186   1.822   0.394  0.00  0.00     0.051 A 
ATOM      5  C5  IND d   1       0.272   2.987   0.943  0.00  0.00    -0.031 A 
ATOM      6  C6  IND d   1       1.605   3.177   1.246  0.00  0.00     0.015 A 
ATOM      7  C7  IND d   1       2.536   2.208   1.000  0.00  0.00    -0.016 A 
ATOM      8  C8  IND d   1       2.074   1.020   0.450  0.00  0.00    -0.047 A 
ATOM      9  C9  IND d   1       0.716   0.806   0.179  0.00  0.00    -0.096 A 
ATOM     10  HN1 IND d   1       3.592  -0.263   0.189  0.00  0.00     0.298 HD
ENDROOT
TORSDOF 0
ENDMDL
