MODEL 1
REMARK minimizedAffinity -1.94002211
REMARK minimizedRMSD -1
REMARK  0 active torsions:
REMARK  status: ('A' for Active; 'I' for Inactive)
ROOT
ATOM      1  N1  IND d   1       0.819  -0.693   0.320  0.00  0.00    -0.196 N 
ATOM      2  C2  IND d   1      -0.352  -1.172  -0.197  0.00  0.00     0.054 A 
ATOM      3  C3  IND d   1      -1.268  -0.181  -0.281  0.00  0.00    -0.031 A 
ATOM      4  C4  IND d   1      -1.029   2.320   0.278  0.00  0.00     0.051 A 
ATOM      5  C5  IND d   1      -0.157   3.225   0.816  0.00  0.00    -0.031 A 
ATOM      6  C6  IND d   1       1.111   2.863   1.222  0.00  0.00     0.015 A 
ATOM      7  C7  IND d   1       1.561   1.580   1.093  0.00  0.00    -0.016 A 
ATOM      8  C8  IND d   1       0.676   0.657   0.554  0.00  0.00    -0.047 A 
ATOM      9  C9  IND d   1      -0.627   1.009   0.180  0.00  0.00    -0.096 A 
ATOM     10  HN1 IND d   1       1.527  -1.157   0.473  0.00  0.00     0.298 HD
ENDROOT
TORSDOF 0
ENDMDL
