MODEL 1
REMARK minimizedAffinity 2.09250021
REMARK minimizedRMSD -1
REMARK  0 active torsions:
REMARK  status: ('A' for Active; 'I' for Inactive)
ROOT
ATOM      1  N1  IND d   1       1.262  -0.482   0.188  0.00  0.00    -0.196 N 
ATOM      2  C2  IND d   1       0.555  -1.506  -0.378  0.00  0.00     0.054 A 
ATOM      3  C3  IND d   1      -0.741  -1.153  -0.533  0.00  0.00    -0.031 A 
ATOM      4  C4  IND d   1      -1.898   1.088  -0.020  0.00  0.00     0.051 A 
ATOM      5  C5  IND d   1      -1.672   2.314   0.541  0.00  0.00    -0.031 A 
ATOM      6  C6  IND d   1      -0.431   2.679   1.020  0.00  0.00     0.015 A 
ATOM      7  C7  IND d   1       0.639   1.831   0.945  0.00  0.00    -0.016 A 
ATOM      8  C8  IND d   1       0.411   0.583   0.383  0.00  0.00    -0.047 A 
ATOM      9  C9  IND d   1      -0.857   0.192  -0.067  0.00  0.00    -0.096 A 
ATOM     10  HN1 IND d   1       2.098  -0.501   0.388  0.00  0.00     0.298 HD
ENDROOT
TORSDOF 0
ENDMDL
