MODEL 1
REMARK minimizedAffinity -4.30914688
REMARK minimizedRMSD -1
REMARK  0 active torsions:
REMARK  status: ('A' for Active; 'I' for Inactive)
ROOT
ATOM      1  N1  IND d   1      -1.073   0.874  -0.686  0.00  0.00    -0.196 N 
ATOM      2  C2  IND d   1      -1.569   0.857   0.588  0.00  0.00     0.054 A 
ATOM      3  C3  IND d   1      -1.566  -0.403   1.077  0.00  0.00    -0.031 A 
ATOM      4  C4  IND d   1      -0.697  -2.574  -0.001  0.00  0.00     0.051 A 
ATOM      5  C5  IND d   1      -0.188  -3.067  -1.169  0.00  0.00    -0.031 A 
ATOM      6  C6  IND d   1       0.060  -2.255  -2.257  0.00  0.00     0.015 A 
ATOM      7  C7  IND d   1      -0.183  -0.912  -2.213  0.00  0.00    -0.016 A 
ATOM      8  C8  IND d   1      -0.707  -0.408  -1.031  0.00  0.00    -0.047 A 
ATOM      9  C9  IND d   1      -1.000  -1.234   0.062  0.00  0.00    -0.096 A 
ATOM     10  HN1 IND d   1      -1.003   1.569  -1.188  0.00  0.00     0.298 HD
ENDROOT
TORSDOF 0
ENDMDL
