MODEL 1
REMARK minimizedAffinity -2.03006124
REMARK minimizedRMSD -1
REMARK  0 active torsions:
REMARK  status: ('A' for Active; 'I' for Inactive)
ROOT
ATOM      1  N1  IND d   1       0.779  -1.065   0.750  0.00  0.00    -0.196 N 
ATOM      2  C2  IND d   1      -0.073   0.001   0.831  0.00  0.00     0.054 A 
ATOM      3  C3  IND d   1      -1.125  -0.174   0.000  0.00  0.00    -0.031 A 
ATOM      4  C4  IND d   1      -1.701  -2.179  -1.509  0.00  0.00     0.051 A 
ATOM      5  C5  IND d   1      -1.206  -3.375  -1.947  0.00  0.00    -0.031 A 
ATOM      6  C6  IND d   1      -0.000  -3.873  -1.497  0.00  0.00     0.015 A 
ATOM      7  C7  IND d   1       0.753  -3.197  -0.580  0.00  0.00    -0.016 A 
ATOM      8  C8  IND d   1       0.256  -1.978  -0.138  0.00  0.00    -0.047 A 
ATOM      9  C9  IND d   1      -0.946  -1.447  -0.623  0.00  0.00    -0.096 A 
ATOM     10  HN1 IND d   1       1.518  -1.150   1.181  0.00  0.00     0.298 HD
ENDROOT
TORSDOF 0
ENDMDL
