MODEL 1
REMARK minimizedAffinity -5.66021872
REMARK minimizedRMSD -1
REMARK  0 active torsions:
REMARK  status: ('A' for Active; 'I' for Inactive)
ROOT
ATOM      1  O1  BZF d   1       0.552   0.523  -0.500  0.00  0.00    -0.204 OA
ATOM      2  C2  BZF d   1       0.447  -0.703   0.128  0.00  0.00     0.174 A 
ATOM      3  C3  BZF d   1      -0.472  -0.658   1.114  0.00  0.00    -0.012 A 
ATOM      4  C3A BZF d   1      -1.039   0.653   1.041  0.00  0.00    -0.107 A 
ATOM      5  C4  BZF d   1      -2.014   1.295   1.748  0.00  0.00     0.055 A 
ATOM      6  C5  BZF d   1      -2.280   2.599   1.473  0.00  0.00    -0.016 A 
ATOM      7  C6  BZF d   1      -1.587   3.292   0.503  0.00  0.00     0.022 A 
ATOM      8  C7  BZF d   1      -0.614   2.697  -0.229  0.00  0.00     0.029 A 
ATOM      9  C7A BZF d   1      -0.366   1.370   0.024  0.00  0.00     0.058 A 
ENDROOT
TORSDOF 0
ENDMDL
