MODEL 1
REMARK minimizedAffinity -3.69689822
REMARK minimizedRMSD -1
REMARK  0 active torsions:
REMARK  status: ('A' for Active; 'I' for Inactive)
ROOT
ATOM      1  O1  BZF d   1       0.655  -0.050  -1.352  0.00  0.00    -0.204 OA
ATOM      2  C2  BZF d   1       0.914  -1.401  -1.223  0.00  0.00     0.174 A 
ATOM      3  C3  BZF d   1       0.334  -1.896  -0.111  0.00  0.00    -0.012 A 
ATOM      4  C3A BZF d   1      -0.406  -0.805   0.445  0.00  0.00    -0.107 A 
ATOM      5  C4  BZF d   1      -1.206  -0.676   1.544  0.00  0.00     0.055 A 
ATOM      6  C5  BZF d   1      -1.721   0.545   1.847  0.00  0.00    -0.016 A 
ATOM      7  C6  BZF d   1      -1.453   1.657   1.076  0.00  0.00     0.022 A 
ATOM      8  C7  BZF d   1      -0.669   1.578  -0.027  0.00  0.00     0.029 A 
ATOM      9  C7A BZF d   1      -0.174   0.339  -0.354  0.00  0.00     0.058 A 
ENDROOT
TORSDOF 0
ENDMDL
