MODEL 1
REMARK minimizedAffinity -4.76772308
REMARK minimizedRMSD -1
REMARK  0 active torsions:
REMARK  status: ('A' for Active; 'I' for Inactive)
ROOT
ATOM      1  O1  BZF d   1       0.163  -0.115  -0.572  0.00  0.00    -0.204 OA
ATOM      2  C2  BZF d   1      -0.180  -1.139   0.291  0.00  0.00     0.174 A 
ATOM      3  C3  BZF d   1      -0.768  -0.651   1.402  0.00  0.00    -0.012 A 
ATOM      4  C3A BZF d   1      -0.878   0.759   1.182  0.00  0.00    -0.107 A 
ATOM      5  C4  BZF d   1      -1.390   1.787   1.919  0.00  0.00     0.055 A 
ATOM      6  C5  BZF d   1      -1.276   3.058   1.451  0.00  0.00    -0.016 A 
ATOM      7  C6  BZF d   1      -0.651   3.336   0.253  0.00  0.00     0.022 A 
ATOM      8  C7  BZF d   1      -0.131   2.348  -0.516  0.00  0.00     0.029 A 
ATOM      9  C7A BZF d   1      -0.275   1.060  -0.061  0.00  0.00     0.058 A 
ENDROOT
TORSDOF 0
ENDMDL
