MODEL 1
REMARK minimizedAffinity -4.37123823
REMARK minimizedRMSD -1
REMARK  0 active torsions:
REMARK  status: ('A' for Active; 'I' for Inactive)
ROOT
ATOM      1  O1  BZF d   1      -0.749   1.928  -0.069  0.00  0.00    -0.204 OA
ATOM      2  C2  BZF d   1      -1.342   2.281   1.127  0.00  0.00     0.174 A 
ATOM      3  C3  BZF d   1      -1.355   1.237   1.981  0.00  0.00    -0.012 A 
ATOM      4  C3A BZF d   1      -0.649   0.191   1.308  0.00  0.00    -0.107 A 
ATOM      5  C4  BZF d   1      -0.316  -1.089   1.649  0.00  0.00     0.055 A 
ATOM      6  C5  BZF d   1       0.313  -1.874   0.736  0.00  0.00    -0.016 A 
ATOM      7  C6  BZF d   1       0.620  -1.414  -0.528  0.00  0.00     0.022 A 
ATOM      8  C7  BZF d   1       0.315  -0.151  -0.911  0.00  0.00     0.029 A 
ATOM      9  C7A BZF d   1      -0.292   0.656   0.021  0.00  0.00     0.058 A 
ENDROOT
TORSDOF 0
ENDMDL
