MODEL 1
REMARK minimizedAffinity -0.673622787
REMARK minimizedRMSD -1
REMARK  0 active torsions:
REMARK  status: ('A' for Active; 'I' for Inactive)
ROOT
ATOM      1  O1  BZF d   1      -1.539   1.247   2.046  0.00  0.00    -0.204 OA
ATOM      2  C2  BZF d   1      -2.140   2.286   1.364  0.00  0.00     0.174 A 
ATOM      3  C3  BZF d   1      -1.571   2.457   0.153  0.00  0.00    -0.012 A 
ATOM      4  C3A BZF d   1      -0.612   1.402   0.036  0.00  0.00    -0.107 A 
ATOM      5  C4  BZF d   1       0.260   1.029  -0.947  0.00  0.00     0.055 A 
ATOM      6  C5  BZF d   1       1.112  -0.004  -0.718  0.00  0.00    -0.016 A 
ATOM      7  C6  BZF d   1       1.123  -0.683   0.483  0.00  0.00     0.022 A 
ATOM      8  C7  BZF d   1       0.274  -0.354   1.486  0.00  0.00     0.029 A 
ATOM      9  C7A BZF d   1      -0.611   0.669   1.246  0.00  0.00     0.058 A 
ENDROOT
TORSDOF 0
ENDMDL
