MODEL 1
REMARK minimizedAffinity -4.67521715
REMARK minimizedRMSD -1
REMARK  0 active torsions:
REMARK  status: ('A' for Active; 'I' for Inactive)
ROOT
ATOM      1  O1  BZF d   1       0.685   0.625  -0.876  0.00  0.00    -0.204 OA
ATOM      2  C2  BZF d   1       0.670  -0.752  -0.990  0.00  0.00     0.174 A 
ATOM      3  C3  BZF d   1      -0.343  -1.280  -0.273  0.00  0.00    -0.012 A 
ATOM      4  C3A BZF d   1      -1.058  -0.157   0.251  0.00  0.00    -0.107 A 
ATOM      5  C4  BZF d   1      -2.173  -0.035   1.031  0.00  0.00     0.055 A 
ATOM      6  C5  BZF d   1      -2.569   1.203   1.427  0.00  0.00    -0.016 A 
ATOM      7  C6  BZF d   1      -1.872   2.338   1.068  0.00  0.00     0.022 A 
ATOM      8  C7  BZF d   1      -0.763   2.267   0.291  0.00  0.00     0.029 A 
ATOM      9  C7A BZF d   1      -0.379   1.021  -0.138  0.00  0.00     0.058 A 
ENDROOT
TORSDOF 0
ENDMDL
