MODEL 1
REMARK minimizedAffinity -3.73921919
REMARK minimizedRMSD -1
REMARK  0 active torsions:
REMARK  status: ('A' for Active; 'I' for Inactive)
ROOT
ATOM      1  O1  BZF d   1      -1.042   1.240   2.235  0.00  0.00    -0.204 OA
ATOM      2  C2  BZF d   1      -1.998   2.083   1.702  0.00  0.00     0.174 A 
ATOM      3  C3  BZF d   1      -2.094   1.915   0.367  0.00  0.00    -0.012 A 
ATOM      4  C3A BZF d   1      -1.202   0.840   0.059  0.00  0.00    -0.107 A 
ATOM      5  C4  BZF d   1      -0.869   0.200  -1.101  0.00  0.00     0.055 A 
ATOM      6  C5  BZF d   1       0.090  -0.763  -1.072  0.00  0.00    -0.016 A 
ATOM      7  C6  BZF d   1       0.739  -1.106   0.095  0.00  0.00     0.022 A 
ATOM      8  C7  BZF d   1       0.440  -0.502   1.271  0.00  0.00     0.029 A 
ATOM      9  C7A BZF d   1      -0.552   0.447   1.252  0.00  0.00     0.058 A 
ENDROOT
TORSDOF 0
ENDMDL
