MODEL 1
REMARK minimizedAffinity -3.56602001
REMARK minimizedRMSD -1
REMARK  0 active torsions:
REMARK  status: ('A' for Active; 'I' for Inactive)
ROOT
ATOM      1  O1  BZF d   1      -1.054   1.771   1.316  0.00  0.00    -0.204 OA
ATOM      2  C2  BZF d   1      -1.506   0.853   2.244  0.00  0.00     0.174 A 
ATOM      3  C3  BZF d   1      -1.154  -0.399   1.889  0.00  0.00    -0.012 A 
ATOM      4  C3A BZF d   1      -0.358  -0.246   0.710  0.00  0.00    -0.107 A 
ATOM      5  C4  BZF d   1       0.293  -1.129  -0.104  0.00  0.00     0.055 A 
ATOM      6  C5  BZF d   1       0.920  -0.662  -1.216  0.00  0.00    -0.016 A 
ATOM      7  C6  BZF d   1       0.910   0.677  -1.547  0.00  0.00     0.022 A 
ATOM      8  C7  BZF d   1       0.281   1.590  -0.769  0.00  0.00     0.029 A 
ATOM      9  C7A BZF d   1      -0.325   1.127   0.374  0.00  0.00     0.058 A 
ENDROOT
TORSDOF 0
ENDMDL
