MODEL 1
REMARK minimizedAffinity -2.10275269
REMARK minimizedRMSD -1
REMARK  0 active torsions:
REMARK  status: ('A' for Active; 'I' for Inactive)
ROOT
ATOM      1  O1  BZF d   1      -0.790  -0.435  -1.073  0.00  0.00    -0.204 OA
ATOM      2  C2  BZF d   1      -0.323  -0.043   0.167  0.00  0.00     0.174 A 
ATOM      3  C3  BZF d   1       0.630  -0.890   0.609  0.00  0.00    -0.012 A 
ATOM      4  C3A BZF d   1       0.832  -1.820  -0.460  0.00  0.00    -0.107 A 
ATOM      5  C4  BZF d   1       1.663  -2.891  -0.628  0.00  0.00     0.055 A 
ATOM      6  C5  BZF d   1       1.560  -3.634  -1.761  0.00  0.00    -0.016 A 
ATOM      7  C6  BZF d   1       0.637  -3.340  -2.742  0.00  0.00     0.022 A 
ATOM      8  C7  BZF d   1      -0.205  -2.284  -2.622  0.00  0.00     0.029 A 
ATOM      9  C7A BZF d   1      -0.082  -1.511  -1.494  0.00  0.00     0.058 A 
ENDROOT
TORSDOF 0
ENDMDL
