MODEL 1
REMARK minimizedAffinity -0.979424298
REMARK minimizedRMSD -1
REMARK  0 active torsions:
REMARK  status: ('A' for Active; 'I' for Inactive)
ROOT
ATOM      1  O1  BZF d   1       1.075   0.230  -0.963  0.00  0.00    -0.204 OA
ATOM      2  C2  BZF d   1       1.271  -1.137  -0.922  0.00  0.00     0.174 A 
ATOM      3  C3  BZF d   1       0.702  -1.670   0.178  0.00  0.00    -0.012 A 
ATOM      4  C3A BZF d   1       0.034  -0.580   0.821  0.00  0.00    -0.107 A 
ATOM      5  C4  BZF d   1      -0.725  -0.480   1.952  0.00  0.00     0.055 A 
ATOM      6  C5  BZF d   1      -1.169   0.743   2.343  0.00  0.00    -0.016 A 
ATOM      7  C6  BZF d   1      -0.870   1.886   1.631  0.00  0.00     0.022 A 
ATOM      8  C7  BZF d   1      -0.126   1.836   0.499  0.00  0.00     0.029 A 
ATOM      9  C7A BZF d   1       0.297   0.597   0.084  0.00  0.00     0.058 A 
ENDROOT
TORSDOF 0
ENDMDL
