MODEL 1
REMARK minimizedAffinity -4.9375968
REMARK minimizedRMSD -1
REMARK  0 active torsions:
REMARK  status: ('A' for Active; 'I' for Inactive)
ROOT
ATOM      1  O1  BZF d   1      -1.124   1.315   1.778  0.00  0.00    -0.204 OA
ATOM      2  C2  BZF d   1      -1.981   2.079   1.009  0.00  0.00     0.174 A 
ATOM      3  C3  BZF d   1      -1.946   1.685  -0.281  0.00  0.00    -0.012 A 
ATOM      4  C3A BZF d   1      -1.077   0.548  -0.303  0.00  0.00    -0.107 A 
ATOM      5  C4  BZF d   1      -0.656  -0.292  -1.294  0.00  0.00     0.055 A 
ATOM      6  C5  BZF d   1       0.250  -1.260  -0.998  0.00  0.00    -0.016 A 
ATOM      7  C6  BZF d   1       0.760  -1.413   0.275  0.00  0.00     0.022 A 
ATOM      8  C7  BZF d   1       0.368  -0.607   1.291  0.00  0.00     0.029 A 
ATOM      9  C7A BZF d   1      -0.572   0.351   1.003  0.00  0.00     0.058 A 
ENDROOT
TORSDOF 0
ENDMDL
