MODEL 1
REMARK minimizedAffinity -5.4188056
REMARK minimizedRMSD -1
REMARK  0 active torsions:
REMARK  status: ('A' for Active; 'I' for Inactive)
ROOT
ATOM      1  O1  BZF d   1       1.246   1.299  -0.587  0.00  0.00    -0.204 OA
ATOM      2  C2  BZF d   1       1.922   0.102  -0.450  0.00  0.00     0.174 A 
ATOM      3  C3  BZF d   1       1.340  -0.671   0.491  0.00  0.00    -0.012 A 
ATOM      4  C3A BZF d   1       0.178   0.053   0.906  0.00  0.00    -0.107 A 
ATOM      5  C4  BZF d   1      -0.817  -0.204   1.805  0.00  0.00     0.055 A 
ATOM      6  C5  BZF d   1      -1.767   0.741   2.028  0.00  0.00    -0.016 A 
ATOM      7  C6  BZF d   1      -1.751   1.955   1.374  0.00  0.00     0.022 A 
ATOM      8  C7  BZF d   1      -0.787   2.254   0.468  0.00  0.00     0.029 A 
ATOM      9  C7A BZF d   1       0.156   1.288   0.217  0.00  0.00     0.058 A 
ENDROOT
TORSDOF 0
ENDMDL
