MODEL 1
REMARK minimizedAffinity -0.091197595
REMARK minimizedRMSD -1
REMARK  0 active torsions:
REMARK  status: ('A' for Active; 'I' for Inactive)
ROOT
ATOM      1  O1  BZF d   1       0.624  -1.967  -2.172  0.00  0.00    -0.204 OA
ATOM      2  C2  BZF d   1       1.048  -3.245  -1.862  0.00  0.00     0.174 A 
ATOM      3  C3  BZF d   1       1.238  -3.377  -0.534  0.00  0.00    -0.012 A 
ATOM      4  C3A BZF d   1       0.824  -2.129   0.032  0.00  0.00    -0.107 A 
ATOM      5  C4  BZF d   1       0.762  -1.652   1.310  0.00  0.00     0.055 A 
ATOM      6  C5  BZF d   1       0.380  -0.365   1.516  0.00  0.00    -0.016 A 
ATOM      7  C6  BZF d   1       0.059   0.474   0.469  0.00  0.00     0.022 A 
ATOM      8  C7  BZF d   1       0.101   0.045  -0.816  0.00  0.00     0.029 A 
ATOM      9  C7A BZF d   1       0.455  -1.266  -1.025  0.00  0.00     0.058 A 
ENDROOT
TORSDOF 0
ENDMDL
