MODEL 1
REMARK minimizedAffinity -6.23294067
REMARK minimizedRMSD -1
REMARK  0 active torsions:
REMARK  status: ('A' for Active; 'I' for Inactive)
ROOT
ATOM      1  O1  BZF d   1       0.590   0.454  -0.986  0.00  0.00    -0.204 OA
ATOM      2  C2  BZF d   1       0.215  -0.727  -0.374  0.00  0.00     0.174 A 
ATOM      3  C3  BZF d   1      -0.648  -0.489   0.635  0.00  0.00    -0.012 A 
ATOM      4  C3A BZF d   1      -0.894   0.919   0.597  0.00  0.00    -0.107 A 
ATOM      5  C4  BZF d   1      -1.678   1.756   1.339  0.00  0.00     0.055 A 
ATOM      6  C5  BZF d   1      -1.637   3.092   1.091  0.00  0.00    -0.016 A 
ATOM      7  C6  BZF d   1      -0.822   3.625   0.114  0.00  0.00     0.022 A 
ATOM      8  C7  BZF d   1      -0.031   2.834  -0.651  0.00  0.00     0.029 A 
ATOM      9  C7A BZF d   1      -0.094   1.481  -0.426  0.00  0.00     0.058 A 
ENDROOT
TORSDOF 0
ENDMDL
