MODEL 1
REMARK minimizedAffinity -4.13989067
REMARK minimizedRMSD -1
REMARK  0 active torsions:
REMARK  status: ('A' for Active; 'I' for Inactive)
ROOT
ATOM      1  O1  BZF d   1       1.100   0.398  -0.736  0.00  0.00    -0.204 OA
ATOM      2  C2  BZF d   1       0.908  -0.713   0.061  0.00  0.00     0.174 A 
ATOM      3  C3  BZF d   1       0.152  -0.407   1.135  0.00  0.00    -0.012 A 
ATOM      4  C3A BZF d   1      -0.224   0.962   0.953  0.00  0.00    -0.107 A 
ATOM      5  C4  BZF d   1      -0.988   1.830   1.678  0.00  0.00     0.055 A 
ATOM      6  C5  BZF d   1      -1.099   3.119   1.262  0.00  0.00    -0.016 A 
ATOM      7  C6  BZF d   1      -0.455   3.574   0.130  0.00  0.00     0.022 A 
ATOM      8  C7  BZF d   1       0.309   2.748  -0.625  0.00  0.00     0.029 A 
ATOM      9  C7A BZF d   1       0.396   1.437  -0.226  0.00  0.00     0.058 A 
ENDROOT
TORSDOF 0
ENDMDL
