MODEL 1
REMARK minimizedAffinity -6.27609921
REMARK minimizedRMSD -1
REMARK  0 active torsions:
REMARK  status: ('A' for Active; 'I' for Inactive)
ROOT
ATOM      1  O1  BZF d   1      -0.680   0.215   0.709  0.00  0.00    -0.204 OA
ATOM      2  C2  BZF d   1      -0.066  -0.492  -0.307  0.00  0.00     0.174 A 
ATOM      3  C3  BZF d   1       0.146   0.299  -1.379  0.00  0.00    -0.012 A 
ATOM      4  C3A BZF d   1      -0.284   1.603  -0.976  0.00  0.00    -0.107 A 
ATOM      5  C4  BZF d   1      -0.309   2.817  -1.599  0.00  0.00     0.055 A 
ATOM      6  C5  BZF d   1      -0.859   3.880  -0.954  0.00  0.00    -0.016 A 
ATOM      7  C6  BZF d   1      -1.397   3.762   0.310  0.00  0.00     0.022 A 
ATOM      8  C7  BZF d   1      -1.390   2.579   0.971  0.00  0.00     0.029 A 
ATOM      9  C7A BZF d   1      -0.805   1.511   0.335  0.00  0.00     0.058 A 
ENDROOT
TORSDOF 0
ENDMDL
