MODEL 1
REMARK minimizedAffinity -1.6677494
REMARK minimizedRMSD -1
REMARK  0 active torsions:
REMARK  status: ('A' for Active; 'I' for Inactive)
ROOT
ATOM      1  O1  BZF d   1       0.024   2.270  -0.629  0.00  0.00    -0.204 OA
ATOM      2  C2  BZF d   1       0.807   1.520  -1.485  0.00  0.00     0.174 A 
ATOM      3  C3  BZF d   1       0.881   0.240  -1.068  0.00  0.00    -0.012 A 
ATOM      4  C3A BZF d   1       0.020   0.165   0.072  0.00  0.00    -0.107 A 
ATOM      5  C4  BZF d   1      -0.337  -0.849   0.914  0.00  0.00     0.055 A 
ATOM      6  C5  BZF d   1      -1.141  -0.575   1.975  0.00  0.00    -0.016 A 
ATOM      7  C6  BZF d   1      -1.601   0.701   2.226  0.00  0.00     0.022 A 
ATOM      8  C7  BZF d   1      -1.278   1.739   1.416  0.00  0.00     0.029 A 
ATOM      9  C7A BZF d   1      -0.492   1.458   0.325  0.00  0.00     0.058 A 
ENDROOT
TORSDOF 0
ENDMDL
