MODEL 1
REMARK minimizedAffinity -4.13834143
REMARK minimizedRMSD -1
REMARK  0 active torsions:
REMARK  status: ('A' for Active; 'I' for Inactive)
ROOT
ATOM      1  O1  BZF d   1       0.227   0.163   1.078  0.00  0.00    -0.204 OA
ATOM      2  C2  BZF d   1      -1.127   0.015   1.309  0.00  0.00     0.174 A 
ATOM      3  C3  BZF d   1      -1.680  -0.811   0.398  0.00  0.00    -0.012 A 
ATOM      4  C3A BZF d   1      -0.587  -1.276  -0.401  0.00  0.00    -0.107 A 
ATOM      5  C4  BZF d   1      -0.497  -2.134  -1.459  0.00  0.00     0.055 A 
ATOM      6  C5  BZF d   1       0.709  -2.317  -2.060  0.00  0.00    -0.016 A 
ATOM      7  C6  BZF d   1       1.841  -1.656  -1.631  0.00  0.00     0.022 A 
ATOM      8  C7  BZF d   1       1.802  -0.799  -0.582  0.00  0.00     0.029 A 
ATOM      9  C7A BZF d   1       0.592  -0.637   0.047  0.00  0.00     0.058 A 
ENDROOT
TORSDOF 0
ENDMDL
