MODEL 1
REMARK minimizedAffinity 8.80551147
REMARK minimizedRMSD -1
REMARK  0 active torsions:
REMARK  status: ('A' for Active; 'I' for Inactive)
ROOT
ATOM      1  C   UNL d   1      -2.622  -2.078   1.754  0.00  0.00     0.077 C 
ATOM      2  C1  UNL d   1      -1.268  -1.747   2.308  0.00  0.00    -0.074 A 
ATOM      3  C2  UNL d   1      -0.739  -0.457   2.191  0.00  0.00    -0.005 A 
ATOM      4  C3  UNL d   1       0.517  -0.162   2.719  0.00  0.00     0.006 A 
ATOM      5  C4  UNL d   1       1.257  -1.151   3.368  0.00  0.00    -0.005 A 
ATOM      6  C5  UNL d   1       0.744  -2.446   3.496  0.00  0.00    -0.074 A 
ATOM      7  C6  UNL d   1       1.522  -3.518   4.200  0.00  0.00     0.077 C 
ATOM      8  C7  UNL d   1      -0.522  -2.733   2.969  0.00  0.00    -0.001 A 
ENDROOT
TORSDOF 0
ENDMDL
