MODEL 1
REMARK minimizedAffinity 16.8849316
REMARK minimizedRMSD -1
REMARK  0 active torsions:
REMARK  status: ('A' for Active; 'I' for Inactive)
ROOT
ATOM      1  C   UNL d   1       3.775  -3.396  -4.122  0.00  0.00     0.077 C 
ATOM      2  C1  UNL d   1       2.428  -3.007  -4.654  0.00  0.00    -0.074 A 
ATOM      3  C2  UNL d   1       1.726  -3.850  -5.521  0.00  0.00    -0.005 A 
ATOM      4  C3  UNL d   1       0.470  -3.479  -6.000  0.00  0.00     0.006 A 
ATOM      5  C4  UNL d   1      -0.096  -2.262  -5.617  0.00  0.00    -0.005 A 
ATOM      6  C5  UNL d   1       0.590  -1.406  -4.751  0.00  0.00    -0.074 A 
ATOM      7  C6  UNL d   1      -0.008  -0.099  -4.322  0.00  0.00     0.077 C 
ATOM      8  C7  UNL d   1       1.849  -1.789  -4.268  0.00  0.00    -0.001 A 
ENDROOT
TORSDOF 0
ENDMDL
