MODEL 1
REMARK minimizedAffinity 8.72863483
REMARK minimizedRMSD -1
REMARK  0 active torsions:
REMARK  status: ('A' for Active; 'I' for Inactive)
ROOT
ATOM      1  C   UNL d   1       3.353   1.313   3.366  0.00  0.00     0.077 C 
ATOM      2  C1  UNL d   1       2.262   0.285   3.307  0.00  0.00    -0.074 A 
ATOM      3  C2  UNL d   1       1.305   0.311   2.288  0.00  0.00    -0.005 A 
ATOM      4  C3  UNL d   1       0.302  -0.657   2.240  0.00  0.00     0.006 A 
ATOM      5  C4  UNL d   1       0.247  -1.660   3.209  0.00  0.00    -0.005 A 
ATOM      6  C5  UNL d   1       1.196  -1.702   4.235  0.00  0.00    -0.074 A 
ATOM      7  C6  UNL d   1       1.157  -2.779   5.279  0.00  0.00     0.077 C 
ATOM      8  C7  UNL d   1       2.205  -0.730   4.272  0.00  0.00    -0.001 A 
ENDROOT
TORSDOF 0
ENDMDL
