MODEL 1
REMARK minimizedAffinity 11.5710392
REMARK minimizedRMSD -1
REMARK  0 active torsions:
REMARK  status: ('A' for Active; 'I' for Inactive)
ROOT
ATOM      1  C   UNL d   1       0.531  -0.373  -5.025  0.00  0.00     0.077 C 
ATOM      2  C1  UNL d   1       0.032  -1.320  -3.974  0.00  0.00    -0.074 A 
ATOM      3  C2  UNL d   1      -0.609  -2.512  -4.327  0.00  0.00    -0.005 A 
ATOM      4  C3  UNL d   1      -1.059  -3.388  -3.339  0.00  0.00     0.006 A 
ATOM      5  C4  UNL d   1      -0.873  -3.081  -1.991  0.00  0.00    -0.005 A 
ATOM      6  C5  UNL d   1      -0.234  -1.895  -1.619  0.00  0.00    -0.074 A 
ATOM      7  C6  UNL d   1      -0.017  -1.554  -0.174  0.00  0.00     0.077 C 
ATOM      8  C7  UNL d   1       0.222  -1.023  -2.617  0.00  0.00    -0.001 A 
ENDROOT
TORSDOF 0
ENDMDL
