MODEL 1
REMARK minimizedAffinity 8.05850601
REMARK minimizedRMSD -1
REMARK  0 active torsions:
REMARK  status: ('A' for Active; 'I' for Inactive)
ROOT
ATOM      1  C   UNL d   1      -2.350   0.742   1.725  0.00  0.00     0.077 C 
ATOM      2  C1  UNL d   1      -1.147  -0.045   2.153  0.00  0.00    -0.074 A 
ATOM      3  C2  UNL d   1      -1.187  -1.441   2.217  0.00  0.00    -0.005 A 
ATOM      4  C3  UNL d   1      -0.057  -2.160   2.608  0.00  0.00     0.006 A 
ATOM      5  C4  UNL d   1       1.122  -1.491   2.937  0.00  0.00    -0.005 A 
ATOM      6  C5  UNL d   1       1.182  -0.095   2.878  0.00  0.00    -0.074 A 
ATOM      7  C6  UNL d   1       2.444   0.640   3.219  0.00  0.00     0.077 C 
ATOM      8  C7  UNL d   1       0.044   0.620   2.477  0.00  0.00    -0.001 A 
ENDROOT
TORSDOF 0
ENDMDL
