MODEL 1
REMARK minimizedAffinity 9.16354942
REMARK minimizedRMSD -1
REMARK  0 active torsions:
REMARK  status: ('A' for Active; 'I' for Inactive)
ROOT
ATOM      1  C   UNL d   1      -1.827  -1.450  -2.871  0.00  0.00     0.077 C 
ATOM      2  C1  UNL d   1      -1.180  -2.245  -3.966  0.00  0.00    -0.074 A 
ATOM      3  C2  UNL d   1       0.059  -1.867  -4.492  0.00  0.00    -0.005 A 
ATOM      4  C3  UNL d   1       0.653  -2.622  -5.504  0.00  0.00     0.006 A 
ATOM      5  C4  UNL d   1       0.015  -3.759  -5.999  0.00  0.00    -0.005 A 
ATOM      6  C5  UNL d   1      -1.224  -4.153  -5.485  0.00  0.00    -0.074 A 
ATOM      7  C6  UNL d   1      -1.920  -5.379  -5.999  0.00  0.00     0.077 C 
ATOM      8  C7  UNL d   1      -1.812  -3.394  -4.464  0.00  0.00    -0.001 A 
ENDROOT
TORSDOF 0
ENDMDL
