MODEL 1
REMARK minimizedAffinity 11.473794
REMARK minimizedRMSD -1
REMARK  0 active torsions:
REMARK  status: ('A' for Active; 'I' for Inactive)
ROOT
ATOM      1  C   UNL d   1       1.552  -1.357   2.893  0.00  0.00     0.077 C 
ATOM      2  C1  UNL d   1       0.189  -0.730   2.883  0.00  0.00    -0.074 A 
ATOM      3  C2  UNL d   1       0.036   0.657   2.796  0.00  0.00    -0.005 A 
ATOM      4  C3  UNL d   1      -1.238   1.225   2.778  0.00  0.00     0.006 A 
ATOM      5  C4  UNL d   1      -2.370   0.412   2.848  0.00  0.00    -0.005 A 
ATOM      6  C5  UNL d   1      -2.237  -0.977   2.935  0.00  0.00    -0.074 A 
ATOM      7  C6  UNL d   1      -3.443  -1.866   3.000  0.00  0.00     0.077 C 
ATOM      8  C7  UNL d   1      -0.953  -1.541   2.945  0.00  0.00    -0.001 A 
ENDROOT
TORSDOF 0
ENDMDL
