MODEL 1
REMARK minimizedAffinity -5.02325392
REMARK minimizedRMSD -1
REMARK  1 active torsions:
REMARK  status: ('A' for Active; 'I' for Inactive)
REMARK    1  A    between atoms: C3_4  and  O_7 
ROOT
ATOM      1  C   UNL d   1       0.354   0.003   0.133  0.00  0.00    -0.033 A 
ATOM      2  C1  UNL d   1       0.083   0.043   1.502  0.00  0.00     0.039 A 
ATOM      3  C2  UNL d   1      -1.047   0.715   1.973  0.00  0.00    -0.080 A 
ATOM      4  C3  UNL d   1      -1.897   1.341   1.065  0.00  0.00     0.150 A 
ATOM      5  C4  UNL d   1      -1.635   1.302  -0.300  0.00  0.00    -0.007 A 
ATOM      6  C5  UNL d   1      -0.506   0.631  -0.768  0.00  0.00     0.039 A 
ENDROOT
BRANCH   4   7
ATOM      7  O   UNL d   1      -3.009   2.014   1.478  0.00  0.00    -0.526 OA
ATOM      8  H5  UNL d   1      -3.046   1.981   2.448  0.00  0.00     0.418 HD
ENDBRANCH   4   7
TORSDOF 1
ENDMDL
