MODEL 1
REMARK minimizedAffinity -4.90602589
REMARK minimizedRMSD -1
REMARK  1 active torsions:
REMARK  status: ('A' for Active; 'I' for Inactive)
REMARK    1  A    between atoms: C3_4  and  O_7 
ROOT
ATOM      1  C   UNL d   1      -1.204   1.523   1.755  0.00  0.00    -0.033 A 
ATOM      2  C1  UNL d   1      -0.383   0.441   2.078  0.00  0.00     0.039 A 
ATOM      3  C2  UNL d   1       0.105  -0.392   1.069  0.00  0.00    -0.080 A 
ATOM      4  C3  UNL d   1      -0.234  -0.132  -0.256  0.00  0.00     0.150 A 
ATOM      5  C4  UNL d   1      -1.049   0.947  -0.584  0.00  0.00    -0.007 A 
ATOM      6  C5  UNL d   1      -1.536   1.777   0.424  0.00  0.00     0.039 A 
ENDROOT
BRANCH   4   7
ATOM      7  O   UNL d   1       0.214  -0.920  -1.274  0.00  0.00    -0.526 OA
ATOM      8  H5  UNL d   1       0.741  -1.642  -0.895  0.00  0.00     0.418 HD
ENDBRANCH   4   7
TORSDOF 1
ENDMDL
