MODEL 1
REMARK minimizedAffinity -2.04000616
REMARK minimizedRMSD -1
REMARK  1 active torsions:
REMARK  status: ('A' for Active; 'I' for Inactive)
REMARK    1  A    between atoms: C3_4  and  O_7 
ROOT
ATOM      1  C   UNL d   1      -1.264  -0.317   0.433  0.00  0.00    -0.033 A 
ATOM      2  C1  UNL d   1       0.072  -0.567   0.111  0.00  0.00     0.039 A 
ATOM      3  C2  UNL d   1       0.772   0.319  -0.710  0.00  0.00    -0.080 A 
ATOM      4  C3  UNL d   1       0.126   1.451  -1.200  0.00  0.00     0.150 A 
ATOM      5  C4  UNL d   1      -1.203   1.708  -0.880  0.00  0.00    -0.007 A 
ATOM      6  C5  UNL d   1      -1.900   0.821  -0.061  0.00  0.00     0.039 A 
ENDROOT
BRANCH   4   7
ATOM      7  O   UNL d   1       0.766   2.342  -2.009  0.00  0.00    -0.526 OA
ATOM      8  H5  UNL d   1       1.669   2.020  -2.168  0.00  0.00     0.418 HD
ENDBRANCH   4   7
TORSDOF 1
ENDMDL
