MODEL 1
REMARK minimizedAffinity -4.83864737
REMARK minimizedRMSD -1
REMARK  1 active torsions:
REMARK  status: ('A' for Active; 'I' for Inactive)
REMARK    1  A    between atoms: C3_4  and  O_7 
ROOT
ATOM      1  C   UNL d   1       0.618   0.411  -0.738  0.00  0.00    -0.033 A 
ATOM      2  C1  UNL d   1       0.020  -0.459   0.176  0.00  0.00     0.039 A 
ATOM      3  C2  UNL d   1      -1.054  -0.025   0.956  0.00  0.00    -0.080 A 
ATOM      4  C3  UNL d   1      -1.521   1.278   0.810  0.00  0.00     0.150 A 
ATOM      5  C4  UNL d   1      -0.933   2.149  -0.101  0.00  0.00    -0.007 A 
ATOM      6  C5  UNL d   1       0.140   1.714  -0.878  0.00  0.00     0.039 A 
ENDROOT
BRANCH   4   7
ATOM      7  O   UNL d   1      -2.564   1.748   1.552  0.00  0.00    -0.526 OA
ATOM      8  H5  UNL d   1      -2.851   1.046   2.159  0.00  0.00     0.418 HD
ENDBRANCH   4   7
TORSDOF 1
ENDMDL
