MODEL 1
REMARK minimizedAffinity -4.68404627
REMARK minimizedRMSD -1
REMARK  1 active torsions:
REMARK  status: ('A' for Active; 'I' for Inactive)
REMARK    1  A    between atoms: C3_4  and  O_7 
ROOT
ATOM      1  C   UNL d   1      -0.428   0.355   1.648  0.00  0.00    -0.033 A 
ATOM      2  C1  UNL d   1      -0.910   1.583   2.104  0.00  0.00     0.039 A 
ATOM      3  C2  UNL d   1      -1.254   2.583   1.192  0.00  0.00    -0.080 A 
ATOM      4  C3  UNL d   1      -1.113   2.341  -0.172  0.00  0.00     0.150 A 
ATOM      5  C4  UNL d   1      -0.637   1.118  -0.634  0.00  0.00    -0.007 A 
ATOM      6  C5  UNL d   1      -0.293   0.122   0.279  0.00  0.00     0.039 A 
ENDROOT
BRANCH   4   7
ATOM      7  O   UNL d   1      -1.431   3.287  -1.100  0.00  0.00    -0.526 OA
ATOM      8  H5  UNL d   1      -1.719   4.090  -0.635  0.00  0.00     0.418 HD
ENDBRANCH   4   7
TORSDOF 1
ENDMDL
