MODEL 1
REMARK minimizedAffinity -4.8149066
REMARK minimizedRMSD -1
REMARK  1 active torsions:
REMARK  status: ('A' for Active; 'I' for Inactive)
REMARK    1  A    between atoms: C3_4  and  O_7 
ROOT
ATOM      1  C   UNL d   1       0.495   0.180  -0.265  0.00  0.00    -0.033 A 
ATOM      2  C1  UNL d   1      -0.120   1.251  -0.916  0.00  0.00     0.039 A 
ATOM      3  C2  UNL d   1      -1.063   2.031  -0.243  0.00  0.00    -0.080 A 
ATOM      4  C3  UNL d   1      -1.381   1.730   1.079  0.00  0.00     0.150 A 
ATOM      5  C4  UNL d   1      -0.769   0.667   1.735  0.00  0.00    -0.007 A 
ATOM      6  C5  UNL d   1       0.172  -0.111   1.061  0.00  0.00     0.039 A 
ENDROOT
BRANCH   4   7
ATOM      7  O   UNL d   1      -2.298   2.459   1.775  0.00  0.00    -0.526 OA
ATOM      8  H5  UNL d   1      -2.659   3.143   1.186  0.00  0.00     0.418 HD
ENDBRANCH   4   7
TORSDOF 1
ENDMDL
