MODEL 1
REMARK minimizedAffinity -3.52596307
REMARK minimizedRMSD -1
REMARK  1 active torsions:
REMARK  status: ('A' for Active; 'I' for Inactive)
REMARK    1  A    between atoms: C3_4  and  O_7 
ROOT
ATOM      1  C   UNL d   1       0.859   0.323  -1.277  0.00  0.00    -0.033 A 
ATOM      2  C1  UNL d   1       0.427   1.598  -1.648  0.00  0.00     0.039 A 
ATOM      3  C2  UNL d   1      -0.658   2.186  -0.995  0.00  0.00    -0.080 A 
ATOM      4  C3  UNL d   1      -1.300   1.490   0.026  0.00  0.00     0.150 A 
ATOM      5  C4  UNL d   1      -0.872   0.221   0.403  0.00  0.00    -0.007 A 
ATOM      6  C5  UNL d   1       0.211  -0.365  -0.251  0.00  0.00     0.039 A 
ENDROOT
BRANCH   4   7
ATOM      7  O   UNL d   1      -2.367   2.021   0.689  0.00  0.00    -0.526 OA
ATOM      8  H5  UNL d   1      -2.568   2.889   0.303  0.00  0.00     0.418 HD
ENDBRANCH   4   7
TORSDOF 1
ENDMDL
