MODEL 1
REMARK minimizedAffinity -4.79700565
REMARK minimizedRMSD -1
REMARK  1 active torsions:
REMARK  status: ('A' for Active; 'I' for Inactive)
REMARK    1  A    between atoms: C3_4  and  O_7 
ROOT
ATOM      1  C   UNL d   1       0.726  -0.745   0.810  0.00  0.00    -0.033 A 
ATOM      2  C1  UNL d   1       0.351  -0.370   2.102  0.00  0.00     0.039 A 
ATOM      3  C2  UNL d   1      -0.685   0.547   2.292  0.00  0.00    -0.080 A 
ATOM      4  C3  UNL d   1      -1.338   1.079   1.183  0.00  0.00     0.150 A 
ATOM      5  C4  UNL d   1      -0.972   0.706  -0.106  0.00  0.00    -0.007 A 
ATOM      6  C5  UNL d   1       0.063  -0.208  -0.294  0.00  0.00     0.039 A 
ENDROOT
BRANCH   4   7
ATOM      7  O   UNL d   1      -2.352   1.980   1.318  0.00  0.00    -0.526 OA
ATOM      8  H5  UNL d   1      -2.476   2.164   2.265  0.00  0.00     0.418 HD
ENDBRANCH   4   7
TORSDOF 1
ENDMDL
