MODEL 1
REMARK minimizedAffinity -4.36048746
REMARK minimizedRMSD -1
REMARK  1 active torsions:
REMARK  status: ('A' for Active; 'I' for Inactive)
REMARK    1  A    between atoms: C3_4  and  O_7 
ROOT
ATOM      1  C   UNL d   1       0.504   0.083   0.706  0.00  0.00    -0.033 A 
ATOM      2  C1  UNL d   1      -0.025  -0.011   1.995  0.00  0.00     0.039 A 
ATOM      3  C2  UNL d   1      -1.298   0.494   2.268  0.00  0.00    -0.080 A 
ATOM      4  C3  UNL d   1      -2.031   1.089   1.245  0.00  0.00     0.150 A 
ATOM      5  C4  UNL d   1      -1.512   1.183  -0.042  0.00  0.00    -0.007 A 
ATOM      6  C5  UNL d   1      -0.240   0.679  -0.313  0.00  0.00     0.039 A 
ENDROOT
BRANCH   4   7
ATOM      7  O   UNL d   1      -3.275   1.600   1.464  0.00  0.00    -0.526 OA
ATOM      8  H5  UNL d   1      -3.492   1.490   2.405  0.00  0.00     0.418 HD
ENDBRANCH   4   7
TORSDOF 1
ENDMDL
