MODEL 1
REMARK minimizedAffinity -3.21065736
REMARK minimizedRMSD -1
REMARK  1 active torsions:
REMARK  status: ('A' for Active; 'I' for Inactive)
REMARK    1  A    between atoms: C3_4  and  O_7 
ROOT
ATOM      1  C   UNL d   1      -1.787   1.924   1.832  0.00  0.00    -0.033 A 
ATOM      2  C1  UNL d   1      -2.217   1.674   0.527  0.00  0.00     0.039 A 
ATOM      3  C2  UNL d   1      -1.508   0.789  -0.286  0.00  0.00    -0.080 A 
ATOM      4  C3  UNL d   1      -0.372   0.159   0.217  0.00  0.00     0.150 A 
ATOM      5  C4  UNL d   1       0.060   0.400   1.517  0.00  0.00    -0.007 A 
ATOM      6  C5  UNL d   1      -0.650   1.286   2.327  0.00  0.00     0.039 A 
ENDROOT
BRANCH   4   7
ATOM      7  O   UNL d   1       0.356  -0.709  -0.541  0.00  0.00    -0.526 OA
ATOM      8  H5  UNL d   1      -0.044  -0.756  -1.426  0.00  0.00     0.418 HD
ENDBRANCH   4   7
TORSDOF 1
ENDMDL
