MODEL 1
REMARK minimizedAffinity -4.685781
REMARK minimizedRMSD -1
REMARK  1 active torsions:
REMARK  status: ('A' for Active; 'I' for Inactive)
REMARK    1  A    between atoms: C3_4  and  O_7 
ROOT
ATOM      1  C   UNL d   1       0.231  -0.239   1.048  0.00  0.00    -0.033 A 
ATOM      2  C1  UNL d   1      -0.599   0.137  -0.009  0.00  0.00     0.039 A 
ATOM      3  C2  UNL d   1      -1.551   1.142   0.172  0.00  0.00    -0.080 A 
ATOM      4  C3  UNL d   1      -1.661   1.763   1.413  0.00  0.00     0.150 A 
ATOM      5  C4  UNL d   1      -0.834   1.397   2.470  0.00  0.00    -0.007 A 
ATOM      6  C5  UNL d   1       0.115   0.392   2.287  0.00  0.00     0.039 A 
ENDROOT
BRANCH   4   7
ATOM      7  O   UNL d   1      -2.579   2.746   1.639  0.00  0.00    -0.526 OA
ATOM      8  H5  UNL d   1      -3.099   2.874   0.828  0.00  0.00     0.418 HD
ENDBRANCH   4   7
TORSDOF 1
ENDMDL
