MODEL 1
REMARK minimizedAffinity -4.40355396
REMARK minimizedRMSD -1
REMARK  1 active torsions:
REMARK  status: ('A' for Active; 'I' for Inactive)
REMARK    1  A    between atoms: C3_4  and  O_7 
ROOT
ATOM      1  C   UNL d   1      -1.405   1.134   2.208  0.00  0.00    -0.033 A 
ATOM      2  C1  UNL d   1      -0.812   0.100   1.480  0.00  0.00     0.039 A 
ATOM      3  C2  UNL d   1      -0.044   0.391   0.351  0.00  0.00    -0.080 A 
ATOM      4  C3  UNL d   1       0.124   1.717  -0.039  0.00  0.00     0.150 A 
ATOM      5  C4  UNL d   1      -0.460   2.751   0.684  0.00  0.00    -0.007 A 
ATOM      6  C5  UNL d   1      -1.228   2.460   1.811  0.00  0.00     0.039 A 
ENDROOT
BRANCH   4   7
ATOM      7  O   UNL d   1       0.861   2.049  -1.136  0.00  0.00    -0.526 OA
ATOM      8  H5  UNL d   1       1.179   1.230  -1.553  0.00  0.00     0.418 HD
ENDBRANCH   4   7
TORSDOF 1
ENDMDL
