MODEL 1
REMARK minimizedAffinity -3.64264059
REMARK minimizedRMSD -1
REMARK  1 active torsions:
REMARK  status: ('A' for Active; 'I' for Inactive)
REMARK    1  A    between atoms: C3_4  and  O_7 
ROOT
ATOM      1  C   UNL d   1       0.513  -0.579   0.449  0.00  0.00    -0.033 A 
ATOM      2  C1  UNL d   1      -0.043   0.089  -0.644  0.00  0.00     0.039 A 
ATOM      3  C2  UNL d   1      -1.057   1.029  -0.448  0.00  0.00    -0.080 A 
ATOM      4  C3  UNL d   1      -1.505   1.292   0.843  0.00  0.00     0.150 A 
ATOM      5  C4  UNL d   1      -0.953   0.633   1.937  0.00  0.00    -0.007 A 
ATOM      6  C5  UNL d   1       0.059  -0.306   1.740  0.00  0.00     0.039 A 
ENDROOT
BRANCH   4   7
ATOM      7  O   UNL d   1      -2.495   2.197   1.083  0.00  0.00    -0.526 OA
ATOM      8  H5  UNL d   1      -2.801   2.552   0.232  0.00  0.00     0.418 HD
ENDBRANCH   4   7
TORSDOF 1
ENDMDL
