MODEL 1
REMARK minimizedAffinity -4.5775609
REMARK minimizedRMSD -1
REMARK  1 active torsions:
REMARK  status: ('A' for Active; 'I' for Inactive)
REMARK    1  A    between atoms: C3_4  and  O_7 
ROOT
ATOM      1  C   UNL d   1      -2.637   1.273   1.424  0.00  0.00    -0.033 A 
ATOM      2  C1  UNL d   1      -2.371  -0.093   1.538  0.00  0.00     0.039 A 
ATOM      3  C2  UNL d   1      -1.171  -0.616   1.052  0.00  0.00    -0.080 A 
ATOM      4  C3  UNL d   1      -0.246   0.237   0.456  0.00  0.00     0.150 A 
ATOM      5  C4  UNL d   1      -0.503   1.600   0.342  0.00  0.00    -0.007 A 
ATOM      6  C5  UNL d   1      -1.702   2.119   0.827  0.00  0.00     0.039 A 
ENDROOT
BRANCH   4   7
ATOM      7  O   UNL d   1       0.937  -0.227  -0.037  0.00  0.00    -0.526 OA
ATOM      8  H5  UNL d   1       0.965  -1.191   0.085  0.00  0.00     0.418 HD
ENDBRANCH   4   7
TORSDOF 1
ENDMDL
