MODEL 1
REMARK minimizedAffinity -3.85248327
REMARK minimizedRMSD -1
REMARK  0 active torsions:
REMARK  status: ('A' for Active; 'I' for Inactive)
ROOT
ATOM      1  C   UNL d   1       0.296   0.878   0.046  0.00  0.00     0.172 C 
ATOM      2  N   UNL d   1      -0.023  -0.505   0.311  0.00  0.00    -0.070 N 
ATOM      3  C1  UNL d   1       0.797  -1.574   0.070  0.00  0.00    -0.004 A 
ATOM      4  C2  UNL d   1       0.129  -2.715   0.459  0.00  0.00    -0.047 A 
ATOM      5  C3  UNL d   1      -1.138  -2.318   0.949  0.00  0.00    -0.047 A 
ATOM      6  C4  UNL d   1      -1.205  -0.944   0.847  0.00  0.00    -0.004 A 
ENDROOT
TORSDOF 0
ENDMDL
