MODEL 1
REMARK minimizedAffinity -3.12240314
REMARK minimizedRMSD -1
REMARK  0 active torsions:
REMARK  status: ('A' for Active; 'I' for Inactive)
ROOT
ATOM      1  C   UNL d   1      -0.001   0.440  -0.010  0.00  0.00     0.172 C 
ATOM      2  N   UNL d   1      -0.506  -0.799   0.534  0.00  0.00    -0.070 N 
ATOM      3  C1  UNL d   1      -1.648  -0.938   1.278  0.00  0.00    -0.004 A 
ATOM      4  C2  UNL d   1      -1.780  -2.270   1.603  0.00  0.00    -0.047 A 
ATOM      5  C3  UNL d   1      -0.679  -2.956   1.036  0.00  0.00    -0.047 A 
ATOM      6  C4  UNL d   1       0.093  -2.021   0.380  0.00  0.00    -0.004 A 
ENDROOT
TORSDOF 0
ENDMDL
