MODEL 1
REMARK minimizedAffinity -3.25285006
REMARK minimizedRMSD -1
REMARK  0 active torsions:
REMARK  status: ('A' for Active; 'I' for Inactive)
ROOT
ATOM      1  C   UNL d   1      -3.677   1.062   0.799  0.00  0.00     0.172 C 
ATOM      2  N   UNL d   1      -2.368   0.455   0.759  0.00  0.00    -0.070 N 
ATOM      3  C1  UNL d   1      -1.335   0.838  -0.054  0.00  0.00    -0.004 A 
ATOM      4  C2  UNL d   1      -0.262   0.014   0.210  0.00  0.00    -0.047 A 
ATOM      5  C3  UNL d   1      -0.665  -0.897   1.216  0.00  0.00    -0.047 A 
ATOM      6  C4  UNL d   1      -1.973  -0.601   1.537  0.00  0.00    -0.004 A 
ENDROOT
TORSDOF 0
ENDMDL
