MODEL 1
REMARK minimizedAffinity -1.8291533
REMARK minimizedRMSD -1
REMARK  0 active torsions:
REMARK  status: ('A' for Active; 'I' for Inactive)
ROOT
ATOM      1  C   UNL d   1       0.401   0.104  -0.057  0.00  0.00     0.172 C 
ATOM      2  N   UNL d   1      -0.330  -1.065   0.372  0.00  0.00    -0.070 N 
ATOM      3  C1  UNL d   1      -0.182  -2.329  -0.133  0.00  0.00    -0.004 A 
ATOM      4  C2  UNL d   1      -1.056  -3.157   0.538  0.00  0.00    -0.047 A 
ATOM      5  C3  UNL d   1      -1.754  -2.363   1.478  0.00  0.00    -0.047 A 
ATOM      6  C4  UNL d   1      -1.285  -1.072   1.354  0.00  0.00    -0.004 A 
ENDROOT
TORSDOF 0
ENDMDL
