MODEL 1
REMARK minimizedAffinity -3.32978392
REMARK minimizedRMSD -1
REMARK  0 active torsions:
REMARK  status: ('A' for Active; 'I' for Inactive)
ROOT
ATOM      1  C   UNL d   1       0.646   0.410   0.043  0.00  0.00     0.172 C 
ATOM      2  N   UNL d   1      -0.023  -0.810   0.429  0.00  0.00    -0.070 N 
ATOM      3  C1  UNL d   1      -1.097  -0.898   1.275  0.00  0.00    -0.004 A 
ATOM      4  C2  UNL d   1      -1.438  -2.229   1.386  0.00  0.00    -0.047 A 
ATOM      5  C3  UNL d   1      -0.538  -2.966   0.580  0.00  0.00    -0.047 A 
ATOM      6  C4  UNL d   1       0.328  -2.062  -0.000  0.00  0.00    -0.004 A 
ENDROOT
TORSDOF 0
ENDMDL
