MODEL 1
REMARK minimizedAffinity -3.8343792
REMARK minimizedRMSD -1
REMARK  0 active torsions:
REMARK  status: ('A' for Active; 'I' for Inactive)
ROOT
ATOM      1  C   UNL d   1       0.226   0.453  -0.324  0.00  0.00     0.172 C 
ATOM      2  N   UNL d   1      -0.031  -0.901   0.108  0.00  0.00    -0.070 N 
ATOM      3  C1  UNL d   1       0.499  -2.032  -0.453  0.00  0.00    -0.004 A 
ATOM      4  C2  UNL d   1       0.011  -3.117   0.243  0.00  0.00    -0.047 A 
ATOM      5  C3  UNL d   1      -0.842  -2.620   1.257  0.00  0.00    -0.047 A 
ATOM      6  C4  UNL d   1      -0.850  -1.245   1.150  0.00  0.00    -0.004 A 
ENDROOT
TORSDOF 0
ENDMDL
