MODEL 1
REMARK minimizedAffinity -1.945822
REMARK minimizedRMSD -1
REMARK  0 active torsions:
REMARK  status: ('A' for Active; 'I' for Inactive)
ROOT
ATOM      1  C   UNL d   1       0.800   1.546  -0.322  0.00  0.00     0.172 C 
ATOM      2  N   UNL d   1       0.322   0.232   0.040  0.00  0.00    -0.070 N 
ATOM      3  C1  UNL d   1       0.665  -0.941  -0.578  0.00  0.00    -0.004 A 
ATOM      4  C2  UNL d   1       0.001  -1.965   0.062  0.00  0.00    -0.047 A 
ATOM      5  C3  UNL d   1      -0.769  -1.387   1.099  0.00  0.00    -0.047 A 
ATOM      6  C4  UNL d   1      -0.552  -0.026   1.063  0.00  0.00    -0.004 A 
ENDROOT
TORSDOF 0
ENDMDL
