MODEL 1
REMARK minimizedAffinity -3.240237
REMARK minimizedRMSD -1
REMARK  0 active torsions:
REMARK  status: ('A' for Active; 'I' for Inactive)
ROOT
ATOM      1  C   UNL d   1      -2.332  -2.448   0.783  0.00  0.00     0.172 C 
ATOM      2  N   UNL d   1      -0.932  -2.109   0.696  0.00  0.00    -0.070 N 
ATOM      3  C1  UNL d   1      -0.404  -1.078  -0.035  0.00  0.00    -0.004 A 
ATOM      4  C2  UNL d   1       0.962  -1.089   0.145  0.00  0.00    -0.047 A 
ATOM      5  C3  UNL d   1       1.267  -2.164   1.013  0.00  0.00    -0.047 A 
ATOM      6  C4  UNL d   1       0.076  -2.778   1.339  0.00  0.00    -0.004 A 
ENDROOT
TORSDOF 0
ENDMDL
