MODEL 1
REMARK minimizedAffinity -2.86755109
REMARK minimizedRMSD -1
REMARK  0 active torsions:
REMARK  status: ('A' for Active; 'I' for Inactive)
ROOT
ATOM      1  C   UNL d   1      -0.103   0.354   0.784  0.00  0.00     0.172 C 
ATOM      2  N   UNL d   1      -0.366  -1.031   1.094  0.00  0.00    -0.070 N 
ATOM      3  C1  UNL d   1      -1.091  -1.898   0.321  0.00  0.00    -0.004 A 
ATOM      4  C2  UNL d   1      -1.109  -3.119   0.960  0.00  0.00    -0.047 A 
ATOM      5  C3  UNL d   1      -0.370  -2.981   2.159  0.00  0.00    -0.047 A 
ATOM      6  C4  UNL d   1       0.078  -1.678   2.217  0.00  0.00    -0.004 A 
ENDROOT
TORSDOF 0
ENDMDL
