MODEL 1
REMARK minimizedAffinity -3.17025518
REMARK minimizedRMSD -1
REMARK  0 active torsions:
REMARK  status: ('A' for Active; 'I' for Inactive)
ROOT
ATOM      1  C   UNL d   1       1.969   3.942  -2.084  0.00  0.00     0.172 C 
ATOM      2  N   UNL d   1       1.758   3.345  -0.786  0.00  0.00    -0.070 N 
ATOM      3  C1  UNL d   1       2.657   3.345   0.247  0.00  0.00    -0.004 A 
ATOM      4  C2  UNL d   1       2.081   2.678   1.307  0.00  0.00    -0.047 A 
ATOM      5  C3  UNL d   1       0.792   2.262   0.895  0.00  0.00    -0.047 A 
ATOM      6  C4  UNL d   1       0.619   2.688  -0.405  0.00  0.00    -0.004 A 
ENDROOT
TORSDOF 0
ENDMDL
