MODEL 1
REMARK minimizedAffinity -3.80025697
REMARK minimizedRMSD -1
REMARK  0 active torsions:
REMARK  status: ('A' for Active; 'I' for Inactive)
ROOT
ATOM      1  C   UNL d   1       0.078   0.468  -0.341  0.00  0.00     0.172 C 
ATOM      2  N   UNL d   1      -0.075  -0.888   0.131  0.00  0.00    -0.070 N 
ATOM      3  C1  UNL d   1       0.697  -1.956  -0.241  0.00  0.00    -0.004 A 
ATOM      4  C2  UNL d   1       0.232  -3.067   0.429  0.00  0.00    -0.047 A 
ATOM      5  C3  UNL d   1      -0.858  -2.653   1.231  0.00  0.00    -0.047 A 
ATOM      6  C4  UNL d   1      -1.027  -1.300   1.028  0.00  0.00    -0.004 A 
ENDROOT
TORSDOF 0
ENDMDL
