MODEL 1
REMARK minimizedAffinity -3.425488
REMARK minimizedRMSD -1
REMARK  0 active torsions:
REMARK  status: ('A' for Active; 'I' for Inactive)
ROOT
ATOM      1  C   UNL d   1       0.553  -1.232  -1.950  0.00  0.00     0.172 C 
ATOM      2  N   UNL d   1      -0.019  -1.132  -0.628  0.00  0.00    -0.070 N 
ATOM      3  C1  UNL d   1       0.041  -0.034   0.187  0.00  0.00    -0.004 A 
ATOM      4  C2  UNL d   1      -0.621  -0.339   1.357  0.00  0.00    -0.047 A 
ATOM      5  C3  UNL d   1      -1.094  -1.668   1.241  0.00  0.00    -0.047 A 
ATOM      6  C4  UNL d   1      -0.708  -2.135   0.002  0.00  0.00    -0.004 A 
ENDROOT
TORSDOF 0
ENDMDL
