MODEL 1
REMARK minimizedAffinity -3.06552362
REMARK minimizedRMSD -1
REMARK  0 active torsions:
REMARK  status: ('A' for Active; 'I' for Inactive)
ROOT
ATOM      1  C   UNL d   1      -2.023  -2.686   0.775  0.00  0.00     0.172 C 
ATOM      2  N   UNL d   1      -0.984  -1.684   0.728  0.00  0.00    -0.070 N 
ATOM      3  C1  UNL d   1       0.341  -1.919   0.475  0.00  0.00    -0.004 A 
ATOM      4  C2  UNL d   1       1.000  -0.710   0.519  0.00  0.00    -0.047 A 
ATOM      5  C3  UNL d   1       0.038   0.287   0.810  0.00  0.00    -0.047 A 
ATOM      6  C4  UNL d   1      -1.182  -0.344   0.934  0.00  0.00    -0.004 A 
ENDROOT
TORSDOF 0
ENDMDL
