MODEL 1
REMARK minimizedAffinity -3.54926181
REMARK minimizedRMSD -1
REMARK  0 active torsions:
REMARK  status: ('A' for Active; 'I' for Inactive)
ROOT
ATOM      1  C   UNL d   1      -0.154   0.682  -0.114  0.00  0.00     0.172 C 
ATOM      2  N   UNL d   1      -0.165  -0.721   0.230  0.00  0.00    -0.070 N 
ATOM      3  C1  UNL d   1       0.391  -1.729  -0.511  0.00  0.00    -0.004 A 
ATOM      4  C2  UNL d   1       0.168  -2.915   0.155  0.00  0.00    -0.047 A 
ATOM      5  C3  UNL d   1      -0.547  -2.609   1.337  0.00  0.00    -0.047 A 
ATOM      6  C4  UNL d   1      -0.740  -1.243   1.359  0.00  0.00    -0.004 A 
ENDROOT
TORSDOF 0
ENDMDL
