MODEL 1
REMARK minimizedAffinity 1.74913847
REMARK minimizedRMSD -1
REMARK  0 active torsions:
REMARK  status: ('A' for Active; 'I' for Inactive)
ROOT
ATOM      1  C   UNL d   1       1.895   2.063  -2.322  0.00  0.00     0.172 C 
ATOM      2  N   UNL d   1       2.699   2.914  -1.476  0.00  0.00    -0.070 N 
ATOM      3  C1  UNL d   1       4.015   3.230  -1.683  0.00  0.00    -0.004 A 
ATOM      4  C2  UNL d   1       4.415   4.062  -0.659  0.00  0.00    -0.047 A 
ATOM      5  C3  UNL d   1       3.301   4.250   0.193  0.00  0.00    -0.047 A 
ATOM      6  C4  UNL d   1       2.252   3.529  -0.337  0.00  0.00    -0.004 A 
ENDROOT
TORSDOF 0
ENDMDL
