MODEL 1
REMARK minimizedAffinity 4.61166
REMARK minimizedRMSD -1
REMARK  0 active torsions:
REMARK  status: ('A' for Active; 'I' for Inactive)
ROOT
ATOM      1  C   UNL d   1       0.325   5.399   2.925  0.00  0.00     0.172 C 
ATOM      2  N   UNL d   1       1.084   4.658   1.945  0.00  0.00    -0.070 N 
ATOM      3  C1  UNL d   1       2.296   5.028   1.427  0.00  0.00    -0.004 A 
ATOM      4  C2  UNL d   1       2.685   4.059   0.528  0.00  0.00    -0.047 A 
ATOM      5  C3  UNL d   1       1.670   3.072   0.504  0.00  0.00    -0.047 A 
ATOM      6  C4  UNL d   1       0.691   3.468   1.390  0.00  0.00    -0.004 A 
ENDROOT
TORSDOF 0
ENDMDL
