MODEL 1
REMARK minimizedAffinity -2.89580965
REMARK minimizedRMSD -1
REMARK  0 active torsions:
REMARK  status: ('A' for Active; 'I' for Inactive)
ROOT
ATOM      1  C2' OXE d   1       0.087   1.297  -0.077  0.00  0.00     0.078 C 
ATOM      2  C1' OXE d   1       0.805  -0.733  -1.879  0.00  0.00     0.078 C 
ATOM      3  C1  OXE d   1       0.041  -1.129  -0.640  0.00  0.00    -0.078 A 
ATOM      4  C2  OXE d   1      -0.265  -0.136   0.259  0.00  0.00    -0.078 A 
ATOM      5  C3  OXE d   1      -1.017  -0.439   1.391  0.00  0.00     0.003 A 
ATOM      6  C4  OXE d   1      -1.330  -1.769   1.699  0.00  0.00    -0.002 A 
ATOM      7  C5  OXE d   1      -0.993  -2.800   0.816  0.00  0.00    -0.002 A 
ATOM      8  C6  OXE d   1      -0.346  -2.493  -0.376  0.00  0.00     0.003 A 
ENDROOT
TORSDOF 0
ENDMDL
