MODEL 1
REMARK minimizedAffinity -4.56448841
REMARK minimizedRMSD -1
REMARK  0 active torsions:
REMARK  status: ('A' for Active; 'I' for Inactive)
ROOT
ATOM      1  C2' OXE d   1      -0.662  -0.218   0.265  0.00  0.00     0.078 C 
ATOM      2  C1' OXE d   1      -2.401  -2.421   0.260  0.00  0.00     0.078 C 
ATOM      3  C1  OXE d   1      -1.056  -2.585  -0.402  0.00  0.00    -0.078 A 
ATOM      4  C2  OXE d   1      -0.230  -1.488  -0.436  0.00  0.00    -0.078 A 
ATOM      5  C3  OXE d   1       1.044  -1.601  -0.985  0.00  0.00     0.003 A 
ATOM      6  C4  OXE d   1       1.432  -2.777  -1.640  0.00  0.00    -0.002 A 
ATOM      7  C5  OXE d   1       0.590  -3.893  -1.651  0.00  0.00    -0.002 A 
ATOM      8  C6  OXE d   1      -0.638  -3.828  -1.001  0.00  0.00     0.003 A 
ENDROOT
TORSDOF 0
ENDMDL
