MODEL 1
REMARK minimizedAffinity -3.54803729
REMARK minimizedRMSD -1
REMARK  0 active torsions:
REMARK  status: ('A' for Active; 'I' for Inactive)
ROOT
ATOM      1  C2' OXE d   1       0.910  -1.414  -2.248  0.00  0.00     0.078 C 
ATOM      2  C1' OXE d   1       0.239  -2.800   0.100  0.00  0.00     0.078 C 
ATOM      3  C1  OXE d   1       0.042  -1.305   0.085  0.00  0.00    -0.078 A 
ATOM      4  C2  OXE d   1       0.417  -0.629  -1.052  0.00  0.00    -0.078 A 
ATOM      5  C3  OXE d   1       0.205   0.744  -1.138  0.00  0.00     0.003 A 
ATOM      6  C4  OXE d   1      -0.242   1.464  -0.024  0.00  0.00    -0.002 A 
ATOM      7  C5  OXE d   1      -0.592   0.801   1.156  0.00  0.00    -0.002 A 
ATOM      8  C6  OXE d   1      -0.497  -0.585   1.213  0.00  0.00     0.003 A 
ENDROOT
TORSDOF 0
ENDMDL
