MODEL 1
REMARK minimizedAffinity -5.5147171
REMARK minimizedRMSD -1
REMARK  0 active torsions:
REMARK  status: ('A' for Active; 'I' for Inactive)
ROOT
ATOM      1  C2' OXE d   1      -1.873   0.103   1.727  0.00  0.00     0.078 C 
ATOM      2  C1' OXE d   1      -0.657   1.335  -0.483  0.00  0.00     0.078 C 
ATOM      3  C1  OXE d   1      -0.536  -0.163  -0.358  0.00  0.00    -0.078 A 
ATOM      4  C2  OXE d   1      -1.094  -0.752   0.752  0.00  0.00    -0.078 A 
ATOM      5  C3  OXE d   1      -1.058  -2.137   0.889  0.00  0.00     0.003 A 
ATOM      6  C4  OXE d   1      -0.327  -2.920  -0.013  0.00  0.00    -0.002 A 
ATOM      7  C5  OXE d   1       0.283  -2.335  -1.128  0.00  0.00    -0.002 A 
ATOM      8  C6  OXE d   1       0.152  -0.967  -1.337  0.00  0.00     0.003 A 
ENDROOT
TORSDOF 0
ENDMDL
