MODEL 1
REMARK minimizedAffinity -4.28935003
REMARK minimizedRMSD -1
REMARK  0 active torsions:
REMARK  status: ('A' for Active; 'I' for Inactive)
ROOT
ATOM      1  C2' OXE d   1      -0.148   1.284  -0.844  0.00  0.00     0.078 C 
ATOM      2  C1' OXE d   1       0.833  -0.853  -2.378  0.00  0.00     0.078 C 
ATOM      3  C1  OXE d   1       0.272  -1.166  -1.013  0.00  0.00    -0.078 A 
ATOM      4  C2  OXE d   1      -0.164  -0.109  -0.251  0.00  0.00    -0.078 A 
ATOM      5  C3  OXE d   1      -0.741  -0.347   0.993  0.00  0.00     0.003 A 
ATOM      6  C4  OXE d   1      -0.742  -1.637   1.538  0.00  0.00    -0.002 A 
ATOM      7  C5  OXE d   1      -0.267  -2.723   0.794  0.00  0.00    -0.002 A 
ATOM      8  C6  OXE d   1       0.202  -2.511  -0.497  0.00  0.00     0.003 A 
ENDROOT
TORSDOF 0
ENDMDL
