MODEL 1
REMARK minimizedAffinity -0.270676434
REMARK minimizedRMSD -1
REMARK  0 active torsions:
REMARK  status: ('A' for Active; 'I' for Inactive)
ROOT
ATOM      1  C2' OXE d   1      -2.123  -0.054   1.010  0.00  0.00     0.078 C 
ATOM      2  C1' OXE d   1      -2.972  -2.725   0.842  0.00  0.00     0.078 C 
ATOM      3  C1  OXE d   1      -1.518  -2.431   0.572  0.00  0.00    -0.078 A 
ATOM      4  C2  OXE d   1      -1.121  -1.116   0.611  0.00  0.00    -0.078 A 
ATOM      5  C3  OXE d   1       0.221  -0.794   0.424  0.00  0.00     0.003 A 
ATOM      6  C4  OXE d   1       1.139  -1.781   0.045  0.00  0.00    -0.002 A 
ATOM      7  C5  OXE d   1       0.748  -3.121  -0.039  0.00  0.00    -0.002 A 
ATOM      8  C6  OXE d   1      -0.565  -3.468   0.263  0.00  0.00     0.003 A 
ENDROOT
TORSDOF 0
ENDMDL
