MODEL 1
REMARK minimizedAffinity 1.12972116
REMARK minimizedRMSD -1
REMARK  0 active torsions:
REMARK  status: ('A' for Active; 'I' for Inactive)
ROOT
ATOM      1  C2' OXE d   1      -2.010  -0.287   0.769  0.00  0.00     0.078 C 
ATOM      2  C1' OXE d   1      -2.876  -2.956   0.699  0.00  0.00     0.078 C 
ATOM      3  C1  OXE d   1      -1.436  -2.674   0.349  0.00  0.00    -0.078 A 
ATOM      4  C2  OXE d   1      -1.033  -1.361   0.340  0.00  0.00    -0.078 A 
ATOM      5  C3  OXE d   1       0.298  -1.050   0.078  0.00  0.00     0.003 A 
ATOM      6  C4  OXE d   1       1.192  -2.048  -0.327  0.00  0.00    -0.002 A 
ATOM      7  C5  OXE d   1       0.792  -3.388  -0.364  0.00  0.00    -0.002 A 
ATOM      8  C6  OXE d   1      -0.504  -3.722   0.012  0.00  0.00     0.003 A 
ENDROOT
TORSDOF 0
ENDMDL
