MODEL 1
REMARK minimizedAffinity -4.51550722
REMARK minimizedRMSD -1
REMARK  0 active torsions:
REMARK  status: ('A' for Active; 'I' for Inactive)
ROOT
ATOM      1  C2' OXE d   1       0.142   0.824  -0.381  0.00  0.00     0.078 C 
ATOM      2  C1' OXE d   1       0.955  -1.216  -2.129  0.00  0.00     0.078 C 
ATOM      3  C1  OXE d   1       0.385  -1.621  -0.793  0.00  0.00    -0.078 A 
ATOM      4  C2  OXE d   1       0.033  -0.615   0.075  0.00  0.00    -0.078 A 
ATOM      5  C3  OXE d   1      -0.550  -0.933   1.299  0.00  0.00     0.003 A 
ATOM      6  C4  OXE d   1      -0.638  -2.266   1.717  0.00  0.00    -0.002 A 
ATOM      7  C5  OXE d   1      -0.248  -3.305   0.865  0.00  0.00    -0.002 A 
ATOM      8  C6  OXE d   1       0.224  -3.001  -0.407  0.00  0.00     0.003 A 
ENDROOT
TORSDOF 0
ENDMDL
