MODEL 1
REMARK minimizedAffinity -2.34320807
REMARK minimizedRMSD -1
REMARK  0 active torsions:
REMARK  status: ('A' for Active; 'I' for Inactive)
ROOT
ATOM      1  C2' OXE d   1      -1.752  -0.313   1.429  0.00  0.00     0.078 C 
ATOM      2  C1' OXE d   1      -0.061   0.834  -0.495  0.00  0.00     0.078 C 
ATOM      3  C1  OXE d   1       0.116  -0.631  -0.187  0.00  0.00    -0.078 A 
ATOM      4  C2  OXE d   1      -0.684  -1.174   0.790  0.00  0.00    -0.078 A 
ATOM      5  C3  OXE d   1      -0.599  -2.533   1.074  0.00  0.00     0.003 A 
ATOM      6  C4  OXE d   1       0.398  -3.320   0.486  0.00  0.00    -0.002 A 
ATOM      7  C5  OXE d   1       1.251  -2.778  -0.483  0.00  0.00    -0.002 A 
ATOM      8  C6  OXE d   1       1.095  -1.449  -0.860  0.00  0.00     0.003 A 
ENDROOT
TORSDOF 0
ENDMDL
