MODEL 1
REMARK minimizedAffinity -1.29085219
REMARK minimizedRMSD -1
REMARK  0 active torsions:
REMARK  status: ('A' for Active; 'I' for Inactive)
ROOT
ATOM      1  C2' OXE d   1       0.426   1.393  -0.020  0.00  0.00     0.078 C 
ATOM      2  C1' OXE d   1       0.807  -0.045  -2.400  0.00  0.00     0.078 C 
ATOM      3  C1  OXE d   1       0.213  -0.778  -1.223  0.00  0.00    -0.078 A 
ATOM      4  C2  OXE d   1       0.074  -0.079  -0.048  0.00  0.00    -0.078 A 
ATOM      5  C3  OXE d   1      -0.519  -0.691   1.052  0.00  0.00     0.003 A 
ATOM      6  C4  OXE d   1      -0.833  -2.055   1.020  0.00  0.00    -0.002 A 
ATOM      7  C5  OXE d   1      -0.662  -2.796  -0.154  0.00  0.00    -0.002 A 
ATOM      8  C6  OXE d   1      -0.181  -2.163  -1.295  0.00  0.00     0.003 A 
ENDROOT
TORSDOF 0
ENDMDL
