MODEL 1
REMARK minimizedAffinity -3.81809497
REMARK minimizedRMSD -1
REMARK  0 active torsions:
REMARK  status: ('A' for Active; 'I' for Inactive)
ROOT
ATOM      1  C2' OXE d   1       0.797   1.574   0.213  0.00  0.00     0.078 C 
ATOM      2  C1' OXE d   1       0.218   0.129  -2.123  0.00  0.00     0.078 C 
ATOM      3  C1  OXE d   1      -0.116  -0.511  -0.799  0.00  0.00    -0.078 A 
ATOM      4  C2  OXE d   1       0.213   0.183   0.340  0.00  0.00    -0.078 A 
ATOM      5  C3  OXE d   1      -0.123  -0.338   1.586  0.00  0.00     0.003 A 
ATOM      6  C4  OXE d   1      -0.653  -1.629   1.696  0.00  0.00    -0.002 A 
ATOM      7  C5  OXE d   1      -0.960  -2.370   0.549  0.00  0.00    -0.002 A 
ATOM      8  C6  OXE d   1      -0.737  -1.809  -0.704  0.00  0.00     0.003 A 
ENDROOT
TORSDOF 0
ENDMDL
