MODEL 1
REMARK minimizedAffinity -5.55656052
REMARK minimizedRMSD -1
REMARK  0 active torsions:
REMARK  status: ('A' for Active; 'I' for Inactive)
ROOT
ATOM      1  C2' OXE d   1       0.052   0.649  -1.019  0.00  0.00     0.078 C 
ATOM      2  C1' OXE d   1      -1.815   0.365   1.059  0.00  0.00     0.078 C 
ATOM      3  C1  OXE d   1      -0.842  -0.764   0.828  0.00  0.00    -0.078 A 
ATOM      4  C2  OXE d   1       0.037  -0.637  -0.220  0.00  0.00    -0.078 A 
ATOM      5  C3  OXE d   1       0.993  -1.625  -0.443  0.00  0.00     0.003 A 
ATOM      6  C4  OXE d   1       0.966  -2.815   0.294  0.00  0.00    -0.002 A 
ATOM      7  C5  OXE d   1       0.053  -2.982   1.340  0.00  0.00    -0.002 A 
ATOM      8  C6  OXE d   1      -0.828  -1.951   1.647  0.00  0.00     0.003 A 
ENDROOT
TORSDOF 0
ENDMDL
