MODEL 1
REMARK minimizedAffinity -5.32768393
REMARK minimizedRMSD -1
REMARK  0 active torsions:
REMARK  status: ('A' for Active; 'I' for Inactive)
ROOT
ATOM      1  C2' OXE d   1       0.241  -3.323  -0.028  0.00  0.00     0.078 C 
ATOM      2  C1' OXE d   1       0.871  -1.563  -2.122  0.00  0.00     0.078 C 
ATOM      3  C1  OXE d   1       0.361  -0.968  -0.833  0.00  0.00    -0.078 A 
ATOM      4  C2  OXE d   1       0.011  -1.840   0.170  0.00  0.00    -0.078 A 
ATOM      5  C3  OXE d   1      -0.414  -1.342   1.399  0.00  0.00     0.003 A 
ATOM      6  C4  OXE d   1      -0.634   0.030   1.570  0.00  0.00    -0.002 A 
ATOM      7  C5  OXE d   1      -0.321   0.932   0.547  0.00  0.00    -0.002 A 
ATOM      8  C6  OXE d   1       0.216   0.454  -0.643  0.00  0.00     0.003 A 
ENDROOT
TORSDOF 0
ENDMDL
