MODEL 1
REMARK minimizedAffinity -3.86498857
REMARK minimizedRMSD -1
REMARK  0 active torsions:
REMARK  status: ('A' for Active; 'I' for Inactive)
ROOT
ATOM      1  C2' OXE d   1       0.072  -4.440  -1.137  0.00  0.00     0.078 C 
ATOM      2  C1' OXE d   1       0.376  -2.195  -2.795  0.00  0.00     0.078 C 
ATOM      3  C1  OXE d   1       0.212  -1.959  -1.314  0.00  0.00    -0.078 A 
ATOM      4  C2  OXE d   1       0.017  -3.061  -0.517  0.00  0.00    -0.078 A 
ATOM      5  C3  OXE d   1      -0.086  -2.904   0.863  0.00  0.00     0.003 A 
ATOM      6  C4  OXE d   1      -0.146  -1.624   1.428  0.00  0.00    -0.002 A 
ATOM      7  C5  OXE d   1       0.011  -0.487   0.628  0.00  0.00    -0.002 A 
ATOM      8  C6  OXE d   1       0.233  -0.638  -0.736  0.00  0.00     0.003 A 
ENDROOT
TORSDOF 0
ENDMDL
