MODEL 1
REMARK minimizedAffinity -6.03594542
REMARK minimizedRMSD -1
REMARK  0 active torsions:
REMARK  status: ('A' for Active; 'I' for Inactive)
ROOT
ATOM      1  C2' OXE d   1      -0.760  -0.449   2.113  0.00  0.00     0.078 C 
ATOM      2  C1' OXE d   1      -0.340   0.638  -0.441  0.00  0.00     0.078 C 
ATOM      3  C1  OXE d   1      -0.171  -0.852  -0.274  0.00  0.00    -0.078 A 
ATOM      4  C2  OXE d   1      -0.333  -1.368   0.990  0.00  0.00    -0.078 A 
ATOM      5  C3  OXE d   1      -0.242  -2.743   1.189  0.00  0.00     0.003 A 
ATOM      6  C4  OXE d   1       0.164  -3.585   0.147  0.00  0.00    -0.002 A 
ATOM      7  C5  OXE d   1       0.372  -3.074  -1.139  0.00  0.00    -0.002 A 
ATOM      8  C6  OXE d   1       0.168  -1.719  -1.375  0.00  0.00     0.003 A 
ENDROOT
TORSDOF 0
ENDMDL
