MODEL 1
REMARK minimizedAffinity -5.8027029
REMARK minimizedRMSD -1
REMARK  0 active torsions:
REMARK  status: ('A' for Active; 'I' for Inactive)
ROOT
ATOM      1  C2' OXE d   1       0.054   1.034  -0.141  0.00  0.00     0.078 C 
ATOM      2  C1' OXE d   1      -1.844  -0.107   1.584  0.00  0.00     0.078 C 
ATOM      3  C1  OXE d   1      -1.037  -1.037   0.712  0.00  0.00    -0.078 A 
ATOM      4  C2  OXE d   1      -0.144  -0.467  -0.163  0.00  0.00    -0.078 A 
ATOM      5  C3  OXE d   1       0.665  -1.281  -0.951  0.00  0.00     0.003 A 
ATOM      6  C4  OXE d   1       0.468  -2.667  -0.972  0.00  0.00    -0.002 A 
ATOM      7  C5  OXE d   1      -0.464  -3.265  -0.118  0.00  0.00    -0.002 A 
ATOM      8  C6  OXE d   1      -1.193  -2.470   0.759  0.00  0.00     0.003 A 
ENDROOT
TORSDOF 0
ENDMDL
