MODEL 1
REMARK minimizedAffinity -4.63242865
REMARK minimizedRMSD -1
REMARK  0 active torsions:
REMARK  status: ('A' for Active; 'I' for Inactive)
ROOT
ATOM      1  C2' OXE d   1      -1.133   0.144   0.706  0.00  0.00     0.078 C 
ATOM      2  C1' OXE d   1      -1.742  -2.595   0.776  0.00  0.00     0.078 C 
ATOM      3  C1  OXE d   1      -0.998  -2.070  -0.426  0.00  0.00    -0.078 A 
ATOM      4  C2  OXE d   1      -0.745  -0.720  -0.474  0.00  0.00    -0.078 A 
ATOM      5  C3  OXE d   1      -0.014  -0.193  -1.534  0.00  0.00     0.003 A 
ATOM      6  C4  OXE d   1       0.333  -0.998  -2.626  0.00  0.00    -0.002 A 
ATOM      7  C5  OXE d   1       0.050  -2.368  -2.616  0.00  0.00    -0.002 A 
ATOM      8  C6  OXE d   1      -0.575  -2.927  -1.507  0.00  0.00     0.003 A 
ENDROOT
TORSDOF 0
ENDMDL
