MODEL 1
REMARK minimizedAffinity -4.96644878
REMARK minimizedRMSD -1
REMARK  0 active torsions:
REMARK  status: ('A' for Active; 'I' for Inactive)
ROOT
ATOM      1  C2' OXE d   1      -1.910   0.287   1.508  0.00  0.00     0.078 C 
ATOM      2  C1' OXE d   1       0.025   1.318  -0.244  0.00  0.00     0.078 C 
ATOM      3  C1  OXE d   1      -0.094  -0.181  -0.131  0.00  0.00    -0.078 A 
ATOM      4  C2  OXE d   1      -1.012  -0.677   0.764  0.00  0.00    -0.078 A 
ATOM      5  C3  OXE d   1      -1.201  -2.052   0.867  0.00  0.00     0.003 A 
ATOM      6  C4  OXE d   1      -0.359  -2.937   0.182  0.00  0.00    -0.002 A 
ATOM      7  C5  OXE d   1       0.609  -2.453  -0.704  0.00  0.00    -0.002 A 
ATOM      8  C6  OXE d   1       0.725  -1.082  -0.904  0.00  0.00     0.003 A 
ENDROOT
TORSDOF 0
ENDMDL
