MODEL 1
REMARK minimizedAffinity -4.27362919
REMARK minimizedRMSD -1
REMARK  0 active torsions:
REMARK  status: ('A' for Active; 'I' for Inactive)
ROOT
ATOM      1  C2' OXE d   1       0.159   0.062  -2.782  0.00  0.00     0.078 C 
ATOM      2  C1' OXE d   1      -0.312  -2.675  -2.370  0.00  0.00     0.078 C 
ATOM      3  C1  OXE d   1      -0.545  -1.739  -1.210  0.00  0.00    -0.078 A 
ATOM      4  C2  OXE d   1      -0.267  -0.408  -1.407  0.00  0.00    -0.078 A 
ATOM      5  C3  OXE d   1      -0.516   0.507  -0.388  0.00  0.00     0.003 A 
ATOM      6  C4  OXE d   1      -0.900   0.063   0.884  0.00  0.00    -0.002 A 
ATOM      7  C5  OXE d   1      -1.150  -1.293   1.117  0.00  0.00    -0.002 A 
ATOM      8  C6  OXE d   1      -1.018  -2.200   0.071  0.00  0.00     0.003 A 
ENDROOT
TORSDOF 0
ENDMDL
