MODEL 1
REMARK minimizedAffinity 6.96044874
REMARK minimizedRMSD -1
REMARK  0 active torsions:
REMARK  status: ('A' for Active; 'I' for Inactive)
ROOT
ATOM      1  C2' OXE d   1       1.090  -0.708   3.048  0.00  0.00     0.078 C 
ATOM      2  C1' OXE d   1      -0.922  -1.525   1.269  0.00  0.00     0.078 C 
ATOM      3  C1  OXE d   1       0.502  -1.896   0.939  0.00  0.00    -0.078 A 
ATOM      4  C2  OXE d   1       1.484  -1.452   1.791  0.00  0.00    -0.078 A 
ATOM      5  C3  OXE d   1       2.809  -1.814   1.562  0.00  0.00     0.003 A 
ATOM      6  C4  OXE d   1       3.167  -2.494   0.392  0.00  0.00    -0.002 A 
ATOM      7  C5  OXE d   1       2.185  -2.920  -0.509  0.00  0.00    -0.002 A 
ATOM      8  C6  OXE d   1       0.847  -2.667  -0.229  0.00  0.00     0.003 A 
ENDROOT
TORSDOF 0
ENDMDL
