MODEL 1
REMARK minimizedAffinity 5.7303009
REMARK minimizedRMSD -1
REMARK  0 active torsions:
REMARK  status: ('A' for Active; 'I' for Inactive)
ROOT
ATOM      1  C2' OXE d   1       5.255  -2.089   4.441  0.00  0.00     0.078 C 
ATOM      2  C1' OXE d   1       4.978  -2.969   1.789  0.00  0.00     0.078 C 
ATOM      3  C1  OXE d   1       3.856  -2.152   2.380  0.00  0.00    -0.078 A 
ATOM      4  C2  OXE d   1       3.979  -1.765   3.693  0.00  0.00    -0.078 A 
ATOM      5  C3  OXE d   1       2.999  -0.964   4.270  0.00  0.00     0.003 A 
ATOM      6  C4  OXE d   1       1.817  -0.677   3.575  0.00  0.00    -0.002 A 
ATOM      7  C5  OXE d   1       1.654  -1.095   2.250  0.00  0.00    -0.002 A 
ATOM      8  C6  OXE d   1       2.680  -1.795   1.625  0.00  0.00     0.003 A 
ENDROOT
TORSDOF 0
ENDMDL
