MODEL 1
REMARK minimizedAffinity 7.34169006
REMARK minimizedRMSD -1
REMARK  0 active torsions:
REMARK  status: ('A' for Active; 'I' for Inactive)
ROOT
ATOM      1  C2' OXE d   1      -2.863  -0.826  -1.506  0.00  0.00     0.078 C 
ATOM      2  C1' OXE d   1      -4.301   1.471  -0.773  0.00  0.00     0.078 C 
ATOM      3  C1  OXE d   1      -3.386   1.565  -1.969  0.00  0.00    -0.078 A 
ATOM      4  C2  OXE d   1      -2.651   0.449  -2.292  0.00  0.00    -0.078 A 
ATOM      5  C3  OXE d   1      -1.834   0.465  -3.418  0.00  0.00     0.003 A 
ATOM      6  C4  OXE d   1      -1.636   1.652  -4.134  0.00  0.00    -0.002 A 
ATOM      7  C5  OXE d   1      -2.345   2.810  -3.798  0.00  0.00    -0.002 A 
ATOM      8  C6  OXE d   1      -3.254   2.772  -2.747  0.00  0.00     0.003 A 
ENDROOT
TORSDOF 0
ENDMDL
