MODEL 1
REMARK minimizedAffinity 15.0003185
REMARK minimizedRMSD -1
REMARK  0 active torsions:
REMARK  status: ('A' for Active; 'I' for Inactive)
ROOT
ATOM      1  C2' OXE d   1       4.778  -2.553   0.765  0.00  0.00     0.078 C 
ATOM      2  C1' OXE d   1       2.843  -4.587   0.751  0.00  0.00     0.078 C 
ATOM      3  C1  OXE d   1       2.364  -3.160   0.664  0.00  0.00    -0.078 A 
ATOM      4  C2  OXE d   1       3.314  -2.169   0.718  0.00  0.00    -0.078 A 
ATOM      5  C3  OXE d   1       2.931  -0.838   0.587  0.00  0.00     0.003 A 
ATOM      6  C4  OXE d   1       1.575  -0.491   0.554  0.00  0.00    -0.002 A 
ATOM      7  C5  OXE d   1       0.588  -1.483   0.538  0.00  0.00    -0.002 A 
ATOM      8  C6  OXE d   1       0.967  -2.821   0.549  0.00  0.00     0.003 A 
ENDROOT
TORSDOF 0
ENDMDL
