MODEL 1
REMARK minimizedAffinity 7.53828526
REMARK minimizedRMSD -1
REMARK  0 active torsions:
REMARK  status: ('A' for Active; 'I' for Inactive)
ROOT
ATOM      1  C2' OXE d   1       0.379  -1.172   2.238  0.00  0.00     0.078 C 
ATOM      2  C1' OXE d   1      -1.155  -3.494   1.871  0.00  0.00     0.078 C 
ATOM      3  C1  OXE d   1       0.227  -3.462   1.269  0.00  0.00    -0.078 A 
ATOM      4  C2  OXE d   1       0.953  -2.304   1.414  0.00  0.00    -0.078 A 
ATOM      5  C3  OXE d   1       2.255  -2.242   0.925  0.00  0.00     0.003 A 
ATOM      6  C4  OXE d   1       2.775  -3.289   0.155  0.00  0.00    -0.002 A 
ATOM      7  C5  OXE d   1       2.037  -4.462  -0.038  0.00  0.00    -0.002 A 
ATOM      8  C6  OXE d   1       0.781  -4.581   0.547  0.00  0.00     0.003 A 
ENDROOT
TORSDOF 0
ENDMDL
