MODEL 1
REMARK minimizedAffinity 12.8523197
REMARK minimizedRMSD -1
REMARK  0 active torsions:
REMARK  status: ('A' for Active; 'I' for Inactive)
ROOT
ATOM      1  C2' OXE d   1      -1.549   0.020   3.439  0.00  0.00     0.078 C 
ATOM      2  C1' OXE d   1      -3.081  -0.694   1.197  0.00  0.00     0.078 C 
ATOM      3  C1  OXE d   1      -3.635   0.362   2.121  0.00  0.00    -0.078 A 
ATOM      4  C2  OXE d   1      -2.901   0.671   3.240  0.00  0.00    -0.078 A 
ATOM      5  C3  OXE d   1      -3.340   1.677   4.096  0.00  0.00     0.003 A 
ATOM      6  C4  OXE d   1      -4.596   2.268   3.911  0.00  0.00    -0.002 A 
ATOM      7  C5  OXE d   1      -5.378   1.938   2.798  0.00  0.00    -0.002 A 
ATOM      8  C6  OXE d   1      -4.894   1.020   1.873  0.00  0.00     0.003 A 
ENDROOT
TORSDOF 0
ENDMDL
