MODEL 1
REMARK minimizedAffinity 16.1333847
REMARK minimizedRMSD -1
REMARK  0 active torsions:
REMARK  status: ('A' for Active; 'I' for Inactive)
ROOT
ATOM      1  C2' OXE d   1       1.242  -3.847  -0.376  0.00  0.00     0.078 C 
ATOM      2  C1' OXE d   1       2.137  -1.504   0.884  0.00  0.00     0.078 C 
ATOM      3  C1  OXE d   1       0.699  -1.909   1.091  0.00  0.00    -0.078 A 
ATOM      4  C2  OXE d   1       0.257  -3.031   0.433  0.00  0.00    -0.078 A 
ATOM      5  C3  OXE d   1      -1.045  -3.480   0.632  0.00  0.00     0.003 A 
ATOM      6  C4  OXE d   1      -1.953  -2.714   1.374  0.00  0.00    -0.002 A 
ATOM      7  C5  OXE d   1      -1.534  -1.546   2.020  0.00  0.00    -0.002 A 
ATOM      8  C6  OXE d   1      -0.203  -1.154   1.924  0.00  0.00     0.003 A 
ENDROOT
TORSDOF 0
ENDMDL
