MODEL 1
REMARK minimizedAffinity 11.6323919
REMARK minimizedRMSD -1
REMARK  0 active torsions:
REMARK  status: ('A' for Active; 'I' for Inactive)
ROOT
ATOM      1  C2' OXE d   1      -3.789   1.787  -1.700  0.00  0.00     0.078 C 
ATOM      2  C1' OXE d   1      -4.006   3.229  -4.099  0.00  0.00     0.078 C 
ATOM      3  C1  OXE d   1      -2.661   2.642  -3.750  0.00  0.00    -0.078 A 
ATOM      4  C2  OXE d   1      -2.553   1.978  -2.552  0.00  0.00    -0.078 A 
ATOM      5  C3  OXE d   1      -1.349   1.370  -2.207  0.00  0.00     0.003 A 
ATOM      6  C4  OXE d   1      -0.208   1.559  -2.996  0.00  0.00    -0.002 A 
ATOM      7  C5  OXE d   1      -0.286   2.266  -4.201  0.00  0.00    -0.002 A 
ATOM      8  C6  OXE d   1      -1.513   2.776  -4.612  0.00  0.00     0.003 A 
ENDROOT
TORSDOF 0
ENDMDL
