MODEL 1
REMARK minimizedAffinity 10.2304754
REMARK minimizedRMSD -1
REMARK  0 active torsions:
REMARK  status: ('A' for Active; 'I' for Inactive)
ROOT
ATOM      1  C2' OXE d   1      -2.147   0.359   3.129  0.00  0.00     0.078 C 
ATOM      2  C1' OXE d   1      -4.086   0.392   1.099  0.00  0.00     0.078 C 
ATOM      3  C1  OXE d   1      -4.440   1.027   2.421  0.00  0.00    -0.078 A 
ATOM      4  C2  OXE d   1      -3.502   0.965   3.423  0.00  0.00    -0.078 A 
ATOM      5  C3  OXE d   1      -3.757   1.583   4.644  0.00  0.00     0.003 A 
ATOM      6  C4  OXE d   1      -5.017   2.133   4.911  0.00  0.00    -0.002 A 
ATOM      7  C5  OXE d   1      -6.000   2.171   3.917  0.00  0.00    -0.002 A 
ATOM      8  C6  OXE d   1      -5.713   1.662   2.655  0.00  0.00     0.003 A 
ENDROOT
TORSDOF 0
ENDMDL
