MODEL 1
REMARK minimizedAffinity -2.96980214
REMARK minimizedRMSD -1
REMARK  0 active torsions:
REMARK  status: ('A' for Active; 'I' for Inactive)
ROOT
ATOM      1  C   UNL d   1      -2.911  -3.847  -4.871  0.00  0.00     0.172 C 
ATOM      2  N   UNL d   1      -3.968  -2.865  -4.821  0.00  0.00    -0.070 N 
ATOM      3  C1  UNL d   1      -3.794  -1.509  -4.741  0.00  0.00    -0.004 A 
ATOM      4  C2  UNL d   1      -5.042  -0.924  -4.717  0.00  0.00    -0.047 A 
ATOM      5  C3  UNL d   1      -5.998  -1.965  -4.784  0.00  0.00    -0.047 A 
ATOM      6  C4  UNL d   1      -5.306  -3.156  -4.847  0.00  0.00    -0.004 A 
ENDROOT
TORSDOF 0
ENDMDL
