MODEL 1
REMARK minimizedAffinity -2.49202895
REMARK minimizedRMSD -1
REMARK  0 active torsions:
REMARK  status: ('A' for Active; 'I' for Inactive)
ROOT
ATOM      1  C   UNL d   1      -4.875  -3.748  -4.873  0.00  0.00     0.172 C 
ATOM      2  N   UNL d   1      -3.511  -4.220  -4.875  0.00  0.00    -0.070 N 
ATOM      3  C1  UNL d   1      -2.774  -4.538  -3.765  0.00  0.00    -0.004 A 
ATOM      4  C2  UNL d   1      -1.528  -4.945  -4.188  0.00  0.00    -0.047 A 
ATOM      5  C3  UNL d   1      -1.514  -4.869  -5.601  0.00  0.00    -0.047 A 
ATOM      6  C4  UNL d   1      -2.754  -4.417  -6.000  0.00  0.00    -0.004 A 
ENDROOT
TORSDOF 0
ENDMDL
