MODEL 1
REMARK minimizedAffinity -2.65292001
REMARK minimizedRMSD -1
REMARK  0 active torsions:
REMARK  status: ('A' for Active; 'I' for Inactive)
ROOT
ATOM      1  C   UNL d   1      -1.179  -5.028  -5.991  0.00  0.00     0.172 C 
ATOM      2  N   UNL d   1      -2.420  -4.429  -5.560  0.00  0.00    -0.070 N 
ATOM      3  C1  UNL d   1      -2.925  -3.234  -6.000  0.00  0.00    -0.004 A 
ATOM      4  C2  UNL d   1      -4.122  -3.017  -5.352  0.00  0.00    -0.047 A 
ATOM      5  C3  UNL d   1      -4.344  -4.119  -4.492  0.00  0.00    -0.047 A 
ATOM      6  C4  UNL d   1      -3.275  -4.978  -4.641  0.00  0.00    -0.004 A 
ENDROOT
TORSDOF 0
ENDMDL
