MODEL 1
REMARK minimizedAffinity -1.91768217
REMARK minimizedRMSD -1
REMARK  0 active torsions:
REMARK  status: ('A' for Active; 'I' for Inactive)
ROOT
ATOM      1  C   UNL d   1       0.015   0.518   0.597  0.00  0.00     0.172 C 
ATOM      2  N   UNL d   1      -1.107  -0.388   0.675  0.00  0.00    -0.070 N 
ATOM      3  C1  UNL d   1      -1.362  -1.257   1.702  0.00  0.00    -0.004 A 
ATOM      4  C2  UNL d   1      -2.520  -1.940   1.399  0.00  0.00    -0.047 A 
ATOM      5  C3  UNL d   1      -2.977  -1.466   0.147  0.00  0.00    -0.047 A 
ATOM      6  C4  UNL d   1      -2.084  -0.505  -0.279  0.00  0.00    -0.004 A 
ENDROOT
TORSDOF 0
ENDMDL
