MODEL 1
REMARK minimizedAffinity -2.66125822
REMARK minimizedRMSD -1
REMARK  0 active torsions:
REMARK  status: ('A' for Active; 'I' for Inactive)
ROOT
ATOM      1  C   UNL d   1      -5.999  -2.072  -5.859  0.00  0.00     0.172 C 
ATOM      2  N   UNL d   1      -5.383  -3.143  -5.111  0.00  0.00    -0.070 N 
ATOM      3  C1  UNL d   1      -5.614  -3.431  -3.793  0.00  0.00    -0.004 A 
ATOM      4  C2  UNL d   1      -4.838  -4.519  -3.457  0.00  0.00    -0.047 A 
ATOM      5  C3  UNL d   1      -4.115  -4.897  -4.613  0.00  0.00    -0.047 A 
ATOM      6  C4  UNL d   1      -4.471  -4.028  -5.623  0.00  0.00    -0.004 A 
ENDROOT
TORSDOF 0
ENDMDL
