MODEL 1
REMARK minimizedAffinity -1.29904616
REMARK minimizedRMSD -1
REMARK  0 active torsions:
REMARK  status: ('A' for Active; 'I' for Inactive)
ROOT
ATOM      1  C   UNL d   1      -3.329  -0.466   3.163  0.00  0.00     0.172 C 
ATOM      2  N   UNL d   1      -2.339  -1.050   2.289  0.00  0.00    -0.070 N 
ATOM      3  C1  UNL d   1      -2.580  -1.569   1.045  0.00  0.00    -0.004 A 
ATOM      4  C2  UNL d   1      -1.382  -2.025   0.539  0.00  0.00    -0.047 A 
ATOM      5  C3  UNL d   1      -0.387  -1.772   1.513  0.00  0.00    -0.047 A 
ATOM      6  C4  UNL d   1      -1.007  -1.167   2.586  0.00  0.00    -0.004 A 
ENDROOT
TORSDOF 0
ENDMDL
