MODEL 1
REMARK minimizedAffinity -2.72006726
REMARK minimizedRMSD -1
REMARK  0 active torsions:
REMARK  status: ('A' for Active; 'I' for Inactive)
ROOT
ATOM      1  C   UNL d   1      -2.326  -4.539  -5.275  0.00  0.00     0.172 C 
ATOM      2  N   UNL d   1      -3.674  -4.029  -5.362  0.00  0.00    -0.070 N 
ATOM      3  C1  UNL d   1      -4.816  -4.784  -5.340  0.00  0.00    -0.004 A 
ATOM      4  C2  UNL d   1      -5.890  -3.927  -5.446  0.00  0.00    -0.047 A 
ATOM      5  C3  UNL d   1      -5.376  -2.611  -5.536  0.00  0.00    -0.047 A 
ATOM      6  C4  UNL d   1      -4.001  -2.704  -5.482  0.00  0.00    -0.004 A 
ENDROOT
TORSDOF 0
ENDMDL
