MODEL 1
REMARK minimizedAffinity -1.92295659
REMARK minimizedRMSD -1
REMARK  0 active torsions:
REMARK  status: ('A' for Active; 'I' for Inactive)
ROOT
ATOM      1  C   UNL d   1      -5.631  -3.050  -4.505  0.00  0.00     0.172 C 
ATOM      2  N   UNL d   1      -4.783  -4.127  -4.959  0.00  0.00    -0.070 N 
ATOM      3  C1  UNL d   1      -5.155  -5.128  -5.817  0.00  0.00    -0.004 A 
ATOM      4  C2  UNL d   1      -4.066  -5.953  -6.000  0.00  0.00    -0.047 A 
ATOM      5  C3  UNL d   1      -3.004  -5.431  -5.224  0.00  0.00    -0.047 A 
ATOM      6  C4  UNL d   1      -3.475  -4.300  -4.590  0.00  0.00    -0.004 A 
ENDROOT
TORSDOF 0
ENDMDL
