MODEL 1
REMARK minimizedAffinity 0.769578457
REMARK minimizedRMSD -1
REMARK  0 active torsions:
REMARK  status: ('A' for Active; 'I' for Inactive)
ROOT
ATOM      1  C   UNL d   1      -0.777  -6.000  -5.911  0.00  0.00     0.172 C 
ATOM      2  N   UNL d   1      -2.040  -5.470  -5.453  0.00  0.00    -0.070 N 
ATOM      3  C1  UNL d   1      -2.702  -4.402  -5.997  0.00  0.00    -0.004 A 
ATOM      4  C2  UNL d   1      -3.863  -4.215  -5.279  0.00  0.00    -0.047 A 
ATOM      5  C3  UNL d   1      -3.900  -5.204  -4.268  0.00  0.00    -0.047 A 
ATOM      6  C4  UNL d   1      -2.759  -5.967  -4.398  0.00  0.00    -0.004 A 
ENDROOT
TORSDOF 0
ENDMDL
