MODEL 1
REMARK minimizedAffinity -1.11346614
REMARK minimizedRMSD -1
REMARK  0 active torsions:
REMARK  status: ('A' for Active; 'I' for Inactive)
ROOT
ATOM      1  C   UNL d   1      -3.002  -4.993  -3.864  0.00  0.00     0.172 C 
ATOM      2  N   UNL d   1      -4.221  -4.526  -4.481  0.00  0.00    -0.070 N 
ATOM      3  C1  UNL d   1      -4.888  -5.148  -5.503  0.00  0.00    -0.004 A 
ATOM      4  C2  UNL d   1      -5.999  -4.390  -5.805  0.00  0.00    -0.047 A 
ATOM      5  C3  UNL d   1      -5.999  -3.274  -4.935  0.00  0.00    -0.047 A 
ATOM      6  C4  UNL d   1      -4.888  -3.383  -4.126  0.00  0.00    -0.004 A 
ENDROOT
TORSDOF 0
ENDMDL
