MODEL 1
REMARK minimizedAffinity -1.95403409
REMARK minimizedRMSD -1
REMARK  0 active torsions:
REMARK  status: ('A' for Active; 'I' for Inactive)
ROOT
ATOM      1  C   UNL d   1      -4.888  -2.599  -4.870  0.00  0.00     0.172 C 
ATOM      2  N   UNL d   1      -3.870  -3.618  -4.975  0.00  0.00    -0.070 N 
ATOM      3  C1  UNL d   1      -3.744  -4.518  -5.999  0.00  0.00    -0.004 A 
ATOM      4  C2  UNL d   1      -2.653  -5.315  -5.729  0.00  0.00    -0.047 A 
ATOM      5  C3  UNL d   1      -2.105  -4.880  -4.499  0.00  0.00    -0.047 A 
ATOM      6  C4  UNL d   1      -2.878  -3.828  -4.054  0.00  0.00    -0.004 A 
ENDROOT
TORSDOF 0
ENDMDL
