MODEL 1
REMARK minimizedAffinity -2.81594753
REMARK minimizedRMSD -1
REMARK  0 active torsions:
REMARK  status: ('A' for Active; 'I' for Inactive)
ROOT
ATOM      1  C   UNL d   1      -2.255  -4.504  -5.621  0.00  0.00     0.172 C 
ATOM      2  N   UNL d   1      -3.463  -3.801  -5.259  0.00  0.00    -0.070 N 
ATOM      3  C1  UNL d   1      -4.068  -2.820  -5.999  0.00  0.00    -0.004 A 
ATOM      4  C2  UNL d   1      -5.190  -2.406  -5.314  0.00  0.00    -0.047 A 
ATOM      5  C3  UNL d   1      -5.261  -3.163  -4.121  0.00  0.00    -0.047 A 
ATOM      6  C4  UNL d   1      -4.180  -4.018  -4.112  0.00  0.00    -0.004 A 
ENDROOT
TORSDOF 0
ENDMDL
