MODEL 1
REMARK minimizedAffinity 0.826663017
REMARK minimizedRMSD -1
REMARK  0 active torsions:
REMARK  status: ('A' for Active; 'I' for Inactive)
ROOT
ATOM      1  C   UNL d   1      -5.998  -1.769  -4.637  0.00  0.00     0.172 C 
ATOM      2  N   UNL d   1      -5.151  -2.938  -4.651  0.00  0.00    -0.070 N 
ATOM      3  C1  UNL d   1      -3.781  -2.931  -4.657  0.00  0.00    -0.004 A 
ATOM      4  C2  UNL d   1      -3.353  -4.241  -4.668  0.00  0.00    -0.047 A 
ATOM      5  C3  UNL d   1      -4.505  -5.063  -4.671  0.00  0.00    -0.047 A 
ATOM      6  C4  UNL d   1      -5.604  -4.231  -4.659  0.00  0.00    -0.004 A 
ENDROOT
TORSDOF 0
ENDMDL
