MODEL 1
REMARK minimizedAffinity 1.60919571
REMARK minimizedRMSD -1
REMARK  0 active torsions:
REMARK  status: ('A' for Active; 'I' for Inactive)
ROOT
ATOM      1  C   UNL d   1      -5.985  -5.607  -6.000  0.00  0.00     0.172 C 
ATOM      2  N   UNL d   1      -4.852  -4.971  -5.371  0.00  0.00    -0.070 N 
ATOM      3  C1  UNL d   1      -4.456  -5.149  -4.072  0.00  0.00    -0.004 A 
ATOM      4  C2  UNL d   1      -3.338  -4.370  -3.861  0.00  0.00    -0.047 A 
ATOM      5  C3  UNL d   1      -3.053  -3.701  -5.075  0.00  0.00    -0.047 A 
ATOM      6  C4  UNL d   1      -4.006  -4.091  -5.992  0.00  0.00    -0.004 A 
ENDROOT
TORSDOF 0
ENDMDL
