MODEL 1
REMARK minimizedAffinity -2.47117996
REMARK minimizedRMSD -1
REMARK  0 active torsions:
REMARK  status: ('A' for Active; 'I' for Inactive)
ROOT
ATOM      1  C   UNL d   1      -1.507  -5.616  -5.999  0.00  0.00     0.172 C 
ATOM      2  N   UNL d   1      -2.706  -5.116  -5.367  0.00  0.00    -0.070 N 
ATOM      3  C1  UNL d   1      -3.729  -4.462  -6.000  0.00  0.00    -0.004 A 
ATOM      4  C2  UNL d   1      -4.681  -4.152  -5.053  0.00  0.00    -0.047 A 
ATOM      5  C3  UNL d   1      -4.214  -4.636  -3.808  0.00  0.00    -0.047 A 
ATOM      6  C4  UNL d   1      -2.989  -5.228  -4.031  0.00  0.00    -0.004 A 
ENDROOT
TORSDOF 0
ENDMDL
