MODEL 1
REMARK minimizedAffinity -2.38703465
REMARK minimizedRMSD -1
REMARK  0 active torsions:
REMARK  status: ('A' for Active; 'I' for Inactive)
ROOT
ATOM      1  C   UNL d   1      -3.939  -5.036  -4.875  0.00  0.00     0.172 C 
ATOM      2  N   UNL d   1      -2.628  -5.280  -4.321  0.00  0.00    -0.070 N 
ATOM      3  C1  UNL d   1      -2.362  -5.999  -3.186  0.00  0.00    -0.004 A 
ATOM      4  C2  UNL d   1      -0.997  -6.000  -2.997  0.00  0.00    -0.047 A 
ATOM      5  C3  UNL d   1      -0.423  -5.255  -4.054  0.00  0.00    -0.047 A 
ATOM      6  C4  UNL d   1      -1.455  -4.821  -4.859  0.00  0.00    -0.004 A 
ENDROOT
TORSDOF 0
ENDMDL
