MODEL 1
REMARK minimizedAffinity -3.32045817
REMARK minimizedRMSD -1
REMARK  0 active torsions:
REMARK  status: ('A' for Active; 'I' for Inactive)
ROOT
ATOM      1  C   UNL d   1      -1.072  -6.000  -5.564  0.00  0.00     0.172 C 
ATOM      2  N   UNL d   1      -1.896  -5.206  -4.684  0.00  0.00    -0.070 N 
ATOM      3  C1  UNL d   1      -1.692  -5.030  -3.341  0.00  0.00    -0.004 A 
ATOM      4  C2  UNL d   1      -2.691  -4.208  -2.866  0.00  0.00    -0.047 A 
ATOM      5  C3  UNL d   1      -3.525  -3.879  -3.961  0.00  0.00    -0.047 A 
ATOM      6  C4  UNL d   1      -3.010  -4.510  -5.073  0.00  0.00    -0.004 A 
ENDROOT
TORSDOF 0
ENDMDL
