MODEL 1
REMARK minimizedAffinity -6.00262594
REMARK minimizedRMSD -1
REMARK  0 active torsions:
REMARK  status: ('A' for Active; 'I' for Inactive)
ROOT
ATOM      1  C   UNL d   1      -0.177   3.145  -0.945  0.00  0.00     0.020 A 
ATOM      2  C1  UNL d   1      -0.967   3.491   0.151  0.00  0.00     0.020 A 
ATOM      3  C2  UNL d   1      -1.322   2.521   1.090  0.00  0.00     0.034 A 
ATOM      4  C3  UNL d   1      -0.887   1.199   0.936  0.00  0.00     0.017 A 
ATOM      5  C4  UNL d   1      -0.094   0.853  -0.164  0.00  0.00     0.017 A 
ATOM      6  C5  UNL d   1       0.259   1.828  -1.101  0.00  0.00     0.034 A 
ATOM      7 Cl   UNL d   1       0.481  -0.757  -0.421  0.00  0.00    -0.070 Cl
ATOM      8 Cl1  UNL d   1      -1.364   0.051   2.136  0.00  0.00    -0.070 Cl
ENDROOT
TORSDOF 0
ENDMDL
