MODEL 1
REMARK minimizedAffinity -4.37829447
REMARK minimizedRMSD -1
REMARK  0 active torsions:
REMARK  status: ('A' for Active; 'I' for Inactive)
ROOT
ATOM      1  C   UNL d   1      -1.482   2.436   1.295  0.00  0.00     0.020 A 
ATOM      2  C1  UNL d   1      -1.153   2.543  -0.056  0.00  0.00     0.020 A 
ATOM      3  C2  UNL d   1      -0.535   1.476  -0.711  0.00  0.00     0.034 A 
ATOM      4  C3  UNL d   1      -0.244   0.297  -0.016  0.00  0.00     0.017 A 
ATOM      5  C4  UNL d   1      -0.574   0.190   1.340  0.00  0.00     0.017 A 
ATOM      6  C5  UNL d   1      -1.193   1.262   1.991  0.00  0.00     0.034 A 
ATOM      7 Cl   UNL d   1      -0.246  -1.233   2.264  0.00  0.00    -0.070 Cl
ATOM      8 Cl1  UNL d   1       0.521  -0.983  -0.889  0.00  0.00    -0.070 Cl
ENDROOT
TORSDOF 0
ENDMDL
