MODEL 1
REMARK minimizedAffinity -1.03491032
REMARK minimizedRMSD -1
REMARK  0 active torsions:
REMARK  status: ('A' for Active; 'I' for Inactive)
ROOT
ATOM      1  C   UNL d   1       0.561  -0.474   1.064  0.00  0.00     0.020 A 
ATOM      2  C1  UNL d   1      -0.448  -0.271   0.123  0.00  0.00     0.020 A 
ATOM      3  C2  UNL d   1      -1.349   0.784   0.283  0.00  0.00     0.034 A 
ATOM      4  C3  UNL d   1      -1.243   1.639   1.386  0.00  0.00     0.017 A 
ATOM      5  C4  UNL d   1      -0.229   1.434   2.330  0.00  0.00     0.017 A 
ATOM      6  C5  UNL d   1       0.670   0.376   2.164  0.00  0.00     0.034 A 
ATOM      7 Cl   UNL d   1      -0.035   2.447   3.716  0.00  0.00    -0.070 Cl
ATOM      8 Cl1  UNL d   1      -2.391   2.924   1.521  0.00  0.00    -0.070 Cl
ENDROOT
TORSDOF 0
ENDMDL
