MODEL 1
REMARK minimizedAffinity -2.2925601
REMARK minimizedRMSD -1
REMARK  0 active torsions:
REMARK  status: ('A' for Active; 'I' for Inactive)
ROOT
ATOM      1  C   UNL d   1      -1.324   0.142   1.733  0.00  0.00     0.020 A 
ATOM      2  C1  UNL d   1      -1.768   1.448   1.531  0.00  0.00     0.020 A 
ATOM      3  C2  UNL d   1      -1.298   2.185   0.442  0.00  0.00     0.034 A 
ATOM      4  C3  UNL d   1      -0.381   1.617  -0.449  0.00  0.00     0.017 A 
ATOM      5  C4  UNL d   1       0.064   0.305  -0.246  0.00  0.00     0.017 A 
ATOM      6  C5  UNL d   1      -0.410  -0.428   0.846  0.00  0.00     0.034 A 
ATOM      7 Cl   UNL d   1       1.194  -0.464  -1.303  0.00  0.00    -0.070 Cl
ATOM      8 Cl1  UNL d   1       0.158   2.586  -1.774  0.00  0.00    -0.070 Cl
ENDROOT
TORSDOF 0
ENDMDL
