MODEL 1
REMARK minimizedAffinity -0.178236097
REMARK minimizedRMSD -1
REMARK  0 active torsions:
REMARK  status: ('A' for Active; 'I' for Inactive)
ROOT
ATOM      1  C   UNL d   1       1.078  -1.497  -0.977  0.00  0.00     0.020 A 
ATOM      2  C1  UNL d   1       0.379  -1.862   0.174  0.00  0.00     0.020 A 
ATOM      3  C2  UNL d   1      -0.404  -0.919   0.843  0.00  0.00     0.034 A 
ATOM      4  C3  UNL d   1      -0.492   0.392   0.363  0.00  0.00     0.017 A 
ATOM      5  C4  UNL d   1       0.210   0.757  -0.792  0.00  0.00     0.017 A 
ATOM      6  C5  UNL d   1       0.993  -0.190  -1.458  0.00  0.00     0.034 A 
ATOM      7 Cl   UNL d   1       0.151   2.357  -1.446  0.00  0.00    -0.070 Cl
ATOM      8 Cl1  UNL d   1      -1.480   1.505   1.240  0.00  0.00    -0.070 Cl
ENDROOT
TORSDOF 0
ENDMDL
