MODEL 1
REMARK minimizedAffinity -2.81593132
REMARK minimizedRMSD -1
REMARK  0 active torsions:
REMARK  status: ('A' for Active; 'I' for Inactive)
ROOT
ATOM      1  C   UNL d   1       0.624  -1.181   0.071  0.00  0.00     0.020 A 
ATOM      2  C1  UNL d   1      -0.034  -1.291   1.295  0.00  0.00     0.020 A 
ATOM      3  C2  UNL d   1      -0.899  -0.278   1.717  0.00  0.00     0.034 A 
ATOM      4  C3  UNL d   1      -1.107   0.849   0.914  0.00  0.00     0.017 A 
ATOM      5  C4  UNL d   1      -0.445   0.959  -0.315  0.00  0.00     0.017 A 
ATOM      6  C5  UNL d   1       0.419  -0.058  -0.732  0.00  0.00     0.034 A 
ATOM      7 Cl   UNL d   1      -0.651   2.320  -1.360  0.00  0.00    -0.070 Cl
ATOM      8 Cl1  UNL d   1      -2.190   2.062   1.497  0.00  0.00    -0.070 Cl
ENDROOT
TORSDOF 0
ENDMDL
