MODEL 1
REMARK minimizedAffinity -3.90133548
REMARK minimizedRMSD -1
REMARK  0 active torsions:
REMARK  status: ('A' for Active; 'I' for Inactive)
ROOT
ATOM      1  C   UNL d   1      -1.462  -0.290   2.050  0.00  0.00     0.020 A 
ATOM      2  C1  UNL d   1      -2.098   0.935   1.855  0.00  0.00     0.020 A 
ATOM      3  C2  UNL d   1      -1.724   1.754   0.788  0.00  0.00     0.034 A 
ATOM      4  C3  UNL d   1      -0.711   1.349  -0.089  0.00  0.00     0.017 A 
ATOM      5  C4  UNL d   1      -0.073   0.119   0.107  0.00  0.00     0.017 A 
ATOM      6  C5  UNL d   1      -0.451  -0.698   1.177  0.00  0.00     0.034 A 
ATOM      7 Cl   UNL d   1       1.185  -0.449  -0.933  0.00  0.00    -0.070 Cl
ATOM      8 Cl1  UNL d   1      -0.300   2.412  -1.388  0.00  0.00    -0.070 Cl
ENDROOT
TORSDOF 0
ENDMDL
