MODEL 1
REMARK minimizedAffinity -2.4349885
REMARK minimizedRMSD -1
REMARK  0 active torsions:
REMARK  status: ('A' for Active; 'I' for Inactive)
ROOT
ATOM      1  C   UNL d   1      -1.442   1.479   0.347  0.00  0.00     0.020 A 
ATOM      2  C1  UNL d   1      -1.930   0.174   0.400  0.00  0.00     0.020 A 
ATOM      3  C2  UNL d   1      -1.267  -0.847  -0.285  0.00  0.00     0.034 A 
ATOM      4  C3  UNL d   1      -0.113  -0.564  -1.026  0.00  0.00     0.017 A 
ATOM      5  C4  UNL d   1       0.375   0.746  -1.078  0.00  0.00     0.017 A 
ATOM      6  C5  UNL d   1      -0.292   1.765  -0.391  0.00  0.00     0.034 A 
ATOM      7 Cl   UNL d   1       1.792   1.172  -1.971  0.00  0.00    -0.070 Cl
ATOM      8 Cl1  UNL d   1       0.655  -1.876  -1.847  0.00  0.00    -0.070 Cl
ENDROOT
TORSDOF 0
ENDMDL
