MODEL 1
REMARK minimizedAffinity -4.52411318
REMARK minimizedRMSD -1
REMARK  0 active torsions:
REMARK  status: ('A' for Active; 'I' for Inactive)
ROOT
ATOM      1  C   UNL d   1      -1.690   2.857   0.866  0.00  0.00     0.020 A 
ATOM      2  C1  UNL d   1      -1.061   3.305  -0.294  0.00  0.00     0.020 A 
ATOM      3  C2  UNL d   1      -0.143   2.483  -0.953  0.00  0.00     0.034 A 
ATOM      4  C3  UNL d   1       0.147   1.209  -0.451  0.00  0.00     0.017 A 
ATOM      5  C4  UNL d   1      -0.485   0.760   0.714  0.00  0.00     0.017 A 
ATOM      6  C5  UNL d   1      -1.403   1.587   1.369  0.00  0.00     0.034 A 
ATOM      7 Cl   UNL d   1      -0.178  -0.799   1.393  0.00  0.00    -0.070 Cl
ATOM      8 Cl1  UNL d   1       1.292   0.247  -1.317  0.00  0.00    -0.070 Cl
ENDROOT
TORSDOF 0
ENDMDL
