MODEL 1
REMARK minimizedAffinity -4.65574312
REMARK minimizedRMSD -1
REMARK  0 active torsions:
REMARK  status: ('A' for Active; 'I' for Inactive)
ROOT
ATOM      1  C   UNL d   1       0.144   0.415  -0.978  0.00  0.00     0.020 A 
ATOM      2  C1  UNL d   1       0.658  -0.730  -0.372  0.00  0.00     0.020 A 
ATOM      3  C2  UNL d   1       0.151  -1.158   0.856  0.00  0.00     0.034 A 
ATOM      4  C3  UNL d   1      -0.874  -0.440   1.483  0.00  0.00     0.017 A 
ATOM      5  C4  UNL d   1      -1.390   0.710   0.874  0.00  0.00     0.017 A 
ATOM      6  C5  UNL d   1      -0.878   1.134  -0.357  0.00  0.00     0.034 A 
ATOM      7 Cl   UNL d   1      -2.654   1.649   1.586  0.00  0.00    -0.070 Cl
ATOM      8 Cl1  UNL d   1      -1.454  -1.026   3.001  0.00  0.00    -0.070 Cl
ENDROOT
TORSDOF 0
ENDMDL
