MODEL 1
REMARK minimizedAffinity -3.06290555
REMARK minimizedRMSD -1
REMARK  0 active torsions:
REMARK  status: ('A' for Active; 'I' for Inactive)
ROOT
ATOM      1  C   UNL d   1       1.162  -0.951  -1.024  0.00  0.00     0.020 A 
ATOM      2  C1  UNL d   1       0.465  -1.364   0.111  0.00  0.00     0.020 A 
ATOM      3  C2  UNL d   1      -0.433  -0.495   0.733  0.00  0.00     0.034 A 
ATOM      4  C3  UNL d   1      -0.637   0.792   0.221  0.00  0.00     0.017 A 
ATOM      5  C4  UNL d   1       0.063   1.205  -0.919  0.00  0.00     0.017 A 
ATOM      6  C5  UNL d   1       0.962   0.330  -1.537  0.00  0.00     0.034 A 
ATOM      7 Cl   UNL d   1      -0.135   2.777  -1.609  0.00  0.00    -0.070 Cl
ATOM      8 Cl1  UNL d   1      -1.763   1.814   1.040  0.00  0.00    -0.070 Cl
ENDROOT
TORSDOF 0
ENDMDL
