MODEL 1
REMARK minimizedAffinity -3.39247155
REMARK minimizedRMSD -1
REMARK  0 active torsions:
REMARK  status: ('A' for Active; 'I' for Inactive)
ROOT
ATOM      1  C   UNL d   1      -2.083   2.131   1.022  0.00  0.00     0.020 A 
ATOM      2  C1  UNL d   1      -1.616   2.138  -0.292  0.00  0.00     0.020 A 
ATOM      3  C2  UNL d   1      -0.748   1.135  -0.730  0.00  0.00     0.034 A 
ATOM      4  C3  UNL d   1      -0.344   0.121   0.147  0.00  0.00     0.017 A 
ATOM      5  C4  UNL d   1      -0.813   0.116   1.466  0.00  0.00     0.017 A 
ATOM      6  C5  UNL d   1      -1.682   1.122   1.899  0.00  0.00     0.034 A 
ATOM      7 Cl   UNL d   1      -0.359  -1.102   2.606  0.00  0.00    -0.070 Cl
ATOM      8 Cl1  UNL d   1       0.730  -1.087  -0.462  0.00  0.00    -0.070 Cl
ENDROOT
TORSDOF 0
ENDMDL
