MODEL 1
REMARK minimizedAffinity -2.8581233
REMARK minimizedRMSD -1
REMARK  0 active torsions:
REMARK  status: ('A' for Active; 'I' for Inactive)
ROOT
ATOM      1  C   UNL d   1      -0.156  -1.121   1.067  0.00  0.00     0.020 A 
ATOM      2  C1  UNL d   1       0.629  -0.935  -0.070  0.00  0.00     0.020 A 
ATOM      3  C2  UNL d   1       0.555   0.264  -0.782  0.00  0.00     0.034 A 
ATOM      4  C3  UNL d   1      -0.306   1.282  -0.357  0.00  0.00     0.017 A 
ATOM      5  C4  UNL d   1      -1.094   1.096   0.784  0.00  0.00     0.017 A 
ATOM      6  C5  UNL d   1      -1.016  -0.107   1.493  0.00  0.00     0.034 A 
ATOM      7 Cl   UNL d   1      -2.179   2.306   1.369  0.00  0.00    -0.070 Cl
ATOM      8 Cl1  UNL d   1      -0.346   2.739  -1.285  0.00  0.00    -0.070 Cl
ENDROOT
TORSDOF 0
ENDMDL
