MODEL 1
REMARK minimizedAffinity -2.74243808
REMARK minimizedRMSD -1
REMARK  0 active torsions:
REMARK  status: ('A' for Active; 'I' for Inactive)
ROOT
ATOM      1  C   UNL d   1      -1.038  -0.214   2.234  0.00  0.00     0.020 A 
ATOM      2  C1  UNL d   1      -1.548   1.083   2.239  0.00  0.00     0.020 A 
ATOM      3  C2  UNL d   1      -1.146   1.996   1.262  0.00  0.00     0.034 A 
ATOM      4  C3  UNL d   1      -0.230   1.613   0.275  0.00  0.00     0.017 A 
ATOM      5  C4  UNL d   1       0.282   0.310   0.270  0.00  0.00     0.017 A 
ATOM      6  C5  UNL d   1      -0.125  -0.600   1.251  0.00  0.00     0.034 A 
ATOM      7 Cl   UNL d   1       1.415  -0.236  -0.915  0.00  0.00    -0.070 Cl
ATOM      8 Cl1  UNL d   1       0.223   2.793  -0.902  0.00  0.00    -0.070 Cl
ENDROOT
TORSDOF 0
ENDMDL
