MODEL 1
REMARK minimizedAffinity -2.72927666
REMARK minimizedRMSD -1
REMARK  0 active torsions:
REMARK  status: ('A' for Active; 'I' for Inactive)
ROOT
ATOM      1  C   UNL d   1      -1.498   0.919   1.883  0.00  0.00     0.020 A 
ATOM      2  C1  UNL d   1      -1.368   2.270   1.563  0.00  0.00     0.020 A 
ATOM      3  C2  UNL d   1      -0.552   2.660   0.499  0.00  0.00     0.034 A 
ATOM      4  C3  UNL d   1       0.136   1.698  -0.249  0.00  0.00     0.017 A 
ATOM      5  C4  UNL d   1       0.004   0.342   0.073  0.00  0.00     0.017 A 
ATOM      6  C5  UNL d   1      -0.814  -0.043   1.140  0.00  0.00     0.034 A 
ATOM      7 Cl   UNL d   1       0.822  -0.903  -0.804  0.00  0.00    -0.070 Cl
ATOM      8 Cl1  UNL d   1       1.127   2.251  -1.552  0.00  0.00    -0.070 Cl
ENDROOT
TORSDOF 0
ENDMDL
