MODEL 1
REMARK minimizedAffinity -4.15095568
REMARK minimizedRMSD -1
REMARK  0 active torsions:
REMARK  status: ('A' for Active; 'I' for Inactive)
ROOT
ATOM      1  C   UNL d   1      -2.117   1.636   1.355  0.00  0.00     0.020 A 
ATOM      2  C1  UNL d   1      -1.999   1.705  -0.033  0.00  0.00     0.020 A 
ATOM      3  C2  UNL d   1      -0.990   0.993  -0.684  0.00  0.00     0.034 A 
ATOM      4  C3  UNL d   1      -0.095   0.208   0.052  0.00  0.00     0.017 A 
ATOM      5  C4  UNL d   1      -0.214   0.139   1.445  0.00  0.00     0.017 A 
ATOM      6  C5  UNL d   1      -1.226   0.854   2.092  0.00  0.00     0.034 A 
ATOM      7 Cl   UNL d   1       0.853  -0.808   2.421  0.00  0.00    -0.070 Cl
ATOM      8 Cl1  UNL d   1       1.129  -0.646  -0.819  0.00  0.00    -0.070 Cl
ENDROOT
TORSDOF 0
ENDMDL
