MODEL 1
REMARK minimizedAffinity -5.02266216
REMARK minimizedRMSD -1
REMARK  0 active torsions:
REMARK  status: ('A' for Active; 'I' for Inactive)
ROOT
ATOM      1  C   UNL d   1      -1.257   2.278   1.358  0.00  0.00     0.020 A 
ATOM      2  C1  UNL d   1      -0.857   2.451   0.033  0.00  0.00     0.020 A 
ATOM      3  C2  UNL d   1      -0.107   1.460  -0.605  0.00  0.00     0.034 A 
ATOM      4  C3  UNL d   1       0.246   0.293   0.082  0.00  0.00     0.017 A 
ATOM      5  C4  UNL d   1      -0.156   0.121   1.412  0.00  0.00     0.017 A 
ATOM      6  C5  UNL d   1      -0.907   1.115   2.045  0.00  0.00     0.034 A 
ATOM      7 Cl   UNL d   1       0.241  -1.292   2.324  0.00  0.00    -0.070 Cl
ATOM      8 Cl1  UNL d   1       1.174  -0.890  -0.769  0.00  0.00    -0.070 Cl
ENDROOT
TORSDOF 0
ENDMDL
