MODEL 1
REMARK minimizedAffinity -2.97735572
REMARK minimizedRMSD -1
REMARK  0 active torsions:
REMARK  status: ('A' for Active; 'I' for Inactive)
ROOT
ATOM      1  C   UNL d   1      -1.281   1.275   1.098  0.00  0.00     0.020 A 
ATOM      2  C1  UNL d   1      -1.696  -0.046   1.266  0.00  0.00     0.020 A 
ATOM      3  C2  UNL d   1      -0.973  -1.085   0.677  0.00  0.00     0.034 A 
ATOM      4  C3  UNL d   1       0.169  -0.806  -0.082  0.00  0.00     0.017 A 
ATOM      5  C4  UNL d   1       0.585   0.520  -0.250  0.00  0.00     0.017 A 
ATOM      6  C5  UNL d   1      -0.143   1.557   0.342  0.00  0.00     0.034 A 
ATOM      7 Cl   UNL d   1       1.983   0.943  -1.174  0.00  0.00    -0.070 Cl
ATOM      8 Cl1  UNL d   1       1.015  -2.140  -0.782  0.00  0.00    -0.070 Cl
ENDROOT
TORSDOF 0
ENDMDL
