MODEL 1
REMARK minimizedAffinity -0.315805554
REMARK minimizedRMSD -1
REMARK  0 active torsions:
REMARK  status: ('A' for Active; 'I' for Inactive)
ROOT
ATOM      1  C   UNL d   1       0.709  -1.169  -0.726  0.00  0.00     0.020 A 
ATOM      2  C1  UNL d   1       0.089  -1.492   0.481  0.00  0.00     0.020 A 
ATOM      3  C2  UNL d   1      -0.755  -0.568   1.101  0.00  0.00     0.034 A 
ATOM      4  C3  UNL d   1      -0.982   0.682   0.514  0.00  0.00     0.017 A 
ATOM      5  C4  UNL d   1      -0.360   1.005  -0.697  0.00  0.00     0.017 A 
ATOM      6  C5  UNL d   1       0.484   0.076  -1.314  0.00  0.00     0.034 A 
ATOM      7 Cl   UNL d   1      -0.592   2.527  -1.482  0.00  0.00    -0.070 Cl
ATOM      8 Cl1  UNL d   1      -2.039   1.775   1.336  0.00  0.00    -0.070 Cl
ENDROOT
TORSDOF 0
ENDMDL
