MODEL 1
REMARK minimizedAffinity 6.7323513
REMARK minimizedRMSD -1
REMARK  0 active torsions:
REMARK  status: ('A' for Active; 'I' for Inactive)
ROOT
ATOM      1  C   UNL d   1       0.467   1.998   0.373  0.00  0.00     0.078 C 
ATOM      2  C1  UNL d   1      -1.014   1.943   0.139  0.00  0.00    -0.077 A 
ATOM      3  C2  UNL d   1      -1.777   0.865   0.602  0.00  0.00    -0.001 A 
ATOM      4  C3  UNL d   1      -3.153   0.822   0.369  0.00  0.00     0.003 A 
ATOM      5  C4  UNL d   1      -3.777   1.855  -0.329  0.00  0.00    -0.005 A 
ATOM      6  C5  UNL d   1      -3.025   2.931  -0.795  0.00  0.00     0.003 A 
ATOM      7  C6  UNL d   1      -1.649   2.975  -0.563  0.00  0.00    -0.001 A 
ENDROOT
TORSDOF 0
ENDMDL
