MODEL 1
REMARK minimizedAffinity -2.06003404
REMARK minimizedRMSD -1
REMARK  0 active torsions:
REMARK  status: ('A' for Active; 'I' for Inactive)
ROOT
ATOM      1  C   UNL d   1       0.968   1.222   1.064  0.00  0.00     0.078 C 
ATOM      2  C1  UNL d   1      -0.463   1.279   0.621  0.00  0.00    -0.077 A 
ATOM      3  C2  UNL d   1      -1.292   0.155   0.714  0.00  0.00    -0.001 A 
ATOM      4  C3  UNL d   1      -2.620   0.220   0.289  0.00  0.00     0.003 A 
ATOM      5  C4  UNL d   1      -3.130   1.407  -0.233  0.00  0.00    -0.005 A 
ATOM      6  C5  UNL d   1      -2.312   2.530  -0.332  0.00  0.00     0.003 A 
ATOM      7  C6  UNL d   1      -0.984   2.467   0.092  0.00  0.00    -0.001 A 
ENDROOT
TORSDOF 0
ENDMDL
