MODEL 1
REMARK minimizedAffinity -3.05833578
REMARK minimizedRMSD -1
REMARK  0 active torsions:
REMARK  status: ('A' for Active; 'I' for Inactive)
ROOT
ATOM      1  C   UNL d   1       0.578   1.174   0.043  0.00  0.00     0.078 C 
ATOM      2  C1  UNL d   1      -0.878   1.038   0.375  0.00  0.00    -0.077 A 
ATOM      3  C2  UNL d   1      -1.372  -0.115   0.997  0.00  0.00    -0.001 A 
ATOM      4  C3  UNL d   1      -2.731  -0.232   1.291  0.00  0.00     0.003 A 
ATOM      5  C4  UNL d   1      -3.608   0.801   0.966  0.00  0.00    -0.005 A 
ATOM      6  C5  UNL d   1      -3.127   1.951   0.345  0.00  0.00     0.003 A 
ATOM      7  C6  UNL d   1      -1.768   2.070   0.050  0.00  0.00    -0.001 A 
ENDROOT
TORSDOF 0
ENDMDL
