MODEL 1
REMARK minimizedAffinity 3.20649076
REMARK minimizedRMSD -1
REMARK  0 active torsions:
REMARK  status: ('A' for Active; 'I' for Inactive)
ROOT
ATOM      1  C   UNL d   1      -0.026  -5.324  -3.315  0.00  0.00     0.078 C 
ATOM      2  C1  UNL d   1      -0.976  -4.573  -2.431  0.00  0.00    -0.077 A 
ATOM      3  C2  UNL d   1      -1.297  -5.045  -1.152  0.00  0.00    -0.001 A 
ATOM      4  C3  UNL d   1      -2.190  -4.341  -0.343  0.00  0.00     0.003 A 
ATOM      5  C4  UNL d   1      -2.772  -3.162  -0.805  0.00  0.00    -0.005 A 
ATOM      6  C5  UNL d   1      -2.461  -2.686  -2.077  0.00  0.00     0.003 A 
ATOM      7  C6  UNL d   1      -1.567  -3.388  -2.887  0.00  0.00    -0.001 A 
ENDROOT
TORSDOF 0
ENDMDL
