MODEL 1
REMARK minimizedAffinity -2.037884
REMARK minimizedRMSD -1
REMARK  0 active torsions:
REMARK  status: ('A' for Active; 'I' for Inactive)
ROOT
ATOM      1  C   UNL d   1      -3.617  -0.059   1.031  0.00  0.00     0.078 C 
ATOM      2  C1  UNL d   1      -2.325   0.655   0.767  0.00  0.00    -0.077 A 
ATOM      3  C2  UNL d   1      -1.102   0.105   1.169  0.00  0.00    -0.001 A 
ATOM      4  C3  UNL d   1       0.092   0.785   0.926  0.00  0.00     0.003 A 
ATOM      5  C4  UNL d   1       0.075   2.019   0.280  0.00  0.00    -0.005 A 
ATOM      6  C5  UNL d   1      -1.137   2.576  -0.123  0.00  0.00     0.003 A 
ATOM      7  C6  UNL d   1      -2.332   1.897   0.120  0.00  0.00    -0.001 A 
ENDROOT
TORSDOF 0
ENDMDL
