MODEL 1
REMARK minimizedAffinity -1.04590094
REMARK minimizedRMSD -1
REMARK  0 active torsions:
REMARK  status: ('A' for Active; 'I' for Inactive)
ROOT
ATOM      1  C   UNL d   1      -3.188  -0.687   1.661  0.00  0.00     0.078 C 
ATOM      2  C1  UNL d   1      -2.208   0.269   1.050  0.00  0.00    -0.077 A 
ATOM      3  C2  UNL d   1      -0.836   0.158   1.307  0.00  0.00    -0.001 A 
ATOM      4  C3  UNL d   1       0.064   1.061   0.739  0.00  0.00     0.003 A 
ATOM      5  C4  UNL d   1      -0.398   2.082  -0.089  0.00  0.00    -0.005 A 
ATOM      6  C5  UNL d   1      -1.761   2.202  -0.348  0.00  0.00     0.003 A 
ATOM      7  C6  UNL d   1      -2.663   1.300   0.219  0.00  0.00    -0.001 A 
ENDROOT
TORSDOF 0
ENDMDL
