MODEL 1
REMARK minimizedAffinity -0.0285593607
REMARK minimizedRMSD -1
REMARK  0 active torsions:
REMARK  status: ('A' for Active; 'I' for Inactive)
ROOT
ATOM      1  C   UNL d   1       0.676   2.595   0.396  0.00  0.00     0.078 C 
ATOM      2  C1  UNL d   1      -0.739   2.102   0.460  0.00  0.00    -0.077 A 
ATOM      3  C2  UNL d   1      -1.085   1.008   1.263  0.00  0.00    -0.001 A 
ATOM      4  C3  UNL d   1      -2.404   0.554   1.305  0.00  0.00     0.003 A 
ATOM      5  C4  UNL d   1      -3.387   1.186   0.546  0.00  0.00    -0.005 A 
ATOM      6  C5  UNL d   1      -3.051   2.274  -0.258  0.00  0.00     0.003 A 
ATOM      7  C6  UNL d   1      -1.733   2.730  -0.301  0.00  0.00    -0.001 A 
ENDROOT
TORSDOF 0
ENDMDL
