MODEL 1
REMARK minimizedAffinity -4.09852219
REMARK minimizedRMSD -1
REMARK  0 active torsions:
REMARK  status: ('A' for Active; 'I' for Inactive)
ROOT
ATOM      1  C   UNL d   1       0.808   1.161   0.773  0.00  0.00     0.078 C 
ATOM      2  C1  UNL d   1      -0.684   1.207   0.626  0.00  0.00    -0.077 A 
ATOM      3  C2  UNL d   1      -1.489   0.169   1.111  0.00  0.00    -0.001 A 
ATOM      4  C3  UNL d   1      -2.875   0.221   0.959  0.00  0.00     0.003 A 
ATOM      5  C4  UNL d   1      -3.469   1.307   0.320  0.00  0.00    -0.005 A 
ATOM      6  C5  UNL d   1      -2.676   2.344  -0.168  0.00  0.00     0.003 A 
ATOM      7  C6  UNL d   1      -1.289   2.294  -0.017  0.00  0.00    -0.001 A 
ENDROOT
TORSDOF 0
ENDMDL
