MODEL 1
REMARK minimizedAffinity -2.63542676
REMARK minimizedRMSD -1
REMARK  0 active torsions:
REMARK  status: ('A' for Active; 'I' for Inactive)
ROOT
ATOM      1  C   UNL d   1       0.933   0.751   0.843  0.00  0.00     0.078 C 
ATOM      2  C1  UNL d   1      -0.516   1.072   0.634  0.00  0.00    -0.077 A 
ATOM      3  C2  UNL d   1      -1.483   0.059   0.611  0.00  0.00    -0.001 A 
ATOM      4  C3  UNL d   1      -2.828   0.371   0.405  0.00  0.00     0.003 A 
ATOM      5  C4  UNL d   1      -3.218   1.696   0.219  0.00  0.00    -0.005 A 
ATOM      6  C5  UNL d   1      -2.263   2.710   0.238  0.00  0.00     0.003 A 
ATOM      7  C6  UNL d   1      -0.918   2.400   0.444  0.00  0.00    -0.001 A 
ENDROOT
TORSDOF 0
ENDMDL
