MODEL 1
REMARK minimizedAffinity 2.94218445
REMARK minimizedRMSD -1
REMARK  0 active torsions:
REMARK  status: ('A' for Active; 'I' for Inactive)
ROOT
ATOM      1  C   UNL d   1      -5.999   1.714   0.169  0.00  0.00     0.078 C 
ATOM      2  C1  UNL d   1      -4.570   1.395   0.495  0.00  0.00    -0.077 A 
ATOM      3  C2  UNL d   1      -3.525   2.188   0.006  0.00  0.00    -0.001 A 
ATOM      4  C3  UNL d   1      -2.199   1.874   0.310  0.00  0.00     0.003 A 
ATOM      5  C4  UNL d   1      -1.906   0.766   1.102  0.00  0.00    -0.005 A 
ATOM      6  C5  UNL d   1      -2.940  -0.030   1.592  0.00  0.00     0.003 A 
ATOM      7  C6  UNL d   1      -4.266   0.282   1.289  0.00  0.00    -0.001 A 
ENDROOT
TORSDOF 0
ENDMDL
