MODEL 1
REMARK minimizedAffinity -0.847056746
REMARK minimizedRMSD -1
REMARK  0 active torsions:
REMARK  status: ('A' for Active; 'I' for Inactive)
ROOT
ATOM      1  C   UNL d   1      -1.546   0.695  -0.255  0.00  0.00     0.078 C 
ATOM      2  C1  UNL d   1      -0.385   1.164   0.569  0.00  0.00    -0.077 A 
ATOM      3  C2  UNL d   1      -0.581   1.957   1.707  0.00  0.00    -0.001 A 
ATOM      4  C3  UNL d   1       0.511   2.394   2.459  0.00  0.00     0.003 A 
ATOM      5  C4  UNL d   1       1.806   2.044   2.082  0.00  0.00    -0.005 A 
ATOM      6  C5  UNL d   1       2.011   1.257   0.951  0.00  0.00     0.003 A 
ATOM      7  C6  UNL d   1       0.921   0.819   0.197  0.00  0.00    -0.001 A 
ENDROOT
TORSDOF 0
ENDMDL
