MODEL 1
REMARK minimizedAffinity -2.95976663
REMARK minimizedRMSD -1
REMARK  0 active torsions:
REMARK  status: ('A' for Active; 'I' for Inactive)
ROOT
ATOM      1  C   UNL d   1       1.882   3.620   2.520  0.00  0.00     0.078 C 
ATOM      2  C1  UNL d   1       1.121   2.586   1.746  0.00  0.00    -0.077 A 
ATOM      3  C2  UNL d   1       1.781   1.520   1.122  0.00  0.00    -0.001 A 
ATOM      4  C3  UNL d   1       1.060   0.571   0.397  0.00  0.00     0.003 A 
ATOM      5  C4  UNL d   1      -0.325   0.677   0.287  0.00  0.00    -0.005 A 
ATOM      6  C5  UNL d   1      -0.990   1.735   0.902  0.00  0.00     0.003 A 
ATOM      7  C6  UNL d   1      -0.271   2.686   1.628  0.00  0.00    -0.001 A 
ENDROOT
TORSDOF 0
ENDMDL
