MODEL 1
REMARK minimizedAffinity 5.82649326
REMARK minimizedRMSD -1
REMARK  0 active torsions:
REMARK  status: ('A' for Active; 'I' for Inactive)
ROOT
ATOM      1  C   UNL d   1      -0.014  -1.334   1.020  0.00  0.00     0.078 C 
ATOM      2  C1  UNL d   1       0.509  -0.024   0.511  0.00  0.00    -0.077 A 
ATOM      3  C2  UNL d   1       0.722   1.054   1.379  0.00  0.00    -0.001 A 
ATOM      4  C3  UNL d   1       1.199   2.271   0.889  0.00  0.00     0.003 A 
ATOM      5  C4  UNL d   1       1.466   2.422  -0.470  0.00  0.00    -0.005 A 
ATOM      6  C5  UNL d   1       1.255   1.356  -1.342  0.00  0.00     0.003 A 
ATOM      7  C6  UNL d   1       0.778   0.138  -0.854  0.00  0.00    -0.001 A 
ENDROOT
TORSDOF 0
ENDMDL
