MODEL 1
REMARK minimizedAffinity -1.91429639
REMARK minimizedRMSD -1
REMARK  0 active torsions:
REMARK  status: ('A' for Active; 'I' for Inactive)
ROOT
ATOM      1  C   UNL d   1      -2.709   0.472  -0.035  0.00  0.00     0.078 C 
ATOM      2  C1  UNL d   1      -1.221   0.384   0.124  0.00  0.00    -0.077 A 
ATOM      3  C2  UNL d   1      -0.374   1.317  -0.487  0.00  0.00    -0.001 A 
ATOM      4  C3  UNL d   1       1.010   1.218  -0.338  0.00  0.00     0.003 A 
ATOM      5  C4  UNL d   1       1.560   0.187   0.420  0.00  0.00    -0.005 A 
ATOM      6  C5  UNL d   1       0.726  -0.747   1.030  0.00  0.00     0.003 A 
ATOM      7  C6  UNL d   1      -0.658  -0.650   0.883  0.00  0.00    -0.001 A 
ENDROOT
TORSDOF 0
ENDMDL
