MODEL 1
REMARK minimizedAffinity -1.55514812
REMARK minimizedRMSD -1
REMARK  1 active torsions:
REMARK  status: ('A' for Active; 'I' for Inactive)
REMARK    1  A    between atoms: C1_2  and  C2_3 
ROOT
ATOM      1  C2  UNL d   1      -0.033   0.363  -0.342  0.00  0.00    -0.076 A 
ATOM      2  C3  UNL d   1      -0.336  -0.316   0.851  0.00  0.00     0.004 A 
ATOM      3  C4  UNL d   1      -1.416  -1.193   0.922  0.00  0.00    -0.003 A 
ATOM      4  C5  UNL d   1      -2.211  -1.407  -0.199  0.00  0.00     0.000 A 
ATOM      5  C6  UNL d   1      -1.915  -0.755  -1.395  0.00  0.00     0.000 A 
ATOM      6  C7  UNL d   1      -0.819   0.120  -1.489  0.00  0.00    -0.073 A 
ATOM      7  C8  UNL d   1      -0.549   0.801  -2.803  0.00  0.00     0.078 C 
ENDROOT
BRANCH   1   8
ATOM      8  C1  UNL d   1       1.134   1.324  -0.353  0.00  0.00     0.053 C 
ATOM      9  C   UNL d   1       1.759   1.496   1.023  0.00  0.00     0.018 C 
ENDBRANCH   1   8
TORSDOF 1
ENDMDL
