MODEL 1
REMARK minimizedAffinity -2.25145221
REMARK minimizedRMSD -1
REMARK  1 active torsions:
REMARK  status: ('A' for Active; 'I' for Inactive)
REMARK    1  A    between atoms: C1_2  and  C2_3 
ROOT
ATOM      1  C2  UNL d   1      -1.445  -0.362  -0.895  0.00  0.00    -0.076 A 
ATOM      2  C3  UNL d   1      -0.196  -0.748  -1.412  0.00  0.00     0.004 A 
ATOM      3  C4  UNL d   1       0.989  -0.260  -0.863  0.00  0.00    -0.003 A 
ATOM      4  C5  UNL d   1       0.944   0.620   0.213  0.00  0.00     0.000 A 
ATOM      5  C6  UNL d   1      -0.286   0.999   0.750  0.00  0.00     0.000 A 
ATOM      6  C7  UNL d   1      -1.489   0.504   0.218  0.00  0.00    -0.073 A 
ATOM      7  C8  UNL d   1      -2.787   0.951   0.833  0.00  0.00     0.078 C 
ENDROOT
BRANCH   1   8
ATOM      8  C1  UNL d   1      -2.697  -0.902  -1.549  0.00  0.00     0.053 C 
ATOM      9  C   UNL d   1      -2.392  -1.825  -2.719  0.00  0.00     0.018 C 
ENDBRANCH   1   8
TORSDOF 1
ENDMDL
