MODEL 1
REMARK minimizedAffinity -3.77022719
REMARK minimizedRMSD -1
REMARK  1 active torsions:
REMARK  status: ('A' for Active; 'I' for Inactive)
REMARK    1  A    between atoms: C1_2  and  C2_3 
ROOT
ATOM      1  C2  UNL d   1      -0.096   0.056  -0.028  0.00  0.00    -0.076 A 
ATOM      2  C3  UNL d   1      -0.571   0.750  -1.155  0.00  0.00     0.004 A 
ATOM      3  C4  UNL d   1      -1.611   0.235  -1.928  0.00  0.00    -0.003 A 
ATOM      4  C5  UNL d   1      -2.192  -0.981  -1.587  0.00  0.00     0.000 A 
ATOM      5  C6  UNL d   1      -1.744  -1.674  -0.463  0.00  0.00     0.000 A 
ATOM      6  C7  UNL d   1      -0.709  -1.162   0.337  0.00  0.00    -0.073 A 
ATOM      7  C8  UNL d   1      -0.262  -1.954   1.535  0.00  0.00     0.078 C 
ENDROOT
BRANCH   1   8
ATOM      8  C1  UNL d   1       1.052   0.650   0.757  0.00  0.00     0.053 C 
ATOM      9  C   UNL d   1       0.801   2.097   1.151  0.00  0.00     0.018 C 
ENDBRANCH   1   8
TORSDOF 1
ENDMDL
