MODEL 1
REMARK minimizedAffinity -2.00062776
REMARK minimizedRMSD -1
REMARK  1 active torsions:
REMARK  status: ('A' for Active; 'I' for Inactive)
REMARK    1  A    between atoms: C1_2  and  C2_3 
ROOT
ATOM      1  C2  UNL d   1      -1.372  -1.088  -0.892  0.00  0.00    -0.076 A 
ATOM      2  C3  UNL d   1      -0.810  -0.325  -1.930  0.00  0.00     0.004 A 
ATOM      3  C4  UNL d   1       0.392   0.357  -1.750  0.00  0.00    -0.003 A 
ATOM      4  C5  UNL d   1       1.053   0.286  -0.528  0.00  0.00     0.000 A 
ATOM      5  C6  UNL d   1       0.519  -0.481   0.507  0.00  0.00     0.000 A 
ATOM      6  C7  UNL d   1      -0.684  -1.188   0.337  0.00  0.00    -0.073 A 
ATOM      7  C8  UNL d   1      -1.217  -1.994   1.489  0.00  0.00     0.078 C 
ENDROOT
BRANCH   1   8
ATOM      8  C1  UNL d   1      -2.692  -1.783  -1.137  0.00  0.00     0.053 C 
ATOM      9  C   UNL d   1      -2.647  -2.711  -2.341  0.00  0.00     0.018 C 
ENDBRANCH   1   8
TORSDOF 1
ENDMDL
