MODEL 1
REMARK minimizedAffinity -5.14864731
REMARK minimizedRMSD -1
REMARK  1 active torsions:
REMARK  status: ('A' for Active; 'I' for Inactive)
REMARK    1  A    between atoms: C1_2  and  C2_3 
ROOT
ATOM      1  C2  UNL d   1       0.370   0.840   0.266  0.00  0.00    -0.076 A 
ATOM      2  C3  UNL d   1      -0.222   1.896  -0.448  0.00  0.00     0.004 A 
ATOM      3  C4  UNL d   1      -1.515   1.782  -0.957  0.00  0.00    -0.003 A 
ATOM      4  C5  UNL d   1      -2.237   0.610  -0.759  0.00  0.00     0.000 A 
ATOM      5  C6  UNL d   1      -1.672  -0.440  -0.037  0.00  0.00     0.000 A 
ATOM      6  C7  UNL d   1      -0.376  -0.336   0.496  0.00  0.00    -0.073 A 
ATOM      7  C8  UNL d   1       0.186  -1.502   1.262  0.00  0.00     0.078 C 
ENDROOT
BRANCH   1   8
ATOM      8  C1  UNL d   1       1.785   1.011   0.771  0.00  0.00     0.053 C 
ATOM      9  C   UNL d   1       2.379   2.360   0.396  0.00  0.00     0.018 C 
ENDBRANCH   1   8
TORSDOF 1
ENDMDL
