MODEL 1
REMARK minimizedAffinity -2.77187991
REMARK minimizedRMSD -1
REMARK  1 active torsions:
REMARK  status: ('A' for Active; 'I' for Inactive)
REMARK    1  A    between atoms: C1_2  and  C2_3 
ROOT
ATOM      1  C2  UNL d   1      -0.597  -0.027  -0.046  0.00  0.00    -0.076 A 
ATOM      2  C3  UNL d   1      -1.121   0.554  -1.214  0.00  0.00     0.004 A 
ATOM      3  C4  UNL d   1      -2.114  -0.088  -1.952  0.00  0.00    -0.003 A 
ATOM      4  C5  UNL d   1      -2.600  -1.322  -1.533  0.00  0.00     0.000 A 
ATOM      5  C6  UNL d   1      -2.104  -1.905  -0.367  0.00  0.00     0.000 A 
ATOM      6  C7  UNL d   1      -1.114  -1.263   0.397  0.00  0.00    -0.073 A 
ATOM      7  C8  UNL d   1      -0.611  -1.940   1.642  0.00  0.00     0.078 C 
ENDROOT
BRANCH   1   8
ATOM      8  C1  UNL d   1       0.499   0.704   0.697  0.00  0.00     0.053 C 
ATOM      9  C   UNL d   1       1.887   0.339   0.195  0.00  0.00     0.018 C 
ENDBRANCH   1   8
TORSDOF 1
ENDMDL
