MODEL 1
REMARK minimizedAffinity 1.96739113
REMARK minimizedRMSD -1
REMARK  2 active torsions:
REMARK  status: ('A' for Active; 'I' for Inactive)
REMARK    1  A    between atoms: C2'_3  and  C1'_4 
REMARK    2  A    between atoms: C1'_4  and  C1_5 
ROOT
ATOM      1  C1  I4B d   1      -0.012  -0.050   1.835  0.00  0.00    -0.075 A 
ATOM      2  C2  I4B d   1      -0.195   0.972   2.732  0.00  0.00     0.003 A 
ATOM      3  C3  I4B d   1      -1.036   2.064   2.407  0.00  0.00     0.002 A 
ATOM      4  C4  I4B d   1      -1.631   2.117   1.163  0.00  0.00    -0.004 A 
ATOM      5  C5  I4B d   1      -1.462   1.068   0.263  0.00  0.00     0.002 A 
ATOM      6  C6  I4B d   1      -0.658  -0.028   0.606  0.00  0.00     0.003 A 
ENDROOT
BRANCH   1   7
ATOM      7  C1' I4B d   1       0.909  -1.171   2.198  0.00  0.00     0.060 C 
BRANCH   7   8
ATOM      8  C2' I4B d   1       0.655  -1.533   3.647  0.00  0.00    -0.013 C 
ATOM      9  C4' I4B d   1      -0.680  -2.210   3.815  0.00  0.00     0.013 C 
ATOM     10  C3' I4B d   1       1.773  -2.422   4.105  0.00  0.00     0.013 C 
ENDBRANCH   7   8
ENDBRANCH   1   7
TORSDOF 2
ENDMDL
