MODEL 1
REMARK minimizedAffinity -4.86582184
REMARK minimizedRMSD -1
REMARK  2 active torsions:
REMARK  status: ('A' for Active; 'I' for Inactive)
REMARK    1  A    between atoms: C2'_3  and  C1'_4 
REMARK    2  A    between atoms: C1'_4  and  C1_5 
ROOT
ATOM      1  C1  I4B d   1      -0.625  -0.266   1.083  0.00  0.00    -0.075 A 
ATOM      2  C2  I4B d   1      -0.200  -0.249  -0.222  0.00  0.00     0.003 A 
ATOM      3  C3  I4B d   1       0.950  -0.979  -0.607  0.00  0.00     0.002 A 
ATOM      4  C4  I4B d   1       1.671  -1.666   0.349  0.00  0.00    -0.004 A 
ATOM      5  C5  I4B d   1       1.226  -1.701   1.667  0.00  0.00     0.002 A 
ATOM      6  C6  I4B d   1       0.064  -1.006   2.035  0.00  0.00     0.003 A 
ENDROOT
BRANCH   1   7
ATOM      7  C1' I4B d   1      -1.825   0.543   1.461  0.00  0.00     0.060 C 
BRANCH   7   8
ATOM      8  C2' I4B d   1      -1.380   1.979   1.648  0.00  0.00    -0.013 C 
ATOM      9  C4' I4B d   1      -2.546   2.928   1.554  0.00  0.00     0.013 C 
ATOM     10  C3' I4B d   1      -0.703   2.085   2.981  0.00  0.00     0.013 C 
ENDBRANCH   7   8
ENDBRANCH   1   7
TORSDOF 2
ENDMDL
