MODEL 1
REMARK minimizedAffinity -5.7992444
REMARK minimizedRMSD -1
REMARK  2 active torsions:
REMARK  status: ('A' for Active; 'I' for Inactive)
REMARK    1  A    between atoms: C2'_3  and  C1'_4 
REMARK    2  A    between atoms: C1'_4  and  C1_5 
ROOT
ATOM      1  C1  I4B d   1       0.398  -0.632  -0.579  0.00  0.00    -0.075 A 
ATOM      2  C2  I4B d   1       0.317  -1.105   0.707  0.00  0.00     0.003 A 
ATOM      3  C3  I4B d   1      -0.557  -0.494   1.638  0.00  0.00     0.002 A 
ATOM      4  C4  I4B d   1      -1.291   0.611   1.258  0.00  0.00    -0.004 A 
ATOM      5  C5  I4B d   1      -1.226   1.075  -0.053  0.00  0.00     0.002 A 
ATOM      6  C6  I4B d   1      -0.386   0.442  -0.981  0.00  0.00     0.003 A 
ENDROOT
BRANCH   1   7
ATOM      7  C1' I4B d   1       1.356  -1.280  -1.527  0.00  0.00     0.060 C 
BRANCH   7   8
ATOM      8  C2' I4B d   1       0.579  -2.265  -2.376  0.00  0.00    -0.013 C 
ATOM      9  C4' I4B d   1       0.838  -2.042  -3.843  0.00  0.00     0.013 C 
ATOM     10  C3' I4B d   1       0.977  -3.649  -1.960  0.00  0.00     0.013 C 
ENDBRANCH   7   8
ENDBRANCH   1   7
TORSDOF 2
ENDMDL
