MODEL 1
REMARK minimizedAffinity -4.19193125
REMARK minimizedRMSD -1
REMARK  2 active torsions:
REMARK  status: ('A' for Active; 'I' for Inactive)
REMARK    1  A    between atoms: C2'_3  and  C1'_4 
REMARK    2  A    between atoms: C1'_4  and  C1_5 
ROOT
ATOM      1  C1  I4B d   1       0.291  -0.806  -0.731  0.00  0.00    -0.075 A 
ATOM      2  C2  I4B d   1      -0.782  -1.364  -0.082  0.00  0.00     0.003 A 
ATOM      3  C3  I4B d   1      -1.717  -0.538   0.589  0.00  0.00     0.002 A 
ATOM      4  C4  I4B d   1      -1.513   0.826   0.628  0.00  0.00    -0.004 A 
ATOM      5  C5  I4B d   1      -0.437   1.391  -0.050  0.00  0.00     0.002 A 
ATOM      6  C6  I4B d   1       0.464   0.572  -0.744  0.00  0.00     0.003 A 
ENDROOT
BRANCH   1   7
ATOM      7  C1' I4B d   1       1.276  -1.710  -1.402  0.00  0.00     0.060 C 
BRANCH   7   8
ATOM      8  C2' I4B d   1       0.589  -3.033  -1.670  0.00  0.00    -0.013 C 
ATOM      9  C4' I4B d   1       0.104  -3.118  -3.093  0.00  0.00     0.013 C 
ATOM     10  C3' I4B d   1       1.564  -4.131  -1.364  0.00  0.00     0.013 C 
ENDBRANCH   7   8
ENDBRANCH   1   7
TORSDOF 2
ENDMDL
