MODEL 1
REMARK minimizedAffinity -4.05927706
REMARK minimizedRMSD -1
REMARK  2 active torsions:
REMARK  status: ('A' for Active; 'I' for Inactive)
REMARK    1  A    between atoms: C2'_3  and  C1'_4 
REMARK    2  A    between atoms: C1'_4  and  C1_5 
ROOT
ATOM      1  C1  I4B d   1       0.664  -0.213  -0.609  0.00  0.00    -0.075 A 
ATOM      2  C2  I4B d   1      -0.148  -0.400   0.482  0.00  0.00     0.003 A 
ATOM      3  C3  I4B d   1      -1.074   0.602   0.861  0.00  0.00     0.002 A 
ATOM      4  C4  I4B d   1      -1.119   1.788   0.157  0.00  0.00    -0.004 A 
ATOM      5  C5  I4B d   1      -0.310   1.966  -0.963  0.00  0.00     0.002 A 
ATOM      6  C6  I4B d   1       0.578   0.954  -1.356  0.00  0.00     0.003 A 
ENDROOT
BRANCH   1   7
ATOM      7  C1' I4B d   1       1.653  -1.278  -0.962  0.00  0.00     0.060 C 
BRANCH   7   8
ATOM      8  C2' I4B d   1       0.885  -2.476  -1.480  0.00  0.00    -0.013 C 
ATOM      9  C4' I4B d   1       0.601  -2.346  -2.954  0.00  0.00     0.013 C 
ATOM     10  C3' I4B d   1       1.693  -3.706  -1.192  0.00  0.00     0.013 C 
ENDBRANCH   7   8
ENDBRANCH   1   7
TORSDOF 2
ENDMDL
