MODEL 1
REMARK minimizedAffinity -5.48082066
REMARK minimizedRMSD -1
REMARK  2 active torsions:
REMARK  status: ('A' for Active; 'I' for Inactive)
REMARK    1  A    between atoms: C2'_3  and  C1'_4 
REMARK    2  A    between atoms: C1'_4  and  C1_5 
ROOT
ATOM      1  C1  I4B d   1       0.261  -0.351  -0.773  0.00  0.00    -0.075 A 
ATOM      2  C2  I4B d   1      -0.606  -0.979  -1.632  0.00  0.00     0.003 A 
ATOM      3  C3  I4B d   1      -0.179  -2.101  -2.383  0.00  0.00     0.002 A 
ATOM      4  C4  I4B d   1       1.130  -2.527  -2.283  0.00  0.00    -0.004 A 
ATOM      5  C5  I4B d   1       2.001  -1.903  -1.395  0.00  0.00     0.002 A 
ATOM      6  C6  I4B d   1       1.561  -0.817  -0.626  0.00  0.00     0.003 A 
ENDROOT
BRANCH   1   7
ATOM      7  C1' I4B d   1      -0.214   0.850  -0.019  0.00  0.00     0.060 C 
BRANCH   7   8
ATOM      8  C2' I4B d   1      -1.221   0.386   1.013  0.00  0.00    -0.013 C 
ATOM      9  C4' I4B d   1      -0.545  -0.335   2.149  0.00  0.00     0.013 C 
ATOM     10  C3' I4B d   1      -1.968   1.590   1.504  0.00  0.00     0.013 C 
ENDBRANCH   7   8
ENDBRANCH   1   7
TORSDOF 2
ENDMDL
