MODEL 1
REMARK minimizedAffinity -5.00713301
REMARK minimizedRMSD -1
REMARK  2 active torsions:
REMARK  status: ('A' for Active; 'I' for Inactive)
REMARK    1  A    between atoms: C2'_3  and  C1'_4 
REMARK    2  A    between atoms: C1'_4  and  C1_5 
ROOT
ATOM      1  C1  I4B d   1       0.342  -0.246   0.210  0.00  0.00    -0.075 A 
ATOM      2  C2  I4B d   1      -0.376   0.829  -0.253  0.00  0.00     0.003 A 
ATOM      3  C3  I4B d   1      -1.345   1.448   0.574  0.00  0.00     0.002 A 
ATOM      4  C4  I4B d   1      -1.598   0.932   1.829  0.00  0.00    -0.004 A 
ATOM      5  C5  I4B d   1      -0.853  -0.143   2.305  0.00  0.00     0.002 A 
ATOM      6  C6  I4B d   1       0.132  -0.728   1.495  0.00  0.00     0.003 A 
ENDROOT
BRANCH   1   7
ATOM      7  C1' I4B d   1       1.334  -0.896  -0.701  0.00  0.00     0.060 C 
BRANCH   7   8
ATOM      8  C2' I4B d   1       0.810  -2.273  -1.055  0.00  0.00    -0.013 C 
ATOM      9  C4' I4B d   1       0.367  -2.335  -2.494  0.00  0.00     0.013 C 
ATOM     10  C3' I4B d   1       1.898  -3.267  -0.781  0.00  0.00     0.013 C 
ENDBRANCH   7   8
ENDBRANCH   1   7
TORSDOF 2
ENDMDL
