MODEL 1
REMARK minimizedAffinity -6.12322521
REMARK minimizedRMSD -1
REMARK  2 active torsions:
REMARK  status: ('A' for Active; 'I' for Inactive)
REMARK    1  A    between atoms: C2'_3  and  C1'_4 
REMARK    2  A    between atoms: C1'_4  and  C1_5 
ROOT
ATOM      1  C1  I4B d   1       0.269   0.059  -0.107  0.00  0.00    -0.075 A 
ATOM      2  C2  I4B d   1      -0.420   1.177  -0.506  0.00  0.00     0.003 A 
ATOM      3  C3  I4B d   1      -1.346   1.794   0.370  0.00  0.00     0.002 A 
ATOM      4  C4  I4B d   1      -1.587   1.234   1.608  0.00  0.00    -0.004 A 
ATOM      5  C5  I4B d   1      -0.870   0.114   2.020  0.00  0.00     0.002 A 
ATOM      6  C6  I4B d   1       0.073  -0.471   1.162  0.00  0.00     0.003 A 
ENDROOT
BRANCH   1   7
ATOM      7  C1' I4B d   1       1.215  -0.586  -1.070  0.00  0.00     0.060 C 
BRANCH   7   8
ATOM      8  C2' I4B d   1       0.603  -1.898  -1.517  0.00  0.00    -0.013 C 
ATOM      9  C4' I4B d   1       0.274  -1.873  -2.986  0.00  0.00     0.013 C 
ATOM     10  C3' I4B d   1       1.575  -2.995  -1.199  0.00  0.00     0.013 C 
ENDBRANCH   7   8
ENDBRANCH   1   7
TORSDOF 2
ENDMDL
