MODEL 1
REMARK minimizedAffinity -6.66482878
REMARK minimizedRMSD -1
REMARK  2 active torsions:
REMARK  status: ('A' for Active; 'I' for Inactive)
REMARK    1  A    between atoms: C2'_3  and  C1'_4 
REMARK    2  A    between atoms: C1'_4  and  C1_5 
ROOT
ATOM      1  C1  I4B d   1       0.104  -0.597   0.060  0.00  0.00    -0.075 A 
ATOM      2  C2  I4B d   1      -0.289   0.453  -0.732  0.00  0.00     0.003 A 
ATOM      3  C3  I4B d   1      -1.130   1.465  -0.209  0.00  0.00     0.002 A 
ATOM      4  C4  I4B d   1      -1.593   1.361   1.087  0.00  0.00    -0.004 A 
ATOM      5  C5  I4B d   1      -1.175   0.308   1.895  0.00  0.00     0.002 A 
ATOM      6  C6  I4B d   1      -0.312  -0.671   1.383  0.00  0.00     0.003 A 
ENDROOT
BRANCH   1   7
ATOM      7  C1' I4B d   1       0.966  -1.665  -0.534  0.00  0.00     0.060 C 
BRANCH   7   8
ATOM      8  C2' I4B d   1       0.228  -2.255  -1.719  0.00  0.00    -0.013 C 
ATOM      9  C4' I4B d   1       1.135  -2.390  -2.914  0.00  0.00     0.013 C 
ATOM     10  C3' I4B d   1      -0.322  -3.587  -1.304  0.00  0.00     0.013 C 
ENDBRANCH   7   8
ENDBRANCH   1   7
TORSDOF 2
ENDMDL
