MODEL 1
REMARK minimizedAffinity -1.37460327
REMARK minimizedRMSD -1
REMARK  2 active torsions:
REMARK  status: ('A' for Active; 'I' for Inactive)
REMARK    1  A    between atoms: C2'_3  and  C1'_4 
REMARK    2  A    between atoms: C1'_4  and  C1_5 
ROOT
ATOM      1  C1  I4B d   1       1.223  -2.211  -1.199  0.00  0.00    -0.075 A 
ATOM      2  C2  I4B d   1       1.660  -3.335  -0.542  0.00  0.00     0.003 A 
ATOM      3  C3  I4B d   1       1.350  -4.621  -1.046  0.00  0.00     0.002 A 
ATOM      4  C4  I4B d   1       0.563  -4.738  -2.173  0.00  0.00    -0.004 A 
ATOM      5  C5  I4B d   1       0.140  -3.598  -2.851  0.00  0.00     0.002 A 
ATOM      6  C6  I4B d   1       0.483  -2.326  -2.368  0.00  0.00     0.003 A 
ENDROOT
BRANCH   1   7
ATOM      7  C1' I4B d   1       1.541  -0.869  -0.621  0.00  0.00     0.060 C 
BRANCH   7   8
ATOM      8  C2' I4B d   1       0.381   0.057  -0.926  0.00  0.00    -0.013 C 
ATOM      9  C4' I4B d   1      -0.372   0.417   0.328  0.00  0.00     0.013 C 
ATOM     10  C3' I4B d   1       0.929   1.280  -1.598  0.00  0.00     0.013 C 
ENDBRANCH   7   8
ENDBRANCH   1   7
TORSDOF 2
ENDMDL
