MODEL 1
REMARK minimizedAffinity 2.17422867
REMARK minimizedRMSD -1
REMARK  1 active torsions:
REMARK  status: ('A' for Active; 'I' for Inactive)
REMARK    1  A    between atoms: C1_2  and  C2_3 
ROOT
ATOM      1  C2  UNL d   1      -4.713  -3.401   4.881  0.00  0.00    -0.077 A 
ATOM      2  C3  UNL d   1      -5.469  -3.840   5.976  0.00  0.00     0.002 A 
ATOM      3  C4  UNL d   1      -5.999  -5.132   5.996  0.00  0.00     0.002 A 
ATOM      4  C5  UNL d   1      -5.775  -5.995   4.926  0.00  0.00    -0.004 A 
ATOM      5  C6  UNL d   1      -5.025  -5.567   3.831  0.00  0.00     0.002 A 
ATOM      6  C7  UNL d   1      -4.496  -4.276   3.809  0.00  0.00     0.002 A 
ENDROOT
BRANCH   1   7
ATOM      7  C1  UNL d   1      -4.099  -2.025   4.879  0.00  0.00     0.055 C 
ATOM      8  C   UNL d   1      -3.236  -1.805   3.645  0.00  0.00     0.019 C 
ENDBRANCH   1   7
TORSDOF 1
ENDMDL
