MODEL 1
REMARK minimizedAffinity 8.15223408
REMARK minimizedRMSD -1
REMARK  1 active torsions:
REMARK  status: ('A' for Active; 'I' for Inactive)
REMARK    1  A    between atoms: C1_2  and  C2_3 
ROOT
ATOM      1  C2  UNL d   1       4.293   2.153   1.853  0.00  0.00    -0.077 A 
ATOM      2  C3  UNL d   1       4.250   0.973   2.610  0.00  0.00     0.002 A 
ATOM      3  C4  UNL d   1       3.349  -0.042   2.284  0.00  0.00     0.002 A 
ATOM      4  C5  UNL d   1       2.488   0.109   1.199  0.00  0.00    -0.004 A 
ATOM      5  C6  UNL d   1       2.522   1.279   0.442  0.00  0.00     0.002 A 
ATOM      6  C7  UNL d   1       3.421   2.296   0.766  0.00  0.00     0.002 A 
ENDROOT
BRANCH   1   7
ATOM      7  C1  UNL d   1       5.298   3.228   2.172  0.00  0.00     0.055 C 
ATOM      8  C   UNL d   1       5.994   3.727   0.914  0.00  0.00     0.019 C 
ENDBRANCH   1   7
TORSDOF 1
ENDMDL
