MODEL 1
REMARK minimizedAffinity 9.6826601
REMARK minimizedRMSD -1
REMARK  1 active torsions:
REMARK  status: ('A' for Active; 'I' for Inactive)
REMARK    1  A    between atoms: C1_2  and  C2_3 
ROOT
ATOM      1  C2  UNL d   1       2.389   3.920  -3.086  0.00  0.00    -0.077 A 
ATOM      2  C3  UNL d   1       3.416   4.731  -2.582  0.00  0.00     0.002 A 
ATOM      3  C4  UNL d   1       4.685   4.706  -3.163  0.00  0.00     0.002 A 
ATOM      4  C5  UNL d   1       4.938   3.876  -4.253  0.00  0.00    -0.004 A 
ATOM      5  C6  UNL d   1       3.924   3.065  -4.761  0.00  0.00     0.002 A 
ATOM      6  C7  UNL d   1       2.655   3.087  -4.180  0.00  0.00     0.002 A 
ENDROOT
BRANCH   1   7
ATOM      7  C1  UNL d   1       1.006   3.983  -2.492  0.00  0.00     0.055 C 
ATOM      8  C   UNL d   1       0.545   5.422  -2.312  0.00  0.00     0.019 C 
ENDBRANCH   1   7
TORSDOF 1
ENDMDL
