MODEL 1
REMARK minimizedAffinity -0.990255833
REMARK minimizedRMSD -1
REMARK  1 active torsions:
REMARK  status: ('A' for Active; 'I' for Inactive)
REMARK    1  A    between atoms: C1_2  and  C2_3 
ROOT
ATOM      1  C2  UNL d   1       3.287  -4.161  -0.503  0.00  0.00    -0.077 A 
ATOM      2  C3  UNL d   1       3.993  -2.978  -0.760  0.00  0.00     0.002 A 
ATOM      3  C4  UNL d   1       5.345  -3.023  -1.108  0.00  0.00     0.002 A 
ATOM      4  C5  UNL d   1       6.000  -4.249  -1.206  0.00  0.00    -0.004 A 
ATOM      5  C6  UNL d   1       5.307  -5.431  -0.950  0.00  0.00     0.002 A 
ATOM      6  C7  UNL d   1       3.956  -5.388  -0.601  0.00  0.00     0.002 A 
ENDROOT
BRANCH   1   7
ATOM      7  C1  UNL d   1       1.817  -4.118  -0.175  0.00  0.00     0.055 C 
ATOM      8  C   UNL d   1       1.530  -3.137   0.952  0.00  0.00     0.019 C 
ENDBRANCH   1   7
TORSDOF 1
ENDMDL
