MODEL 1
REMARK minimizedAffinity 11.6004438
REMARK minimizedRMSD -1
REMARK  1 active torsions:
REMARK  status: ('A' for Active; 'I' for Inactive)
REMARK    1  A    between atoms: C1_2  and  C2_3 
ROOT
ATOM      1  C2  UNL d   1      -3.111  -0.466   1.432  0.00  0.00    -0.077 A 
ATOM      2  C3  UNL d   1      -2.703   0.555   2.301  0.00  0.00     0.002 A 
ATOM      3  C4  UNL d   1      -1.421   0.541   2.854  0.00  0.00     0.002 A 
ATOM      4  C5  UNL d   1      -0.536  -0.489   2.541  0.00  0.00    -0.004 A 
ATOM      5  C6  UNL d   1      -0.934  -1.510   1.679  0.00  0.00     0.002 A 
ATOM      6  C7  UNL d   1      -2.215  -1.498   1.126  0.00  0.00     0.002 A 
ENDROOT
BRANCH   1   7
ATOM      7  C1  UNL d   1      -4.476  -0.426   0.796  0.00  0.00     0.055 C 
ATOM      8  C   UNL d   1      -4.680   0.856   0.002  0.00  0.00     0.019 C 
ENDBRANCH   1   7
TORSDOF 1
ENDMDL
