MODEL 1
REMARK minimizedAffinity 7.6371274
REMARK minimizedRMSD -1
REMARK  1 active torsions:
REMARK  status: ('A' for Active; 'I' for Inactive)
REMARK    1  A    between atoms: C1_2  and  C2_3 
ROOT
ATOM      1  C2  UNL d   1      -0.297   4.430  -3.275  0.00  0.00    -0.077 A 
ATOM      2  C3  UNL d   1       0.538   5.342  -2.614  0.00  0.00     0.002 A 
ATOM      3  C4  UNL d   1       1.742   4.917  -2.049  0.00  0.00     0.002 A 
ATOM      4  C5  UNL d   1       2.124   3.581  -2.143  0.00  0.00    -0.004 A 
ATOM      5  C6  UNL d   1       1.299   2.665  -2.796  0.00  0.00     0.002 A 
ATOM      6  C7  UNL d   1       0.095   3.088  -3.360  0.00  0.00     0.002 A 
ENDROOT
BRANCH   1   7
ATOM      7  C1  UNL d   1      -1.572   4.895  -3.927  0.00  0.00     0.055 C 
ATOM      8  C   UNL d   1      -1.463   4.860  -5.445  0.00  0.00     0.019 C 
ENDBRANCH   1   7
TORSDOF 1
ENDMDL
