MODEL 1
REMARK minimizedAffinity 16.2011547
REMARK minimizedRMSD -1
REMARK  1 active torsions:
REMARK  status: ('A' for Active; 'I' for Inactive)
REMARK    1  A    between atoms: C1_2  and  C2_3 
ROOT
ATOM      1  C2  UNL d   1      -5.666   0.157  -2.453  0.00  0.00    -0.077 A 
ATOM      2  C3  UNL d   1      -6.000   1.515  -2.550  0.00  0.00     0.002 A 
ATOM      3  C4  UNL d   1      -5.872   2.355  -1.442  0.00  0.00     0.002 A 
ATOM      4  C5  UNL d   1      -5.408   1.847  -0.231  0.00  0.00    -0.004 A 
ATOM      5  C6  UNL d   1      -5.076   0.497  -0.123  0.00  0.00     0.002 A 
ATOM      6  C7  UNL d   1      -5.203  -0.344  -1.229  0.00  0.00     0.002 A 
ENDROOT
BRANCH   1   7
ATOM      7  C1  UNL d   1      -5.756  -0.740  -3.660  0.00  0.00     0.055 C 
ATOM      8  C   UNL d   1      -6.000   0.063  -4.929  0.00  0.00     0.019 C 
ENDBRANCH   1   7
TORSDOF 1
ENDMDL
