MODEL 1
REMARK minimizedAffinity 12.1471186
REMARK minimizedRMSD -1
REMARK  1 active torsions:
REMARK  status: ('A' for Active; 'I' for Inactive)
REMARK    1  A    between atoms: C1_2  and  C2_3 
ROOT
ATOM      1  C2  UNL d   1       3.505   3.753  -3.406  0.00  0.00    -0.077 A 
ATOM      2  C3  UNL d   1       4.134   4.590  -2.472  0.00  0.00     0.002 A 
ATOM      3  C4  UNL d   1       5.376   5.159  -2.758  0.00  0.00     0.002 A 
ATOM      4  C5  UNL d   1       5.999   4.902  -3.978  0.00  0.00    -0.004 A 
ATOM      5  C6  UNL d   1       5.383   4.070  -4.912  0.00  0.00     0.002 A 
ATOM      6  C7  UNL d   1       4.142   3.499  -4.628  0.00  0.00     0.002 A 
ENDROOT
BRANCH   1   7
ATOM      7  C1  UNL d   1       2.143   3.178  -3.120  0.00  0.00     0.055 C 
ATOM      8  C   UNL d   1       2.213   2.091  -2.057  0.00  0.00     0.019 C 
ENDBRANCH   1   7
TORSDOF 1
ENDMDL
