MODEL 1
REMARK minimizedAffinity 12.6068468
REMARK minimizedRMSD -1
REMARK  1 active torsions:
REMARK  status: ('A' for Active; 'I' for Inactive)
REMARK    1  A    between atoms: C1_2  and  C2_3 
ROOT
ATOM      1  C2  UNL d   1      -5.335   2.501  -0.637  0.00  0.00    -0.077 A 
ATOM      2  C3  UNL d   1      -5.130   1.789   0.553  0.00  0.00     0.002 A 
ATOM      3  C4  UNL d   1      -5.237   0.396   0.570  0.00  0.00     0.002 A 
ATOM      4  C5  UNL d   1      -5.544  -0.295  -0.600  0.00  0.00    -0.004 A 
ATOM      5  C6  UNL d   1      -5.751   0.405  -1.788  0.00  0.00     0.002 A 
ATOM      6  C7  UNL d   1      -5.646   1.796  -1.807  0.00  0.00     0.002 A 
ENDROOT
BRANCH   1   7
ATOM      7  C1  UNL d   1      -5.172   3.998  -0.668  0.00  0.00     0.055 C 
ATOM      8  C   UNL d   1      -3.751   4.408  -0.309  0.00  0.00     0.019 C 
ENDBRANCH   1   7
TORSDOF 1
ENDMDL
