MODEL 1
REMARK minimizedAffinity 9.09226894
REMARK minimizedRMSD -1
REMARK  1 active torsions:
REMARK  status: ('A' for Active; 'I' for Inactive)
REMARK    1  A    between atoms: C1_2  and  C2_3 
ROOT
ATOM      1  C2  UNL d   1       3.375   4.083  -2.302  0.00  0.00    -0.077 A 
ATOM      2  C3  UNL d   1       3.074   2.769  -2.686  0.00  0.00     0.002 A 
ATOM      3  C4  UNL d   1       1.747   2.339  -2.753  0.00  0.00     0.002 A 
ATOM      4  C5  UNL d   1       0.711   3.218  -2.443  0.00  0.00    -0.004 A 
ATOM      5  C6  UNL d   1       1.001   4.527  -2.057  0.00  0.00     0.002 A 
ATOM      6  C7  UNL d   1       2.327   4.957  -1.988  0.00  0.00     0.002 A 
ENDROOT
BRANCH   1   7
ATOM      7  C1  UNL d   1       4.803   4.562  -2.276  0.00  0.00     0.055 C 
ATOM      8  C   UNL d   1       5.108   5.324  -0.994  0.00  0.00     0.019 C 
ENDBRANCH   1   7
TORSDOF 1
ENDMDL
