MODEL 1
REMARK minimizedAffinity 14.9340954
REMARK minimizedRMSD -1
REMARK  0 active torsions:
REMARK  status: ('A' for Active; 'I' for Inactive)
ROOT
ATOM      1  O1  BZF d   1       0.378   1.607   2.939  0.00  0.00    -0.204 OA
ATOM      2  C2  BZF d   1       0.725   0.877   4.060  0.00  0.00     0.174 A 
ATOM      3  C3  BZF d   1       1.827   0.136   3.826  0.00  0.00    -0.012 A 
ATOM      4  C3A BZF d   1       2.246   0.491   2.505  0.00  0.00    -0.107 A 
ATOM      5  C4  BZF d   1       3.291   0.103   1.716  0.00  0.00     0.055 A 
ATOM      6  C5  BZF d   1       3.374   0.584   0.447  0.00  0.00    -0.016 A 
ATOM      7  C6  BZF d   1       2.429   1.448  -0.065  0.00  0.00     0.022 A 
ATOM      8  C7  BZF d   1       1.378   1.866   0.682  0.00  0.00     0.029 A 
ATOM      9  C7A BZF d   1       1.309   1.408   1.975  0.00  0.00     0.058 A 
ENDROOT
TORSDOF 0
ENDMDL
