MODEL 1
REMARK minimizedAffinity 18.3088799
REMARK minimizedRMSD -1
REMARK  0 active torsions:
REMARK  status: ('A' for Active; 'I' for Inactive)
ROOT
ATOM      1  O1  BZF d   1      -2.207  -5.999   2.450  0.00  0.00    -0.204 OA
ATOM      2  C2  BZF d   1      -3.027  -6.000   1.338  0.00  0.00     0.174 A 
ATOM      3  C3  BZF d   1      -3.055  -4.780   0.764  0.00  0.00    -0.012 A 
ATOM      4  C3A BZF d   1      -2.127  -3.990   1.512  0.00  0.00    -0.107 A 
ATOM      5  C4  BZF d   1      -1.704  -2.695   1.415  0.00  0.00     0.055 A 
ATOM      6  C5  BZF d   1      -0.843  -2.209   2.348  0.00  0.00    -0.016 A 
ATOM      7  C6  BZF d   1      -0.390  -2.988   3.392  0.00  0.00     0.022 A 
ATOM      8  C7  BZF d   1      -0.777  -4.279   3.528  0.00  0.00     0.029 A 
ATOM      9  C7A BZF d   1      -1.621  -4.783   2.568  0.00  0.00     0.058 A 
ENDROOT
TORSDOF 0
ENDMDL
