MODEL 1
REMARK minimizedAffinity 16.2207851
REMARK minimizedRMSD -1
REMARK  0 active torsions:
REMARK  status: ('A' for Active; 'I' for Inactive)
ROOT
ATOM      1  O1  BZF d   1       3.303  -0.374   0.096  0.00  0.00    -0.204 OA
ATOM      2  C2  BZF d   1       3.763   0.346  -0.990  0.00  0.00     0.174 A 
ATOM      3  C3  BZF d   1       3.114   1.523  -1.093  0.00  0.00    -0.012 A 
ATOM      4  C3A BZF d   1       2.256   1.581   0.051  0.00  0.00    -0.107 A 
ATOM      5  C4  BZF d   1       1.371   2.512   0.515  0.00  0.00     0.055 A 
ATOM      6  C5  BZF d   1       0.637   2.231   1.624  0.00  0.00    -0.016 A 
ATOM      7  C6  BZF d   1       0.758   1.029   2.289  0.00  0.00     0.022 A 
ATOM      8  C7  BZF d   1       1.626   0.076   1.869  0.00  0.00     0.029 A 
ATOM      9  C7A BZF d   1       2.393   0.370   0.768  0.00  0.00     0.058 A 
ENDROOT
TORSDOF 0
ENDMDL
