MODEL 1
REMARK minimizedAffinity 13.2871761
REMARK minimizedRMSD -1
REMARK  0 active torsions:
REMARK  status: ('A' for Active; 'I' for Inactive)
ROOT
ATOM      1  O1  BZF d   1      -0.327  -2.990   2.899  0.00  0.00    -0.204 OA
ATOM      2  C2  BZF d   1      -0.780  -1.782   2.403  0.00  0.00     0.174 A 
ATOM      3  C3  BZF d   1      -1.967  -1.935   1.781  0.00  0.00    -0.012 A 
ATOM      4  C3A BZF d   1      -2.319  -3.308   1.976  0.00  0.00    -0.107 A 
ATOM      5  C4  BZF d   1      -3.396  -4.062   1.605  0.00  0.00     0.055 A 
ATOM      6  C5  BZF d   1      -3.400  -5.391   1.889  0.00  0.00    -0.016 A 
ATOM      7  C6  BZF d   1      -2.344  -5.999   2.536  0.00  0.00     0.022 A 
ATOM      8  C7  BZF d   1      -1.257  -5.291   2.928  0.00  0.00     0.029 A 
ATOM      9  C7A BZF d   1      -1.264  -3.941   2.672  0.00  0.00     0.058 A 
ENDROOT
TORSDOF 0
ENDMDL
