MODEL 1
REMARK minimizedAffinity 11.2404718
REMARK minimizedRMSD -1
REMARK  0 active torsions:
REMARK  status: ('A' for Active; 'I' for Inactive)
ROOT
ATOM      1  O1  BZF d   1       2.081  -0.773   2.677  0.00  0.00    -0.204 OA
ATOM      2  C2  BZF d   1       1.068  -0.191   3.413  0.00  0.00     0.174 A 
ATOM      3  C3  BZF d   1       0.651   0.953   2.832  0.00  0.00    -0.012 A 
ATOM      4  C3A BZF d   1       1.391   1.046   1.611  0.00  0.00    -0.107 A 
ATOM      5  C4  BZF d   1       1.408   1.953   0.591  0.00  0.00     0.055 A 
ATOM      6  C5  BZF d   1       2.299   1.791  -0.423  0.00  0.00    -0.016 A 
ATOM      7  C6  BZF d   1       3.189   0.738  -0.445  0.00  0.00     0.022 A 
ATOM      8  C7  BZF d   1       3.207  -0.191   0.543  0.00  0.00     0.029 A 
ATOM      9  C7A BZF d   1       2.285  -0.048   1.551  0.00  0.00     0.058 A 
ENDROOT
TORSDOF 0
ENDMDL
