MODEL 1
REMARK minimizedAffinity 21.9088688
REMARK minimizedRMSD -1
REMARK  0 active torsions:
REMARK  status: ('A' for Active; 'I' for Inactive)
ROOT
ATOM      1  O1  BZF d   1       0.576  -1.852  -0.158  0.00  0.00    -0.204 OA
ATOM      2  C2  BZF d   1      -0.528  -2.553   0.288  0.00  0.00     0.174 A 
ATOM      3  C3  BZF d   1      -1.113  -1.915   1.323  0.00  0.00    -0.012 A 
ATOM      4  C3A BZF d   1      -0.380  -0.696   1.476  0.00  0.00    -0.107 A 
ATOM      5  C4  BZF d   1      -0.492   0.367   2.327  0.00  0.00     0.055 A 
ATOM      6  C5  BZF d   1       0.429   1.365   2.262  0.00  0.00    -0.016 A 
ATOM      7  C6  BZF d   1       1.476   1.330   1.365  0.00  0.00     0.022 A 
ATOM      8  C7  BZF d   1       1.626   0.299   0.498  0.00  0.00     0.029 A 
ATOM      9  C7A BZF d   1       0.678  -0.695   0.538  0.00  0.00     0.058 A 
ENDROOT
TORSDOF 0
ENDMDL
