MODEL 1
REMARK minimizedAffinity 17.7576714
REMARK minimizedRMSD -1
REMARK  0 active torsions:
REMARK  status: ('A' for Active; 'I' for Inactive)
ROOT
ATOM      1  O1  BZF d   1      -3.018  -1.670  -4.874  0.00  0.00    -0.204 OA
ATOM      2  C2  BZF d   1      -2.306  -2.037  -6.000  0.00  0.00     0.174 A 
ATOM      3  C3  BZF d   1      -1.785  -3.273  -5.854  0.00  0.00    -0.012 A 
ATOM      4  C3A BZF d   1      -2.274  -3.741  -4.594  0.00  0.00    -0.107 A 
ATOM      5  C4  BZF d   1      -2.117  -4.907  -3.901  0.00  0.00     0.055 A 
ATOM      6  C5  BZF d   1      -2.667  -5.020  -2.664  0.00  0.00    -0.016 A 
ATOM      7  C6  BZF d   1      -3.376  -3.985  -2.088  0.00  0.00     0.022 A 
ATOM      8  C7  BZF d   1      -3.562  -2.811  -2.738  0.00  0.00     0.029 A 
ATOM      9  C7A BZF d   1      -3.035  -2.707  -4.002  0.00  0.00     0.058 A 
ENDROOT
TORSDOF 0
ENDMDL
