MODEL 1
REMARK minimizedAffinity 22.9247932
REMARK minimizedRMSD -1
REMARK  0 active torsions:
REMARK  status: ('A' for Active; 'I' for Inactive)
ROOT
ATOM      1  O1  BZF d   1       4.864  -0.123   1.937  0.00  0.00    -0.204 OA
ATOM      2  C2  BZF d   1       5.998  -0.435   1.212  0.00  0.00     0.174 A 
ATOM      3  C3  BZF d   1       5.689  -0.670  -0.080  0.00  0.00    -0.012 A 
ATOM      4  C3A BZF d   1       4.288  -0.402  -0.187  0.00  0.00    -0.107 A 
ATOM      5  C4  BZF d   1       3.401  -0.442  -1.225  0.00  0.00     0.055 A 
ATOM      6  C5  BZF d   1       2.088  -0.194  -0.981  0.00  0.00    -0.016 A 
ATOM      7  C6  BZF d   1       1.626   0.090   0.287  0.00  0.00     0.022 A 
ATOM      8  C7  BZF d   1       2.468   0.145   1.348  0.00  0.00     0.029 A 
ATOM      9  C7A BZF d   1       3.801  -0.072   1.099  0.00  0.00     0.058 A 
ENDROOT
TORSDOF 0
ENDMDL
