MODEL 1
REMARK minimizedAffinity 14.59231
REMARK minimizedRMSD -1
REMARK  0 active torsions:
REMARK  status: ('A' for Active; 'I' for Inactive)
ROOT
ATOM      1  O1  BZF d   1      -1.100  -4.755   2.126  0.00  0.00    -0.204 OA
ATOM      2  C2  BZF d   1      -1.803  -5.941   2.210  0.00  0.00     0.174 A 
ATOM      3  C3  BZF d   1      -2.757  -6.000   1.259  0.00  0.00    -0.012 A 
ATOM      4  C3A BZF d   1      -2.582  -4.815   0.476  0.00  0.00    -0.107 A 
ATOM      5  C4  BZF d   1      -3.217  -4.313  -0.623  0.00  0.00     0.055 A 
ATOM      6  C5  BZF d   1      -2.850  -3.095  -1.100  0.00  0.00    -0.016 A 
ATOM      7  C6  BZF d   1      -1.857  -2.349  -0.499  0.00  0.00     0.022 A 
ATOM      8  C7  BZF d   1      -1.194  -2.807   0.591  0.00  0.00     0.029 A 
ATOM      9  C7A BZF d   1      -1.540  -4.053   1.055  0.00  0.00     0.058 A 
ENDROOT
TORSDOF 0
ENDMDL
