MODEL 1
REMARK minimizedAffinity 21.838829
REMARK minimizedRMSD -1
REMARK  0 active torsions:
REMARK  status: ('A' for Active; 'I' for Inactive)
ROOT
ATOM      1  O1  BZF d   1      -3.772  -2.067  -1.650  0.00  0.00    -0.204 OA
ATOM      2  C2  BZF d   1      -3.629  -3.086  -2.571  0.00  0.00     0.174 A 
ATOM      3  C3  BZF d   1      -2.642  -3.929  -2.202  0.00  0.00    -0.012 A 
ATOM      4  C3A BZF d   1      -2.200  -3.454  -0.926  0.00  0.00    -0.107 A 
ATOM      5  C4  BZF d   1      -1.251  -3.883  -0.042  0.00  0.00     0.055 A 
ATOM      6  C5  BZF d   1      -1.017  -3.154   1.080  0.00  0.00    -0.016 A 
ATOM      7  C6  BZF d   1      -1.707  -1.990   1.347  0.00  0.00     0.022 A 
ATOM      8  C7  BZF d   1      -2.661  -1.527   0.502  0.00  0.00     0.029 A 
ATOM      9  C7A BZF d   1      -2.923  -2.279  -0.616  0.00  0.00     0.058 A 
ENDROOT
TORSDOF 0
ENDMDL
