MODEL 1
REMARK minimizedAffinity 11.7000103
REMARK minimizedRMSD -1
REMARK  0 active torsions:
REMARK  status: ('A' for Active; 'I' for Inactive)
ROOT
ATOM      1  O1  BZF d   1      -4.103  -2.961  -1.229  0.00  0.00    -0.204 OA
ATOM      2  C2  BZF d   1      -3.538  -3.209  -2.466  0.00  0.00     0.174 A 
ATOM      3  C3  BZF d   1      -2.203  -3.020  -2.429  0.00  0.00    -0.012 A 
ATOM      4  C3A BZF d   1      -1.904  -2.719  -1.062  0.00  0.00    -0.107 A 
ATOM      5  C4  BZF d   1      -0.744  -2.449  -0.393  0.00  0.00     0.055 A 
ATOM      6  C5  BZF d   1      -0.803  -2.125   0.926  0.00  0.00    -0.016 A 
ATOM      7  C6  BZF d   1      -2.003  -2.057   1.604  0.00  0.00     0.022 A 
ATOM      8  C7  BZF d   1      -3.178  -2.321   0.984  0.00  0.00     0.029 A 
ATOM      9  C7A BZF d   1      -3.119  -2.681  -0.341  0.00  0.00     0.058 A 
ENDROOT
TORSDOF 0
ENDMDL
