MODEL 1
REMARK minimizedAffinity 14.0678139
REMARK minimizedRMSD -1
REMARK  0 active torsions:
REMARK  status: ('A' for Active; 'I' for Inactive)
ROOT
ATOM      1  O1  BZF d   1       2.729   1.986  -2.460  0.00  0.00    -0.204 OA
ATOM      2  C2  BZF d   1       3.981   1.701  -2.971  0.00  0.00     0.174 A 
ATOM      3  C3  BZF d   1       4.690   0.946  -2.106  0.00  0.00    -0.012 A 
ATOM      4  C3A BZF d   1       3.794   0.671  -1.025  0.00  0.00    -0.107 A 
ATOM      5  C4  BZF d   1       3.912  -0.045   0.132  0.00  0.00     0.055 A 
ATOM      6  C5  BZF d   1       2.874  -0.057   1.010  0.00  0.00    -0.016 A 
ATOM      7  C6  BZF d   1       1.709   0.640   0.765  0.00  0.00     0.022 A 
ATOM      8  C7  BZF d   1       1.544   1.360  -0.371  0.00  0.00     0.029 A 
ATOM      9  C7A BZF d   1       2.577   1.347  -1.275  0.00  0.00     0.058 A 
ENDROOT
TORSDOF 0
ENDMDL
