MODEL 1
REMARK minimizedAffinity 9.72274685
REMARK minimizedRMSD -1
REMARK  0 active torsions:
REMARK  status: ('A' for Active; 'I' for Inactive)
ROOT
ATOM      1  O1  BZF d   1      -5.894   5.196   3.949  0.00  0.00    -0.204 OA
ATOM      2  C2  BZF d   1      -6.000   6.000   5.068  0.00  0.00     0.174 A 
ATOM      3  C3  BZF d   1      -5.090   5.646   5.998  0.00  0.00    -0.012 A 
ATOM      4  C3A BZF d   1      -4.310   4.613   5.389  0.00  0.00    -0.107 A 
ATOM      5  C4  BZF d   1      -3.243   3.871   5.807  0.00  0.00     0.055 A 
ATOM      6  C5  BZF d   1      -2.760   2.893   4.997  0.00  0.00    -0.016 A 
ATOM      7  C6  BZF d   1      -3.323   2.626   3.766  0.00  0.00     0.022 A 
ATOM      8  C7  BZF d   1      -4.379   3.339   3.306  0.00  0.00     0.029 A 
ATOM      9  C7A BZF d   1      -4.848   4.350   4.108  0.00  0.00     0.058 A 
ENDROOT
TORSDOF 0
ENDMDL
