MODEL 1
REMARK minimizedAffinity 18.5470085
REMARK minimizedRMSD -1
REMARK  0 active torsions:
REMARK  status: ('A' for Active; 'I' for Inactive)
ROOT
ATOM      1  O1  BZF d   1       0.298   2.092   2.266  0.00  0.00    -0.204 OA
ATOM      2  C2  BZF d   1       0.141   1.063   3.175  0.00  0.00     0.174 A 
ATOM      3  C3  BZF d   1       0.744  -0.060   2.736  0.00  0.00    -0.012 A 
ATOM      4  C3A BZF d   1       1.392   0.314   1.516  0.00  0.00    -0.107 A 
ATOM      5  C4  BZF d   1       2.166  -0.364   0.618  0.00  0.00     0.055 A 
ATOM      6  C5  BZF d   1       2.582   0.272  -0.508  0.00  0.00    -0.016 A 
ATOM      7  C6  BZF d   1       2.239   1.582  -0.771  0.00  0.00     0.022 A 
ATOM      8  C7  BZF d   1       1.477   2.297   0.092  0.00  0.00     0.029 A 
ATOM      9  C7A BZF d   1       1.082   1.667   1.247  0.00  0.00     0.058 A 
ENDROOT
TORSDOF 0
ENDMDL
