MODEL 1
REMARK minimizedAffinity 16.6352596
REMARK minimizedRMSD -1
REMARK  0 active torsions:
REMARK  status: ('A' for Active; 'I' for Inactive)
ROOT
ATOM      1  O1  BZF d   1      -0.535  -2.646   1.286  0.00  0.00    -0.204 OA
ATOM      2  C2  BZF d   1      -1.292  -1.885   0.416  0.00  0.00     0.174 A 
ATOM      3  C3  BZF d   1      -2.365  -2.578  -0.015  0.00  0.00    -0.012 A 
ATOM      4  C3A BZF d   1      -2.324  -3.819   0.697  0.00  0.00    -0.107 A 
ATOM      5  C4  BZF d   1      -3.130  -4.920   0.712  0.00  0.00     0.055 A 
ATOM      6  C5  BZF d   1      -2.770  -5.993   1.465  0.00  0.00    -0.016 A 
ATOM      7  C6  BZF d   1      -1.608  -6.000   2.209  0.00  0.00     0.022 A 
ATOM      8  C7  BZF d   1      -0.779  -4.929   2.230  0.00  0.00     0.029 A 
ATOM      9  C7A BZF d   1      -1.157  -3.831   1.496  0.00  0.00     0.058 A 
ENDROOT
TORSDOF 0
ENDMDL
