MODEL 1
REMARK minimizedAffinity 16.3994713
REMARK minimizedRMSD -1
REMARK  0 active torsions:
REMARK  status: ('A' for Active; 'I' for Inactive)
ROOT
ATOM      1  O1  BZF d   1      -2.696   3.083   4.821  0.00  0.00    -0.204 OA
ATOM      2  C2  BZF d   1      -3.076   2.226   3.807  0.00  0.00     0.174 A 
ATOM      3  C3  BZF d   1      -4.341   2.479   3.415  0.00  0.00    -0.012 A 
ATOM      4  C3A BZF d   1      -4.748   3.622   4.173  0.00  0.00    -0.107 A 
ATOM      5  C4  BZF d   1      -5.897   4.358   4.218  0.00  0.00     0.055 A 
ATOM      6  C5  BZF d   1      -5.999   5.369   5.120  0.00  0.00    -0.016 A 
ATOM      7  C6  BZF d   1      -4.975   5.668   5.995  0.00  0.00     0.022 A 
ATOM      8  C7  BZF d   1      -3.814   4.969   5.985  0.00  0.00     0.029 A 
ATOM      9  C7A BZF d   1      -3.695   3.968   5.052  0.00  0.00     0.058 A 
ENDROOT
TORSDOF 0
ENDMDL
