MODEL 1
REMARK minimizedAffinity -4.18766403
REMARK minimizedRMSD -1
REMARK  1 active torsions:
REMARK  status: ('A' for Active; 'I' for Inactive)
REMARK    1  A    between atoms: C1_2  and  C2_3 
ROOT
ATOM      1  C2  UNL d   1      -0.443   0.318  -0.921  0.00  0.00    -0.081 A 
ATOM      2  C3  UNL d   1      -1.354   0.234   0.139  0.00  0.00     0.006 A 
ATOM      3  C4  UNL d   1      -0.915  -0.076   1.428  0.00  0.00     0.002 A 
ATOM      4  C5  UNL d   1       0.443  -0.300   1.681  0.00  0.00    -0.080 A 
ATOM      5  C6  UNL d   1       0.932  -0.604   3.065  0.00  0.00     0.076 C 
ATOM      6  C7  UNL d   1       1.351  -0.233   0.619  0.00  0.00     0.002 A 
ATOM      7  C8  UNL d   1       0.913   0.077  -0.670  0.00  0.00     0.006 A 
ENDROOT
BRANCH   1   8
ATOM      8  C1  UNL d   1      -0.905   0.717  -2.299  0.00  0.00     0.054 C 
ATOM      9  C   UNL d   1      -0.463   2.132  -2.643  0.00  0.00     0.018 C 
ENDBRANCH   1   8
TORSDOF 1
ENDMDL
