MODEL 1
REMARK minimizedAffinity -5.52538395
REMARK minimizedRMSD -1
REMARK  1 active torsions:
REMARK  status: ('A' for Active; 'I' for Inactive)
REMARK    1  A    between atoms: C1_2  and  C2_3 
ROOT
ATOM      1  C2  UNL d   1      -0.303   0.449  -0.712  0.00  0.00    -0.081 A 
ATOM      2  C3  UNL d   1      -1.255   0.331   0.308  0.00  0.00     0.006 A 
ATOM      3  C4  UNL d   1      -0.865  -0.016   1.604  0.00  0.00     0.002 A 
ATOM      4  C5  UNL d   1       0.483  -0.241   1.903  0.00  0.00    -0.080 A 
ATOM      5  C6  UNL d   1       0.919  -0.584   3.297  0.00  0.00     0.076 C 
ATOM      6  C7  UNL d   1       1.432  -0.140   0.880  0.00  0.00     0.002 A 
ATOM      7  C8  UNL d   1       1.042   0.206  -0.416  0.00  0.00     0.006 A 
ENDROOT
BRANCH   1   8
ATOM      8  C1  UNL d   1      -0.713   0.886  -2.095  0.00  0.00     0.054 C 
ATOM      9  C   UNL d   1      -0.317   2.332  -2.359  0.00  0.00     0.018 C 
ENDBRANCH   1   8
TORSDOF 1
ENDMDL
