MODEL 1
REMARK minimizedAffinity -5.33654737
REMARK minimizedRMSD -1
REMARK  1 active torsions:
REMARK  status: ('A' for Active; 'I' for Inactive)
REMARK    1  A    between atoms: C1_2  and  C2_3 
ROOT
ATOM      1  C2  UNL d   1      -0.465   0.128  -0.804  0.00  0.00    -0.081 A 
ATOM      2  C3  UNL d   1      -1.179   0.202   0.398  0.00  0.00     0.006 A 
ATOM      3  C4  UNL d   1      -0.540  -0.030   1.618  0.00  0.00     0.002 A 
ATOM      4  C5  UNL d   1       0.825  -0.333   1.657  0.00  0.00    -0.080 A 
ATOM      5  C6  UNL d   1       1.530  -0.555   2.962  0.00  0.00     0.076 C 
ATOM      6  C7  UNL d   1       1.536  -0.425   0.456  0.00  0.00     0.002 A 
ATOM      7  C8  UNL d   1       0.897  -0.193  -0.765  0.00  0.00     0.006 A 
ENDROOT
BRANCH   1   8
ATOM      8  C1  UNL d   1      -1.137   0.442  -2.116  0.00  0.00     0.054 C 
ATOM      9  C   UNL d   1      -1.035   1.923  -2.450  0.00  0.00     0.018 C 
ENDBRANCH   1   8
TORSDOF 1
ENDMDL
