MODEL 1
REMARK minimizedAffinity -3.19484258
REMARK minimizedRMSD -1
REMARK  1 active torsions:
REMARK  status: ('A' for Active; 'I' for Inactive)
REMARK    1  A    between atoms: C1_2  and  C2_3 
ROOT
ATOM      1  C2  UNL d   1      -0.331   0.414  -1.173  0.00  0.00    -0.081 A 
ATOM      2  C3  UNL d   1       0.503  -0.706  -1.077  0.00  0.00     0.006 A 
ATOM      3  C4  UNL d   1       1.036  -1.089   0.156  0.00  0.00     0.002 A 
ATOM      4  C5  UNL d   1       0.737  -0.364   1.314  0.00  0.00    -0.080 A 
ATOM      5  C6  UNL d   1       1.277  -0.782   2.649  0.00  0.00     0.076 C 
ATOM      6  C7  UNL d   1      -0.083   0.766   1.216  0.00  0.00     0.002 A 
ATOM      7  C8  UNL d   1      -0.615   1.150  -0.017  0.00  0.00     0.006 A 
ENDROOT
BRANCH   1   8
ATOM      8  C1  UNL d   1      -0.959   0.792  -2.491  0.00  0.00     0.054 C 
ATOM      9  C   UNL d   1      -1.216   2.290  -2.572  0.00  0.00     0.018 C 
ENDBRANCH   1   8
TORSDOF 1
ENDMDL
