MODEL 1
REMARK minimizedAffinity -3.8403635
REMARK minimizedRMSD -1
REMARK  1 active torsions:
REMARK  status: ('A' for Active; 'I' for Inactive)
REMARK    1  A    between atoms: C1_2  and  C2_3 
ROOT
ATOM      1  C2  UNL d   1      -0.078   0.001  -0.762  0.00  0.00    -0.081 A 
ATOM      2  C3  UNL d   1      -0.837   0.151   0.406  0.00  0.00     0.006 A 
ATOM      3  C4  UNL d   1      -0.327  -0.259   1.640  0.00  0.00     0.002 A 
ATOM      4  C5  UNL d   1       0.952  -0.819   1.728  0.00  0.00    -0.080 A 
ATOM      5  C6  UNL d   1       1.524  -1.235   3.051  0.00  0.00     0.076 C 
ATOM      6  C7  UNL d   1       1.703  -0.985   0.560  0.00  0.00     0.002 A 
ATOM      7  C8  UNL d   1       1.193  -0.575  -0.674  0.00  0.00     0.006 A 
ENDROOT
BRANCH   1   8
ATOM      8  C1  UNL d   1      -0.600   0.502  -2.084  0.00  0.00     0.054 C 
ATOM      9  C   UNL d   1      -0.839   2.005  -2.052  0.00  0.00     0.018 C 
ENDBRANCH   1   8
TORSDOF 1
ENDMDL
