MODEL 1
REMARK minimizedAffinity -0.17067574
REMARK minimizedRMSD -1
REMARK  1 active torsions:
REMARK  status: ('A' for Active; 'I' for Inactive)
REMARK    1  A    between atoms: C1_2  and  C2_3 
ROOT
ATOM      1  C2  UNL d   1      -0.299   0.745  -0.983  0.00  0.00    -0.081 A 
ATOM      2  C3  UNL d   1      -0.889   1.145   0.222  0.00  0.00     0.006 A 
ATOM      3  C4  UNL d   1      -0.627   0.449   1.405  0.00  0.00     0.002 A 
ATOM      4  C5  UNL d   1       0.235  -0.653   1.403  0.00  0.00    -0.080 A 
ATOM      5  C6  UNL d   1       0.549  -1.391   2.671  0.00  0.00     0.076 C 
ATOM      6  C7  UNL d   1       0.811  -1.064   0.196  0.00  0.00     0.002 A 
ATOM      7  C8  UNL d   1       0.549  -0.368  -0.986  0.00  0.00     0.006 A 
ENDROOT
BRANCH   1   8
ATOM      8  C1  UNL d   1      -0.528   1.533  -2.247  0.00  0.00     0.054 C 
ATOM      9  C   UNL d   1      -1.997   1.896  -2.414  0.00  0.00     0.018 C 
ENDBRANCH   1   8
TORSDOF 1
ENDMDL
