MODEL 1
REMARK minimizedAffinity -5.14899206
REMARK minimizedRMSD -1
REMARK  1 active torsions:
REMARK  status: ('A' for Active; 'I' for Inactive)
REMARK    1  A    between atoms: C1_2  and  C2_3 
ROOT
ATOM      1  C2  UNL d   1      -0.304   0.685  -0.594  0.00  0.00    -0.081 A 
ATOM      2  C3  UNL d   1       0.785  -0.177  -0.771  0.00  0.00     0.006 A 
ATOM      3  C4  UNL d   1       1.392  -0.786   0.330  0.00  0.00     0.002 A 
ATOM      4  C5  UNL d   1       0.915  -0.550   1.624  0.00  0.00    -0.080 A 
ATOM      5  C6  UNL d   1       1.538  -1.221   2.812  0.00  0.00     0.076 C 
ATOM      6  C7  UNL d   1      -0.162   0.325   1.802  0.00  0.00     0.002 A 
ATOM      7  C8  UNL d   1      -0.768   0.935   0.702  0.00  0.00     0.006 A 
ENDROOT
BRANCH   1   8
ATOM      8  C1  UNL d   1      -1.001   1.292  -1.785  0.00  0.00     0.054 C 
ATOM      9  C   UNL d   1      -0.252   2.512  -2.302  0.00  0.00     0.018 C 
ENDBRANCH   1   8
TORSDOF 1
ENDMDL
