MODEL 1
REMARK minimizedAffinity -4.45831442
REMARK minimizedRMSD -1
REMARK  1 active torsions:
REMARK  status: ('A' for Active; 'I' for Inactive)
REMARK    1  A    between atoms: C1_2  and  C2_3 
ROOT
ATOM      1  C2  UNL d   1      -0.004  -0.117   1.004  0.00  0.00    -0.081 A 
ATOM      2  C3  UNL d   1      -1.046  -0.322   0.092  0.00  0.00     0.006 A 
ATOM      3  C4  UNL d   1      -1.232   0.555  -0.979  0.00  0.00     0.002 A 
ATOM      4  C5  UNL d   1      -0.376   1.646  -1.160  0.00  0.00    -0.080 A 
ATOM      5  C6  UNL d   1      -0.546   2.578  -2.323  0.00  0.00     0.076 C 
ATOM      6  C7  UNL d   1       0.654   1.861  -0.238  0.00  0.00     0.002 A 
ATOM      7  C8  UNL d   1       0.841   0.985   0.833  0.00  0.00     0.006 A 
ENDROOT
BRANCH   1   8
ATOM      8  C1  UNL d   1       0.239  -1.098   2.123  0.00  0.00     0.054 C 
ATOM      9  C   UNL d   1       1.594  -0.867   2.777  0.00  0.00     0.018 C 
ENDBRANCH   1   8
TORSDOF 1
ENDMDL
