MODEL 1
REMARK minimizedAffinity -4.61748838
REMARK minimizedRMSD -1
REMARK  1 active torsions:
REMARK  status: ('A' for Active; 'I' for Inactive)
REMARK    1  A    between atoms: C1_2  and  C2_3 
ROOT
ATOM      1  C2  UNL d   1       1.213  -0.253   0.597  0.00  0.00    -0.081 A 
ATOM      2  C3  UNL d   1       1.463  -0.752  -0.687  0.00  0.00     0.006 A 
ATOM      3  C4  UNL d   1       0.512  -0.606  -1.701  0.00  0.00     0.002 A 
ATOM      4  C5  UNL d   1      -0.699   0.048  -1.449  0.00  0.00    -0.080 A 
ATOM      5  C6  UNL d   1      -1.715   0.238  -2.536  0.00  0.00     0.076 C 
ATOM      6  C7  UNL d   1      -0.956   0.531  -0.162  0.00  0.00     0.002 A 
ATOM      7  C8  UNL d   1      -0.006   0.385   0.852  0.00  0.00     0.006 A 
ENDROOT
BRANCH   1   8
ATOM      8  C1  UNL d   1       2.263  -0.351   1.674  0.00  0.00     0.054 C 
ATOM      9  C   UNL d   1       1.666  -0.846   2.984  0.00  0.00     0.018 C 
ENDBRANCH   1   8
TORSDOF 1
ENDMDL
