MODEL 1
REMARK minimizedAffinity 5.48277187
REMARK minimizedRMSD -1
REMARK  1 active torsions:
REMARK  status: ('A' for Active; 'I' for Inactive)
REMARK    1  A    between atoms: C3_4  and  O_7 
ROOT
ATOM      1  C   UNL d   1      -1.745  -5.995  -3.919  0.00  0.00    -0.033 A 
ATOM      2  C1  UNL d   1      -2.948  -5.966  -3.210  0.00  0.00     0.039 A 
ATOM      3  C2  UNL d   1      -4.164  -5.937  -3.894  0.00  0.00    -0.080 A 
ATOM      4  C3  UNL d   1      -4.165  -5.938  -5.287  0.00  0.00     0.150 A 
ATOM      5  C4  UNL d   1      -2.971  -5.970  -6.000  0.00  0.00    -0.007 A 
ATOM      6  C5  UNL d   1      -1.757  -5.998  -5.315  0.00  0.00     0.039 A 
ENDROOT
BRANCH   4   7
ATOM      7  O   UNL d   1      -5.327  -5.905  -5.999  0.00  0.00    -0.526 OA
ATOM      8  H5  UNL d   1      -6.069  -5.856  -5.374  0.00  0.00     0.418 HD
ENDBRANCH   4   7
TORSDOF 1
ENDMDL
