MODEL 1
REMARK minimizedAffinity 3.35664916
REMARK minimizedRMSD -1
REMARK  1 active torsions:
REMARK  status: ('A' for Active; 'I' for Inactive)
REMARK    1  A    between atoms: C3_4  and  O_7 
ROOT
ATOM      1  C   UNL d   1      -0.108   1.330  -1.909  0.00  0.00    -0.033 A 
ATOM      2  C1  UNL d   1      -0.189   0.078  -2.521  0.00  0.00     0.039 A 
ATOM      3  C2  UNL d   1      -1.309  -0.730  -2.315  0.00  0.00    -0.080 A 
ATOM      4  C3  UNL d   1      -2.339  -0.276  -1.497  0.00  0.00     0.150 A 
ATOM      5  C4  UNL d   1      -2.266   0.972  -0.887  0.00  0.00    -0.007 A 
ATOM      6  C5  UNL d   1      -1.147   1.778  -1.092  0.00  0.00     0.039 A 
ENDROOT
BRANCH   4   7
ATOM      7  O   UNL d   1      -3.449  -1.031  -1.263  0.00  0.00    -0.526 OA
ATOM      8  H5  UNL d   1      -3.348  -1.879  -1.726  0.00  0.00     0.418 HD
ENDBRANCH   4   7
TORSDOF 1
ENDMDL
