MODEL 1
REMARK minimizedAffinity 7.42391157
REMARK minimizedRMSD -1
REMARK  1 active torsions:
REMARK  status: ('A' for Active; 'I' for Inactive)
REMARK    1  A    between atoms: C3_4  and  O_7 
ROOT
ATOM      1  C   UNL d   1      -1.023   2.515   0.560  0.00  0.00    -0.033 A 
ATOM      2  C1  UNL d   1      -1.143   3.184  -0.660  0.00  0.00     0.039 A 
ATOM      3  C2  UNL d   1      -0.069   3.919  -1.164  0.00  0.00    -0.080 A 
ATOM      4  C3  UNL d   1       1.119   3.977  -0.440  0.00  0.00     0.150 A 
ATOM      5  C4  UNL d   1       1.247   3.311   0.774  0.00  0.00    -0.007 A 
ATOM      6  C5  UNL d   1       0.173   2.578   1.276  0.00  0.00     0.039 A 
ENDROOT
BRANCH   4   7
ATOM      7  O   UNL d   1       2.193   4.686  -0.889  0.00  0.00    -0.526 OA
ATOM      8  H5  UNL d   1       1.950   5.117  -1.725  0.00  0.00     0.418 HD
ENDBRANCH   4   7
TORSDOF 1
ENDMDL
