MODEL 1
REMARK minimizedAffinity 3.09716868
REMARK minimizedRMSD -1
REMARK  1 active torsions:
REMARK  status: ('A' for Active; 'I' for Inactive)
REMARK    1  A    between atoms: C3_4  and  O_7 
ROOT
ATOM      1  C   UNL d   1       0.271   1.487   1.965  0.00  0.00    -0.033 A 
ATOM      2  C1  UNL d   1       0.369   0.469   1.014  0.00  0.00     0.039 A 
ATOM      3  C2  UNL d   1       0.092   0.736  -0.328  0.00  0.00    -0.080 A 
ATOM      4  C3  UNL d   1      -0.281   2.023  -0.706  0.00  0.00     0.150 A 
ATOM      5  C4  UNL d   1      -0.378   3.042   0.235  0.00  0.00    -0.007 A 
ATOM      6  C5  UNL d   1      -0.101   2.774   1.575  0.00  0.00     0.039 A 
ENDROOT
BRANCH   4   7
ATOM      7  O   UNL d   1      -0.566   2.330  -2.004  0.00  0.00    -0.526 OA
ATOM      8  H5  UNL d   1      -0.485   1.521  -2.536  0.00  0.00     0.418 HD
ENDBRANCH   4   7
TORSDOF 1
ENDMDL
