MODEL 1
REMARK minimizedAffinity 6.25718451
REMARK minimizedRMSD -1
REMARK  1 active torsions:
REMARK  status: ('A' for Active; 'I' for Inactive)
REMARK    1  A    between atoms: C3_4  and  O_7 
ROOT
ATOM      1  C   UNL d   1      -3.993   5.852  -4.270  0.00  0.00    -0.033 A 
ATOM      2  C1  UNL d   1      -4.555   4.724  -4.870  0.00  0.00     0.039 A 
ATOM      3  C2  UNL d   1      -5.154   3.738  -4.083  0.00  0.00    -0.080 A 
ATOM      4  C3  UNL d   1      -5.185   3.893  -2.700  0.00  0.00     0.150 A 
ATOM      5  C4  UNL d   1      -4.631   5.017  -2.096  0.00  0.00    -0.007 A 
ATOM      6  C5  UNL d   1      -4.033   6.000  -2.883  0.00  0.00     0.039 A 
ENDROOT
BRANCH   4   7
ATOM      7  O   UNL d   1      -5.754   2.956  -1.890  0.00  0.00    -0.526 OA
ATOM      8  H5  UNL d   1      -6.070   2.222  -2.443  0.00  0.00     0.418 HD
ENDBRANCH   4   7
TORSDOF 1
ENDMDL
