MODEL 1
REMARK minimizedAffinity 5.00352716
REMARK minimizedRMSD -1
REMARK  1 active torsions:
REMARK  status: ('A' for Active; 'I' for Inactive)
REMARK    1  A    between atoms: C3_4  and  O_7 
ROOT
ATOM      1  C   UNL d   1      -0.212   2.870   1.473  0.00  0.00    -0.033 A 
ATOM      2  C1  UNL d   1       0.979   2.141   1.491  0.00  0.00     0.039 A 
ATOM      3  C2  UNL d   1       1.127   1.066   2.368  0.00  0.00    -0.080 A 
ATOM      4  C3  UNL d   1       0.079   0.729   3.220  0.00  0.00     0.150 A 
ATOM      5  C4  UNL d   1      -1.111   1.448   3.205  0.00  0.00    -0.007 A 
ATOM      6  C5  UNL d   1      -1.258   2.523   2.329  0.00  0.00     0.039 A 
ENDROOT
BRANCH   4   7
ATOM      7  O   UNL d   1       0.180  -0.310   4.097  0.00  0.00    -0.526 OA
ATOM      8  H5  UNL d   1       1.068  -0.696   4.017  0.00  0.00     0.418 HD
ENDBRANCH   4   7
TORSDOF 1
ENDMDL
