MODEL 1
REMARK minimizedAffinity -2.56432915
REMARK minimizedRMSD -1
REMARK  1 active torsions:
REMARK  status: ('A' for Active; 'I' for Inactive)
REMARK    1  A    between atoms: C3_4  and  O_7 
ROOT
ATOM      1  C   UNL d   1      -0.186   2.203   0.495  0.00  0.00    -0.033 A 
ATOM      2  C1  UNL d   1      -1.052   2.439   1.565  0.00  0.00     0.039 A 
ATOM      3  C2  UNL d   1      -1.037   1.595   2.677  0.00  0.00    -0.080 A 
ATOM      4  C3  UNL d   1      -0.152   0.521   2.708  0.00  0.00     0.150 A 
ATOM      5  C4  UNL d   1       0.717   0.282   1.647  0.00  0.00    -0.007 A 
ATOM      6  C5  UNL d   1       0.699   1.125   0.537  0.00  0.00     0.039 A 
ENDROOT
BRANCH   4   7
ATOM      7  O   UNL d   1      -0.103  -0.333   3.769  0.00  0.00    -0.526 OA
ATOM      8  H5  UNL d   1      -0.779  -0.062   4.413  0.00  0.00     0.418 HD
ENDBRANCH   4   7
TORSDOF 1
ENDMDL
