MODEL 1
REMARK minimizedAffinity -1.86345291
REMARK minimizedRMSD -1
REMARK  0 active torsions:
REMARK  status: ('A' for Active; 'I' for Inactive)
ROOT
ATOM      1  C   UNL d   1      -1.209   0.489  -2.254  0.00  0.00     0.020 A 
ATOM      2  C1  UNL d   1      -1.924  -0.629  -1.825  0.00  0.00     0.020 A 
ATOM      3  C2  UNL d   1      -1.530  -1.309  -0.670  0.00  0.00     0.034 A 
ATOM      4  C3  UNL d   1      -0.418  -0.871   0.059  0.00  0.00     0.017 A 
ATOM      5  C4  UNL d   1       0.298   0.251  -0.372  0.00  0.00     0.017 A 
ATOM      6  C5  UNL d   1      -0.101   0.928  -1.529  0.00  0.00     0.034 A 
ATOM      7 Cl   UNL d   1       1.680   0.850   0.476  0.00  0.00    -0.070 Cl
ATOM      8 Cl1  UNL d   1       0.012  -1.760   1.478  0.00  0.00    -0.070 Cl
ENDROOT
TORSDOF 0
ENDMDL
