MODEL 1
REMARK minimizedAffinity -0.604511976
REMARK minimizedRMSD -1
REMARK  0 active torsions:
REMARK  status: ('A' for Active; 'I' for Inactive)
ROOT
ATOM      1  C   UNL d   1      -1.399   1.181  -1.451  0.00  0.00     0.020 A 
ATOM      2  C1  UNL d   1      -1.556  -0.200  -1.340  0.00  0.00     0.020 A 
ATOM      3  C2  UNL d   1      -0.610  -0.956  -0.644  0.00  0.00     0.034 A 
ATOM      4  C3  UNL d   1       0.496  -0.332  -0.057  0.00  0.00     0.017 A 
ATOM      5  C4  UNL d   1       0.652   1.054  -0.168  0.00  0.00     0.017 A 
ATOM      6  C5  UNL d   1      -0.298   1.807  -0.866  0.00  0.00     0.034 A 
ATOM      7 Cl   UNL d   1       1.991   1.896   0.531  0.00  0.00    -0.070 Cl
ATOM      8 Cl1  UNL d   1       1.626  -1.329   0.789  0.00  0.00    -0.070 Cl
ENDROOT
TORSDOF 0
ENDMDL
