MODEL 1
REMARK minimizedAffinity -4.05080366
REMARK minimizedRMSD -1
REMARK  0 active torsions:
REMARK  status: ('A' for Active; 'I' for Inactive)
ROOT
ATOM      1  C   UNL d   1      -2.957  -0.590  -1.206  0.00  0.00     0.020 A 
ATOM      2  C1  UNL d   1      -2.230   0.403  -1.863  0.00  0.00     0.020 A 
ATOM      3  C2  UNL d   1      -0.932   0.707  -1.447  0.00  0.00     0.034 A 
ATOM      4  C3  UNL d   1      -0.357   0.019  -0.373  0.00  0.00     0.017 A 
ATOM      5  C4  UNL d   1      -1.087  -0.977   0.285  0.00  0.00     0.017 A 
ATOM      6  C5  UNL d   1      -2.387  -1.278  -0.135  0.00  0.00     0.034 A 
ATOM      7 Cl   UNL d   1      -0.445  -1.869   1.619  0.00  0.00    -0.070 Cl
ATOM      8 Cl1  UNL d   1       1.253   0.447   0.087  0.00  0.00    -0.070 Cl
ENDROOT
TORSDOF 0
ENDMDL
