MODEL 1
REMARK minimizedAffinity -3.23131657
REMARK minimizedRMSD -1
REMARK  0 active torsions:
REMARK  status: ('A' for Active; 'I' for Inactive)
ROOT
ATOM      1  C   UNL d   1      -0.932   0.424  -1.612  0.00  0.00     0.020 A 
ATOM      2  C1  UNL d   1      -2.120  -0.291  -1.463  0.00  0.00     0.020 A 
ATOM      3  C2  UNL d   1      -2.170  -1.390  -0.603  0.00  0.00     0.034 A 
ATOM      4  C3  UNL d   1      -1.030  -1.777   0.111  0.00  0.00     0.017 A 
ATOM      5  C4  UNL d   1       0.162  -1.059  -0.039  0.00  0.00     0.017 A 
ATOM      6  C5  UNL d   1       0.206   0.041  -0.901  0.00  0.00     0.034 A 
ATOM      7 Cl   UNL d   1       1.609  -1.476   0.809  0.00  0.00    -0.070 Cl
ATOM      8 Cl1  UNL d   1      -1.164  -3.146   1.157  0.00  0.00    -0.070 Cl
ENDROOT
TORSDOF 0
ENDMDL
