MODEL 1
REMARK minimizedAffinity -3.07348704
REMARK minimizedRMSD -1
REMARK  0 active torsions:
REMARK  status: ('A' for Active; 'I' for Inactive)
ROOT
ATOM      1  C   UNL d   1      -1.774  -2.293   1.219  0.00  0.00     0.020 A 
ATOM      2  C1  UNL d   1      -2.644  -2.252   0.130  0.00  0.00     0.020 A 
ATOM      3  C2  UNL d   1      -2.380  -1.397  -0.943  0.00  0.00     0.034 A 
ATOM      4  C3  UNL d   1      -1.243  -0.581  -0.929  0.00  0.00     0.017 A 
ATOM      5  C4  UNL d   1      -0.371  -0.624   0.164  0.00  0.00     0.017 A 
ATOM      6  C5  UNL d   1      -0.640  -1.481   1.236  0.00  0.00     0.034 A 
ATOM      7 Cl   UNL d   1       1.052   0.354   0.253  0.00  0.00    -0.070 Cl
ATOM      8 Cl1  UNL d   1      -0.979   0.451  -2.289  0.00  0.00    -0.070 Cl
ENDROOT
TORSDOF 0
ENDMDL
