MODEL 1
REMARK minimizedAffinity -1.61908746
REMARK minimizedRMSD -1
REMARK  0 active torsions:
REMARK  status: ('A' for Active; 'I' for Inactive)
ROOT
ATOM      1  C   UNL d   1      -2.198  -0.136  -1.453  0.00  0.00     0.020 A 
ATOM      2  C1  UNL d   1      -1.007   0.586  -1.388  0.00  0.00     0.020 A 
ATOM      3  C2  UNL d   1       0.042   0.130  -0.587  0.00  0.00     0.034 A 
ATOM      4  C3  UNL d   1      -0.097  -1.051   0.151  0.00  0.00     0.017 A 
ATOM      5  C4  UNL d   1      -1.293  -1.775   0.085  0.00  0.00     0.017 A 
ATOM      6  C5  UNL d   1      -2.340  -1.314  -0.719  0.00  0.00     0.034 A 
ATOM      7 Cl   UNL d   1      -1.539  -3.241   0.966  0.00  0.00    -0.070 Cl
ATOM      8 Cl1  UNL d   1       1.242  -1.556   1.119  0.00  0.00    -0.070 Cl
ENDROOT
TORSDOF 0
ENDMDL
