MODEL 1
REMARK minimizedAffinity -2.68812275
REMARK minimizedRMSD -1
REMARK  0 active torsions:
REMARK  status: ('A' for Active; 'I' for Inactive)
ROOT
ATOM      1  C   UNL d   1      -1.521  -3.027   0.826  0.00  0.00     0.020 A 
ATOM      2  C1  UNL d   1      -2.551  -2.702  -0.055  0.00  0.00     0.020 A 
ATOM      3  C2  UNL d   1      -2.445  -1.571  -0.867  0.00  0.00     0.034 A 
ATOM      4  C3  UNL d   1      -1.305  -0.760  -0.800  0.00  0.00     0.017 A 
ATOM      5  C4  UNL d   1      -0.271  -1.088   0.085  0.00  0.00     0.017 A 
ATOM      6  C5  UNL d   1      -0.383  -2.221   0.896  0.00  0.00     0.034 A 
ATOM      7 Cl   UNL d   1       1.165  -0.136   0.225  0.00  0.00    -0.070 Cl
ATOM      8 Cl1  UNL d   1      -1.241   0.623  -1.833  0.00  0.00    -0.070 Cl
ENDROOT
TORSDOF 0
ENDMDL
