MODEL 1
REMARK minimizedAffinity -2.41710353
REMARK minimizedRMSD -1
REMARK  0 active torsions:
REMARK  status: ('A' for Active; 'I' for Inactive)
ROOT
ATOM      1  C   UNL d   1      -1.969  -0.504  -1.673  0.00  0.00     0.020 A 
ATOM      2  C1  UNL d   1      -2.442  -1.653  -1.041  0.00  0.00     0.020 A 
ATOM      3  C2  UNL d   1      -1.737  -2.200   0.033  0.00  0.00     0.034 A 
ATOM      4  C3  UNL d   1      -0.555  -1.596   0.479  0.00  0.00     0.017 A 
ATOM      5  C4  UNL d   1      -0.082  -0.442  -0.155  0.00  0.00     0.017 A 
ATOM      6  C5  UNL d   1      -0.791   0.100  -1.231  0.00  0.00     0.034 A 
ATOM      7 Cl   UNL d   1       1.368   0.358   0.339  0.00  0.00    -0.070 Cl
ATOM      8 Cl1  UNL d   1       0.265  -2.326   1.814  0.00  0.00    -0.070 Cl
ENDROOT
TORSDOF 0
ENDMDL
