MODEL 1
REMARK minimizedAffinity -3.64699984
REMARK minimizedRMSD -1
REMARK  0 active torsions:
REMARK  status: ('A' for Active; 'I' for Inactive)
ROOT
ATOM      1  C   UNL d   1      -1.185  -3.105   1.012  0.00  0.00     0.020 A 
ATOM      2  C1  UNL d   1      -2.208  -3.085   0.065  0.00  0.00     0.020 A 
ATOM      3  C2  UNL d   1      -2.244  -2.080  -0.904  0.00  0.00     0.034 A 
ATOM      4  C3  UNL d   1      -1.255  -1.090  -0.928  0.00  0.00     0.017 A 
ATOM      5  C4  UNL d   1      -0.227  -1.111   0.022  0.00  0.00     0.017 A 
ATOM      6  C5  UNL d   1      -0.196  -2.120   0.990  0.00  0.00     0.034 A 
ATOM      7 Cl   UNL d   1       1.029   0.076   0.056  0.00  0.00    -0.070 Cl
ATOM      8 Cl1  UNL d   1      -1.361   0.122  -2.154  0.00  0.00    -0.070 Cl
ENDROOT
TORSDOF 0
ENDMDL
