MODEL 1
REMARK minimizedAffinity -1.66743243
REMARK minimizedRMSD -1
REMARK  0 active torsions:
REMARK  status: ('A' for Active; 'I' for Inactive)
ROOT
ATOM      1  C   UNL d   1      -1.351   0.190  -0.692  0.00  0.00     0.020 A 
ATOM      2  C1  UNL d   1      -1.349   1.513  -0.249  0.00  0.00     0.020 A 
ATOM      3  C2  UNL d   1      -0.282   1.991   0.514  0.00  0.00     0.034 A 
ATOM      4  C3  UNL d   1       0.786   1.147   0.838  0.00  0.00     0.017 A 
ATOM      5  C4  UNL d   1       0.783  -0.180   0.394  0.00  0.00     0.017 A 
ATOM      6  C5  UNL d   1      -0.288  -0.654  -0.371  0.00  0.00     0.034 A 
ATOM      7 Cl   UNL d   1       2.065  -1.282   0.753  0.00  0.00    -0.070 Cl
ATOM      8 Cl1  UNL d   1       2.072   1.805   1.786  0.00  0.00    -0.070 Cl
ENDROOT
TORSDOF 0
ENDMDL
