MODEL 1
REMARK minimizedAffinity -4.30713511
REMARK minimizedRMSD -1
REMARK  0 active torsions:
REMARK  status: ('A' for Active; 'I' for Inactive)
ROOT
ATOM      1  C   UNL d   1      -2.592  -2.338   0.367  0.00  0.00     0.020 A 
ATOM      2  C1  UNL d   1      -1.475  -2.556   1.173  0.00  0.00     0.020 A 
ATOM      3  C2  UNL d   1      -0.354  -1.733   1.049  0.00  0.00     0.034 A 
ATOM      4  C3  UNL d   1      -0.347  -0.688   0.118  0.00  0.00     0.017 A 
ATOM      5  C4  UNL d   1      -1.468  -0.469  -0.690  0.00  0.00     0.017 A 
ATOM      6  C5  UNL d   1      -2.588  -1.297  -0.562  0.00  0.00     0.034 A 
ATOM      7 Cl   UNL d   1      -1.534   0.800  -1.861  0.00  0.00    -0.070 Cl
ATOM      8 Cl1  UNL d   1       1.074   0.291   0.020  0.00  0.00    -0.070 Cl
ENDROOT
TORSDOF 0
ENDMDL
