MODEL 1
REMARK minimizedAffinity -2.08919787
REMARK minimizedRMSD -1
REMARK  0 active torsions:
REMARK  status: ('A' for Active; 'I' for Inactive)
ROOT
ATOM      1  C   UNL d   1       0.413  -1.563   1.618  0.00  0.00     0.020 A 
ATOM      2  C1  UNL d   1      -0.877  -1.098   1.364  0.00  0.00     0.020 A 
ATOM      3  C2  UNL d   1      -1.063   0.115   0.698  0.00  0.00     0.034 A 
ATOM      4  C3  UNL d   1       0.042   0.867   0.283  0.00  0.00     0.017 A 
ATOM      5  C4  UNL d   1       1.336   0.399   0.537  0.00  0.00     0.017 A 
ATOM      6  C5  UNL d   1       1.517  -0.816   1.205  0.00  0.00     0.034 A 
ATOM      7 Cl   UNL d   1       2.748   1.271   0.056  0.00  0.00    -0.070 Cl
ATOM      8 Cl1  UNL d   1      -0.263   2.357  -0.537  0.00  0.00    -0.070 Cl
ENDROOT
TORSDOF 0
ENDMDL
