MODEL 1
REMARK minimizedAffinity -3.21527028
REMARK minimizedRMSD -1
REMARK  0 active torsions:
REMARK  status: ('A' for Active; 'I' for Inactive)
ROOT
ATOM      1  C   UNL d   1      -2.534  -1.261  -0.751  0.00  0.00     0.020 A 
ATOM      2  C1  UNL d   1      -2.022  -0.227  -1.534  0.00  0.00     0.020 A 
ATOM      3  C2  UNL d   1      -0.726   0.242  -1.310  0.00  0.00     0.034 A 
ATOM      4  C3  UNL d   1       0.062  -0.322  -0.300  0.00  0.00     0.017 A 
ATOM      5  C4  UNL d   1      -0.453  -1.359   0.486  0.00  0.00     0.017 A 
ATOM      6  C5  UNL d   1      -1.751  -1.825   0.257  0.00  0.00     0.034 A 
ATOM      7 Cl   UNL d   1       0.459  -2.104   1.750  0.00  0.00    -0.070 Cl
ATOM      8 Cl1  UNL d   1       1.656   0.308  -0.079  0.00  0.00    -0.070 Cl
ENDROOT
TORSDOF 0
ENDMDL
