MODEL 1
REMARK minimizedAffinity -4.11532688
REMARK minimizedRMSD -1
REMARK  0 active torsions:
REMARK  status: ('A' for Active; 'I' for Inactive)
ROOT
ATOM      1  C   UNL d   1       1.489   3.565   1.559  0.00  0.00     0.020 A 
ATOM      2  C1  UNL d   1       2.748   3.000   1.358  0.00  0.00     0.020 A 
ATOM      3  C2  UNL d   1       2.859   1.692   0.882  0.00  0.00     0.034 A 
ATOM      4  C3  UNL d   1       1.709   0.943   0.607  0.00  0.00     0.017 A 
ATOM      5  C4  UNL d   1       0.446   1.511   0.809  0.00  0.00     0.017 A 
ATOM      6  C5  UNL d   1       0.341   2.821   1.285  0.00  0.00     0.034 A 
ATOM      7 Cl   UNL d   1      -1.019   0.650   0.491  0.00  0.00    -0.070 Cl
ATOM      8 Cl1  UNL d   1       1.921  -0.668   0.021  0.00  0.00    -0.070 Cl
ENDROOT
TORSDOF 0
ENDMDL
