MODEL 1
REMARK minimizedAffinity -1.82157886
REMARK minimizedRMSD -1
REMARK  0 active torsions:
REMARK  status: ('A' for Active; 'I' for Inactive)
ROOT
ATOM      1  C   UNL d   1      -1.697  -0.630  -0.863  0.00  0.00     0.020 A 
ATOM      2  C1  UNL d   1      -0.543  -1.216  -0.346  0.00  0.00     0.020 A 
ATOM      3  C2  UNL d   1       0.555  -0.420  -0.011  0.00  0.00     0.034 A 
ATOM      4  C3  UNL d   1       0.499   0.967  -0.192  0.00  0.00     0.017 A 
ATOM      5  C4  UNL d   1      -0.660   1.554  -0.710  0.00  0.00     0.017 A 
ATOM      6  C5  UNL d   1      -1.756   0.752  -1.044  0.00  0.00     0.034 A 
ATOM      7 Cl   UNL d   1      -0.803   3.258  -0.962  0.00  0.00    -0.070 Cl
ATOM      8 Cl1  UNL d   1       1.893   1.890   0.244  0.00  0.00    -0.070 Cl
ENDROOT
TORSDOF 0
ENDMDL
