MODEL 1
REMARK minimizedAffinity -5.10270834
REMARK minimizedRMSD -1
REMARK  0 active torsions:
REMARK  status: ('A' for Active; 'I' for Inactive)
ROOT
ATOM      1  C   UNL d   1      -2.477  -0.405   0.326  0.00  0.00     0.020 A 
ATOM      2  C1  UNL d   1      -2.343   0.977   0.205  0.00  0.00     0.020 A 
ATOM      3  C2  UNL d   1      -1.093   1.576   0.379  0.00  0.00     0.034 A 
ATOM      4  C3  UNL d   1       0.028   0.791   0.675  0.00  0.00     0.017 A 
ATOM      5  C4  UNL d   1      -0.108  -0.596   0.796  0.00  0.00     0.017 A 
ATOM      6  C5  UNL d   1      -1.361  -1.190   0.621  0.00  0.00     0.034 A 
ATOM      7 Cl   UNL d   1       1.229  -1.630   1.159  0.00  0.00    -0.070 Cl
ATOM      8 Cl1  UNL d   1       1.542   1.598   0.877  0.00  0.00    -0.070 Cl
ENDROOT
TORSDOF 0
ENDMDL
