MODEL 1
REMARK minimizedAffinity -0.0589215346
REMARK minimizedRMSD -1
REMARK  0 active torsions:
REMARK  status: ('A' for Active; 'I' for Inactive)
ROOT
ATOM      1  C   UNL d   1      -2.175  -0.819  -1.642  0.00  0.00     0.020 A 
ATOM      2  C1  UNL d   1      -1.672   0.422  -2.031  0.00  0.00     0.020 A 
ATOM      3  C2  UNL d   1      -0.614   0.999  -1.324  0.00  0.00     0.034 A 
ATOM      4  C3  UNL d   1      -0.056   0.335  -0.226  0.00  0.00     0.017 A 
ATOM      5  C4  UNL d   1      -0.562  -0.910   0.164  0.00  0.00     0.017 A 
ATOM      6  C5  UNL d   1      -1.621  -1.484  -0.547  0.00  0.00     0.034 A 
ATOM      7 Cl   UNL d   1       0.075  -1.790   1.508  0.00  0.00    -0.070 Cl
ATOM      8 Cl1  UNL d   1       1.249   1.108   0.602  0.00  0.00    -0.070 Cl
ENDROOT
TORSDOF 0
ENDMDL
