MODEL 1
REMARK minimizedAffinity -4.46463299
REMARK minimizedRMSD -1
REMARK  0 active torsions:
REMARK  status: ('A' for Active; 'I' for Inactive)
ROOT
ATOM      1  C   UNL d   1      -2.919  -0.617  -0.298  0.00  0.00     0.020 A 
ATOM      2  C1  UNL d   1      -2.796  -0.025   0.958  0.00  0.00     0.020 A 
ATOM      3  C2  UNL d   1      -1.565   0.492   1.368  0.00  0.00     0.034 A 
ATOM      4  C3  UNL d   1      -0.453   0.418   0.522  0.00  0.00     0.017 A 
ATOM      5  C4  UNL d   1      -0.578  -0.176  -0.739  0.00  0.00     0.017 A 
ATOM      6  C5  UNL d   1      -1.813  -0.692  -1.145  0.00  0.00     0.034 A 
ATOM      7 Cl   UNL d   1       0.749  -0.304  -1.839  0.00  0.00    -0.070 Cl
ATOM      8 Cl1  UNL d   1       1.037   1.078   1.094  0.00  0.00    -0.070 Cl
ENDROOT
TORSDOF 0
ENDMDL
