MODEL 1
REMARK minimizedAffinity 16.5187531
REMARK minimizedRMSD -1
REMARK  0 active torsions:
REMARK  status: ('A' for Active; 'I' for Inactive)
ROOT
ATOM      1  C   UNL d   1       2.009  -0.426   4.369  0.00  0.00    -0.002 A 
ATOM      2  C1  UNL d   1       2.245  -0.569   3.009  0.00  0.00     0.010 A 
ATOM      3  C2  UNL d   1       2.487  -1.829   2.458  0.00  0.00     0.041 A 
ATOM      4  C3  UNL d   1       2.486  -2.955   3.305  0.00  0.00    -0.075 A 
ATOM      5  S   UNL d   1       2.757  -4.596   2.853  0.00  0.00     0.015 SA
ATOM      6  C4  UNL d   1       2.565  -5.147   4.455  0.00  0.00     0.022 A 
ATOM      7  C5  UNL d   1       2.301  -4.117   5.326  0.00  0.00     0.026 A 
ATOM      8  C6  UNL d   1       2.250  -2.836   4.678  0.00  0.00    -0.082 A 
ATOM      9  C7  UNL d   1       2.009  -1.545   5.206  0.00  0.00     0.045 A 
ENDROOT
TORSDOF 0
ENDMDL
