MODEL 1
REMARK minimizedAffinity 17.0054588
REMARK minimizedRMSD -1
REMARK  0 active torsions:
REMARK  status: ('A' for Active; 'I' for Inactive)
ROOT
ATOM      1  C   UNL d   1       2.955   2.255   4.027  0.00  0.00    -0.002 A 
ATOM      2  C1  UNL d   1       2.510   1.678   5.208  0.00  0.00     0.010 A 
ATOM      3  C2  UNL d   1       1.988   0.383   5.212  0.00  0.00     0.041 A 
ATOM      4  C3  UNL d   1       1.922  -0.330   3.999  0.00  0.00    -0.075 A 
ATOM      5  S   UNL d   1       1.322  -1.929   3.763  0.00  0.00     0.015 SA
ATOM      6  C4  UNL d   1       1.643  -1.883   2.090  0.00  0.00     0.022 A 
ATOM      7  C5  UNL d   1       2.194  -0.684   1.703  0.00  0.00     0.026 A 
ATOM      8  C6  UNL d   1       2.365   0.231   2.797  0.00  0.00    -0.082 A 
ATOM      9  C7  UNL d   1       2.888   1.546   2.825  0.00  0.00     0.045 A 
ENDROOT
TORSDOF 0
ENDMDL
