MODEL 1
REMARK minimizedAffinity 18.8913231
REMARK minimizedRMSD -1
REMARK  0 active torsions:
REMARK  status: ('A' for Active; 'I' for Inactive)
ROOT
ATOM      1  C   UNL d   1      -0.474  -1.476  -0.397  0.00  0.00    -0.002 A 
ATOM      2  C1  UNL d   1       0.388  -2.465  -0.849  0.00  0.00     0.010 A 
ATOM      3  C2  UNL d   1       1.449  -2.900  -0.052  0.00  0.00     0.041 A 
ATOM      4  C3  UNL d   1       1.629  -2.321   1.219  0.00  0.00    -0.075 A 
ATOM      5  S   UNL d   1       2.858  -2.697   2.368  0.00  0.00     0.015 SA
ATOM      6  C4  UNL d   1       2.267  -1.554   3.486  0.00  0.00     0.022 A 
ATOM      7  C5  UNL d   1       1.159  -0.893   3.011  0.00  0.00     0.026 A 
ATOM      8  C6  UNL d   1       0.773  -1.324   1.697  0.00  0.00    -0.082 A 
ATOM      9  C7  UNL d   1      -0.293  -0.904   0.865  0.00  0.00     0.045 A 
ENDROOT
TORSDOF 0
ENDMDL
