MODEL 1
REMARK minimizedAffinity 0.705016315
REMARK minimizedRMSD -1
REMARK  0 active torsions:
REMARK  status: ('A' for Active; 'I' for Inactive)
ROOT
ATOM      1  C   UNL d   1       5.200  -2.619   5.998  0.00  0.00    -0.002 A 
ATOM      2  C1  UNL d   1       6.000  -2.486   4.872  0.00  0.00     0.010 A 
ATOM      3  C2  UNL d   1       5.473  -1.977   3.683  0.00  0.00     0.041 A 
ATOM      4  C3  UNL d   1       4.116  -1.600   3.646  0.00  0.00    -0.075 A 
ATOM      5  S   UNL d   1       3.254  -0.952   2.300  0.00  0.00     0.015 SA
ATOM      6  C4  UNL d   1       1.805  -0.836   3.189  0.00  0.00     0.022 A 
ATOM      7  C5  UNL d   1       1.957  -1.277   4.483  0.00  0.00     0.026 A 
ATOM      8  C6  UNL d   1       3.291  -1.724   4.767  0.00  0.00    -0.082 A 
ATOM      9  C7  UNL d   1       3.855  -2.244   5.957  0.00  0.00     0.045 A 
ENDROOT
TORSDOF 0
ENDMDL
