MODEL 1
REMARK minimizedAffinity 19.4807072
REMARK minimizedRMSD -1
REMARK  0 active torsions:
REMARK  status: ('A' for Active; 'I' for Inactive)
ROOT
ATOM      1  C   UNL d   1       2.225  -1.541   4.063  0.00  0.00    -0.002 A 
ATOM      2  C1  UNL d   1       2.777  -2.277   3.024  0.00  0.00     0.010 A 
ATOM      3  C2  UNL d   1       2.640  -3.666   2.986  0.00  0.00     0.041 A 
ATOM      4  C3  UNL d   1       1.931  -4.309   4.019  0.00  0.00    -0.075 A 
ATOM      5  S   UNL d   1       1.635  -6.000   4.181  0.00  0.00     0.015 SA
ATOM      6  C4  UNL d   1       0.769  -5.785   5.632  0.00  0.00     0.022 A 
ATOM      7  C5  UNL d   1       0.697  -4.463   6.000  0.00  0.00     0.026 A 
ATOM      8  C6  UNL d   1       1.365  -3.590   5.076  0.00  0.00    -0.082 A 
ATOM      9  C7  UNL d   1       1.522  -2.183   5.086  0.00  0.00     0.045 A 
ENDROOT
TORSDOF 0
ENDMDL
