MODEL 1
REMARK minimizedAffinity 5.93513107
REMARK minimizedRMSD -1
REMARK  0 active torsions:
REMARK  status: ('A' for Active; 'I' for Inactive)
ROOT
ATOM      1  C   UNL d   1       1.546  -2.139   3.911  0.00  0.00    -0.002 A 
ATOM      2  C1  UNL d   1       2.231  -1.332   3.013  0.00  0.00     0.010 A 
ATOM      3  C2  UNL d   1       3.614  -1.174   3.113  0.00  0.00     0.041 A 
ATOM      4  C3  UNL d   1       4.305  -1.848   4.138  0.00  0.00    -0.075 A 
ATOM      5  S   UNL d   1       6.000  -1.805   4.453  0.00  0.00     0.015 SA
ATOM      6  C4  UNL d   1       5.855  -2.858   5.786  0.00  0.00     0.022 A 
ATOM      7  C5  UNL d   1       4.553  -3.243   6.000  0.00  0.00     0.026 A 
ATOM      8  C6  UNL d   1       3.638  -2.668   5.053  0.00  0.00    -0.082 A 
ATOM      9  C7  UNL d   1       2.235  -2.807   4.927  0.00  0.00     0.045 A 
ENDROOT
TORSDOF 0
ENDMDL
