MODEL 1
REMARK minimizedAffinity 18.6603374
REMARK minimizedRMSD -1
REMARK  0 active torsions:
REMARK  status: ('A' for Active; 'I' for Inactive)
ROOT
ATOM      1  C   UNL d   1       5.999  -1.270   1.880  0.00  0.00    -0.002 A 
ATOM      2  C1  UNL d   1       6.000  -1.925   3.103  0.00  0.00     0.010 A 
ATOM      3  C2  UNL d   1       4.816  -2.080   3.826  0.00  0.00     0.041 A 
ATOM      4  C3  UNL d   1       3.619  -1.563   3.293  0.00  0.00    -0.075 A 
ATOM      5  S   UNL d   1       2.048  -1.636   4.002  0.00  0.00     0.015 SA
ATOM      6  C4  UNL d   1       1.339  -0.800   2.697  0.00  0.00     0.022 A 
ATOM      7  C5  UNL d   1       2.263  -0.466   1.735  0.00  0.00     0.026 A 
ATOM      8  C6  UNL d   1       3.592  -0.900   2.063  0.00  0.00    -0.082 A 
ATOM      9  C7  UNL d   1       4.809  -0.758   1.354  0.00  0.00     0.045 A 
ENDROOT
TORSDOF 0
ENDMDL
