MODEL 1
REMARK minimizedAffinity 12.704525
REMARK minimizedRMSD -1
REMARK  2 active torsions:
REMARK  status: ('A' for Active; 'I' for Inactive)
REMARK    1  A    between atoms: C1_2  and  C2_3 
REMARK    2  A    between atoms: C2_3  and  C3_4 
ROOT
ATOM      1  C3  UNL d   1      -1.567  -1.544   3.232  0.00  0.00    -0.075 A 
ATOM      2  C4  UNL d   1      -2.560  -1.996   2.351  0.00  0.00     0.002 A 
ATOM      3  C5  UNL d   1      -3.769  -1.310   2.234  0.00  0.00     0.002 A 
ATOM      4  C6  UNL d   1      -4.006  -0.173   3.003  0.00  0.00    -0.004 A 
ATOM      5  C7  UNL d   1      -3.033   0.276   3.894  0.00  0.00     0.002 A 
ATOM      6  C8  UNL d   1      -1.820  -0.406   4.009  0.00  0.00     0.002 A 
ENDROOT
BRANCH   1   7
ATOM      7  C2  UNL d   1      -0.244  -2.264   3.341  0.00  0.00     0.056 C 
BRANCH   7   8
ATOM      8  C1  UNL d   1       0.507  -2.393   2.012  0.00  0.00     0.007 C 
ATOM      9  C   UNL d   1       1.338  -3.665   1.913  0.00  0.00     0.009 C 
ENDBRANCH   7   8
ENDBRANCH   1   7
TORSDOF 2
ENDMDL
