MODEL 1
REMARK minimizedAffinity 12.3561811
REMARK minimizedRMSD -1
REMARK  2 active torsions:
REMARK  status: ('A' for Active; 'I' for Inactive)
REMARK    1  A    between atoms: C1_2  and  C2_3 
REMARK    2  A    between atoms: C2_3  and  C3_4 
ROOT
ATOM      1  C3  UNL d   1      -4.200  -1.638  -3.698  0.00  0.00    -0.075 A 
ATOM      2  C4  UNL d   1      -5.367  -0.861  -3.747  0.00  0.00     0.002 A 
ATOM      3  C5  UNL d   1      -5.738  -0.071  -2.658  0.00  0.00     0.002 A 
ATOM      4  C6  UNL d   1      -4.957  -0.057  -1.505  0.00  0.00    -0.004 A 
ATOM      5  C7  UNL d   1      -3.805  -0.838  -1.439  0.00  0.00     0.002 A 
ATOM      6  C8  UNL d   1      -3.428  -1.625  -2.529  0.00  0.00     0.002 A 
ENDROOT
BRANCH   1   7
ATOM      7  C2  UNL d   1      -3.777  -2.471  -4.883  0.00  0.00     0.056 C 
BRANCH   7   8
ATOM      8  C1  UNL d   1      -3.089  -1.671  -5.995  0.00  0.00     0.007 C 
ATOM      9  C   UNL d   1      -3.458  -0.194  -5.987  0.00  0.00     0.009 C 
ENDBRANCH   7   8
ENDBRANCH   1   7
TORSDOF 2
ENDMDL
