MODEL 1
REMARK minimizedAffinity 3.26282597
REMARK minimizedRMSD -1
REMARK  2 active torsions:
REMARK  status: ('A' for Active; 'I' for Inactive)
REMARK    1  A    between atoms: C1_2  and  C2_3 
REMARK    2  A    between atoms: C2_3  and  C3_4 
ROOT
ATOM      1  C3  UNL d   1       3.445  -4.526   0.953  0.00  0.00    -0.075 A 
ATOM      2  C4  UNL d   1       3.658  -5.691   0.202  0.00  0.00     0.002 A 
ATOM      3  C5  UNL d   1       4.930  -5.999  -0.282  0.00  0.00     0.002 A 
ATOM      4  C6  UNL d   1       6.000  -5.143  -0.032  0.00  0.00    -0.004 A 
ATOM      5  C7  UNL d   1       5.796  -3.974   0.699  0.00  0.00     0.002 A 
ATOM      6  C8  UNL d   1       4.526  -3.666   1.189  0.00  0.00     0.002 A 
ENDROOT
BRANCH   1   7
ATOM      7  C2  UNL d   1       2.077  -4.203   1.505  0.00  0.00     0.056 C 
BRANCH   7   8
ATOM      8  C1  UNL d   1       1.866  -2.718   1.818  0.00  0.00     0.007 C 
ATOM      9  C   UNL d   1       0.441  -2.390   2.243  0.00  0.00     0.009 C 
ENDBRANCH   7   8
ENDBRANCH   1   7
TORSDOF 2
ENDMDL
