MODEL 1
REMARK minimizedAffinity 9.76659203
REMARK minimizedRMSD -1
REMARK  2 active torsions:
REMARK  status: ('A' for Active; 'I' for Inactive)
REMARK    1  A    between atoms: C1_2  and  C2_3 
REMARK    2  A    between atoms: C2_3  and  C3_4 
ROOT
ATOM      1  C3  UNL d   1       3.385  -4.067   1.481  0.00  0.00    -0.075 A 
ATOM      2  C4  UNL d   1       4.610  -3.709   2.062  0.00  0.00     0.002 A 
ATOM      3  C5  UNL d   1       5.811  -3.975   1.405  0.00  0.00     0.002 A 
ATOM      4  C6  UNL d   1       5.804  -4.610   0.165  0.00  0.00    -0.004 A 
ATOM      5  C7  UNL d   1       4.594  -4.986  -0.414  0.00  0.00     0.002 A 
ATOM      6  C8  UNL d   1       3.390  -4.717   0.239  0.00  0.00     0.002 A 
ENDROOT
BRANCH   1   7
ATOM      7  C2  UNL d   1       2.080  -3.755   2.174  0.00  0.00     0.056 C 
BRANCH   7   8
ATOM      8  C1  UNL d   1       1.449  -2.426   1.747  0.00  0.00     0.007 C 
ATOM      9  C   UNL d   1       0.230  -2.046   2.576  0.00  0.00     0.009 C 
ENDBRANCH   7   8
ENDBRANCH   1   7
TORSDOF 2
ENDMDL
