MODEL 1
REMARK minimizedAffinity 6.70712423
REMARK minimizedRMSD -1
REMARK  2 active torsions:
REMARK  status: ('A' for Active; 'I' for Inactive)
REMARK    1  A    between atoms: C1_2  and  C2_3 
REMARK    2  A    between atoms: C2_3  and  C3_4 
ROOT
ATOM      1  C3  UNL d   1       1.164  -2.021   2.596  0.00  0.00    -0.075 A 
ATOM      2  C4  UNL d   1       1.102  -1.055   3.611  0.00  0.00     0.002 A 
ATOM      3  C5  UNL d   1      -0.117  -0.472   3.960  0.00  0.00     0.002 A 
ATOM      4  C6  UNL d   1      -1.284  -0.840   3.295  0.00  0.00    -0.004 A 
ATOM      5  C7  UNL d   1      -1.231  -1.787   2.274  0.00  0.00     0.002 A 
ATOM      6  C8  UNL d   1      -0.014  -2.374   1.925  0.00  0.00     0.002 A 
ENDROOT
BRANCH   1   7
ATOM      7  C2  UNL d   1       2.475  -2.677   2.234  0.00  0.00     0.056 C 
BRANCH   7   8
ATOM      8  C1  UNL d   1       2.327  -4.082   1.641  0.00  0.00     0.007 C 
ATOM      9  C   UNL d   1       3.638  -4.856   1.594  0.00  0.00     0.009 C 
ENDBRANCH   7   8
ENDBRANCH   1   7
TORSDOF 2
ENDMDL
