MODEL 1
REMARK minimizedAffinity 9.14176655
REMARK minimizedRMSD -1
REMARK  2 active torsions:
REMARK  status: ('A' for Active; 'I' for Inactive)
REMARK    1  A    between atoms: C1_2  and  C2_3 
REMARK    2  A    between atoms: C2_3  and  C3_4 
ROOT
ATOM      1  C3  UNL d   1      -1.877  -1.067   2.846  0.00  0.00    -0.075 A 
ATOM      2  C4  UNL d   1      -1.754   0.026   3.716  0.00  0.00     0.002 A 
ATOM      3  C5  UNL d   1      -2.779   0.967   3.821  0.00  0.00     0.002 A 
ATOM      4  C6  UNL d   1      -3.933   0.834   3.052  0.00  0.00    -0.004 A 
ATOM      5  C7  UNL d   1      -4.059  -0.239   2.172  0.00  0.00     0.002 A 
ATOM      6  C8  UNL d   1      -3.037  -1.185   2.068  0.00  0.00     0.002 A 
ENDROOT
BRANCH   1   7
ATOM      7  C2  UNL d   1      -0.785  -2.105   2.750  0.00  0.00     0.056 C 
BRANCH   7   8
ATOM      8  C1  UNL d   1       0.351  -1.727   1.793  0.00  0.00     0.007 C 
ATOM      9  C   UNL d   1       1.405  -2.818   1.653  0.00  0.00     0.009 C 
ENDBRANCH   7   8
ENDBRANCH   1   7
TORSDOF 2
ENDMDL
