MODEL 1
REMARK minimizedAffinity 10.6806993
REMARK minimizedRMSD -1
REMARK  2 active torsions:
REMARK  status: ('A' for Active; 'I' for Inactive)
REMARK    1  A    between atoms: C1_2  and  C2_3 
REMARK    2  A    between atoms: C2_3  and  C3_4 
ROOT
ATOM      1  C3  UNL d   1      -3.571  -1.153  -2.070  0.00  0.00    -0.075 A 
ATOM      2  C4  UNL d   1      -3.762  -2.143  -3.046  0.00  0.00     0.002 A 
ATOM      3  C5  UNL d   1      -4.759  -2.002  -4.011  0.00  0.00     0.002 A 
ATOM      4  C6  UNL d   1      -5.583  -0.879  -4.007  0.00  0.00    -0.004 A 
ATOM      5  C7  UNL d   1      -5.413   0.102  -3.033  0.00  0.00     0.002 A 
ATOM      6  C8  UNL d   1      -4.413  -0.034  -2.068  0.00  0.00     0.002 A 
ENDROOT
BRANCH   1   7
ATOM      7  C2  UNL d   1      -2.474  -1.285  -1.040  0.00  0.00     0.056 C 
BRANCH   7   8
ATOM      8  C1  UNL d   1      -1.121  -0.728  -1.495  0.00  0.00     0.007 C 
ATOM      9  C   UNL d   1       0.019  -1.071  -0.546  0.00  0.00     0.009 C 
ENDBRANCH   7   8
ENDBRANCH   1   7
TORSDOF 2
ENDMDL
