MODEL 1
REMARK minimizedAffinity -0.210260689
REMARK minimizedRMSD -1
REMARK  2 active torsions:
REMARK  status: ('A' for Active; 'I' for Inactive)
REMARK    1  A    between atoms: C1_2  and  C2_3 
REMARK    2  A    between atoms: C2_3  and  C3_4 
ROOT
ATOM      1  C3  UNL d   1       3.398  -4.502   4.095  0.00  0.00    -0.075 A 
ATOM      2  C4  UNL d   1       4.230  -5.258   3.256  0.00  0.00     0.002 A 
ATOM      3  C5  UNL d   1       5.286  -6.000   3.788  0.00  0.00     0.002 A 
ATOM      4  C6  UNL d   1       5.528  -5.988   5.159  0.00  0.00    -0.004 A 
ATOM      5  C7  UNL d   1       4.718  -5.228   6.000  0.00  0.00     0.002 A 
ATOM      6  C8  UNL d   1       3.659  -4.488   5.472  0.00  0.00     0.002 A 
ENDROOT
BRANCH   1   7
ATOM      7  C2  UNL d   1       2.236  -3.720   3.529  0.00  0.00     0.056 C 
BRANCH   7   8
ATOM      8  C1  UNL d   1       2.301  -3.517   2.012  0.00  0.00     0.007 C 
ATOM      9  C   UNL d   1       1.029  -2.912   1.433  0.00  0.00     0.009 C 
ENDBRANCH   7   8
ENDBRANCH   1   7
TORSDOF 2
ENDMDL
