MODEL 1
REMARK minimizedAffinity 11.4913292
REMARK minimizedRMSD -1
REMARK  0 active torsions:
REMARK  status: ('A' for Active; 'I' for Inactive)
ROOT
ATOM      1  C1  DEN d   1      -3.412   1.208   3.806  0.00  0.00     0.130 A 
ATOM      2  C2  DEN d   1      -4.330   1.420   2.691  0.00  0.00    -0.031 A 
ATOM      3  C3  DEN d   1      -3.801   0.694   1.519  0.00  0.00     0.027 A 
ATOM      4  C4  DEN d   1      -1.663  -0.735   1.326  0.00  0.00     0.027 A 
ATOM      5  C5  DEN d   1      -0.557  -1.198   2.004  0.00  0.00    -0.003 A 
ATOM      6  C6  DEN d   1      -0.309  -0.867   3.310  0.00  0.00     0.001 A 
ATOM      7  C7  DEN d   1      -1.203  -0.086   3.993  0.00  0.00     0.017 A 
ATOM      8  C8  DEN d   1      -2.317   0.391   3.313  0.00  0.00    -0.094 A 
ATOM      9  C9  DEN d   1      -2.556   0.035   1.997  0.00  0.00    -0.072 A 
ENDROOT
TORSDOF 0
ENDMDL
