MODEL 1
REMARK minimizedAffinity 8.33740425
REMARK minimizedRMSD -1
REMARK  0 active torsions:
REMARK  status: ('A' for Active; 'I' for Inactive)
ROOT
ATOM      1  C1  DEN d   1      -0.033  -1.245  -1.264  0.00  0.00     0.130 A 
ATOM      2  C2  DEN d   1       1.373  -1.433  -0.915  0.00  0.00    -0.031 A 
ATOM      3  C3  DEN d   1       1.480  -1.445   0.558  0.00  0.00     0.027 A 
ATOM      4  C4  DEN d   1      -0.385  -1.196   2.322  0.00  0.00     0.027 A 
ATOM      5  C5  DEN d   1      -1.736  -1.003   2.508  0.00  0.00    -0.003 A 
ATOM      6  C6  DEN d   1      -2.602  -0.845   1.459  0.00  0.00     0.001 A 
ATOM      7  C7  DEN d   1      -2.133  -0.922   0.174  0.00  0.00     0.017 A 
ATOM      8  C8  DEN d   1      -0.771  -1.108  -0.021  0.00  0.00    -0.094 A 
ATOM      9  C9  DEN d   1       0.086  -1.279   1.053  0.00  0.00    -0.072 A 
ENDROOT
TORSDOF 0
ENDMDL
