MODEL 1
REMARK minimizedAffinity 13.5505562
REMARK minimizedRMSD -1
REMARK  0 active torsions:
REMARK  status: ('A' for Active; 'I' for Inactive)
ROOT
ATOM      1  C1  DEN d   1       0.977  -5.510   1.910  0.00  0.00     0.130 A 
ATOM      2  C2  DEN d   1       2.210  -5.967   1.274  0.00  0.00    -0.031 A 
ATOM      3  C3  DEN d   1       2.977  -4.776   0.857  0.00  0.00     0.027 A 
ATOM      4  C4  DEN d   1       2.382  -2.282   1.139  0.00  0.00     0.027 A 
ATOM      5  C5  DEN d   1       1.434  -1.401   1.609  0.00  0.00    -0.003 A 
ATOM      6  C6  DEN d   1       0.261  -1.824   2.176  0.00  0.00     0.001 A 
ATOM      7  C7  DEN d   1       0.026  -3.164   2.330  0.00  0.00     0.017 A 
ATOM      8  C8  DEN d   1       0.974  -4.060   1.852  0.00  0.00    -0.094 A 
ATOM      9  C9  DEN d   1       2.159  -3.612   1.292  0.00  0.00    -0.072 A 
ENDROOT
TORSDOF 0
ENDMDL
