MODEL 1
REMARK minimizedAffinity 15.4140759
REMARK minimizedRMSD -1
REMARK  0 active torsions:
REMARK  status: ('A' for Active; 'I' for Inactive)
ROOT
ATOM      1  C1  DEN d   1      -1.447   3.607  -2.786  0.00  0.00     0.130 A 
ATOM      2  C2  DEN d   1      -0.631   2.398  -2.851  0.00  0.00    -0.031 A 
ATOM      3  C3  DEN d   1      -1.313   1.434  -3.738  0.00  0.00     0.027 A 
ATOM      4  C4  DEN d   1      -3.539   1.698  -5.015  0.00  0.00     0.027 A 
ATOM      5  C5  DEN d   1      -4.597   2.544  -5.262  0.00  0.00    -0.003 A 
ATOM      6  C6  DEN d   1      -4.697   3.779  -4.680  0.00  0.00     0.001 A 
ATOM      7  C7  DEN d   1      -3.697   4.223  -3.855  0.00  0.00     0.017 A 
ATOM      8  C8  DEN d   1      -2.630   3.374  -3.595  0.00  0.00    -0.094 A 
ATOM      9  C9  DEN d   1      -2.542   2.133  -4.203  0.00  0.00    -0.072 A 
ENDROOT
TORSDOF 0
ENDMDL
