MODEL 1
REMARK minimizedAffinity 6.69639301
REMARK minimizedRMSD -1
REMARK  0 active torsions:
REMARK  status: ('A' for Active; 'I' for Inactive)
ROOT
ATOM      1  C1  DEN d   1      -0.415   2.536  -2.980  0.00  0.00     0.130 A 
ATOM      2  C2  DEN d   1      -1.550   3.441  -3.142  0.00  0.00    -0.031 A 
ATOM      3  C3  DEN d   1      -2.756   2.756  -2.634  0.00  0.00     0.027 A 
ATOM      4  C4  DEN d   1      -2.973   0.398  -1.612  0.00  0.00     0.027 A 
ATOM      5  C5  DEN d   1      -2.287  -0.749  -1.279  0.00  0.00    -0.003 A 
ATOM      6  C6  DEN d   1      -0.946  -0.893  -1.518  0.00  0.00     0.001 A 
ATOM      7  C7  DEN d   1      -0.239   0.145  -2.066  0.00  0.00     0.017 A 
ATOM      8  C8  DEN d   1      -0.926   1.301  -2.413  0.00  0.00    -0.094 A 
ATOM      9  C9  DEN d   1      -2.279   1.432  -2.152  0.00  0.00    -0.072 A 
ENDROOT
TORSDOF 0
ENDMDL
