MODEL 1
REMARK minimizedAffinity 11.0669899
REMARK minimizedRMSD -1
REMARK  0 active torsions:
REMARK  status: ('A' for Active; 'I' for Inactive)
ROOT
ATOM      1  C1  DEN d   1       5.988   2.867   0.953  0.00  0.00     0.130 A 
ATOM      2  C2  DEN d   1       5.942   2.724   2.406  0.00  0.00    -0.031 A 
ATOM      3  C3  DEN d   1       5.915   1.281   2.722  0.00  0.00     0.027 A 
ATOM      4  C4  DEN d   1       5.944  -0.733   1.111  0.00  0.00     0.027 A 
ATOM      5  C5  DEN d   1       5.968  -1.111  -0.213  0.00  0.00    -0.003 A 
ATOM      6  C6  DEN d   1       5.967  -0.198  -1.234  0.00  0.00     0.001 A 
ATOM      7  C7  DEN d   1       5.986   1.141  -0.946  0.00  0.00     0.017 A 
ATOM      8  C8  DEN d   1       5.954   1.531   0.387  0.00  0.00    -0.094 A 
ATOM      9  C9  DEN d   1       5.968   0.592   1.404  0.00  0.00    -0.072 A 
ENDROOT
TORSDOF 0
ENDMDL
