MODEL 1
REMARK minimizedAffinity 3.24609542
REMARK minimizedRMSD -1
REMARK  0 active torsions:
REMARK  status: ('A' for Active; 'I' for Inactive)
ROOT
ATOM      1  C1  DEN d   1       4.699   1.812   0.466  0.00  0.00     0.130 A 
ATOM      2  C2  DEN d   1       6.000   1.827   1.129  0.00  0.00    -0.031 A 
ATOM      3  C3  DEN d   1       5.792   2.235   2.533  0.00  0.00     0.027 A 
ATOM      4  C4  DEN d   1       3.593   2.835   3.740  0.00  0.00     0.027 A 
ATOM      5  C5  DEN d   1       2.231   2.977   3.587  0.00  0.00    -0.003 A 
ATOM      6  C6  DEN d   1       1.606   2.775   2.385  0.00  0.00     0.001 A 
ATOM      7  C7  DEN d   1       2.338   2.376   1.298  0.00  0.00     0.017 A 
ATOM      8  C8  DEN d   1       3.712   2.238   1.442  0.00  0.00    -0.094 A 
ATOM      9  C9  DEN d   1       4.324   2.434   2.669  0.00  0.00    -0.072 A 
ENDROOT
TORSDOF 0
ENDMDL
