MODEL 1
REMARK minimizedAffinity 1.26937449
REMARK minimizedRMSD -1
REMARK  0 active torsions:
REMARK  status: ('A' for Active; 'I' for Inactive)
ROOT
ATOM      1  C1  DEN d   1       2.275   2.367   0.256  0.00  0.00     0.130 A 
ATOM      2  C2  DEN d   1       1.457   1.221  -0.132  0.00  0.00    -0.031 A 
ATOM      3  C3  DEN d   1       2.337   0.036  -0.201  0.00  0.00     0.027 A 
ATOM      4  C4  DEN d   1       4.869  -0.134   0.256  0.00  0.00     0.027 A 
ATOM      5  C5  DEN d   1       5.997   0.576   0.604  0.00  0.00    -0.003 A 
ATOM      6  C6  DEN d   1       5.970   1.927   0.826  0.00  0.00     0.001 A 
ATOM      7  C7  DEN d   1       4.782   2.605   0.745  0.00  0.00     0.017 A 
ATOM      8  C8  DEN d   1       3.642   1.897   0.388  0.00  0.00    -0.094 A 
ATOM      9  C9  DEN d   1       3.688   0.529   0.180  0.00  0.00    -0.072 A 
ENDROOT
TORSDOF 0
ENDMDL
