MODEL 1
REMARK minimizedAffinity -0.455094576
REMARK minimizedRMSD -1
REMARK  0 active torsions:
REMARK  status: ('A' for Active; 'I' for Inactive)
ROOT
ATOM      1  C1  DEN d   1       6.000   3.324  -0.212  0.00  0.00     0.130 A 
ATOM      2  C2  DEN d   1       5.971   2.936   1.196  0.00  0.00    -0.031 A 
ATOM      3  C3  DEN d   1       5.955   1.461   1.263  0.00  0.00     0.027 A 
ATOM      4  C4  DEN d   1       5.978  -0.251  -0.666  0.00  0.00     0.027 A 
ATOM      5  C5  DEN d   1       5.990  -0.399  -2.035  0.00  0.00    -0.003 A 
ATOM      6  C6  DEN d   1       5.972   0.674  -2.886  0.00  0.00     0.001 A 
ATOM      7  C7  DEN d   1       5.987   1.946  -2.375  0.00  0.00     0.017 A 
ATOM      8  C8  DEN d   1       5.967   2.103  -0.996  0.00  0.00    -0.094 A 
ATOM      9  C9  DEN d   1       5.998   1.005  -0.153  0.00  0.00    -0.072 A 
ENDROOT
TORSDOF 0
ENDMDL
