MODEL 1
REMARK minimizedAffinity 4.52677202
REMARK minimizedRMSD -1
REMARK  0 active torsions:
REMARK  status: ('A' for Active; 'I' for Inactive)
ROOT
ATOM      1  C   UNL d   1       1.129   0.105  -0.066  0.00  0.00     0.124 A 
ATOM      2  C1  UNL d   1       1.228   0.432  -1.411  0.00  0.00     0.062 A 
ATOM      3  C2  UNL d   1       1.337   1.764  -1.801  0.00  0.00     0.162 A 
ATOM      4  C3  UNL d   1       1.349   2.779  -0.844  0.00  0.00    -0.034 A 
ATOM      5  C4  UNL d   1       1.249   2.441   0.507  0.00  0.00     0.162 A 
ATOM      6  C5  UNL d   1       1.140   1.109   0.891  0.00  0.00     0.062 A 
ATOM      7  F   UNL d   1       1.046   0.794   2.191  0.00  0.00    -0.097 F 
ATOM      8  F1  UNL d   1       1.258   3.392   1.453  0.00  0.00    -0.096 F 
ATOM      9  I   UNL d   1       1.512   4.771  -1.423  0.00  0.00    -0.060 I 
ATOM     10  F2  UNL d   1       1.430   2.052  -3.108  0.00  0.00    -0.096 F 
ATOM     11  F3  UNL d   1       1.216  -0.536  -2.339  0.00  0.00    -0.097 F 
ATOM     12  F4  UNL d   1       1.024  -1.177   0.306  0.00  0.00    -0.092 F 
ENDROOT
TORSDOF 0
ENDMDL
