MODEL 1
REMARK minimizedAffinity 11.9596186
REMARK minimizedRMSD -1
REMARK  0 active torsions:
REMARK  status: ('A' for Active; 'I' for Inactive)
ROOT
ATOM      1  C   UNL d   1       1.286   0.053  -0.441  0.00  0.00     0.124 A 
ATOM      2  C1  UNL d   1       1.617   0.972   0.546  0.00  0.00     0.062 A 
ATOM      3  C2  UNL d   1       1.779   2.316   0.224  0.00  0.00     0.162 A 
ATOM      4  C3  UNL d   1       1.611   2.750  -1.091  0.00  0.00    -0.034 A 
ATOM      5  C4  UNL d   1       1.279   1.820  -2.078  0.00  0.00     0.162 A 
ATOM      6  C5  UNL d   1       1.118   0.477  -1.751  0.00  0.00     0.062 A 
ATOM      7  F   UNL d   1       0.799  -0.409  -2.705  0.00  0.00    -0.097 F 
ATOM      8  F1  UNL d   1       1.110   2.203  -3.352  0.00  0.00    -0.096 F 
ATOM      9  I   UNL d   1       1.853   4.759  -1.577  0.00  0.00    -0.060 I 
ATOM     10  F2  UNL d   1       2.099   3.182   1.197  0.00  0.00    -0.096 F 
ATOM     11  F3  UNL d   1       1.781   0.564   1.812  0.00  0.00    -0.097 F 
ATOM     12  F4  UNL d   1       1.132  -1.240  -0.128  0.00  0.00    -0.092 F 
ENDROOT
TORSDOF 0
ENDMDL
