MODEL 1
REMARK minimizedAffinity 16.0301628
REMARK minimizedRMSD -1
REMARK  0 active torsions:
REMARK  status: ('A' for Active; 'I' for Inactive)
ROOT
ATOM      1  C   UNL d   1       0.140   0.920  -1.005  0.00  0.00     0.124 A 
ATOM      2  C1  UNL d   1       0.750   1.162   0.218  0.00  0.00     0.062 A 
ATOM      3  C2  UNL d   1       0.067   1.850   1.217  0.00  0.00     0.162 A 
ATOM      4  C3  UNL d   1      -1.235   2.299   0.999  0.00  0.00    -0.034 A 
ATOM      5  C4  UNL d   1      -1.842   2.053  -0.234  0.00  0.00     0.162 A 
ATOM      6  C5  UNL d   1      -1.155   1.365  -1.230  0.00  0.00     0.062 A 
ATOM      7  F   UNL d   1      -1.747   1.133  -2.410  0.00  0.00    -0.097 F 
ATOM      8  F1  UNL d   1      -3.093   2.471  -0.478  0.00  0.00    -0.096 F 
ATOM      9  I   UNL d   1      -2.259   3.327   2.490  0.00  0.00    -0.060 I 
ATOM     10  F2  UNL d   1       0.682   2.069   2.389  0.00  0.00    -0.096 F 
ATOM     11  F3  UNL d   1       2.002   0.734   0.437  0.00  0.00    -0.097 F 
ATOM     12  F4  UNL d   1       0.799   0.260  -1.965  0.00  0.00    -0.092 F 
ENDROOT
TORSDOF 0
ENDMDL
