MODEL 1
REMARK minimizedAffinity 1.17709196
REMARK minimizedRMSD -1
REMARK  0 active torsions:
REMARK  status: ('A' for Active; 'I' for Inactive)
ROOT
ATOM      1  C   UNL d   1       1.049   0.479  -0.201  0.00  0.00     0.124 A 
ATOM      2  C1  UNL d   1       1.216   1.397   0.827  0.00  0.00     0.062 A 
ATOM      3  C2  UNL d   1       1.365   2.751   0.538  0.00  0.00     0.162 A 
ATOM      4  C3  UNL d   1       1.348   3.194  -0.785  0.00  0.00    -0.034 A 
ATOM      5  C4  UNL d   1       1.180   2.264  -1.812  0.00  0.00     0.162 A 
ATOM      6  C5  UNL d   1       1.031   0.913  -1.518  0.00  0.00     0.062 A 
ATOM      7  F   UNL d   1       0.870   0.027  -2.512  0.00  0.00    -0.097 F 
ATOM      8  F1  UNL d   1       1.158   2.657  -3.095  0.00  0.00    -0.096 F 
ATOM      9  I   UNL d   1       1.571   5.217  -1.220  0.00  0.00    -0.060 I 
ATOM     10  F2  UNL d   1       1.525   3.616   1.550  0.00  0.00    -0.096 F 
ATOM     11  F3  UNL d   1       1.234   0.980   2.101  0.00  0.00    -0.097 F 
ATOM     12  F4  UNL d   1       0.906  -0.823   0.080  0.00  0.00    -0.092 F 
ENDROOT
TORSDOF 0
ENDMDL
