MODEL 1
REMARK minimizedAffinity 16.9700336
REMARK minimizedRMSD -1
REMARK  0 active torsions:
REMARK  status: ('A' for Active; 'I' for Inactive)
ROOT
ATOM      1  C   UNL d   1       1.379   4.700   0.007  0.00  0.00     0.124 A 
ATOM      2  C1  UNL d   1       1.306   3.736   1.002  0.00  0.00     0.062 A 
ATOM      3  C2  UNL d   1       1.259   2.386   0.667  0.00  0.00     0.162 A 
ATOM      4  C3  UNL d   1       1.284   1.992  -0.671  0.00  0.00    -0.034 A 
ATOM      5  C4  UNL d   1       1.357   2.968  -1.667  0.00  0.00     0.162 A 
ATOM      6  C5  UNL d   1       1.405   4.316  -1.327  0.00  0.00     0.062 A 
ATOM      7  F   UNL d   1       1.475   5.246  -2.290  0.00  0.00    -0.097 F 
ATOM      8  F1  UNL d   1       1.384   2.624  -2.963  0.00  0.00    -0.096 F 
ATOM      9  I   UNL d   1       1.213  -0.026  -1.177  0.00  0.00    -0.060 I 
ATOM     10  F2  UNL d   1       1.188   1.476   1.649  0.00  0.00    -0.096 F 
ATOM     11  F3  UNL d   1       1.281   4.105   2.291  0.00  0.00    -0.097 F 
ATOM     12  F4  UNL d   1       1.424   5.999   0.332  0.00  0.00    -0.092 F 
ENDROOT
TORSDOF 0
ENDMDL
