MODEL 1
REMARK minimizedAffinity 7.1343503
REMARK minimizedRMSD -1
REMARK  0 active torsions:
REMARK  status: ('A' for Active; 'I' for Inactive)
ROOT
ATOM      1  C   UNL d   1       0.053  -3.818  -1.358  0.00  0.00     0.124 A 
ATOM      2  C1  UNL d   1      -0.747  -2.746  -1.725  0.00  0.00     0.062 A 
ATOM      3  C2  UNL d   1      -0.297  -1.441  -1.543  0.00  0.00     0.162 A 
ATOM      4  C3  UNL d   1       0.961  -1.202  -0.991  0.00  0.00    -0.034 A 
ATOM      5  C4  UNL d   1       1.761  -2.286  -0.623  0.00  0.00     0.162 A 
ATOM      6  C5  UNL d   1       1.306  -3.587  -0.808  0.00  0.00     0.062 A 
ATOM      7  F   UNL d   1       2.081  -4.623  -0.452  0.00  0.00    -0.097 F 
ATOM      8  F1  UNL d   1       2.976  -2.091  -0.089  0.00  0.00    -0.096 F 
ATOM      9  I   UNL d   1       1.638   0.747  -0.716  0.00  0.00    -0.060 I 
ATOM     10  F2  UNL d   1      -1.092  -0.424  -1.906  0.00  0.00    -0.096 F 
ATOM     11  F3  UNL d   1      -1.958  -2.966  -2.257  0.00  0.00    -0.097 F 
ATOM     12  F4  UNL d   1      -0.383  -5.072  -1.534  0.00  0.00    -0.092 F 
ENDROOT
TORSDOF 0
ENDMDL
