MODEL 1
REMARK minimizedAffinity 3.4201324
REMARK minimizedRMSD -1
REMARK  0 active torsions:
REMARK  status: ('A' for Active; 'I' for Inactive)
ROOT
ATOM      1  C   UNL d   1       1.129   0.215  -0.053  0.00  0.00     0.124 A 
ATOM      2  C1  UNL d   1       1.241   1.163   0.955  0.00  0.00     0.062 A 
ATOM      3  C2  UNL d   1       1.345   2.514   0.636  0.00  0.00     0.162 A 
ATOM      4  C3  UNL d   1       1.336   2.926  -0.696  0.00  0.00    -0.034 A 
ATOM      5  C4  UNL d   1       1.225   1.966  -1.704  0.00  0.00     0.162 A 
ATOM      6  C5  UNL d   1       1.121   0.617  -1.381  0.00  0.00     0.062 A 
ATOM      7  F   UNL d   1       1.013  -0.297  -2.356  0.00  0.00    -0.097 F 
ATOM      8  F1  UNL d   1       1.213   2.328  -2.996  0.00  0.00    -0.096 F 
ATOM      9  I   UNL d   1       1.491   4.945  -1.176  0.00  0.00    -0.060 I 
ATOM     10  F2  UNL d   1       1.451   3.408   1.631  0.00  0.00    -0.096 F 
ATOM     11  F3  UNL d   1       1.249   0.777   2.239  0.00  0.00    -0.097 F 
ATOM     12  F4  UNL d   1       1.030  -1.084   0.256  0.00  0.00    -0.092 F 
ENDROOT
TORSDOF 0
ENDMDL
