MODEL 1
REMARK minimizedAffinity 10.8879509
REMARK minimizedRMSD -1
REMARK  0 active torsions:
REMARK  status: ('A' for Active; 'I' for Inactive)
ROOT
ATOM      1  C   UNL d   1       1.017   0.059  -0.864  0.00  0.00     0.124 A 
ATOM      2  C1  UNL d   1       1.368  -0.351   0.415  0.00  0.00     0.062 A 
ATOM      3  C2  UNL d   1       1.586   0.590   1.417  0.00  0.00     0.162 A 
ATOM      4  C3  UNL d   1       1.454   1.952   1.144  0.00  0.00    -0.034 A 
ATOM      5  C4  UNL d   1       1.102   2.357  -0.145  0.00  0.00     0.162 A 
ATOM      6  C5  UNL d   1       0.885   1.412  -1.143  0.00  0.00     0.062 A 
ATOM      7  F   UNL d   1       0.546   1.811  -2.378  0.00  0.00    -0.097 F 
ATOM      8  F1  UNL d   1       0.966   3.658  -0.441  0.00  0.00    -0.096 F 
ATOM      9  I   UNL d   1       1.780   3.362   2.639  0.00  0.00    -0.060 I 
ATOM     10  F2  UNL d   1       1.924   0.165   2.643  0.00  0.00    -0.096 F 
ATOM     11  F3  UNL d   1       1.497  -1.658   0.686  0.00  0.00    -0.097 F 
ATOM     12  F4  UNL d   1       0.808  -0.848  -1.826  0.00  0.00    -0.092 F 
ENDROOT
TORSDOF 0
ENDMDL
