MODEL 1
REMARK minimizedAffinity 21.735281
REMARK minimizedRMSD -1
REMARK  0 active torsions:
REMARK  status: ('A' for Active; 'I' for Inactive)
ROOT
ATOM      1  C   UNL d   1       1.043   1.740  -2.427  0.00  0.00     0.124 A 
ATOM      2  C1  UNL d   1       1.286   2.850  -1.630  0.00  0.00     0.062 A 
ATOM      3  C2  UNL d   1       1.727   2.688  -0.320  0.00  0.00     0.162 A 
ATOM      4  C3  UNL d   1       1.928   1.410   0.202  0.00  0.00    -0.034 A 
ATOM      5  C4  UNL d   1       1.681   0.298  -0.605  0.00  0.00     0.162 A 
ATOM      6  C5  UNL d   1       1.240   0.466  -1.914  0.00  0.00     0.062 A 
ATOM      7  F   UNL d   1       1.006  -0.608  -2.682  0.00  0.00    -0.097 F 
ATOM      8  F1  UNL d   1       1.864  -0.944  -0.135  0.00  0.00    -0.096 F 
ATOM      9  I   UNL d   1       2.587   1.164   2.161  0.00  0.00    -0.060 I 
ATOM     10  F2  UNL d   1       1.954   3.779   0.428  0.00  0.00    -0.096 F 
ATOM     11  F3  UNL d   1       1.096   4.082  -2.123  0.00  0.00    -0.097 F 
ATOM     12  F4  UNL d   1       0.618   1.898  -3.687  0.00  0.00    -0.092 F 
ENDROOT
TORSDOF 0
ENDMDL
