MODEL 1
REMARK minimizedAffinity 1.53997409
REMARK minimizedRMSD -1
REMARK  0 active torsions:
REMARK  status: ('A' for Active; 'I' for Inactive)
ROOT
ATOM      1  C   UNL d   1       1.030   0.533   0.216  0.00  0.00     0.124 A 
ATOM      2  C1  UNL d   1       1.260   0.800  -1.126  0.00  0.00     0.062 A 
ATOM      3  C2  UNL d   1       1.485   2.106  -1.552  0.00  0.00     0.162 A 
ATOM      4  C3  UNL d   1       1.483   3.156  -0.633  0.00  0.00    -0.034 A 
ATOM      5  C4  UNL d   1       1.250   2.880   0.715  0.00  0.00     0.162 A 
ATOM      6  C5  UNL d   1       1.025   1.573   1.135  0.00  0.00     0.062 A 
ATOM      7  F   UNL d   1       0.803   1.317   2.433  0.00  0.00    -0.097 F 
ATOM      8  F1  UNL d   1       1.240   3.865   1.625  0.00  0.00    -0.096 F 
ATOM      9  I   UNL d   1       1.819   5.110  -1.265  0.00  0.00    -0.060 I 
ATOM     10  F2  UNL d   1       1.705   2.335  -2.855  0.00  0.00    -0.096 F 
ATOM     11  F3  UNL d   1       1.265  -0.203  -2.017  0.00  0.00    -0.097 F 
ATOM     12  F4  UNL d   1       0.813  -0.724   0.622  0.00  0.00    -0.092 F 
ENDROOT
TORSDOF 0
ENDMDL
