MODEL 1
REMARK minimizedAffinity 0.0919197947
REMARK minimizedRMSD -1
REMARK  0 active torsions:
REMARK  status: ('A' for Active; 'I' for Inactive)
ROOT
ATOM      1  C   UNL d   1       1.116   0.343  -0.037  0.00  0.00     0.124 A 
ATOM      2  C1  UNL d   1       1.160   0.760  -1.360  0.00  0.00     0.062 A 
ATOM      3  C2  UNL d   1       1.403   2.097  -1.664  0.00  0.00     0.162 A 
ATOM      4  C3  UNL d   1       1.604   3.026  -0.644  0.00  0.00    -0.034 A 
ATOM      5  C4  UNL d   1       1.557   2.598   0.685  0.00  0.00     0.162 A 
ATOM      6  C5  UNL d   1       1.315   1.262   0.984  0.00  0.00     0.062 A 
ATOM      7  F   UNL d   1       1.272   0.860   2.262  0.00  0.00    -0.097 F 
ATOM      8  F1  UNL d   1       1.747   3.465   1.691  0.00  0.00    -0.096 F 
ATOM      9  I   UNL d   1       1.967   5.025  -1.094  0.00  0.00    -0.060 I 
ATOM     10  F2  UNL d   1       1.440   2.472  -2.952  0.00  0.00    -0.096 F 
ATOM     11  F3  UNL d   1       0.968  -0.125  -2.348  0.00  0.00    -0.097 F 
ATOM     12  F4  UNL d   1       0.881  -0.944   0.253  0.00  0.00    -0.092 F 
ENDROOT
TORSDOF 0
ENDMDL
