MODEL 1
REMARK minimizedAffinity 9.13602924
REMARK minimizedRMSD -1
REMARK  0 active torsions:
REMARK  status: ('A' for Active; 'I' for Inactive)
ROOT
ATOM      1  C   UNL d   1       1.507   1.329  -1.318  0.00  0.00     0.124 A 
ATOM      2  C1  UNL d   1       1.741   0.770  -0.069  0.00  0.00     0.062 A 
ATOM      3  C2  UNL d   1       1.867   1.586   1.051  0.00  0.00     0.162 A 
ATOM      4  C3  UNL d   1       1.757   2.971   0.929  0.00  0.00    -0.034 A 
ATOM      5  C4  UNL d   1       1.522   3.527  -0.330  0.00  0.00     0.162 A 
ATOM      6  C5  UNL d   1       1.398   2.707  -1.447  0.00  0.00     0.062 A 
ATOM      7  F   UNL d   1       1.171   3.249  -2.652  0.00  0.00    -0.097 F 
ATOM      8  F1  UNL d   1       1.411   4.854  -0.483  0.00  0.00    -0.096 F 
ATOM      9  I   UNL d   1       1.943   4.195   2.602  0.00  0.00    -0.060 I 
ATOM     10  F2  UNL d   1       2.093   1.018   2.245  0.00  0.00    -0.096 F 
ATOM     11  F3  UNL d   1       1.849  -0.561   0.058  0.00  0.00    -0.097 F 
ATOM     12  F4  UNL d   1       1.388   0.542  -2.394  0.00  0.00    -0.092 F 
ENDROOT
TORSDOF 0
ENDMDL
