MODEL 1
REMARK minimizedAffinity -1.23450124
REMARK minimizedRMSD -1
REMARK  0 active torsions:
REMARK  status: ('A' for Active; 'I' for Inactive)
ROOT
ATOM      1  C   UNL d   1       1.259   0.748  -0.139  0.00  0.00     0.124 A 
ATOM      2  C1  UNL d   1       1.111   1.255  -1.423  0.00  0.00     0.062 A 
ATOM      3  C2  UNL d   1       1.278   2.616  -1.660  0.00  0.00     0.162 A 
ATOM      4  C3  UNL d   1       1.595   3.480  -0.612  0.00  0.00    -0.034 A 
ATOM      5  C4  UNL d   1       1.740   2.962   0.676  0.00  0.00     0.162 A 
ATOM      6  C5  UNL d   1       1.573   1.601   0.909  0.00  0.00     0.062 A 
ATOM      7  F   UNL d   1       1.715   1.113   2.149  0.00  0.00    -0.097 F 
ATOM      8  F1  UNL d   1       2.044   3.765   1.707  0.00  0.00    -0.096 F 
ATOM      9  I   UNL d   1       1.845   5.516  -0.963  0.00  0.00    -0.060 I 
ATOM     10  F2  UNL d   1       1.130   3.079  -2.910  0.00  0.00    -0.096 F 
ATOM     11  F3  UNL d   1       0.807   0.433  -2.437  0.00  0.00    -0.097 F 
ATOM     12  F4  UNL d   1       1.097  -0.563   0.087  0.00  0.00    -0.092 F 
ENDROOT
TORSDOF 0
ENDMDL
