MODEL 1
REMARK minimizedAffinity 0.319025755
REMARK minimizedRMSD -1
REMARK  0 active torsions:
REMARK  status: ('A' for Active; 'I' for Inactive)
ROOT
ATOM      1  C   UNL d   1       1.362   0.469  -1.718  0.00  0.00     0.124 A 
ATOM      2  C1  UNL d   1       1.068   1.768  -2.111  0.00  0.00     0.062 A 
ATOM      3  C2  UNL d   1       1.010   2.789  -1.167  0.00  0.00     0.162 A 
ATOM      4  C3  UNL d   1       1.248   2.516   0.180  0.00  0.00    -0.034 A 
ATOM      5  C4  UNL d   1       1.542   1.207   0.568  0.00  0.00     0.162 A 
ATOM      6  C5  UNL d   1       1.598   0.190  -0.380  0.00  0.00     0.062 A 
ATOM      7  F   UNL d   1       1.882  -1.063   0.002  0.00  0.00    -0.097 F 
ATOM      8  F1  UNL d   1       1.776   0.910   1.855  0.00  0.00    -0.096 F 
ATOM      9  I   UNL d   1       1.163   4.040   1.595  0.00  0.00    -0.060 I 
ATOM     10  F2  UNL d   1       0.724   4.034  -1.576  0.00  0.00    -0.096 F 
ATOM     11  F3  UNL d   1       0.838   2.039  -3.404  0.00  0.00    -0.097 F 
ATOM     12  F4  UNL d   1       1.416  -0.512  -2.629  0.00  0.00    -0.092 F 
ENDROOT
TORSDOF 0
ENDMDL
