MODEL 1
REMARK minimizedAffinity 8.72426319
REMARK minimizedRMSD -1
REMARK  0 active torsions:
REMARK  status: ('A' for Active; 'I' for Inactive)
ROOT
ATOM      1  C   UNL d   1       1.207   3.409  -0.688  0.00  0.00     0.124 A 
ATOM      2  C1  UNL d   1       1.188   2.464  -1.704  0.00  0.00     0.062 A 
ATOM      3  C2  UNL d   1       1.735   1.201  -1.496  0.00  0.00     0.162 A 
ATOM      4  C3  UNL d   1       2.305   0.875  -0.265  0.00  0.00    -0.034 A 
ATOM      5  C4  UNL d   1       2.321   1.832   0.752  0.00  0.00     0.162 A 
ATOM      6  C5  UNL d   1       1.773   3.092   0.539  0.00  0.00     0.062 A 
ATOM      7  F   UNL d   1       1.792   4.004   1.522  0.00  0.00    -0.097 F 
ATOM      8  F1  UNL d   1       2.862   1.552   1.947  0.00  0.00    -0.096 F 
ATOM      9  I   UNL d   1       3.124  -1.012   0.050  0.00  0.00    -0.060 I 
ATOM     10  F2  UNL d   1       1.703   0.308  -2.496  0.00  0.00    -0.096 F 
ATOM     11  F3  UNL d   1       0.642   2.768  -2.890  0.00  0.00    -0.097 F 
ATOM     12  F4  UNL d   1       0.680   4.624  -0.891  0.00  0.00    -0.092 F 
ENDROOT
TORSDOF 0
ENDMDL
