MODEL 1
REMARK minimizedAffinity 15.7365999
REMARK minimizedRMSD -1
REMARK  0 active torsions:
REMARK  status: ('A' for Active; 'I' for Inactive)
ROOT
ATOM      1  C   UNL d   1       0.556   3.321  -1.301  0.00  0.00     0.124 A 
ATOM      2  C1  UNL d   1       1.059   3.019  -0.043  0.00  0.00     0.062 A 
ATOM      3  C2  UNL d   1       1.498   1.730   0.245  0.00  0.00     0.162 A 
ATOM      4  C3  UNL d   1       1.436   0.732  -0.728  0.00  0.00    -0.034 A 
ATOM      5  C4  UNL d   1       0.928   1.043  -1.991  0.00  0.00     0.162 A 
ATOM      6  C5  UNL d   1       0.491   2.333  -2.273  0.00  0.00     0.062 A 
ATOM      7  F   UNL d   1       0.005   2.623  -3.489  0.00  0.00    -0.097 F 
ATOM      8  F1  UNL d   1       0.854   0.108  -2.949  0.00  0.00    -0.096 F 
ATOM      9  I   UNL d   1       2.091  -1.197  -0.302  0.00  0.00    -0.060 I 
ATOM     10  F2  UNL d   1       1.979   1.467   1.469  0.00  0.00    -0.096 F 
ATOM     11  F3  UNL d   1       1.122   3.972   0.899  0.00  0.00    -0.097 F 
ATOM     12  F4  UNL d   1       0.133   4.562  -1.574  0.00  0.00    -0.092 F 
ENDROOT
TORSDOF 0
ENDMDL
