MODEL 1
REMARK minimizedAffinity 13.1992836
REMARK minimizedRMSD -1
REMARK  0 active torsions:
REMARK  status: ('A' for Active; 'I' for Inactive)
ROOT
ATOM      1  C   UNL d   1       0.628   0.663  -1.859  0.00  0.00     0.124 A 
ATOM      2  C1  UNL d   1       1.227   0.637  -0.607  0.00  0.00     0.062 A 
ATOM      3  C2  UNL d   1       1.512   1.826   0.058  0.00  0.00     0.162 A 
ATOM      4  C3  UNL d   1       1.197   3.053  -0.528  0.00  0.00    -0.034 A 
ATOM      5  C4  UNL d   1       0.596   3.071  -1.788  0.00  0.00     0.162 A 
ATOM      6  C5  UNL d   1       0.313   1.880  -2.448  0.00  0.00     0.062 A 
ATOM      7  F   UNL d   1      -0.266   1.907  -3.657  0.00  0.00    -0.097 F 
ATOM      8  F1  UNL d   1       0.280   4.233  -2.379  0.00  0.00    -0.096 F 
ATOM      9  I   UNL d   1       1.622   4.833   0.463  0.00  0.00    -0.060 I 
ATOM     10  F2  UNL d   1       2.091   1.771   1.266  0.00  0.00    -0.096 F 
ATOM     11  F3  UNL d   1       1.533  -0.537  -0.036  0.00  0.00    -0.097 F 
ATOM     12  F4  UNL d   1       0.355  -0.482  -2.496  0.00  0.00    -0.092 F 
ENDROOT
TORSDOF 0
ENDMDL
