MODEL 1
REMARK minimizedAffinity 5.4787302
REMARK minimizedRMSD -1
REMARK  0 active torsions:
REMARK  status: ('A' for Active; 'I' for Inactive)
ROOT
ATOM      1  C   UNL d   1       4.171  -0.096  -0.799  0.00  0.00     0.078 C 
ATOM      2  C1  UNL d   1       2.755  -0.358  -0.382  0.00  0.00    -0.077 A 
ATOM      3  C2  UNL d   1       2.208  -1.645  -0.454  0.00  0.00    -0.001 A 
ATOM      4  C3  UNL d   1       0.885  -1.872  -0.072  0.00  0.00     0.003 A 
ATOM      5  C4  UNL d   1       0.097  -0.817   0.384  0.00  0.00    -0.005 A 
ATOM      6  C5  UNL d   1       0.632   0.467   0.457  0.00  0.00     0.003 A 
ATOM      7  C6  UNL d   1       1.954   0.697   0.075  0.00  0.00    -0.001 A 
ENDROOT
TORSDOF 0
ENDMDL
