MODEL 1
REMARK minimizedAffinity 3.75303769
REMARK minimizedRMSD -1
REMARK  0 active torsions:
REMARK  status: ('A' for Active; 'I' for Inactive)
ROOT
ATOM      1  C   UNL d   1       3.675   0.859  -0.764  0.00  0.00     0.078 C 
ATOM      2  C1  UNL d   1       3.253  -0.569  -0.936  0.00  0.00    -0.077 A 
ATOM      3  C2  UNL d   1       2.604  -1.259   0.095  0.00  0.00    -0.001 A 
ATOM      4  C3  UNL d   1       2.225  -2.591  -0.075  0.00  0.00     0.003 A 
ATOM      5  C4  UNL d   1       2.492  -3.246  -1.276  0.00  0.00    -0.005 A 
ATOM      6  C5  UNL d   1       3.139  -2.569  -2.307  0.00  0.00     0.003 A 
ATOM      7  C6  UNL d   1       3.519  -1.236  -2.138  0.00  0.00    -0.001 A 
ENDROOT
TORSDOF 0
ENDMDL
