MODEL 1
REMARK minimizedAffinity 8.16899681
REMARK minimizedRMSD -1
REMARK  0 active torsions:
REMARK  status: ('A' for Active; 'I' for Inactive)
ROOT
ATOM      1  C   UNL d   1      -3.374  -5.666  -3.762  0.00  0.00     0.078 C 
ATOM      2  C1  UNL d   1      -2.395  -5.245  -2.707  0.00  0.00    -0.077 A 
ATOM      3  C2  UNL d   1      -1.593  -4.111  -2.879  0.00  0.00    -0.001 A 
ATOM      4  C3  UNL d   1      -0.679  -3.737  -1.892  0.00  0.00     0.003 A 
ATOM      5  C4  UNL d   1      -0.558  -4.492  -0.728  0.00  0.00    -0.005 A 
ATOM      6  C5  UNL d   1      -1.351  -5.624  -0.549  0.00  0.00     0.003 A 
ATOM      7  C6  UNL d   1      -2.265  -6.000  -1.534  0.00  0.00    -0.001 A 
ENDROOT
TORSDOF 0
ENDMDL
