MODEL 1
REMARK minimizedAffinity 7.43386984
REMARK minimizedRMSD -1
REMARK  0 active torsions:
REMARK  status: ('A' for Active; 'I' for Inactive)
ROOT
ATOM      1  C   UNL d   1       3.722   2.279  -0.365  0.00  0.00     0.078 C 
ATOM      2  C1  UNL d   1       2.713   2.239   0.743  0.00  0.00    -0.077 A 
ATOM      3  C2  UNL d   1       3.044   2.661   2.036  0.00  0.00    -0.001 A 
ATOM      4  C3  UNL d   1       2.097   2.609   3.060  0.00  0.00     0.003 A 
ATOM      5  C4  UNL d   1       0.812   2.134   2.802  0.00  0.00    -0.005 A 
ATOM      6  C5  UNL d   1       0.474   1.710   1.518  0.00  0.00     0.003 A 
ATOM      7  C6  UNL d   1       1.420   1.761   0.493  0.00  0.00    -0.001 A 
ENDROOT
TORSDOF 0
ENDMDL
