MODEL 1
REMARK minimizedAffinity -1.8370055
REMARK minimizedRMSD -1
REMARK  0 active torsions:
REMARK  status: ('A' for Active; 'I' for Inactive)
ROOT
ATOM      1  C   UNL d   1       1.757  -5.999   5.647  0.00  0.00     0.078 C 
ATOM      2  C1  UNL d   1       0.554  -5.113   5.777  0.00  0.00    -0.077 A 
ATOM      3  C2  UNL d   1      -0.738  -5.652   5.814  0.00  0.00    -0.001 A 
ATOM      4  C3  UNL d   1      -1.849  -4.815   5.926  0.00  0.00     0.003 A 
ATOM      5  C4  UNL d   1      -1.680  -3.433   6.000  0.00  0.00    -0.005 A 
ATOM      6  C5  UNL d   1      -0.398  -2.888   5.961  0.00  0.00     0.003 A 
ATOM      7  C6  UNL d   1       0.714  -3.723   5.850  0.00  0.00    -0.001 A 
ENDROOT
TORSDOF 0
ENDMDL
