MODEL 1
REMARK minimizedAffinity -3.11751676
REMARK minimizedRMSD -1
REMARK  0 active torsions:
REMARK  status: ('A' for Active; 'I' for Inactive)
ROOT
ATOM      1  C   UNL d   1       4.136   1.120  -1.113  0.00  0.00     0.078 C 
ATOM      2  C1  UNL d   1       2.979   0.230  -0.768  0.00  0.00    -0.077 A 
ATOM      3  C2  UNL d   1       3.068  -1.159  -0.919  0.00  0.00    -0.001 A 
ATOM      4  C3  UNL d   1       1.980  -1.974  -0.603  0.00  0.00     0.003 A 
ATOM      5  C4  UNL d   1       0.795  -1.410  -0.135  0.00  0.00    -0.005 A 
ATOM      6  C5  UNL d   1       0.697  -0.028   0.017  0.00  0.00     0.003 A 
ATOM      7  C6  UNL d   1       1.784   0.789  -0.299  0.00  0.00    -0.001 A 
ENDROOT
TORSDOF 0
ENDMDL
