MODEL 1
REMARK minimizedAffinity -1.2528441
REMARK minimizedRMSD -1
REMARK  0 active torsions:
REMARK  status: ('A' for Active; 'I' for Inactive)
ROOT
ATOM      1  C   UNL d   1       3.804   1.227  -0.646  0.00  0.00     0.078 C 
ATOM      2  C1  UNL d   1       3.604  -0.190  -1.095  0.00  0.00    -0.077 A 
ATOM      3  C2  UNL d   1       4.339  -0.719  -2.164  0.00  0.00    -0.001 A 
ATOM      4  C3  UNL d   1       4.135  -2.036  -2.577  0.00  0.00     0.003 A 
ATOM      5  C4  UNL d   1       3.196  -2.836  -1.929  0.00  0.00    -0.005 A 
ATOM      6  C5  UNL d   1       2.458  -2.317  -0.867  0.00  0.00     0.003 A 
ATOM      7  C6  UNL d   1       2.660  -1.000  -0.452  0.00  0.00    -0.001 A 
ENDROOT
TORSDOF 0
ENDMDL
