MODEL 1
REMARK minimizedAffinity 1.13844669
REMARK minimizedRMSD -1
REMARK  0 active torsions:
REMARK  status: ('A' for Active; 'I' for Inactive)
ROOT
ATOM      1  C   UNL d   1       0.369   1.359  -0.359  0.00  0.00     0.078 C 
ATOM      2  C1  UNL d   1       0.533  -0.125  -0.499  0.00  0.00    -0.077 A 
ATOM      3  C2  UNL d   1      -0.567  -0.985  -0.396  0.00  0.00    -0.001 A 
ATOM      4  C3  UNL d   1      -0.398  -2.365  -0.518  0.00  0.00     0.003 A 
ATOM      5  C4  UNL d   1       0.870  -2.897  -0.744  0.00  0.00    -0.005 A 
ATOM      6  C5  UNL d   1       1.971  -2.050  -0.845  0.00  0.00     0.003 A 
ATOM      7  C6  UNL d   1       1.803  -0.669  -0.723  0.00  0.00    -0.001 A 
ENDROOT
TORSDOF 0
ENDMDL
