MODEL 1
REMARK minimizedAffinity 0.385620266
REMARK minimizedRMSD -1
REMARK  0 active torsions:
REMARK  status: ('A' for Active; 'I' for Inactive)
ROOT
ATOM      1  C   UNL d   1       2.727  -2.187  -0.451  0.00  0.00     0.078 C 
ATOM      2  C1  UNL d   1       1.382  -1.538  -0.581  0.00  0.00    -0.077 A 
ATOM      3  C2  UNL d   1       0.250  -2.288  -0.924  0.00  0.00    -0.001 A 
ATOM      4  C3  UNL d   1      -0.995  -1.669  -1.050  0.00  0.00     0.003 A 
ATOM      5  C4  UNL d   1      -1.119  -0.298  -0.837  0.00  0.00    -0.005 A 
ATOM      6  C5  UNL d   1       0.002   0.457  -0.497  0.00  0.00     0.003 A 
ATOM      7  C6  UNL d   1       1.247  -0.160  -0.370  0.00  0.00    -0.001 A 
ENDROOT
TORSDOF 0
ENDMDL
