MODEL 1
REMARK minimizedAffinity -4.0571661
REMARK minimizedRMSD -1
REMARK  0 active torsions:
REMARK  status: ('A' for Active; 'I' for Inactive)
ROOT
ATOM      1  C   UNL d   1       0.462   1.232  -0.043  0.00  0.00     0.078 C 
ATOM      2  C1  UNL d   1       1.547   0.256  -0.388  0.00  0.00    -0.077 A 
ATOM      3  C2  UNL d   1       2.819   0.697  -0.769  0.00  0.00    -0.001 A 
ATOM      4  C3  UNL d   1       3.817  -0.222  -1.097  0.00  0.00     0.003 A 
ATOM      5  C4  UNL d   1       3.552  -1.590  -1.047  0.00  0.00    -0.005 A 
ATOM      6  C5  UNL d   1       2.287  -2.038  -0.671  0.00  0.00     0.003 A 
ATOM      7  C6  UNL d   1       1.289  -1.120  -0.343  0.00  0.00    -0.001 A 
ENDROOT
TORSDOF 0
ENDMDL
