MODEL 1
REMARK minimizedAffinity 5.38617897
REMARK minimizedRMSD -1
REMARK  0 active torsions:
REMARK  status: ('A' for Active; 'I' for Inactive)
ROOT
ATOM      1  C   UNL d   1      -2.093  -1.724  -0.351  0.00  0.00     0.124 A 
ATOM      2  C1  UNL d   1      -2.386  -2.192  -1.624  0.00  0.00     0.062 A 
ATOM      3  C2  UNL d   1      -2.917  -1.332  -2.581  0.00  0.00     0.162 A 
ATOM      4  C3  UNL d   1      -3.157   0.006  -2.269  0.00  0.00    -0.034 A 
ATOM      5  C4  UNL d   1      -2.860   0.469  -0.986  0.00  0.00     0.162 A 
ATOM      6  C5  UNL d   1      -2.330  -0.395  -0.033  0.00  0.00     0.062 A 
ATOM      7  F   UNL d   1      -2.048   0.059   1.197  0.00  0.00    -0.097 F 
ATOM      8  F1  UNL d   1      -3.079   1.750  -0.652  0.00  0.00    -0.096 F 
ATOM      9  I   UNL d   1      -3.950   1.296  -3.697  0.00  0.00    -0.060 I 
ATOM     10  F2  UNL d   1      -3.190  -1.811  -3.804  0.00  0.00    -0.096 F 
ATOM     11  F3  UNL d   1      -2.158  -3.477  -1.934  0.00  0.00    -0.097 F 
ATOM     12  F4  UNL d   1      -1.583  -2.555   0.568  0.00  0.00    -0.092 F 
ENDROOT
TORSDOF 0
ENDMDL
