MODEL 1
REMARK minimizedAffinity 10.1074181
REMARK minimizedRMSD -1
REMARK  0 active torsions:
REMARK  status: ('A' for Active; 'I' for Inactive)
ROOT
ATOM      1  C   UNL d   1       2.308  -2.575   2.201  0.00  0.00     0.124 A 
ATOM      2  C1  UNL d   1       2.238  -2.065   0.913  0.00  0.00     0.062 A 
ATOM      3  C2  UNL d   1       1.582  -0.861   0.671  0.00  0.00     0.162 A 
ATOM      4  C3  UNL d   1       0.993  -0.158   1.721  0.00  0.00    -0.034 A 
ATOM      5  C4  UNL d   1       1.067  -0.678   3.015  0.00  0.00     0.162 A 
ATOM      6  C5  UNL d   1       1.723  -1.881   3.251  0.00  0.00     0.062 A 
ATOM      7  F   UNL d   1       1.790  -2.373   4.497  0.00  0.00    -0.097 F 
ATOM      8  F1  UNL d   1       0.511  -0.028   4.048  0.00  0.00    -0.096 F 
ATOM      9  I   UNL d   1       0.012   1.643   1.365  0.00  0.00    -0.060 I 
ATOM     10  F2  UNL d   1       1.530  -0.392  -0.584  0.00  0.00    -0.096 F 
ATOM     11  F3  UNL d   1       2.802  -2.734  -0.104  0.00  0.00    -0.097 F 
ATOM     12  F4  UNL d   1       2.939  -3.734   2.431  0.00  0.00    -0.092 F 
ENDROOT
TORSDOF 0
ENDMDL
