MODEL 1
REMARK minimizedAffinity 15.375391
REMARK minimizedRMSD -1
REMARK  0 active torsions:
REMARK  status: ('A' for Active; 'I' for Inactive)
ROOT
ATOM      1  C   UNL d   1      -0.028  -2.644   1.058  0.00  0.00     0.124 A 
ATOM      2  C1  UNL d   1       1.130  -1.884   1.151  0.00  0.00     0.062 A 
ATOM      3  C2  UNL d   1       1.051  -0.499   1.263  0.00  0.00     0.162 A 
ATOM      4  C3  UNL d   1      -0.191   0.136   1.283  0.00  0.00    -0.034 A 
ATOM      5  C4  UNL d   1      -1.351  -0.635   1.189  0.00  0.00     0.162 A 
ATOM      6  C5  UNL d   1      -1.267  -2.019   1.077  0.00  0.00     0.062 A 
ATOM      7  F   UNL d   1      -2.386  -2.752   0.988  0.00  0.00    -0.097 F 
ATOM      8  F1  UNL d   1      -2.561  -0.057   1.205  0.00  0.00    -0.096 F 
ATOM      9  I   UNL d   1      -0.314   2.207   1.450  0.00  0.00    -0.060 I 
ATOM     10  F2  UNL d   1       2.186   0.210   1.351  0.00  0.00    -0.096 F 
ATOM     11  F3  UNL d   1       2.328  -2.485   1.132  0.00  0.00    -0.097 F 
ATOM     12  F4  UNL d   1       0.051  -3.976   0.950  0.00  0.00    -0.092 F 
ENDROOT
TORSDOF 0
ENDMDL
