MODEL 1
REMARK minimizedAffinity 15.5899248
REMARK minimizedRMSD -1
REMARK  0 active torsions:
REMARK  status: ('A' for Active; 'I' for Inactive)
ROOT
ATOM      1  C   UNL d   1      -3.178  -2.813  -0.653  0.00  0.00     0.124 A 
ATOM      2  C1  UNL d   1      -2.230  -3.731  -0.222  0.00  0.00     0.062 A 
ATOM      3  C2  UNL d   1      -1.151  -3.313   0.552  0.00  0.00     0.162 A 
ATOM      4  C3  UNL d   1      -1.015  -1.969   0.901  0.00  0.00    -0.034 A 
ATOM      5  C4  UNL d   1      -1.972  -1.052   0.463  0.00  0.00     0.162 A 
ATOM      6  C5  UNL d   1      -3.048  -1.475  -0.310  0.00  0.00     0.062 A 
ATOM      7  F   UNL d   1      -3.963  -0.587  -0.726  0.00  0.00    -0.097 F 
ATOM      8  F1  UNL d   1      -1.872   0.248   0.781  0.00  0.00    -0.096 F 
ATOM      9  I   UNL d   1       0.596  -1.339   2.058  0.00  0.00    -0.060 I 
ATOM     10  F2  UNL d   1      -0.251  -4.221   0.954  0.00  0.00    -0.096 F 
ATOM     11  F3  UNL d   1      -2.352  -5.025  -0.553  0.00  0.00    -0.097 F 
ATOM     12  F4  UNL d   1      -4.214  -3.219  -1.399  0.00  0.00    -0.092 F 
ENDROOT
TORSDOF 0
ENDMDL
