MODEL 1
REMARK minimizedAffinity 29.8625107
REMARK minimizedRMSD -1
REMARK  0 active torsions:
REMARK  status: ('A' for Active; 'I' for Inactive)
ROOT
ATOM      1  C   UNL d   1       0.003   0.362   1.431  0.00  0.00     0.124 A 
ATOM      2  C1  UNL d   1       0.939  -0.663   1.459  0.00  0.00     0.062 A 
ATOM      3  C2  UNL d   1       0.589  -1.941   1.034  0.00  0.00     0.162 A 
ATOM      4  C3  UNL d   1      -0.702  -2.202   0.576  0.00  0.00    -0.034 A 
ATOM      5  C4  UNL d   1      -1.638  -1.166   0.551  0.00  0.00     0.162 A 
ATOM      6  C5  UNL d   1      -1.284   0.110   0.978  0.00  0.00     0.062 A 
ATOM      7  F   UNL d   1      -2.189   1.098   0.950  0.00  0.00    -0.097 F 
ATOM      8  F1  UNL d   1      -2.888  -1.383   0.117  0.00  0.00    -0.096 F 
ATOM      9  I   UNL d   1      -1.228  -4.112  -0.062  0.00  0.00    -0.060 I 
ATOM     10  F2  UNL d   1       1.514  -2.912   1.072  0.00  0.00    -0.096 F 
ATOM     11  F3  UNL d   1       2.182  -0.421   1.898  0.00  0.00    -0.097 F 
ATOM     12  F4  UNL d   1       0.341   1.591   1.842  0.00  0.00    -0.092 F 
ENDROOT
TORSDOF 0
ENDMDL
