MODEL 1
REMARK minimizedAffinity 16.284132
REMARK minimizedRMSD -1
REMARK  0 active torsions:
REMARK  status: ('A' for Active; 'I' for Inactive)
ROOT
ATOM      1  C   UNL d   1       1.715  -0.083   3.856  0.00  0.00     0.124 A 
ATOM      2  C1  UNL d   1       2.199  -1.354   4.134  0.00  0.00     0.062 A 
ATOM      3  C2  UNL d   1       2.455  -2.247   3.098  0.00  0.00     0.162 A 
ATOM      4  C3  UNL d   1       2.230  -1.873   1.773  0.00  0.00    -0.034 A 
ATOM      5  C4  UNL d   1       1.742  -0.593   1.502  0.00  0.00     0.162 A 
ATOM      6  C5  UNL d   1       1.487   0.296   2.541  0.00  0.00     0.062 A 
ATOM      7  F   UNL d   1       1.020   1.524   2.270  0.00  0.00    -0.097 F 
ATOM      8  F1  UNL d   1       1.514  -0.200   0.240  0.00  0.00    -0.096 F 
ATOM      9  I   UNL d   1       2.612  -3.205   0.221  0.00  0.00    -0.060 I 
ATOM     10  F2  UNL d   1       2.923  -3.469   3.395  0.00  0.00    -0.096 F 
ATOM     11  F3  UNL d   1       2.419  -1.723   5.404  0.00  0.00    -0.097 F 
ATOM     12  F4  UNL d   1       1.468   0.774   4.855  0.00  0.00    -0.092 F 
ENDROOT
TORSDOF 0
ENDMDL
