MODEL 1
REMARK minimizedAffinity 8.57273006
REMARK minimizedRMSD -1
REMARK  0 active torsions:
REMARK  status: ('A' for Active; 'I' for Inactive)
ROOT
ATOM      1  C   UNL d   1      -4.111  -3.747  -1.875  0.00  0.00     0.124 A 
ATOM      2  C1  UNL d   1      -2.825  -3.892  -1.374  0.00  0.00     0.062 A 
ATOM      3  C2  UNL d   1      -2.181  -2.814  -0.773  0.00  0.00     0.162 A 
ATOM      4  C3  UNL d   1      -2.824  -1.581  -0.668  0.00  0.00    -0.034 A 
ATOM      5  C4  UNL d   1      -4.117  -1.442  -1.175  0.00  0.00     0.162 A 
ATOM      6  C5  UNL d   1      -4.756  -2.522  -1.775  0.00  0.00     0.062 A 
ATOM      7  F   UNL d   1      -5.999  -2.380  -2.258  0.00  0.00    -0.097 F 
ATOM      8  F1  UNL d   1      -4.764  -0.270  -1.091  0.00  0.00    -0.096 F 
ATOM      9  I   UNL d   1      -1.866   0.034   0.230  0.00  0.00    -0.060 I 
ATOM     10  F2  UNL d   1      -0.938  -2.984  -0.298  0.00  0.00    -0.096 F 
ATOM     11  F3  UNL d   1      -2.199  -5.074  -1.471  0.00  0.00    -0.097 F 
ATOM     12  F4  UNL d   1      -4.727  -4.786  -2.454  0.00  0.00    -0.092 F 
ENDROOT
TORSDOF 0
ENDMDL
