MODEL 1
REMARK minimizedAffinity 9.72703934
REMARK minimizedRMSD -1
REMARK  0 active torsions:
REMARK  status: ('A' for Active; 'I' for Inactive)
ROOT
ATOM      1  C   UNL d   1      -0.051  -2.533   1.401  0.00  0.00     0.124 A 
ATOM      2  C1  UNL d   1       0.627  -1.372   1.746  0.00  0.00     0.062 A 
ATOM      3  C2  UNL d   1       0.069  -0.128   1.468  0.00  0.00     0.162 A 
ATOM      4  C3  UNL d   1      -1.175  -0.038   0.843  0.00  0.00    -0.034 A 
ATOM      5  C4  UNL d   1      -1.850  -1.210   0.499  0.00  0.00     0.162 A 
ATOM      6  C5  UNL d   1      -1.288  -2.451   0.778  0.00  0.00     0.062 A 
ATOM      7  F   UNL d   1      -1.944  -3.572   0.444  0.00  0.00    -0.097 F 
ATOM      8  F1  UNL d   1      -3.048  -1.160  -0.103  0.00  0.00    -0.096 F 
ATOM      9  I   UNL d   1      -2.013   1.821   0.427  0.00  0.00    -0.060 I 
ATOM     10  F2  UNL d   1       0.746   0.978   1.813  0.00  0.00    -0.096 F 
ATOM     11  F3  UNL d   1       1.823  -1.449   2.347  0.00  0.00    -0.097 F 
ATOM     12  F4  UNL d   1       0.489  -3.730   1.668  0.00  0.00    -0.092 F 
ENDROOT
TORSDOF 0
ENDMDL
