MODEL 1
REMARK minimizedAffinity 21.322464
REMARK minimizedRMSD -1
REMARK  0 active torsions:
REMARK  status: ('A' for Active; 'I' for Inactive)
ROOT
ATOM      1  C   UNL d   1       1.666  -0.842   1.465  0.00  0.00     0.124 A 
ATOM      2  C1  UNL d   1       1.353  -0.011   2.532  0.00  0.00     0.062 A 
ATOM      3  C2  UNL d   1       1.314  -0.519   3.827  0.00  0.00     0.162 A 
ATOM      4  C3  UNL d   1       1.590  -1.865   4.064  0.00  0.00    -0.034 A 
ATOM      5  C4  UNL d   1       1.903  -2.695   2.986  0.00  0.00     0.162 A 
ATOM      6  C5  UNL d   1       1.940  -2.183   1.693  0.00  0.00     0.062 A 
ATOM      7  F   UNL d   1       2.243  -2.987   0.664  0.00  0.00    -0.097 F 
ATOM      8  F1  UNL d   1       2.174  -3.995   3.177  0.00  0.00    -0.096 F 
ATOM      9  I   UNL d   1       1.533  -2.629   5.999  0.00  0.00    -0.060 I 
ATOM     10  F2  UNL d   1       1.009   0.308   4.839  0.00  0.00    -0.096 F 
ATOM     11  F3  UNL d   1       1.086   1.285   2.314  0.00  0.00    -0.097 F 
ATOM     12  F4  UNL d   1       1.701  -0.350   0.220  0.00  0.00    -0.092 F 
ENDROOT
TORSDOF 0
ENDMDL
