MODEL 1
REMARK minimizedAffinity 9.55836678
REMARK minimizedRMSD -1
REMARK  0 active torsions:
REMARK  status: ('A' for Active; 'I' for Inactive)
ROOT
ATOM      1  C   UNL d   1       2.031  -1.262   1.587  0.00  0.00     0.124 A 
ATOM      2  C1  UNL d   1       1.483  -0.666   2.714  0.00  0.00     0.062 A 
ATOM      3  C2  UNL d   1       1.710  -1.210   3.975  0.00  0.00     0.162 A 
ATOM      4  C3  UNL d   1       2.490  -2.358   4.116  0.00  0.00    -0.034 A 
ATOM      5  C4  UNL d   1       3.037  -2.953   2.978  0.00  0.00     0.162 A 
ATOM      6  C5  UNL d   1       2.808  -2.405   1.720  0.00  0.00     0.062 A 
ATOM      7  F   UNL d   1       3.338  -2.983   0.632  0.00  0.00    -0.097 F 
ATOM      8  F1  UNL d   1       3.792  -4.057   3.077  0.00  0.00    -0.096 F 
ATOM      9  I   UNL d   1       2.832  -3.175   5.999  0.00  0.00    -0.060 I 
ATOM     10  F2  UNL d   1       1.168  -0.613   5.046  0.00  0.00    -0.096 F 
ATOM     11  F3  UNL d   1       0.732   0.438   2.589  0.00  0.00    -0.097 F 
ATOM     12  F4  UNL d   1       1.811  -0.737   0.375  0.00  0.00    -0.092 F 
ENDROOT
TORSDOF 0
ENDMDL
