MODEL 1
REMARK minimizedAffinity 7.56029034
REMARK minimizedRMSD -1
REMARK  1 active torsions:
REMARK  status: ('A' for Active; 'I' for Inactive)
REMARK    1  A    between atoms: C1_2  and  C2_3 
ROOT
ATOM      1  C2  UNL d   1       3.639  -4.867  -2.253  0.00  0.00    -0.076 A 
ATOM      2  C3  UNL d   1       3.564  -4.216  -1.009  0.00  0.00     0.004 A 
ATOM      3  C4  UNL d   1       4.506  -3.256  -0.643  0.00  0.00    -0.003 A 
ATOM      4  C5  UNL d   1       5.539  -2.931  -1.516  0.00  0.00     0.000 A 
ATOM      5  C6  UNL d   1       5.619  -3.554  -2.761  0.00  0.00     0.000 A 
ATOM      6  C7  UNL d   1       4.668  -4.512  -3.152  0.00  0.00    -0.073 A 
ATOM      7  C8  UNL d   1       4.806  -5.157  -4.504  0.00  0.00     0.078 C 
ENDROOT
BRANCH   1   8
ATOM      8  C1  UNL d   1       2.605  -5.919  -2.583  0.00  0.00     0.053 C 
ATOM      9  C   UNL d   1       1.502  -6.000  -1.540  0.00  0.00     0.018 C 
ENDBRANCH   1   8
TORSDOF 1
ENDMDL
