MODEL 1
REMARK minimizedAffinity 0.519531667
REMARK minimizedRMSD -1
REMARK  1 active torsions:
REMARK  status: ('A' for Active; 'I' for Inactive)
REMARK    1  A    between atoms: C1_2  and  C2_3 
ROOT
ATOM      1  C2  UNL d   1       0.351   0.903  -1.525  0.00  0.00    -0.076 A 
ATOM      2  C3  UNL d   1      -0.546   1.952  -1.261  0.00  0.00     0.004 A 
ATOM      3  C4  UNL d   1      -0.493   2.657  -0.060  0.00  0.00    -0.003 A 
ATOM      4  C5  UNL d   1       0.458   2.324   0.898  0.00  0.00     0.000 A 
ATOM      5  C6  UNL d   1       1.368   1.298   0.646  0.00  0.00     0.000 A 
ATOM      6  C7  UNL d   1       1.339   0.588  -0.567  0.00  0.00    -0.073 A 
ATOM      7  C8  UNL d   1       2.340  -0.514  -0.782  0.00  0.00     0.078 C 
ENDROOT
BRANCH   1   8
ATOM      8  C1  UNL d   1       0.229   0.156  -2.834  0.00  0.00     0.053 C 
ATOM      9  C   UNL d   1      -1.089   0.431  -3.540  0.00  0.00     0.018 C 
ENDBRANCH   1   8
TORSDOF 1
ENDMDL
