MODEL 1
REMARK minimizedAffinity 10.0169544
REMARK minimizedRMSD -1
REMARK  1 active torsions:
REMARK  status: ('A' for Active; 'I' for Inactive)
REMARK    1  A    between atoms: C1_2  and  C2_3 
ROOT
ATOM      1  C2  UNL d   1       2.575   4.322   0.476  0.00  0.00    -0.076 A 
ATOM      2  C3  UNL d   1       2.636   3.059   1.089  0.00  0.00     0.004 A 
ATOM      3  C4  UNL d   1       1.569   2.166   1.001  0.00  0.00    -0.003 A 
ATOM      4  C5  UNL d   1       0.424   2.522   0.297  0.00  0.00     0.000 A 
ATOM      5  C6  UNL d   1       0.353   3.764  -0.332  0.00  0.00     0.000 A 
ATOM      6  C7  UNL d   1       1.426   4.669  -0.267  0.00  0.00    -0.073 A 
ATOM      7  C8  UNL d   1       1.293   5.998  -0.960  0.00  0.00     0.078 C 
ENDROOT
BRANCH   1   8
ATOM      8  C1  UNL d   1       3.752   5.259   0.628  0.00  0.00     0.053 C 
ATOM      9  C   UNL d   1       4.566   4.972   1.880  0.00  0.00     0.018 C 
ENDBRANCH   1   8
TORSDOF 1
ENDMDL
