MODEL 1
REMARK minimizedAffinity 0.166094646
REMARK minimizedRMSD -1
REMARK  1 active torsions:
REMARK  status: ('A' for Active; 'I' for Inactive)
REMARK    1  A    between atoms: C1_2  and  C2_3 
ROOT
ATOM      1  C2  UNL d   1      -3.744   3.302   0.728  0.00  0.00    -0.076 A 
ATOM      2  C3  UNL d   1      -3.259   4.580   1.055  0.00  0.00     0.004 A 
ATOM      3  C4  UNL d   1      -4.130   5.610   1.404  0.00  0.00    -0.003 A 
ATOM      4  C5  UNL d   1      -5.501   5.379   1.431  0.00  0.00     0.000 A 
ATOM      5  C6  UNL d   1      -5.999   4.113   1.126  0.00  0.00     0.000 A 
ATOM      6  C7  UNL d   1      -5.133   3.059   0.789  0.00  0.00    -0.073 A 
ATOM      7  C8  UNL d   1      -5.725   1.715   0.463  0.00  0.00     0.078 C 
ENDROOT
BRANCH   1   8
ATOM      8  C1  UNL d   1      -2.753   2.231   0.331  0.00  0.00     0.053 C 
ATOM      9  C   UNL d   1      -1.394   2.803  -0.040  0.00  0.00     0.018 C 
ENDBRANCH   1   8
TORSDOF 1
ENDMDL
