MODEL 1
REMARK minimizedAffinity 1.68979955
REMARK minimizedRMSD -1
REMARK  1 active torsions:
REMARK  status: ('A' for Active; 'I' for Inactive)
REMARK    1  A    between atoms: C1_2  and  C2_3 
ROOT
ATOM      1  C2  UNL d   1      -5.068   3.498  -4.131  0.00  0.00    -0.076 A 
ATOM      2  C3  UNL d   1      -5.896   4.127  -5.077  0.00  0.00     0.004 A 
ATOM      3  C4  UNL d   1      -5.372   5.031  -5.999  0.00  0.00    -0.003 A 
ATOM      4  C5  UNL d   1      -4.011   5.320  -5.991  0.00  0.00     0.000 A 
ATOM      5  C6  UNL d   1      -3.173   4.691  -5.071  0.00  0.00     0.000 A 
ATOM      6  C7  UNL d   1      -3.683   3.765  -4.145  0.00  0.00    -0.073 A 
ATOM      7  C8  UNL d   1      -2.734   3.121  -3.171  0.00  0.00     0.078 C 
ENDROOT
BRANCH   1   8
ATOM      8  C1  UNL d   1      -5.697   2.547  -3.137  0.00  0.00     0.053 C 
ATOM      9  C   UNL d   1      -5.999   1.185  -3.744  0.00  0.00     0.018 C 
ENDBRANCH   1   8
TORSDOF 1
ENDMDL
