MODEL 1
REMARK minimizedAffinity 12.0110188
REMARK minimizedRMSD -1
REMARK  1 active torsions:
REMARK  status: ('A' for Active; 'I' for Inactive)
REMARK    1  A    between atoms: C1_2  and  C2_3 
ROOT
ATOM      1  C2  UNL d   1       1.014   3.818  -0.345  0.00  0.00    -0.076 A 
ATOM      2  C3  UNL d   1      -0.038   3.090  -0.927  0.00  0.00     0.004 A 
ATOM      3  C4  UNL d   1      -0.328   1.791  -0.511  0.00  0.00    -0.003 A 
ATOM      4  C5  UNL d   1       0.429   1.200   0.495  0.00  0.00     0.000 A 
ATOM      5  C6  UNL d   1       1.466   1.914   1.095  0.00  0.00     0.000 A 
ATOM      6  C7  UNL d   1       1.761   3.230   0.698  0.00  0.00    -0.073 A 
ATOM      7  C8  UNL d   1       2.894   3.952   1.376  0.00  0.00     0.078 C 
ENDROOT
BRANCH   1   8
ATOM      8  C1  UNL d   1       1.299   5.212  -0.856  0.00  0.00     0.053 C 
ATOM      9  C   UNL d   1       0.041   5.934  -1.313  0.00  0.00     0.018 C 
ENDBRANCH   1   8
TORSDOF 1
ENDMDL
