MODEL 1
REMARK minimizedAffinity 3.87634158
REMARK minimizedRMSD -1
REMARK  0 active torsions:
REMARK  status: ('A' for Active; 'I' for Inactive)
ROOT
ATOM      1  C4' PXY d   1      -0.843  -1.128   1.189  0.00  0.00     0.077 C 
ATOM      2  C1' PXY d   1      -3.631  -5.364  -1.586  0.00  0.00     0.077 C 
ATOM      3  C1  PXY d   1      -2.899  -4.261  -0.847  0.00  0.00    -0.082 A 
ATOM      4  C2  PXY d   1      -3.022  -3.008  -1.255  0.00  0.00     0.003 A 
ATOM      5  C3  PXY d   1      -2.342  -2.001  -0.619  0.00  0.00     0.003 A 
ATOM      6  C4  PXY d   1      -1.571  -2.273   0.479  0.00  0.00    -0.082 A 
ATOM      7  C5  PXY d   1      -1.449  -3.547   0.908  0.00  0.00     0.003 A 
ATOM      8  C6  PXY d   1      -2.115  -4.560   0.223  0.00  0.00     0.003 A 
ENDROOT
TORSDOF 0
ENDMDL
