MODEL 1
REMARK minimizedAffinity -2.36448836
REMARK minimizedRMSD -1
REMARK  0 active torsions:
REMARK  status: ('A' for Active; 'I' for Inactive)
ROOT
ATOM      1  C4' PXY d   1      -5.479   5.972  -5.119  0.00  0.00     0.077 C 
ATOM      2  C1' PXY d   1      -6.000   3.007  -0.184  0.00  0.00     0.077 C 
ATOM      3  C1  PXY d   1      -5.871   3.795  -1.473  0.00  0.00    -0.082 A 
ATOM      4  C2  PXY d   1      -5.624   3.158  -2.607  0.00  0.00     0.003 A 
ATOM      5  C3  PXY d   1      -5.473   3.857  -3.776  0.00  0.00     0.003 A 
ATOM      6  C4  PXY d   1      -5.627   5.217  -3.795  0.00  0.00    -0.082 A 
ATOM      7  C5  PXY d   1      -5.889   5.873  -2.645  0.00  0.00     0.003 A 
ATOM      8  C6  PXY d   1      -5.998   5.149  -1.461  0.00  0.00     0.003 A 
ENDROOT
TORSDOF 0
ENDMDL
