MODEL 1
REMARK minimizedAffinity -0.703698695
REMARK minimizedRMSD -1
REMARK  0 active torsions:
REMARK  status: ('A' for Active; 'I' for Inactive)
ROOT
ATOM      1  C4' PXY d   1       2.024   2.446   1.870  0.00  0.00     0.077 C 
ATOM      2  C1' PXY d   1      -1.384  -0.869  -1.419  0.00  0.00     0.077 C 
ATOM      3  C1  PXY d   1      -0.500   0.009  -0.556  0.00  0.00    -0.082 A 
ATOM      4  C2  PXY d   1       0.816  -0.092  -0.652  0.00  0.00     0.003 A 
ATOM      5  C3  PXY d   1       1.630   0.672   0.145  0.00  0.00     0.003 A 
ATOM      6  C4  PXY d   1       1.092   1.586   1.011  0.00  0.00    -0.082 A 
ATOM      7  C5  PXY d   1      -0.249   1.702   1.107  0.00  0.00     0.003 A 
ATOM      8  C6  PXY d   1      -1.058   0.889   0.319  0.00  0.00     0.003 A 
ENDROOT
TORSDOF 0
ENDMDL
