MODEL 1
REMARK minimizedAffinity -1.79035056
REMARK minimizedRMSD -1
REMARK  0 active torsions:
REMARK  status: ('A' for Active; 'I' for Inactive)
ROOT
ATOM      1  C4' PXY d   1      -5.946   6.000  -4.469  0.00  0.00     0.077 C 
ATOM      2  C1' PXY d   1      -6.000   3.122   0.544  0.00  0.00     0.077 C 
ATOM      3  C1  PXY d   1      -5.991   3.887  -0.765  0.00  0.00    -0.082 A 
ATOM      4  C2  PXY d   1      -5.973   3.224  -1.910  0.00  0.00     0.003 A 
ATOM      5  C3  PXY d   1      -5.933   3.900  -3.102  0.00  0.00     0.003 A 
ATOM      6  C4  PXY d   1      -5.965   5.269  -3.124  0.00  0.00    -0.082 A 
ATOM      7  C5  PXY d   1      -5.994   5.952  -1.960  0.00  0.00     0.003 A 
ATOM      8  C6  PXY d   1      -5.993   5.247  -0.760  0.00  0.00     0.003 A 
ENDROOT
TORSDOF 0
ENDMDL
