MODEL 1
REMARK minimizedAffinity 1.09323251
REMARK minimizedRMSD -1
REMARK  0 active torsions:
REMARK  status: ('A' for Active; 'I' for Inactive)
ROOT
ATOM      1  C4' PXY d   1       0.790  -2.944  -0.378  0.00  0.00     0.077 C 
ATOM      2  C1' PXY d   1      -0.945   2.485   0.584  0.00  0.00     0.077 C 
ATOM      3  C1  PXY d   1      -0.495   1.062   0.320  0.00  0.00    -0.082 A 
ATOM      4  C2  PXY d   1      -0.291   0.241   1.337  0.00  0.00     0.003 A 
ATOM      5  C3  PXY d   1       0.147  -1.040   1.118  0.00  0.00     0.003 A 
ATOM      6  C4  PXY d   1       0.326  -1.502  -0.159  0.00  0.00    -0.082 A 
ATOM      7  C5  PXY d   1       0.110  -0.674  -1.202  0.00  0.00     0.003 A 
ATOM      8  C6  PXY d   1      -0.295   0.635  -0.957  0.00  0.00     0.003 A 
ENDROOT
TORSDOF 0
ENDMDL
