MODEL 1
REMARK minimizedAffinity 12.7896833
REMARK minimizedRMSD -1
REMARK  0 active torsions:
REMARK  status: ('A' for Active; 'I' for Inactive)
ROOT
ATOM      1  C4' PXY d   1      -1.816  -2.774   1.950  0.00  0.00     0.077 C 
ATOM      2  C1' PXY d   1      -4.533  -5.272  -2.498  0.00  0.00     0.077 C 
ATOM      3  C1  PXY d   1      -3.809  -4.621  -1.337  0.00  0.00    -0.082 A 
ATOM      4  C2  PXY d   1      -4.446  -4.431  -0.193  0.00  0.00     0.003 A 
ATOM      5  C3  PXY d   1      -3.816  -3.814   0.858  0.00  0.00     0.003 A 
ATOM      6  C4  PXY d   1      -2.504  -3.436   0.754  0.00  0.00    -0.082 A 
ATOM      7  C5  PXY d   1      -1.844  -3.636  -0.407  0.00  0.00     0.003 A 
ATOM      8  C6  PXY d   1      -2.514  -4.227  -1.475  0.00  0.00     0.003 A 
ENDROOT
TORSDOF 0
ENDMDL
