MODEL 1
REMARK minimizedAffinity 8.23832703
REMARK minimizedRMSD -1
REMARK  0 active torsions:
REMARK  status: ('A' for Active; 'I' for Inactive)
ROOT
ATOM      1  C4' PXY d   1       4.933   5.420   3.150  0.00  0.00     0.077 C 
ATOM      2  C1' PXY d   1       2.968   1.876  -0.972  0.00  0.00     0.077 C 
ATOM      3  C1  PXY d   1       3.479   2.797   0.118  0.00  0.00    -0.082 A 
ATOM      4  C2  PXY d   1       3.597   4.093  -0.122  0.00  0.00     0.003 A 
ATOM      5  C3  PXY d   1       4.088   4.935   0.841  0.00  0.00     0.003 A 
ATOM      6  C4  PXY d   1       4.412   4.454   2.082  0.00  0.00    -0.082 A 
ATOM      7  C5  PXY d   1       4.285   3.135   2.338  0.00  0.00     0.003 A 
ATOM      8  C6  PXY d   1       3.824   2.290   1.333  0.00  0.00     0.003 A 
ENDROOT
TORSDOF 0
ENDMDL
