MODEL 1
REMARK minimizedAffinity 10.4427004
REMARK minimizedRMSD -1
REMARK  0 active torsions:
REMARK  status: ('A' for Active; 'I' for Inactive)
ROOT
ATOM      1  C4' PXY d   1      -1.502   4.351  -5.996  0.00  0.00     0.077 C 
ATOM      2  C1' PXY d   1      -2.201  -0.767  -3.401  0.00  0.00     0.077 C 
ATOM      3  C1  PXY d   1      -2.020   0.582  -4.071  0.00  0.00    -0.082 A 
ATOM      4  C2  PXY d   1      -2.221   0.698  -5.373  0.00  0.00     0.003 A 
ATOM      5  C3  PXY d   1      -2.031   1.902  -6.000  0.00  0.00     0.003 A 
ATOM      6  C4  PXY d   1      -1.682   3.012  -5.277  0.00  0.00    -0.082 A 
ATOM      7  C5  PXY d   1      -1.485   2.904  -3.946  0.00  0.00     0.003 A 
ATOM      8  C6  PXY d   1      -1.644   1.663  -3.335  0.00  0.00     0.003 A 
ENDROOT
TORSDOF 0
ENDMDL
