MODEL 1
REMARK minimizedAffinity 7.00181723
REMARK minimizedRMSD -1
REMARK  0 active torsions:
REMARK  status: ('A' for Active; 'I' for Inactive)
ROOT
ATOM      1  C4' PXY d   1       5.937   5.723  -5.922  0.00  0.00     0.077 C 
ATOM      2  C1' PXY d   1       3.001   0.744  -5.999  0.00  0.00     0.077 C 
ATOM      3  C1  PXY d   1       3.781   2.044  -5.974  0.00  0.00    -0.082 A 
ATOM      4  C2  PXY d   1       3.131   3.197  -5.977  0.00  0.00     0.003 A 
ATOM      5  C3  PXY d   1       3.822   4.381  -5.986  0.00  0.00     0.003 A 
ATOM      6  C4  PXY d   1       5.190   4.386  -5.938  0.00  0.00    -0.082 A 
ATOM      7  C5  PXY d   1       5.859   3.214  -5.924  0.00  0.00     0.003 A 
ATOM      8  C6  PXY d   1       5.141   2.023  -5.957  0.00  0.00     0.003 A 
ENDROOT
TORSDOF 0
ENDMDL
