MODEL 1
REMARK minimizedAffinity 3.11667585
REMARK minimizedRMSD -1
REMARK  0 active torsions:
REMARK  status: ('A' for Active; 'I' for Inactive)
ROOT
ATOM      1  C4' PXY d   1      -1.390   0.385   0.961  0.00  0.00     0.077 C 
ATOM      2  C1' PXY d   1       3.509   3.270   2.004  0.00  0.00     0.077 C 
ATOM      3  C1  PXY d   1       2.229   2.508   1.720  0.00  0.00    -0.082 A 
ATOM      4  C2  PXY d   1       1.078   2.965   2.186  0.00  0.00     0.003 A 
ATOM      5  C3  PXY d   1      -0.084   2.272   1.965  0.00  0.00     0.003 A 
ATOM      6  C4  PXY d   1      -0.075   1.126   1.215  0.00  0.00    -0.082 A 
ATOM      7  C5  PXY d   1       1.093   0.659   0.727  0.00  0.00     0.003 A 
ATOM      8  C6  PXY d   1       2.268   1.356   0.997  0.00  0.00     0.003 A 
ENDROOT
TORSDOF 0
ENDMDL
