MODEL 1
REMARK minimizedAffinity 5.45777035
REMARK minimizedRMSD -1
REMARK  0 active torsions:
REMARK  status: ('A' for Active; 'I' for Inactive)
ROOT
ATOM      1  C4' PXY d   1      -1.643   3.250   3.334  0.00  0.00     0.077 C 
ATOM      2  C1' PXY d   1       2.292   0.667  -0.021  0.00  0.00     0.077 C 
ATOM      3  C1  PXY d   1       1.270   1.350   0.866  0.00  0.00    -0.082 A 
ATOM      4  C2  PXY d   1       0.046   0.854   0.954  0.00  0.00     0.003 A 
ATOM      5  C3  PXY d   1      -0.900   1.477   1.727  0.00  0.00     0.003 A 
ATOM      6  C4  PXY d   1      -0.576   2.589   2.458  0.00  0.00    -0.082 A 
ATOM      7  C5  PXY d   1       0.674   3.094   2.381  0.00  0.00     0.003 A 
ATOM      8  C6  PXY d   1       1.608   2.470   1.559  0.00  0.00     0.003 A 
ENDROOT
TORSDOF 0
ENDMDL
