MODEL 1
REMARK minimizedAffinity 6.9390769
REMARK minimizedRMSD -1
REMARK  0 active torsions:
REMARK  status: ('A' for Active; 'I' for Inactive)
ROOT
ATOM      1  C4' PXY d   1       4.463   5.897   3.095  0.00  0.00     0.077 C 
ATOM      2  C1' PXY d   1       5.999   3.687  -2.022  0.00  0.00     0.077 C 
ATOM      3  C1  PXY d   1       5.586   4.258  -0.679  0.00  0.00    -0.082 A 
ATOM      4  C2  PXY d   1       5.969   5.479  -0.342  0.00  0.00     0.003 A 
ATOM      5  C3  PXY d   1       5.631   5.999   0.880  0.00  0.00     0.003 A 
ATOM      6  C4  PXY d   1       4.849   5.283   1.746  0.00  0.00    -0.082 A 
ATOM      7  C5  PXY d   1       4.445   4.041   1.405  0.00  0.00     0.003 A 
ATOM      8  C6  PXY d   1       4.833   3.515   0.176  0.00  0.00     0.003 A 
ENDROOT
TORSDOF 0
ENDMDL
