MODEL 1
REMARK minimizedAffinity 9.67172337
REMARK minimizedRMSD -1
REMARK  0 active torsions:
REMARK  status: ('A' for Active; 'I' for Inactive)
ROOT
ATOM      1  C4' PXY d   1       5.965   3.065  -1.791  0.00  0.00     0.077 C 
ATOM      2  C1' PXY d   1       4.712   5.544   3.278  0.00  0.00     0.077 C 
ATOM      3  C1  PXY d   1       5.050   4.888   1.955  0.00  0.00    -0.082 A 
ATOM      4  C2  PXY d   1       4.723   5.490   0.823  0.00  0.00     0.003 A 
ATOM      5  C3  PXY d   1       4.992   4.895  -0.383  0.00  0.00     0.003 A 
ATOM      6  C4  PXY d   1       5.651   3.696  -0.432  0.00  0.00    -0.082 A 
ATOM      7  C5  PXY d   1       5.998   3.080   0.718  0.00  0.00     0.003 A 
ATOM      8  C6  PXY d   1       5.679   3.681   1.933  0.00  0.00     0.003 A 
ENDROOT
TORSDOF 0
ENDMDL
