MODEL 1
REMARK minimizedAffinity -1.48993564
REMARK minimizedRMSD -1
REMARK  0 active torsions:
REMARK  status: ('A' for Active; 'I' for Inactive)
ROOT
ATOM      1  C4' PXY d   1      -5.996   6.000  -2.396  0.00  0.00     0.077 C 
ATOM      2  C1' PXY d   1      -5.218   1.546  -5.998  0.00  0.00     0.077 C 
ATOM      3  C1  PXY d   1      -5.414   2.721  -5.061  0.00  0.00    -0.082 A 
ATOM      4  C2  PXY d   1      -5.787   2.505  -3.810  0.00  0.00     0.003 A 
ATOM      5  C3  PXY d   1      -6.000   3.558  -2.958  0.00  0.00     0.003 A 
ATOM      6  C4  PXY d   1      -5.777   4.843  -3.375  0.00  0.00    -0.082 A 
ATOM      7  C5  PXY d   1      -5.385   5.071  -4.646  0.00  0.00     0.003 A 
ATOM      8  C6  PXY d   1      -5.215   3.991  -5.508  0.00  0.00     0.003 A 
ENDROOT
TORSDOF 0
ENDMDL
