MODEL 1
REMARK minimizedAffinity 3.46416211
REMARK minimizedRMSD -1
REMARK  0 active torsions:
REMARK  status: ('A' for Active; 'I' for Inactive)
ROOT
ATOM      1  C4' PXY d   1      -1.948   0.680   0.356  0.00  0.00     0.077 C 
ATOM      2  C1' PXY d   1       0.340   3.514   4.845  0.00  0.00     0.077 C 
ATOM      3  C1  PXY d   1      -0.249   2.771   3.662  0.00  0.00    -0.082 A 
ATOM      4  C2  PXY d   1      -1.556   2.796   3.458  0.00  0.00     0.003 A 
ATOM      5  C3  PXY d   1      -2.108   2.104   2.411  0.00  0.00     0.003 A 
ATOM      6  C4  PXY d   1      -1.309   1.423   1.533  0.00  0.00    -0.082 A 
ATOM      7  C5  PXY d   1       0.027   1.401   1.727  0.00  0.00     0.003 A 
ATOM      8  C6  PXY d   1       0.563   2.077   2.820  0.00  0.00     0.003 A 
ENDROOT
TORSDOF 0
ENDMDL
