MODEL 1
REMARK minimizedAffinity 14.2713556
REMARK minimizedRMSD -1
REMARK  0 active torsions:
REMARK  status: ('A' for Active; 'I' for Inactive)
ROOT
ATOM      1  C4' PXY d   1       1.553   3.229  -5.910  0.00  0.00     0.077 C 
ATOM      2  C1' PXY d   1      -3.537   5.968  -5.984  0.00  0.00     0.077 C 
ATOM      3  C1  PXY d   1      -2.208   5.239  -5.959  0.00  0.00    -0.082 A 
ATOM      4  C2  PXY d   1      -1.082   5.933  -5.910  0.00  0.00     0.003 A 
ATOM      5  C3  PXY d   1       0.129   5.290  -5.920  0.00  0.00     0.003 A 
ATOM      6  C4  PXY d   1       0.188   3.923  -5.926  0.00  0.00    -0.082 A 
ATOM      7  C5  PXY d   1      -0.956   3.208  -5.966  0.00  0.00     0.003 A 
ATOM      8  C6  PXY d   1      -2.175   3.879  -5.997  0.00  0.00     0.003 A 
ENDROOT
TORSDOF 0
ENDMDL
