MODEL 1
REMARK minimizedAffinity 10.1842356
REMARK minimizedRMSD -1
REMARK  0 active torsions:
REMARK  status: ('A' for Active; 'I' for Inactive)
ROOT
ATOM      1  C4' PXY d   1      -0.954  -3.723   0.752  0.00  0.00     0.077 C 
ATOM      2  C1' PXY d   1      -4.337  -1.067   4.614  0.00  0.00     0.077 C 
ATOM      3  C1  PXY d   1      -3.442  -1.768   3.611  0.00  0.00    -0.082 A 
ATOM      4  C2  PXY d   1      -3.431  -1.365   2.350  0.00  0.00     0.003 A 
ATOM      5  C3  PXY d   1      -2.652  -2.007   1.423  0.00  0.00     0.003 A 
ATOM      6  C4  PXY d   1      -1.835  -3.039   1.801  0.00  0.00    -0.082 A 
ATOM      7  C5  PXY d   1      -1.832  -3.450   3.087  0.00  0.00     0.003 A 
ATOM      8  C6  PXY d   1      -2.662  -2.811   4.004  0.00  0.00     0.003 A 
ENDROOT
TORSDOF 0
ENDMDL
