MODEL 1
REMARK minimizedAffinity -2.34231162
REMARK minimizedRMSD -1
REMARK  0 active torsions:
REMARK  status: ('A' for Active; 'I' for Inactive)
ROOT
ATOM      1  C4' PXY d   1      -3.007  -5.961  -3.245  0.00  0.00     0.077 C 
ATOM      2  C1' PXY d   1      -2.572  -1.937   0.882  0.00  0.00     0.077 C 
ATOM      3  C1  PXY d   1      -2.688  -2.983  -0.210  0.00  0.00    -0.082 A 
ATOM      4  C2  PXY d   1      -3.017  -4.225   0.107  0.00  0.00     0.003 A 
ATOM      5  C3  PXY d   1      -3.095  -5.191  -0.863  0.00  0.00     0.003 A 
ATOM      6  C4  PXY d   1      -2.887  -4.870  -2.178  0.00  0.00    -0.082 A 
ATOM      7  C5  PXY d   1      -2.562  -3.603  -2.510  0.00  0.00     0.003 A 
ATOM      8  C6  PXY d   1      -2.448  -2.646  -1.506  0.00  0.00     0.003 A 
ENDROOT
TORSDOF 0
ENDMDL
