MODEL 1
REMARK minimizedAffinity 5.7993989
REMARK minimizedRMSD -1
REMARK  0 active torsions:
REMARK  status: ('A' for Active; 'I' for Inactive)
ROOT
ATOM      1  C4' PXY d   1      -2.243  -1.155  -2.849  0.00  0.00     0.077 C 
ATOM      2  C1' PXY d   1      -3.700  -6.000  -0.052  0.00  0.00     0.077 C 
ATOM      3  C1  PXY d   1      -3.306  -4.730  -0.781  0.00  0.00    -0.082 A 
ATOM      4  C2  PXY d   1      -4.243  -3.877  -1.162  0.00  0.00     0.003 A 
ATOM      5  C3  PXY d   1      -3.907  -2.739  -1.850  0.00  0.00     0.003 A 
ATOM      6  C4  PXY d   1      -2.593  -2.445  -2.103  0.00  0.00    -0.082 A 
ATOM      7  C5  PXY d   1      -1.631  -3.305  -1.707  0.00  0.00     0.003 A 
ATOM      8  C6  PXY d   1      -1.996  -4.475  -1.047  0.00  0.00     0.003 A 
ENDROOT
TORSDOF 0
ENDMDL
