MODEL 1
REMARK minimizedAffinity 4.07538843
REMARK minimizedRMSD -1
REMARK  0 active torsions:
REMARK  status: ('A' for Active; 'I' for Inactive)
ROOT
ATOM      1  C4' PXY d   1      -2.366  -0.047   0.600  0.00  0.00     0.077 C 
ATOM      2  C1' PXY d   1       3.168   1.621   0.694  0.00  0.00     0.077 C 
ATOM      3  C1  PXY d   1       1.713   1.195   0.665  0.00  0.00    -0.082 A 
ATOM      4  C2  PXY d   1       1.300   0.223   1.462  0.00  0.00     0.003 A 
ATOM      5  C3  PXY d   1      -0.005  -0.196   1.426  0.00  0.00     0.003 A 
ATOM      6  C4  PXY d   1      -0.908   0.422   0.602  0.00  0.00    -0.082 A 
ATOM      7  C5  PXY d   1      -0.497   1.421  -0.206  0.00  0.00     0.003 A 
ATOM      8  C6  PXY d   1       0.841   1.804  -0.184  0.00  0.00     0.003 A 
ENDROOT
TORSDOF 0
ENDMDL
