MODEL 1
REMARK minimizedAffinity -0.593355954
REMARK minimizedRMSD -1
REMARK  1 active torsions:
REMARK  status: ('A' for Active; 'I' for Inactive)
REMARK    1  A    between atoms: C1_2  and  C2_3 
ROOT
ATOM      1  C2  UNL d   1      -4.122   5.075   2.447  0.00  0.00    -0.073 A 
ATOM      2  C3  UNL d   1      -3.092   5.838   3.009  0.00  0.00    -0.002 A 
ATOM      3  C4  UNL d   1      -3.010   6.000   4.393  0.00  0.00     0.004 A 
ATOM      4  C5  UNL d   1      -3.950   5.396   5.227  0.00  0.00    -0.004 A 
ATOM      5  C6  UNL d   1      -4.979   4.619   4.685  0.00  0.00    -0.075 A 
ATOM      6  C7  UNL d   1      -6.000   3.965   5.569  0.00  0.00     0.076 C 
ATOM      7  C8  UNL d   1      -5.057   4.464   3.295  0.00  0.00     0.001 A 
ENDROOT
BRANCH   1   8
ATOM      8  C1  UNL d   1      -4.211   4.891   0.954  0.00  0.00     0.053 C 
ATOM      9  C   UNL d   1      -5.026   5.992   0.292  0.00  0.00     0.018 C 
ENDBRANCH   1   8
TORSDOF 1
ENDMDL
