MODEL 1
REMARK minimizedAffinity 10.6984138
REMARK minimizedRMSD -1
REMARK  1 active torsions:
REMARK  status: ('A' for Active; 'I' for Inactive)
REMARK    1  A    between atoms: C1_2  and  C2_3 
ROOT
ATOM      1  C2  UNL d   1      -5.312   4.102   2.365  0.00  0.00    -0.073 A 
ATOM      2  C3  UNL d   1      -4.333   5.039   2.015  0.00  0.00    -0.002 A 
ATOM      3  C4  UNL d   1      -3.898   5.985   2.944  0.00  0.00     0.004 A 
ATOM      4  C5  UNL d   1      -4.432   6.000   4.233  0.00  0.00    -0.004 A 
ATOM      5  C6  UNL d   1      -5.403   5.064   4.605  0.00  0.00    -0.075 A 
ATOM      6  C7  UNL d   1      -5.988   5.069   5.987  0.00  0.00     0.076 C 
ATOM      7  C8  UNL d   1      -5.836   4.119   3.666  0.00  0.00     0.001 A 
ENDROOT
BRANCH   1   8
ATOM      8  C1  UNL d   1      -5.779   3.074   1.367  0.00  0.00     0.053 C 
ATOM      9  C   UNL d   1      -4.644   2.180   0.895  0.00  0.00     0.018 C 
ENDBRANCH   1   8
TORSDOF 1
ENDMDL
