MODEL 1
REMARK minimizedAffinity 5.55049229
REMARK minimizedRMSD -1
REMARK  1 active torsions:
REMARK  status: ('A' for Active; 'I' for Inactive)
REMARK    1  A    between atoms: C1_2  and  C2_3 
ROOT
ATOM      1  C2  UNL d   1       3.328   2.922   1.737  0.00  0.00    -0.073 A 
ATOM      2  C3  UNL d   1       4.365   3.457   0.964  0.00  0.00    -0.002 A 
ATOM      3  C4  UNL d   1       4.743   2.843  -0.231  0.00  0.00     0.004 A 
ATOM      4  C5  UNL d   1       4.083   1.695  -0.669  0.00  0.00    -0.004 A 
ATOM      5  C6  UNL d   1       3.036   1.153   0.082  0.00  0.00    -0.075 A 
ATOM      6  C7  UNL d   1       2.318  -0.083  -0.374  0.00  0.00     0.076 C 
ATOM      7  C8  UNL d   1       2.665   1.773   1.283  0.00  0.00     0.001 A 
ENDROOT
BRANCH   1   8
ATOM      8  C1  UNL d   1       2.913   3.585   3.025  0.00  0.00     0.053 C 
ATOM      9  C   UNL d   1       2.141   2.638   3.930  0.00  0.00     0.018 C 
ENDBRANCH   1   8
TORSDOF 1
ENDMDL
