MODEL 1
REMARK minimizedAffinity 3.87023091
REMARK minimizedRMSD -1
REMARK  1 active torsions:
REMARK  status: ('A' for Active; 'I' for Inactive)
REMARK    1  A    between atoms: C1_2  and  C2_3 
ROOT
ATOM      1  C2  UNL d   1       3.030   1.084  -0.086  0.00  0.00    -0.073 A 
ATOM      2  C3  UNL d   1       4.117   1.944  -0.277  0.00  0.00    -0.002 A 
ATOM      3  C4  UNL d   1       4.438   2.899   0.689  0.00  0.00     0.004 A 
ATOM      4  C5  UNL d   1       3.682   2.998   1.857  0.00  0.00    -0.004 A 
ATOM      5  C6  UNL d   1       2.599   2.139   2.071  0.00  0.00    -0.075 A 
ATOM      6  C7  UNL d   1       1.774   2.235   3.321  0.00  0.00     0.076 C 
ATOM      7  C8  UNL d   1       2.281   1.185   1.096  0.00  0.00     0.001 A 
ENDROOT
BRANCH   1   8
ATOM      8  C1  UNL d   1       2.683   0.047  -1.123  0.00  0.00     0.053 C 
ATOM      9  C   UNL d   1       2.256  -1.269  -0.493  0.00  0.00     0.018 C 
ENDBRANCH   1   8
TORSDOF 1
ENDMDL
