MODEL 1
REMARK minimizedAffinity 7.46705008
REMARK minimizedRMSD -1
REMARK  1 active torsions:
REMARK  status: ('A' for Active; 'I' for Inactive)
REMARK    1  A    between atoms: C1_2  and  C2_3 
ROOT
ATOM      1  C2  UNL d   1       2.883   0.103  -0.509  0.00  0.00    -0.073 A 
ATOM      2  C3  UNL d   1       1.890   0.945   0.003  0.00  0.00    -0.002 A 
ATOM      3  C4  UNL d   1       2.226   2.194   0.528  0.00  0.00     0.004 A 
ATOM      4  C5  UNL d   1       3.556   2.615   0.540  0.00  0.00    -0.004 A 
ATOM      5  C6  UNL d   1       4.561   1.792   0.021  0.00  0.00    -0.075 A 
ATOM      6  C7  UNL d   1       5.997   2.230   0.029  0.00  0.00     0.076 C 
ATOM      7  C8  UNL d   1       4.215   0.539  -0.502  0.00  0.00     0.001 A 
ENDROOT
BRANCH   1   8
ATOM      8  C1  UNL d   1       2.523  -1.243  -1.083  0.00  0.00     0.053 C 
ATOM      9  C   UNL d   1       2.145  -2.242  -0.001  0.00  0.00     0.018 C 
ENDBRANCH   1   8
TORSDOF 1
ENDMDL
