MODEL 1
REMARK minimizedAffinity 4.65427685
REMARK minimizedRMSD -1
REMARK  3 active torsions:
REMARK  status: ('A' for Active; 'I' for Inactive)
REMARK    1  A    between atoms: C3'_2  and  C2'_3 
REMARK    2  A    between atoms: C2'_3  and  C1'_4 
REMARK    3  A    between atoms: C1'_4  and  C1_5 
ROOT
ATOM      1  C1  N4B d   1       2.218  -2.048   3.371  0.00  0.00    -0.075 A 
ATOM      2  C2  N4B d   1       3.478  -1.972   4.003  0.00  0.00     0.002 A 
ATOM      3  C3  N4B d   1       4.014  -3.087   4.600  0.00  0.00     0.002 A 
ATOM      4  C4  N4B d   1       3.303  -4.278   4.594  0.00  0.00    -0.004 A 
ATOM      5  C5  N4B d   1       2.098  -4.348   3.958  0.00  0.00     0.002 A 
ATOM      6  C6  N4B d   1       1.549  -3.237   3.351  0.00  0.00     0.002 A 
ENDROOT
BRANCH   1   7
ATOM      7  C1' N4B d   1       1.553  -0.835   2.779  0.00  0.00     0.057 C 
BRANCH   7   8
ATOM      8  C2' N4B d   1       2.516  -0.158   1.809  0.00  0.00     0.009 C 
BRANCH   8   9
ATOM      9  C3' N4B d   1       2.708   1.313   2.132  0.00  0.00     0.004 C 
ATOM     10  C4' N4B d   1       3.504   2.039   1.088  0.00  0.00     0.003 C 
ENDBRANCH   8   9
ENDBRANCH   7   8
ENDBRANCH   1   7
TORSDOF 3
ENDMDL
