MODEL 1
REMARK minimizedAffinity 9.53111076
REMARK minimizedRMSD -1
REMARK  3 active torsions:
REMARK  status: ('A' for Active; 'I' for Inactive)
REMARK    1  A    between atoms: C3'_2  and  C2'_3 
REMARK    2  A    between atoms: C2'_3  and  C1'_4 
REMARK    3  A    between atoms: C1'_4  and  C1_5 
ROOT
ATOM      1  C1  N4B d   1       1.983  -2.362   2.841  0.00  0.00    -0.075 A 
ATOM      2  C2  N4B d   1       1.454  -1.801   4.024  0.00  0.00     0.002 A 
ATOM      3  C3  N4B d   1       1.075  -0.481   4.048  0.00  0.00     0.002 A 
ATOM      4  C4  N4B d   1       1.232   0.298   2.912  0.00  0.00    -0.004 A 
ATOM      5  C5  N4B d   1       1.720  -0.258   1.766  0.00  0.00     0.002 A 
ATOM      6  C6  N4B d   1       2.102  -1.584   1.726  0.00  0.00     0.002 A 
ENDROOT
BRANCH   1   7
ATOM      7  C1' N4B d   1       2.491  -3.777   2.791  0.00  0.00     0.057 C 
BRANCH   7   8
ATOM      8  C2' N4B d   1       3.964  -3.767   2.392  0.00  0.00     0.009 C 
BRANCH   8   9
ATOM      9  C3' N4B d   1       4.701  -2.571   2.971  0.00  0.00     0.004 C 
ATOM     10  C4' N4B d   1       5.986  -2.280   2.255  0.00  0.00     0.003 C 
ENDBRANCH   8   9
ENDBRANCH   7   8
ENDBRANCH   1   7
TORSDOF 3
ENDMDL
