MODEL 1
REMARK minimizedAffinity 8.35723591
REMARK minimizedRMSD -1
REMARK  3 active torsions:
REMARK  status: ('A' for Active; 'I' for Inactive)
REMARK    1  A    between atoms: C3'_2  and  C2'_3 
REMARK    2  A    between atoms: C2'_3  and  C1'_4 
REMARK    3  A    between atoms: C1'_4  and  C1_5 
ROOT
ATOM      1  C1  N4B d   1      -3.002  -0.132  -4.155  0.00  0.00    -0.075 A 
ATOM      2  C2  N4B d   1      -3.584   1.117  -4.464  0.00  0.00     0.002 A 
ATOM      3  C3  N4B d   1      -3.569   2.130  -3.537  0.00  0.00     0.002 A 
ATOM      4  C4  N4B d   1      -2.999   1.911  -2.292  0.00  0.00    -0.004 A 
ATOM      5  C5  N4B d   1      -2.417   0.710  -2.010  0.00  0.00     0.002 A 
ATOM      6  C6  N4B d   1      -2.420  -0.315  -2.934  0.00  0.00     0.002 A 
ENDROOT
BRANCH   1   7
ATOM      7  C1' N4B d   1      -3.070  -1.296  -5.105  0.00  0.00     0.057 C 
BRANCH   7   8
ATOM      8  C2' N4B d   1      -3.763  -2.467  -4.415  0.00  0.00     0.009 C 
BRANCH   8   9
ATOM      9  C3' N4B d   1      -3.931  -3.657  -5.344  0.00  0.00     0.004 C 
ATOM     10  C4' N4B d   1      -5.357  -3.880  -5.750  0.00  0.00     0.003 C 
ENDBRANCH   8   9
ENDBRANCH   7   8
ENDBRANCH   1   7
TORSDOF 3
ENDMDL
