MODEL 1
REMARK minimizedAffinity -0.966766834
REMARK minimizedRMSD -1
REMARK  3 active torsions:
REMARK  status: ('A' for Active; 'I' for Inactive)
REMARK    1  A    between atoms: C3'_2  and  C2'_3 
REMARK    2  A    between atoms: C2'_3  and  C1'_4 
REMARK    3  A    between atoms: C1'_4  and  C1_5 
ROOT
ATOM      1  C1  N4B d   1       2.529  -2.258   2.926  0.00  0.00    -0.075 A 
ATOM      2  C2  N4B d   1       2.990  -3.592   2.882  0.00  0.00     0.002 A 
ATOM      3  C3  N4B d   1       2.371  -4.558   3.637  0.00  0.00     0.002 A 
ATOM      4  C4  N4B d   1       1.307  -4.212   4.455  0.00  0.00    -0.004 A 
ATOM      5  C5  N4B d   1       0.851  -2.926   4.473  0.00  0.00     0.002 A 
ATOM      6  C6  N4B d   1       1.460  -1.945   3.716  0.00  0.00     0.002 A 
ENDROOT
BRANCH   1   7
ATOM      7  C1' N4B d   1       3.226  -1.151   2.184  0.00  0.00     0.057 C 
BRANCH   7   8
ATOM      8  C2' N4B d   1       2.210  -0.406   1.324  0.00  0.00     0.009 C 
BRANCH   8   9
ATOM      9  C3' N4B d   1       2.778   0.887   0.765  0.00  0.00     0.004 C 
ATOM     10  C4' N4B d   1       2.472   2.076   1.626  0.00  0.00     0.003 C 
ENDBRANCH   8   9
ENDBRANCH   7   8
ENDBRANCH   1   7
TORSDOF 3
ENDMDL
