MODEL 1
REMARK minimizedAffinity 8.26067924
REMARK minimizedRMSD -1
REMARK  3 active torsions:
REMARK  status: ('A' for Active; 'I' for Inactive)
REMARK    1  A    between atoms: C3'_2  and  C2'_3 
REMARK    2  A    between atoms: C2'_3  and  C1'_4 
REMARK    3  A    between atoms: C1'_4  and  C1_5 
ROOT
ATOM      1  C1  N4B d   1      -3.766   3.083  -0.987  0.00  0.00    -0.075 A 
ATOM      2  C2  N4B d   1      -3.167   2.543   0.173  0.00  0.00     0.002 A 
ATOM      3  C3  N4B d   1      -3.878   2.482   1.347  0.00  0.00     0.002 A 
ATOM      4  C4  N4B d   1      -5.175   2.969   1.389  0.00  0.00    -0.004 A 
ATOM      5  C5  N4B d   1      -5.755   3.466   0.259  0.00  0.00     0.002 A 
ATOM      6  C6  N4B d   1      -5.054   3.530  -0.929  0.00  0.00     0.002 A 
ENDROOT
BRANCH   1   7
ATOM      7  C1' N4B d   1      -3.000   3.251  -2.271  0.00  0.00     0.057 C 
BRANCH   7   8
ATOM      8  C2' N4B d   1      -3.369   2.119  -3.225  0.00  0.00     0.009 C 
BRANCH   8   9
ATOM      9  C3' N4B d   1      -2.944   0.762  -2.689  0.00  0.00     0.004 C 
ATOM     10  C4' N4B d   1      -2.994  -0.316  -3.730  0.00  0.00     0.003 C 
ENDBRANCH   8   9
ENDBRANCH   7   8
ENDBRANCH   1   7
TORSDOF 3
ENDMDL
