MODEL 1
REMARK minimizedAffinity 4.17590237
REMARK minimizedRMSD -1
REMARK  3 active torsions:
REMARK  status: ('A' for Active; 'I' for Inactive)
REMARK    1  A    between atoms: C3'_2  and  C2'_3 
REMARK    2  A    between atoms: C2'_3  and  C1'_4 
REMARK    3  A    between atoms: C1'_4  and  C1_5 
ROOT
ATOM      1  C1  N4B d   1       2.010  -0.223   2.145  0.00  0.00    -0.075 A 
ATOM      2  C2  N4B d   1       1.959   0.687   3.224  0.00  0.00     0.002 A 
ATOM      3  C3  N4B d   1       2.702   1.841   3.185  0.00  0.00     0.002 A 
ATOM      4  C4  N4B d   1       3.515   2.096   2.091  0.00  0.00    -0.004 A 
ATOM      5  C5  N4B d   1       3.539   1.225   1.041  0.00  0.00     0.002 A 
ATOM      6  C6  N4B d   1       2.794   0.063   1.065  0.00  0.00     0.002 A 
ENDROOT
BRANCH   1   7
ATOM      7  C1' N4B d   1       1.281  -1.539   2.180  0.00  0.00     0.057 C 
BRANCH   7   8
ATOM      8  C2' N4B d   1       2.109  -2.548   2.970  0.00  0.00     0.009 C 
BRANCH   8   9
ATOM      9  C3' N4B d   1       1.524  -3.948   2.891  0.00  0.00     0.004 C 
ATOM     10  C4' N4B d   1       2.160  -4.784   1.821  0.00  0.00     0.003 C 
ENDBRANCH   8   9
ENDBRANCH   7   8
ENDBRANCH   1   7
TORSDOF 3
ENDMDL
