MODEL 1
REMARK minimizedAffinity 9.9608326
REMARK minimizedRMSD -1
REMARK  3 active torsions:
REMARK  status: ('A' for Active; 'I' for Inactive)
REMARK    1  A    between atoms: C3'_2  and  C2'_3 
REMARK    2  A    between atoms: C2'_3  and  C1'_4 
REMARK    3  A    between atoms: C1'_4  and  C1_5 
ROOT
ATOM      1  C1  N4B d   1      -4.089   2.358  -3.057  0.00  0.00    -0.075 A 
ATOM      2  C2  N4B d   1      -4.992   2.950  -2.147  0.00  0.00     0.002 A 
ATOM      3  C3  N4B d   1      -5.944   3.831  -2.599  0.00  0.00     0.002 A 
ATOM      4  C4  N4B d   1      -5.999   4.148  -3.948  0.00  0.00    -0.004 A 
ATOM      5  C5  N4B d   1      -5.140   3.552  -4.824  0.00  0.00     0.002 A 
ATOM      6  C6  N4B d   1      -4.181   2.662  -4.384  0.00  0.00     0.002 A 
ENDROOT
BRANCH   1   7
ATOM      7  C1' N4B d   1      -2.976   1.456  -2.598  0.00  0.00     0.057 C 
BRANCH   7   8
ATOM      8  C2' N4B d   1      -3.118   0.099  -3.281  0.00  0.00     0.009 C 
BRANCH   8   9
ATOM      9  C3' N4B d   1      -3.383  -1.015  -2.283  0.00  0.00     0.004 C 
ATOM     10  C4' N4B d   1      -2.192  -1.323  -1.426  0.00  0.00     0.003 C 
ENDBRANCH   8   9
ENDBRANCH   7   8
ENDBRANCH   1   7
TORSDOF 3
ENDMDL
