MODEL 1
REMARK minimizedAffinity -3.80969024
REMARK minimizedRMSD -1
REMARK  0 active torsions:
REMARK  status: ('A' for Active; 'I' for Inactive)
ROOT
ATOM      1  C4' PXY d   1      -2.436   1.599  -2.784  0.00  0.00     0.077 C 
ATOM      2  C1' PXY d   1       1.496  -1.069   0.508  0.00  0.00     0.077 C 
ATOM      3  C1  PXY d   1       0.458  -0.365  -0.345  0.00  0.00    -0.082 A 
ATOM      4  C2  PXY d   1       0.254  -0.766  -1.589  0.00  0.00     0.003 A 
ATOM      5  C3  PXY d   1      -0.658  -0.120  -2.384  0.00  0.00     0.003 A 
ATOM      6  C4  PXY d   1      -1.406   0.912  -1.884  0.00  0.00    -0.082 A 
ATOM      7  C5  PXY d   1      -1.210   1.319  -0.612  0.00  0.00     0.003 A 
ATOM      8  C6  PXY d   1      -0.251   0.677   0.166  0.00  0.00     0.003 A 
ENDROOT
TORSDOF 0
ENDMDL
