MODEL 1
REMARK minimizedAffinity -4.21515751
REMARK minimizedRMSD -1
REMARK  0 active torsions:
REMARK  status: ('A' for Active; 'I' for Inactive)
ROOT
ATOM      1  C4' PXY d   1       1.892  -3.053   1.693  0.00  0.00     0.077 C 
ATOM      2  C1' PXY d   1      -0.913   1.570  -0.351  0.00  0.00     0.077 C 
ATOM      3  C1  PXY d   1      -0.170   0.357   0.174  0.00  0.00    -0.082 A 
ATOM      4  C2  PXY d   1      -0.740  -0.415   1.084  0.00  0.00     0.003 A 
ATOM      5  C3  PXY d   1      -0.070  -1.498   1.593  0.00  0.00     0.003 A 
ATOM      6  C4  PXY d   1       1.176  -1.823   1.127  0.00  0.00    -0.082 A 
ATOM      7  C5  PXY d   1       1.760  -1.046   0.191  0.00  0.00     0.003 A 
ATOM      8  C6  PXY d   1       1.079   0.072  -0.283  0.00  0.00     0.003 A 
ENDROOT
TORSDOF 0
ENDMDL
