MODEL 1
REMARK minimizedAffinity -3.51394224
REMARK minimizedRMSD -1
REMARK  0 active torsions:
REMARK  status: ('A' for Active; 'I' for Inactive)
ROOT
ATOM      1  C4' PXY d   1      -1.117   1.387  -0.335  0.00  0.00     0.077 C 
ATOM      2  C1' PXY d   1       2.005  -2.929   1.908  0.00  0.00     0.077 C 
ATOM      3  C1  PXY d   1       1.175  -1.802   1.326  0.00  0.00    -0.082 A 
ATOM      4  C2  PXY d   1       1.571  -1.207   0.212  0.00  0.00     0.003 A 
ATOM      5  C3  PXY d   1       0.850  -0.164  -0.310  0.00  0.00     0.003 A 
ATOM      6  C4  PXY d   1      -0.316   0.238   0.284  0.00  0.00    -0.082 A 
ATOM      7  C5  PXY d   1      -0.732  -0.371   1.414  0.00  0.00     0.003 A 
ATOM      8  C6  PXY d   1       0.036  -1.400   1.952  0.00  0.00     0.003 A 
ENDROOT
TORSDOF 0
ENDMDL
