MODEL 1
REMARK minimizedAffinity -5.02168512
REMARK minimizedRMSD -1
REMARK  0 active torsions:
REMARK  status: ('A' for Active; 'I' for Inactive)
ROOT
ATOM      1  C4' PXY d   1      -1.461   1.681  -1.524  0.00  0.00     0.077 C 
ATOM      2  C1' PXY d   1       1.577  -2.190   1.508  0.00  0.00     0.077 C 
ATOM      3  C1  PXY d   1       0.772  -1.174   0.723  0.00  0.00    -0.082 A 
ATOM      4  C2  PXY d   1       0.892  -1.120  -0.594  0.00  0.00     0.003 A 
ATOM      5  C3  PXY d   1       0.195  -0.187  -1.317  0.00  0.00     0.003 A 
ATOM      6  C4  PXY d   1      -0.674   0.666  -0.691  0.00  0.00    -0.082 A 
ATOM      7  C5  PXY d   1      -0.811   0.610   0.651  0.00  0.00     0.003 A 
ATOM      8  C6  PXY d   1      -0.064  -0.317   1.371  0.00  0.00     0.003 A 
ENDROOT
TORSDOF 0
ENDMDL
