MODEL 1
REMARK minimizedAffinity -6.27743769
REMARK minimizedRMSD -1
REMARK  0 active torsions:
REMARK  status: ('A' for Active; 'I' for Inactive)
ROOT
ATOM      1  C4' PXY d   1       0.959  -3.006   2.356  0.00  0.00     0.077 C 
ATOM      2  C1' PXY d   1      -0.748   1.498  -0.840  0.00  0.00     0.077 C 
ATOM      3  C1  PXY d   1      -0.307   0.321   0.008  0.00  0.00    -0.082 A 
ATOM      4  C2  PXY d   1       0.828  -0.299  -0.272  0.00  0.00     0.003 A 
ATOM      5  C3  PXY d   1       1.225  -1.384   0.465  0.00  0.00     0.003 A 
ATOM      6  C4  PXY d   1       0.480  -1.807   1.533  0.00  0.00    -0.082 A 
ATOM      7  C5  PXY d   1      -0.674  -1.174   1.832  0.00  0.00     0.003 A 
ATOM      8  C6  PXY d   1      -1.080  -0.099   1.046  0.00  0.00     0.003 A 
ENDROOT
TORSDOF 0
ENDMDL
