MODEL 1
REMARK minimizedAffinity -4.59704018
REMARK minimizedRMSD -1
REMARK  0 active torsions:
REMARK  status: ('A' for Active; 'I' for Inactive)
ROOT
ATOM      1  C4' PXY d   1      -1.660   1.913  -1.927  0.00  0.00     0.077 C 
ATOM      2  C1' PXY d   1       1.327  -2.062   1.020  0.00  0.00     0.077 C 
ATOM      3  C1  PXY d   1       0.535  -1.019   0.257  0.00  0.00    -0.082 A 
ATOM      4  C2  PXY d   1       0.656  -0.939  -1.058  0.00  0.00     0.003 A 
ATOM      5  C3  PXY d   1      -0.028   0.019  -1.761  0.00  0.00     0.003 A 
ATOM      6  C4  PXY d   1      -0.887   0.870  -1.117  0.00  0.00    -0.082 A 
ATOM      7  C5  PXY d   1      -1.024   0.787   0.224  0.00  0.00     0.003 A 
ATOM      8  C6  PXY d   1      -0.289  -0.165   0.923  0.00  0.00     0.003 A 
ENDROOT
TORSDOF 0
ENDMDL
