MODEL 1
REMARK minimizedAffinity -5.53881121
REMARK minimizedRMSD -1
REMARK  0 active torsions:
REMARK  status: ('A' for Active; 'I' for Inactive)
ROOT
ATOM      1  C4' PXY d   1       1.578  -1.594   0.229  0.00  0.00     0.077 C 
ATOM      2  C1' PXY d   1      -2.351   1.612  -2.546  0.00  0.00     0.077 C 
ATOM      3  C1  PXY d   1      -1.320   0.781  -1.809  0.00  0.00    -0.082 A 
ATOM      4  C2  PXY d   1      -0.618  -0.127  -2.469  0.00  0.00     0.003 A 
ATOM      5  C3  PXY d   1       0.296  -0.909  -1.812  0.00  0.00     0.003 A 
ATOM      6  C4  PXY d   1       0.533  -0.725  -0.476  0.00  0.00    -0.082 A 
ATOM      7  C5  PXY d   1      -0.171   0.206   0.202  0.00  0.00     0.003 A 
ATOM      8  C6  PXY d   1      -1.124   0.962  -0.475  0.00  0.00     0.003 A 
ENDROOT
TORSDOF 0
ENDMDL
