MODEL 1
REMARK minimizedAffinity -2.62458158
REMARK minimizedRMSD -1
REMARK  0 active torsions:
REMARK  status: ('A' for Active; 'I' for Inactive)
ROOT
ATOM      1  C4' PXY d   1      -1.905   1.175  -1.709  0.00  0.00     0.077 C 
ATOM      2  C1' PXY d   1       2.103  -1.719   1.287  0.00  0.00     0.077 C 
ATOM      3  C1  PXY d   1       1.043  -0.961   0.511  0.00  0.00    -0.082 A 
ATOM      4  C2  PXY d   1       1.120  -0.897  -0.808  0.00  0.00     0.003 A 
ATOM      5  C3  PXY d   1       0.188  -0.189  -1.523  0.00  0.00     0.003 A 
ATOM      6  C4  PXY d   1      -0.863   0.414  -0.886  0.00  0.00    -0.082 A 
ATOM      7  C5  PXY d   1      -0.954   0.344   0.459  0.00  0.00     0.003 A 
ATOM      8  C6  PXY d   1       0.025  -0.345   1.170  0.00  0.00     0.003 A 
ENDROOT
TORSDOF 0
ENDMDL
