MODEL 1
REMARK minimizedAffinity -4.51866436
REMARK minimizedRMSD -1
REMARK  0 active torsions:
REMARK  status: ('A' for Active; 'I' for Inactive)
ROOT
ATOM      1  C4' PXY d   1      -1.882   1.189  -2.260  0.00  0.00     0.077 C 
ATOM      2  C1' PXY d   1       2.296  -1.559   0.639  0.00  0.00     0.077 C 
ATOM      3  C1  PXY d   1       1.194  -0.836  -0.110  0.00  0.00    -0.082 A 
ATOM      4  C2  PXY d   1       0.986  -1.107  -1.388  0.00  0.00     0.003 A 
ATOM      5  C3  PXY d   1       0.015  -0.439  -2.089  0.00  0.00     0.003 A 
ATOM      6  C4  PXY d   1      -0.787   0.476  -1.462  0.00  0.00    -0.082 A 
ATOM      7  C5  PXY d   1      -0.588   0.750  -0.155  0.00  0.00     0.003 A 
ATOM      8  C6  PXY d   1       0.431   0.092   0.528  0.00  0.00     0.003 A 
ENDROOT
TORSDOF 0
ENDMDL
