MODEL 1
REMARK minimizedAffinity -3.8674469
REMARK minimizedRMSD -1
REMARK  0 active torsions:
REMARK  status: ('A' for Active; 'I' for Inactive)
ROOT
ATOM      1  C4' PXY d   1      -0.182   0.913  -0.517  0.00  0.00     0.077 C 
ATOM      2  C1' PXY d   1       1.475  -3.794   2.400  0.00  0.00     0.077 C 
ATOM      3  C1  PXY d   1       1.053  -2.557   1.632  0.00  0.00    -0.082 A 
ATOM      4  C2  PXY d   1      -0.100  -1.973   1.916  0.00  0.00     0.003 A 
ATOM      5  C3  PXY d   1      -0.512  -0.872   1.209  0.00  0.00     0.003 A 
ATOM      6  C4  PXY d   1       0.289  -0.333   0.239  0.00  0.00    -0.082 A 
ATOM      7  C5  PXY d   1       1.471  -0.917  -0.049  0.00  0.00     0.003 A 
ATOM      8  C6  PXY d   1       1.852  -2.057   0.651  0.00  0.00     0.003 A 
ENDROOT
TORSDOF 0
ENDMDL
