MODEL 1
REMARK minimizedAffinity -4.53782177
REMARK minimizedRMSD -1
REMARK  0 active torsions:
REMARK  status: ('A' for Active; 'I' for Inactive)
ROOT
ATOM      1  C4' PXY d   1      -1.480   1.616  -2.021  0.00  0.00     0.077 C 
ATOM      2  C1' PXY d   1       1.146  -2.044   1.602  0.00  0.00     0.077 C 
ATOM      3  C1  PXY d   1       0.467  -1.085   0.644  0.00  0.00    -0.082 A 
ATOM      4  C2  PXY d   1      -0.441  -0.238   1.100  0.00  0.00     0.003 A 
ATOM      5  C3  PXY d   1      -1.087   0.615   0.242  0.00  0.00     0.003 A 
ATOM      6  C4  PXY d   1      -0.762   0.636  -1.088  0.00  0.00    -0.082 A 
ATOM      7  C5  PXY d   1       0.171  -0.218  -1.559  0.00  0.00     0.003 A 
ATOM      8  C6  PXY d   1       0.786  -1.103  -0.679  0.00  0.00     0.003 A 
ENDROOT
TORSDOF 0
ENDMDL
