MODEL 1
REMARK minimizedAffinity -4.66456223
REMARK minimizedRMSD -1
REMARK  0 active torsions:
REMARK  status: ('A' for Active; 'I' for Inactive)
ROOT
ATOM      1  C4' PXY d   1      -1.208  -2.294   2.713  0.00  0.00     0.077 C 
ATOM      2  C1' PXY d   1       2.944  -0.907  -1.061  0.00  0.00     0.077 C 
ATOM      3  C1  PXY d   1       1.859  -1.283  -0.072  0.00  0.00    -0.082 A 
ATOM      4  C2  PXY d   1       0.769  -0.539   0.018  0.00  0.00     0.003 A 
ATOM      5  C3  PXY d   1      -0.207  -0.846   0.930  0.00  0.00     0.003 A 
ATOM      6  C4  PXY d   1      -0.091  -1.957   1.721  0.00  0.00    -0.082 A 
ATOM      7  C5  PXY d   1       1.013  -2.728   1.628  0.00  0.00     0.003 A 
ATOM      8  C6  PXY d   1       2.012  -2.376   0.725  0.00  0.00     0.003 A 
ENDROOT
TORSDOF 0
ENDMDL
