MODEL 1
REMARK minimizedAffinity -4.36778355
REMARK minimizedRMSD -1
REMARK  0 active torsions:
REMARK  status: ('A' for Active; 'I' for Inactive)
ROOT
ATOM      1  C4' PXY d   1      -1.191   1.610  -0.919  0.00  0.00     0.077 C 
ATOM      2  C1' PXY d   1       1.782  -3.018   0.857  0.00  0.00     0.077 C 
ATOM      3  C1  PXY d   1       0.992  -1.812   0.390  0.00  0.00    -0.082 A 
ATOM      4  C2  PXY d   1       1.628  -0.773  -0.127  0.00  0.00     0.003 A 
ATOM      5  C3  PXY d   1       0.931   0.339  -0.525  0.00  0.00     0.003 A 
ATOM      6  C4  PXY d   1      -0.435   0.367  -0.442  0.00  0.00    -0.082 A 
ATOM      7  C5  PXY d   1      -1.092  -0.693   0.074  0.00  0.00     0.003 A 
ATOM      8  C6  PXY d   1      -0.364  -1.796   0.510  0.00  0.00     0.003 A 
ENDROOT
TORSDOF 0
ENDMDL
