MODEL 1
REMARK minimizedAffinity -2.57906127
REMARK minimizedRMSD -1
REMARK  0 active torsions:
REMARK  status: ('A' for Active; 'I' for Inactive)
ROOT
ATOM      1  C4' PXY d   1       1.653  -0.740   0.851  0.00  0.00     0.077 C 
ATOM      2  C1' PXY d   1      -2.459   1.425  -2.586  0.00  0.00     0.077 C 
ATOM      3  C1  PXY d   1      -1.377   0.869  -1.682  0.00  0.00    -0.082 A 
ATOM      4  C2  PXY d   1      -0.902  -0.346  -1.900  0.00  0.00     0.003 A 
ATOM      5  C3  PXY d   1       0.054  -0.876  -1.072  0.00  0.00     0.003 A 
ATOM      6  C4  PXY d   1       0.567  -0.135  -0.042  0.00  0.00    -0.082 A 
ATOM      7  C5  PXY d   1       0.095   1.110   0.181  0.00  0.00     0.003 A 
ATOM      8  C6  PXY d   1      -0.905   1.615  -0.646  0.00  0.00     0.003 A 
ENDROOT
TORSDOF 0
ENDMDL
