MODEL 1
REMARK minimizedAffinity -5.32352781
REMARK minimizedRMSD -1
REMARK  0 active torsions:
REMARK  status: ('A' for Active; 'I' for Inactive)
ROOT
ATOM      1  C4' PXY d   1      -0.704   0.808  -0.689  0.00  0.00     0.077 C 
ATOM      2  C1' PXY d   1       1.878  -3.551   2.095  0.00  0.00     0.077 C 
ATOM      3  C1  PXY d   1       1.212  -2.404   1.360  0.00  0.00    -0.082 A 
ATOM      4  C2  PXY d   1       0.052  -1.936   1.792  0.00  0.00     0.003 A 
ATOM      5  C3  PXY d   1      -0.579  -0.920   1.120  0.00  0.00     0.003 A 
ATOM      6  C4  PXY d   1       0.008  -0.343   0.027  0.00  0.00    -0.082 A 
ATOM      7  C5  PXY d   1       1.197  -0.808  -0.413  0.00  0.00     0.003 A 
ATOM      8  C6  PXY d   1       1.802  -1.866   0.258  0.00  0.00     0.003 A 
ENDROOT
TORSDOF 0
ENDMDL
