MODEL 1
REMARK minimizedAffinity -4.50092888
REMARK minimizedRMSD -1
REMARK  0 active torsions:
REMARK  status: ('A' for Active; 'I' for Inactive)
ROOT
ATOM      1  C4' PXY d   1      -1.129   1.822  -1.134  0.00  0.00     0.077 C 
ATOM      2  C1' PXY d   1       1.478  -2.592   1.538  0.00  0.00     0.077 C 
ATOM      3  C1  PXY d   1       0.783  -1.438   0.841  0.00  0.00    -0.082 A 
ATOM      4  C2  PXY d   1       1.367  -0.849  -0.189  0.00  0.00     0.003 A 
ATOM      5  C3  PXY d   1       0.767   0.216  -0.810  0.00  0.00     0.003 A 
ATOM      6  C4  PXY d   1      -0.468   0.648  -0.406  0.00  0.00    -0.082 A 
ATOM      7  C5  PXY d   1      -1.076   0.045   0.637  0.00  0.00     0.003 A 
ATOM      8  C6  PXY d   1      -0.431  -1.008   1.280  0.00  0.00     0.003 A 
ENDROOT
TORSDOF 0
ENDMDL
