MODEL 1
REMARK minimizedAffinity 0.592757821
REMARK minimizedRMSD -1
REMARK  0 active torsions:
REMARK  status: ('A' for Active; 'I' for Inactive)
ROOT
ATOM      1  C4' PXY d   1      -4.372   3.412  -3.592  0.00  0.00     0.077 C 
ATOM      2  C1' PXY d   1      -0.602   0.646  -0.193  0.00  0.00     0.077 C 
ATOM      3  C1  PXY d   1      -1.598   1.361  -1.086  0.00  0.00    -0.082 A 
ATOM      4  C2  PXY d   1      -1.218   2.432  -1.763  0.00  0.00     0.003 A 
ATOM      5  C3  PXY d   1      -2.114   3.109  -2.550  0.00  0.00     0.003 A 
ATOM      6  C4  PXY d   1      -3.398   2.654  -2.686  0.00  0.00    -0.082 A 
ATOM      7  C5  PXY d   1      -3.790   1.555  -2.007  0.00  0.00     0.003 A 
ATOM      8  C6  PXY d   1      -2.877   0.906  -1.181  0.00  0.00     0.003 A 
ENDROOT
TORSDOF 0
ENDMDL
