MODEL 1
REMARK minimizedAffinity -4.43103933
REMARK minimizedRMSD -1
REMARK  0 active torsions:
REMARK  status: ('A' for Active; 'I' for Inactive)
ROOT
ATOM      1  C4' PXY d   1      -1.130   1.398  -0.648  0.00  0.00     0.077 C 
ATOM      2  C1' PXY d   1       1.568  -3.113   1.760  0.00  0.00     0.077 C 
ATOM      3  C1  PXY d   1       0.872  -1.924   1.127  0.00  0.00    -0.082 A 
ATOM      4  C2  PXY d   1      -0.408  -1.703   1.381  0.00  0.00     0.003 A 
ATOM      5  C3  PXY d   1      -1.061  -0.651   0.793  0.00  0.00     0.003 A 
ATOM      6  C4  PXY d   1      -0.384   0.215  -0.023  0.00  0.00    -0.082 A 
ATOM      7  C5  PXY d   1       0.924   0.003  -0.279  0.00  0.00     0.003 A 
ATOM      8  C6  PXY d   1       1.559  -1.094   0.296  0.00  0.00     0.003 A 
ENDROOT
TORSDOF 0
ENDMDL
