MODEL 1
REMARK minimizedAffinity -2.99014854
REMARK minimizedRMSD -1
REMARK  0 active torsions:
REMARK  status: ('A' for Active; 'I' for Inactive)
ROOT
ATOM      1  C4' PXY d   1      -1.962   1.333  -2.053  0.00  0.00     0.077 C 
ATOM      2  C1' PXY d   1       2.430  -1.448   0.476  0.00  0.00     0.077 C 
ATOM      3  C1  PXY d   1       1.273  -0.716  -0.176  0.00  0.00    -0.082 A 
ATOM      4  C2  PXY d   1       0.963  -0.973  -1.436  0.00  0.00     0.003 A 
ATOM      5  C3  PXY d   1      -0.060  -0.298  -2.051  0.00  0.00     0.003 A 
ATOM      6  C4  PXY d   1      -0.808   0.612  -1.352  0.00  0.00    -0.082 A 
ATOM      7  C5  PXY d   1      -0.505   0.871  -0.062  0.00  0.00     0.003 A 
ATOM      8  C6  PXY d   1       0.563   0.205   0.531  0.00  0.00     0.003 A 
ENDROOT
TORSDOF 0
ENDMDL
