MODEL 1
REMARK minimizedAffinity -4.62756681
REMARK minimizedRMSD -1
REMARK  0 active torsions:
REMARK  status: ('A' for Active; 'I' for Inactive)
ROOT
ATOM      1  C4' PXY d   1      -0.366  -2.171   2.627  0.00  0.00     0.077 C 
ATOM      2  C1' PXY d   1      -0.758   1.797  -1.559  0.00  0.00     0.077 C 
ATOM      3  C1  PXY d   1      -0.650   0.748  -0.469  0.00  0.00    -0.082 A 
ATOM      4  C2  PXY d   1      -1.465   0.799   0.571  0.00  0.00     0.003 A 
ATOM      5  C3  PXY d   1      -1.360  -0.123   1.581  0.00  0.00     0.003 A 
ATOM      6  C4  PXY d   1      -0.446  -1.139   1.499  0.00  0.00    -0.082 A 
ATOM      7  C5  PXY d   1       0.382  -1.204   0.435  0.00  0.00     0.003 A 
ATOM      8  C6  PXY d   1       0.287  -0.235  -0.559  0.00  0.00     0.003 A 
ENDROOT
TORSDOF 0
ENDMDL
