MODEL 1
REMARK minimizedAffinity -5.75389051
REMARK minimizedRMSD -1
REMARK  1 active torsions:
REMARK  status: ('A' for Active; 'I' for Inactive)
REMARK    1  A    between atoms: C1_2  and  C2_3 
ROOT
ATOM      1  C2  UNL d   1      -1.036   2.534  -0.115  0.00  0.00    -0.081 A 
ATOM      2  C3  UNL d   1      -0.247   2.374  -1.261  0.00  0.00     0.006 A 
ATOM      3  C4  UNL d   1      -0.509   3.120  -2.412  0.00  0.00     0.002 A 
ATOM      4  C5  UNL d   1      -1.559   4.044  -2.435  0.00  0.00    -0.080 A 
ATOM      5  C6  UNL d   1      -1.833   4.874  -3.654  0.00  0.00     0.076 C 
ATOM      6  C7  UNL d   1      -2.358   4.192  -1.296  0.00  0.00     0.002 A 
ATOM      7  C8  UNL d   1      -2.097   3.446  -0.145  0.00  0.00     0.006 A 
ENDROOT
BRANCH   1   8
ATOM      8  C1  UNL d   1      -0.715   1.778   1.148  0.00  0.00     0.054 C 
ATOM      9  C   UNL d   1      -0.573   0.286   0.880  0.00  0.00     0.018 C 
ENDBRANCH   1   8
TORSDOF 1
ENDMDL
