MODEL 1
REMARK minimizedAffinity -3.05506778
REMARK minimizedRMSD -1
REMARK  1 active torsions:
REMARK  status: ('A' for Active; 'I' for Inactive)
REMARK    1  A    between atoms: C1_2  and  C2_3 
ROOT
ATOM      1  C2  UNL d   1      -0.170   0.905  -0.714  0.00  0.00    -0.081 A 
ATOM      2  C3  UNL d   1      -1.216   0.144  -0.176  0.00  0.00     0.006 A 
ATOM      3  C4  UNL d   1      -0.962  -0.809   0.813  0.00  0.00     0.002 A 
ATOM      4  C5  UNL d   1       0.339  -1.011   1.287  0.00  0.00    -0.080 A 
ATOM      5  C6  UNL d   1       0.620  -2.009   2.370  0.00  0.00     0.076 C 
ATOM      6  C7  UNL d   1       1.386  -0.263   0.738  0.00  0.00     0.002 A 
ATOM      7  C8  UNL d   1       1.133   0.689  -0.252  0.00  0.00     0.006 A 
ENDROOT
BRANCH   1   8
ATOM      8  C1  UNL d   1      -0.450   1.978  -1.735  0.00  0.00     0.054 C 
ATOM      9  C   UNL d   1      -1.855   2.541  -1.576  0.00  0.00     0.018 C 
ENDBRANCH   1   8
TORSDOF 1
ENDMDL
