MODEL 1
REMARK minimizedAffinity -1.99543571
REMARK minimizedRMSD -1
REMARK  1 active torsions:
REMARK  status: ('A' for Active; 'I' for Inactive)
REMARK    1  A    between atoms: C1_2  and  C2_3 
ROOT
ATOM      1  C2  UNL d   1      -0.526  -0.047   0.015  0.00  0.00    -0.081 A 
ATOM      2  C3  UNL d   1      -1.088  -0.124   1.296  0.00  0.00     0.006 A 
ATOM      3  C4  UNL d   1      -0.298  -0.466   2.396  0.00  0.00     0.002 A 
ATOM      4  C5  UNL d   1       1.067  -0.728   2.235  0.00  0.00    -0.080 A 
ATOM      5  C6  UNL d   1       1.933  -1.066   3.413  0.00  0.00     0.076 C 
ATOM      6  C7  UNL d   1       1.624  -0.668   0.954  0.00  0.00     0.002 A 
ATOM      7  C8  UNL d   1       0.835  -0.327  -0.147  0.00  0.00     0.006 A 
ENDROOT
BRANCH   1   8
ATOM      8  C1  UNL d   1      -1.362   0.384  -1.163  0.00  0.00     0.054 C 
ATOM      9  C   UNL d   1      -1.121   1.847  -1.507  0.00  0.00     0.018 C 
ENDBRANCH   1   8
TORSDOF 1
ENDMDL
