MODEL 1
REMARK minimizedAffinity -2.6547935
REMARK minimizedRMSD -1
REMARK  1 active torsions:
REMARK  status: ('A' for Active; 'I' for Inactive)
REMARK    1  A    between atoms: C1_2  and  C2_3 
ROOT
ATOM      1  C2  UNL d   1       0.067  -0.149  -1.191  0.00  0.00    -0.081 A 
ATOM      2  C3  UNL d   1      -0.854  -0.364  -0.159  0.00  0.00     0.006 A 
ATOM      3  C4  UNL d   1      -0.414  -0.664   1.133  0.00  0.00     0.002 A 
ATOM      4  C5  UNL d   1       0.953  -0.747   1.415  0.00  0.00    -0.080 A 
ATOM      5  C6  UNL d   1       1.440  -1.039   2.804  0.00  0.00     0.076 C 
ATOM      6  C7  UNL d   1       1.874  -0.550   0.380  0.00  0.00     0.002 A 
ATOM      7  C8  UNL d   1       1.435  -0.250  -0.911  0.00  0.00     0.006 A 
ENDROOT
BRANCH   1   8
ATOM      8  C1  UNL d   1      -0.402   0.239  -2.569  0.00  0.00     0.054 C 
ATOM      9  C   UNL d   1      -0.619   1.742  -2.678  0.00  0.00     0.018 C 
ENDBRANCH   1   8
TORSDOF 1
ENDMDL
