MODEL 1
REMARK minimizedAffinity 10.503768
REMARK minimizedRMSD -1
REMARK  1 active torsions:
REMARK  status: ('A' for Active; 'I' for Inactive)
REMARK    1  A    between atoms: C1_2  and  C2_3 
ROOT
ATOM      1  C2  UNL d   1       0.403  -0.441   4.202  0.00  0.00    -0.081 A 
ATOM      2  C3  UNL d   1      -0.768  -0.360   4.966  0.00  0.00     0.006 A 
ATOM      3  C4  UNL d   1      -1.879  -1.144   4.645  0.00  0.00     0.002 A 
ATOM      4  C5  UNL d   1      -1.835  -2.027   3.560  0.00  0.00    -0.080 A 
ATOM      5  C6  UNL d   1      -3.010  -2.896   3.223  0.00  0.00     0.076 C 
ATOM      6  C7  UNL d   1      -0.671  -2.095   2.786  0.00  0.00     0.002 A 
ATOM      7  C8  UNL d   1       0.439  -1.311   3.107  0.00  0.00     0.006 A 
ENDROOT
BRANCH   1   8
ATOM      8  C1  UNL d   1       1.624   0.355   4.585  0.00  0.00     0.054 C 
ATOM      9  C   UNL d   1       2.144  -0.054   5.955  0.00  0.00     0.018 C 
ENDBRANCH   1   8
TORSDOF 1
ENDMDL
