MODEL 1
REMARK minimizedAffinity 10.7421741
REMARK minimizedRMSD -1
REMARK  1 active torsions:
REMARK  status: ('A' for Active; 'I' for Inactive)
REMARK    1  A    between atoms: C1_2  and  C2_3 
ROOT
ATOM      1  C2  UNL d   1      -4.216  -4.586   0.195  0.00  0.00    -0.081 A 
ATOM      2  C3  UNL d   1      -3.127  -4.643  -0.684  0.00  0.00     0.006 A 
ATOM      3  C4  UNL d   1      -1.961  -3.923  -0.413  0.00  0.00     0.002 A 
ATOM      4  C5  UNL d   1      -1.860  -3.142   0.743  0.00  0.00    -0.080 A 
ATOM      5  C6  UNL d   1      -0.603  -2.388   1.060  0.00  0.00     0.076 C 
ATOM      6  C7  UNL d   1      -2.955  -3.071   1.611  0.00  0.00     0.002 A 
ATOM      7  C8  UNL d   1      -4.121  -3.789   1.341  0.00  0.00     0.006 A 
ENDROOT
BRANCH   1   8
ATOM      8  C1  UNL d   1      -5.451  -5.412  -0.060  0.00  0.00     0.054 C 
ATOM      9  C   UNL d   1      -6.000  -6.000   1.231  0.00  0.00     0.018 C 
ENDBRANCH   1   8
TORSDOF 1
ENDMDL
