MODEL 1
REMARK minimizedAffinity 8.75740433
REMARK minimizedRMSD -1
REMARK  1 active torsions:
REMARK  status: ('A' for Active; 'I' for Inactive)
REMARK    1  A    between atoms: C1_2  and  C2_3 
ROOT
ATOM      1  C2  UNL d   1       1.338  -4.860  -5.314  0.00  0.00    -0.081 A 
ATOM      2  C3  UNL d   1       2.321  -4.136  -6.000  0.00  0.00     0.006 A 
ATOM      3  C4  UNL d   1       3.030  -3.119  -5.356  0.00  0.00     0.002 A 
ATOM      4  C5  UNL d   1       2.774  -2.814  -4.015  0.00  0.00    -0.080 A 
ATOM      5  C6  UNL d   1       3.549  -1.745  -3.304  0.00  0.00     0.076 C 
ATOM      6  C7  UNL d   1       1.780  -3.525  -3.335  0.00  0.00     0.002 A 
ATOM      7  C8  UNL d   1       1.070  -4.542  -3.978  0.00  0.00     0.006 A 
ENDROOT
BRANCH   1   8
ATOM      8  C1  UNL d   1       0.617  -6.000  -5.986  0.00  0.00     0.054 C 
ATOM      9  C   UNL d   1      -0.888  -5.772  -5.999  0.00  0.00     0.018 C 
ENDBRANCH   1   8
TORSDOF 1
ENDMDL
