MODEL 1
REMARK minimizedAffinity 13.2432966
REMARK minimizedRMSD -1
REMARK  1 active torsions:
REMARK  status: ('A' for Active; 'I' for Inactive)
REMARK    1  A    between atoms: C1_2  and  C2_3 
ROOT
ATOM      1  C2  UNL d   1      -4.726   2.437  -4.142  0.00  0.00    -0.081 A 
ATOM      2  C3  UNL d   1      -3.537   2.469  -3.403  0.00  0.00     0.006 A 
ATOM      3  C4  UNL d   1      -2.374   3.008  -3.957  0.00  0.00     0.002 A 
ATOM      4  C5  UNL d   1      -2.381   3.530  -5.255  0.00  0.00    -0.080 A 
ATOM      5  C6  UNL d   1      -1.146   4.138  -5.850  0.00  0.00     0.076 C 
ATOM      6  C7  UNL d   1      -3.564   3.482  -5.999  0.00  0.00     0.002 A 
ATOM      7  C8  UNL d   1      -4.728   2.943  -5.446  0.00  0.00     0.006 A 
ENDROOT
BRANCH   1   8
ATOM      8  C1  UNL d   1      -5.999   1.916  -3.524  0.00  0.00     0.054 C 
ATOM      9  C   UNL d   1      -6.000   0.395  -3.458  0.00  0.00     0.018 C 
ENDBRANCH   1   8
TORSDOF 1
ENDMDL
