MODEL 1
REMARK minimizedAffinity 8.56920147
REMARK minimizedRMSD -1
REMARK  1 active torsions:
REMARK  status: ('A' for Active; 'I' for Inactive)
REMARK    1  A    between atoms: C1_2  and  C2_3 
ROOT
ATOM      1  C2  UNL d   1      -1.292  -1.910   2.664  0.00  0.00    -0.081 A 
ATOM      2  C3  UNL d   1      -0.696  -2.199   1.431  0.00  0.00     0.006 A 
ATOM      3  C4  UNL d   1       0.568  -1.692   1.119  0.00  0.00     0.002 A 
ATOM      4  C5  UNL d   1       1.260  -0.896   2.038  0.00  0.00    -0.080 A 
ATOM      5  C6  UNL d   1       2.630  -0.371   1.728  0.00  0.00     0.076 C 
ATOM      6  C7  UNL d   1       0.657  -0.593   3.263  0.00  0.00     0.002 A 
ATOM      7  C8  UNL d   1      -0.607  -1.098   3.575  0.00  0.00     0.006 A 
ENDROOT
BRANCH   1   8
ATOM      8  C1  UNL d   1      -2.627  -2.507   3.029  0.00  0.00     0.054 C 
ATOM      9  C   UNL d   1      -3.414  -2.903   1.788  0.00  0.00     0.018 C 
ENDBRANCH   1   8
TORSDOF 1
ENDMDL
