MODEL 1
REMARK minimizedAffinity 11.8463812
REMARK minimizedRMSD -1
REMARK  1 active torsions:
REMARK  status: ('A' for Active; 'I' for Inactive)
REMARK    1  A    between atoms: C1_2  and  C2_3 
ROOT
ATOM      1  C2  UNL d   1      -1.259  -2.253   2.510  0.00  0.00    -0.081 A 
ATOM      2  C3  UNL d   1      -0.983  -1.032   3.138  0.00  0.00     0.006 A 
ATOM      3  C4  UNL d   1       0.110  -0.260   2.736  0.00  0.00     0.002 A 
ATOM      4  C5  UNL d   1       0.940  -0.692   1.695  0.00  0.00    -0.080 A 
ATOM      5  C6  UNL d   1       2.098   0.141   1.234  0.00  0.00     0.076 C 
ATOM      6  C7  UNL d   1       0.674  -1.921   1.080  0.00  0.00     0.002 A 
ATOM      7  C8  UNL d   1      -0.418  -2.693   1.482  0.00  0.00     0.006 A 
ENDROOT
BRANCH   1   8
ATOM      8  C1  UNL d   1      -2.474  -3.056   2.898  0.00  0.00     0.054 C 
ATOM      9  C   UNL d   1      -3.553  -2.980   1.827  0.00  0.00     0.018 C 
ENDBRANCH   1   8
TORSDOF 1
ENDMDL
