MODEL 1
REMARK minimizedAffinity 5.93686819
REMARK minimizedRMSD -1
REMARK  1 active torsions:
REMARK  status: ('A' for Active; 'I' for Inactive)
REMARK    1  A    between atoms: C1_2  and  C2_3 
ROOT
ATOM      1  C2  UNL d   1      -4.066  -4.258   1.451  0.00  0.00    -0.081 A 
ATOM      2  C3  UNL d   1      -3.394  -4.013   2.655  0.00  0.00     0.006 A 
ATOM      3  C4  UNL d   1      -4.018  -4.267   3.879  0.00  0.00     0.002 A 
ATOM      4  C5  UNL d   1      -5.320  -4.778   3.919  0.00  0.00    -0.080 A 
ATOM      5  C6  UNL d   1      -5.990  -5.084   5.226  0.00  0.00     0.076 C 
ATOM      6  C7  UNL d   1      -5.997  -5.007   2.717  0.00  0.00     0.002 A 
ATOM      7  C8  UNL d   1      -5.374  -4.752   1.493  0.00  0.00     0.006 A 
ENDROOT
BRANCH   1   8
ATOM      8  C1  UNL d   1      -3.372  -4.046   0.130  0.00  0.00     0.054 C 
ATOM      9  C   UNL d   1      -3.759  -5.120  -0.877  0.00  0.00     0.018 C 
ENDBRANCH   1   8
TORSDOF 1
ENDMDL
