MODEL 1
REMARK minimizedAffinity 1.13274455
REMARK minimizedRMSD -1
REMARK  1 active torsions:
REMARK  status: ('A' for Active; 'I' for Inactive)
REMARK    1  A    between atoms: C1_2  and  C2_3 
ROOT
ATOM      1  C2  UNL d   1      -4.592  -4.251   3.253  0.00  0.00    -0.081 A 
ATOM      2  C3  UNL d   1      -4.426  -3.296   2.243  0.00  0.00     0.006 A 
ATOM      3  C4  UNL d   1      -4.120  -3.691   0.939  0.00  0.00     0.002 A 
ATOM      4  C5  UNL d   1      -3.984  -5.046   0.621  0.00  0.00    -0.080 A 
ATOM      5  C6  UNL d   1      -3.686  -5.485  -0.782  0.00  0.00     0.076 C 
ATOM      6  C7  UNL d   1      -4.133  -6.000   1.633  0.00  0.00     0.002 A 
ATOM      7  C8  UNL d   1      -4.438  -5.606   2.938  0.00  0.00     0.006 A 
ENDROOT
BRANCH   1   8
ATOM      8  C1  UNL d   1      -4.985  -3.833   4.647  0.00  0.00     0.054 C 
ATOM      9  C   UNL d   1      -6.000  -4.795   5.248  0.00  0.00     0.018 C 
ENDBRANCH   1   8
TORSDOF 1
ENDMDL
