MODEL 1
REMARK minimizedAffinity -0.186552063
REMARK minimizedRMSD -1
REMARK  1 active torsions:
REMARK  status: ('A' for Active; 'I' for Inactive)
REMARK    1  A    between atoms: C1_2  and  C2_3 
ROOT
ATOM      1  C2  UNL d   1      -4.900  -4.525   1.846  0.00  0.00    -0.081 A 
ATOM      2  C3  UNL d   1      -5.778  -5.557   2.197  0.00  0.00     0.006 A 
ATOM      3  C4  UNL d   1      -6.000  -5.872   3.540  0.00  0.00     0.002 A 
ATOM      4  C5  UNL d   1      -5.355  -5.154   4.553  0.00  0.00    -0.080 A 
ATOM      5  C6  UNL d   1      -5.607  -5.461   5.999  0.00  0.00     0.076 C 
ATOM      6  C7  UNL d   1      -4.464  -4.134   4.202  0.00  0.00     0.002 A 
ATOM      7  C8  UNL d   1      -4.242  -3.820   2.859  0.00  0.00     0.006 A 
ENDROOT
BRANCH   1   8
ATOM      8  C1  UNL d   1      -4.708  -4.141   0.401  0.00  0.00     0.054 C 
ATOM      9  C   UNL d   1      -4.863  -5.345  -0.517  0.00  0.00     0.018 C 
ENDBRANCH   1   8
TORSDOF 1
ENDMDL
