MODEL 1
REMARK minimizedAffinity 17.0473862
REMARK minimizedRMSD -1
REMARK  1 active torsions:
REMARK  status: ('A' for Active; 'I' for Inactive)
REMARK    1  A    between atoms: C1_2  and  C2_3 
ROOT
ATOM      1  C2  UNL d   1      -1.050   3.230  -2.515  0.00  0.00    -0.081 A 
ATOM      2  C3  UNL d   1      -0.707   2.116  -1.739  0.00  0.00     0.006 A 
ATOM      3  C4  UNL d   1       0.318   2.201  -0.794  0.00  0.00     0.002 A 
ATOM      4  C5  UNL d   1       1.011   3.401  -0.603  0.00  0.00    -0.080 A 
ATOM      5  C6  UNL d   1       2.092   3.514   0.430  0.00  0.00     0.076 C 
ATOM      6  C7  UNL d   1       0.679   4.509  -1.390  0.00  0.00     0.002 A 
ATOM      7  C8  UNL d   1      -0.345   4.425  -2.336  0.00  0.00     0.006 A 
ENDROOT
BRANCH   1   8
ATOM      8  C1  UNL d   1      -2.198   3.160  -3.490  0.00  0.00     0.054 C 
ATOM      9  C   UNL d   1      -1.870   3.890  -4.784  0.00  0.00     0.018 C 
ENDBRANCH   1   8
TORSDOF 1
ENDMDL
