MODEL 1
REMARK minimizedAffinity 3.14839435
REMARK minimizedRMSD -1
REMARK  0 active torsions:
REMARK  status: ('A' for Active; 'I' for Inactive)
ROOT
ATOM      1  N1  IND d   1       1.093  -1.026   3.572  0.00  0.00    -0.196 N 
ATOM      2  C2  IND d   1       1.910  -0.486   2.618  0.00  0.00     0.054 A 
ATOM      3  C3  IND d   1       2.837  -1.389   2.226  0.00  0.00    -0.031 A 
ATOM      4  C4  IND d   1       3.134  -3.844   2.942  0.00  0.00     0.051 A 
ATOM      5  C5  IND d   1       2.651  -4.777   3.816  0.00  0.00    -0.031 A 
ATOM      6  C6  IND d   1       1.601  -4.503   4.668  0.00  0.00     0.015 A 
ATOM      7  C7  IND d   1       0.985  -3.283   4.671  0.00  0.00    -0.016 A 
ATOM      8  C8  IND d   1       1.477  -2.331   3.789  0.00  0.00    -0.047 A 
ATOM      9  C9  IND d   1       2.570  -2.590   2.952  0.00  0.00    -0.096 A 
ATOM     10  HN1 IND d   1       0.448  -0.619   3.969  0.00  0.00     0.298 HD
ENDROOT
TORSDOF 0
ENDMDL
