MODEL 1
REMARK minimizedAffinity 9.8646946
REMARK minimizedRMSD -1
REMARK  0 active torsions:
REMARK  status: ('A' for Active; 'I' for Inactive)
ROOT
ATOM      1  N1  IND d   1       0.715  -2.267   2.996  0.00  0.00    -0.196 N 
ATOM      2  C2  IND d   1       1.085  -1.109   2.370  0.00  0.00     0.054 A 
ATOM      3  C3  IND d   1       2.428  -0.960   2.411  0.00  0.00    -0.031 A 
ATOM      4  C4  IND d   1       4.221  -2.543   3.364  0.00  0.00     0.051 A 
ATOM      5  C5  IND d   1       4.367  -3.706   4.067  0.00  0.00    -0.031 A 
ATOM      6  C6  IND d   1       3.282  -4.465   4.454  0.00  0.00     0.015 A 
ATOM      7  C7  IND d   1       2.005  -4.094   4.142  0.00  0.00    -0.016 A 
ATOM      8  C8  IND d   1       1.852  -2.910   3.434  0.00  0.00    -0.047 A 
ATOM      9  C9  IND d   1       2.947  -2.113   3.075  0.00  0.00    -0.096 A 
ATOM     10  HN1 IND d   1      -0.091  -2.546   3.099  0.00  0.00     0.298 HD
ENDROOT
TORSDOF 0
ENDMDL
