MODEL 1
REMARK minimizedAffinity 9.64362049
REMARK minimizedRMSD -1
REMARK  0 active torsions:
REMARK  status: ('A' for Active; 'I' for Inactive)
ROOT
ATOM      1  N1  IND d   1       1.262  -1.940   1.658  0.00  0.00    -0.196 N 
ATOM      2  C2  IND d   1       1.818  -0.757   2.057  0.00  0.00     0.054 A 
ATOM      3  C3  IND d   1       2.375  -0.889   3.282  0.00  0.00    -0.031 A 
ATOM      4  C4  IND d   1       2.579  -2.981   4.769  0.00  0.00     0.051 A 
ATOM      5  C5  IND d   1       2.191  -4.289   4.847  0.00  0.00    -0.031 A 
ATOM      6  C6  IND d   1       1.462  -4.894   3.844  0.00  0.00     0.015 A 
ATOM      7  C7  IND d   1       1.101  -4.214   2.716  0.00  0.00    -0.016 A 
ATOM      8  C8  IND d   1       1.486  -2.883   2.637  0.00  0.00    -0.047 A 
ATOM      9  C9  IND d   1       2.190  -2.252   3.670  0.00  0.00    -0.096 A 
ATOM     10  HN1 IND d   1       0.842  -2.073   0.919  0.00  0.00     0.298 HD
ENDROOT
TORSDOF 0
ENDMDL
