MODEL 1
REMARK minimizedAffinity 9.96424294
REMARK minimizedRMSD -1
REMARK  0 active torsions:
REMARK  status: ('A' for Active; 'I' for Inactive)
ROOT
ATOM      1  N1  IND d   1       1.220  -1.185   1.783  0.00  0.00    -0.196 N 
ATOM      2  C2  IND d   1       1.436  -0.797   3.076  0.00  0.00     0.054 A 
ATOM      3  C3  IND d   1       1.853  -1.847   3.819  0.00  0.00    -0.031 A 
ATOM      4  C4  IND d   1       2.349  -4.267   3.096  0.00  0.00     0.051 A 
ATOM      5  C5  IND d   1       2.267  -5.109   2.023  0.00  0.00    -0.031 A 
ATOM      6  C6  IND d   1       1.825  -4.677   0.789  0.00  0.00     0.015 A 
ATOM      7  C7  IND d   1       1.458  -3.378   0.579  0.00  0.00    -0.016 A 
ATOM      8  C8  IND d   1       1.534  -2.522   1.669  0.00  0.00    -0.047 A 
ATOM      9  C9  IND d   1       1.941  -2.965   2.934  0.00  0.00    -0.096 A 
ATOM     10  HN1 IND d   1       0.936  -0.680   1.148  0.00  0.00     0.298 HD
ENDROOT
TORSDOF 0
ENDMDL
