MODEL 1
REMARK minimizedAffinity 1.59134698
REMARK minimizedRMSD -1
REMARK  0 active torsions:
REMARK  status: ('A' for Active; 'I' for Inactive)
ROOT
ATOM      1  N1  IND d   1       2.490  -5.893  -5.063  0.00  0.00    -0.196 N 
ATOM      2  C2  IND d   1       3.615  -5.896  -5.839  0.00  0.00     0.054 A 
ATOM      3  C3  IND d   1       4.722  -5.898  -5.062  0.00  0.00    -0.031 A 
ATOM      4  C4  IND d   1       4.920  -5.999  -2.497  0.00  0.00     0.051 A 
ATOM      5  C5  IND d   1       4.167  -5.974  -1.357  0.00  0.00    -0.031 A 
ATOM      6  C6  IND d   1       2.789  -5.923  -1.394  0.00  0.00     0.015 A 
ATOM      7  C7  IND d   1       2.109  -5.906  -2.579  0.00  0.00    -0.016 A 
ATOM      8  C8  IND d   1       2.870  -5.923  -3.739  0.00  0.00    -0.047 A 
ATOM      9  C9  IND d   1       4.270  -5.933  -3.707  0.00  0.00    -0.096 A 
ATOM     10  HN1 IND d   1       1.680  -5.875  -5.352  0.00  0.00     0.298 HD
ENDROOT
TORSDOF 0
ENDMDL
