MODEL 1
REMARK minimizedAffinity 6.18272018
REMARK minimizedRMSD -1
REMARK  0 active torsions:
REMARK  status: ('A' for Active; 'I' for Inactive)
ROOT
ATOM      1  N1  IND d   1       0.745  -2.228   2.747  0.00  0.00    -0.196 N 
ATOM      2  C2  IND d   1       1.064  -1.140   1.984  0.00  0.00     0.054 A 
ATOM      3  C3  IND d   1       2.401  -0.939   1.987  0.00  0.00    -0.031 A 
ATOM      4  C4  IND d   1       4.262  -2.334   3.091  0.00  0.00     0.051 A 
ATOM      5  C5  IND d   1       4.459  -3.401   3.922  0.00  0.00    -0.031 A 
ATOM      6  C6  IND d   1       3.408  -4.148   4.413  0.00  0.00     0.015 A 
ATOM      7  C7  IND d   1       2.114  -3.861   4.079  0.00  0.00    -0.016 A 
ATOM      8  C8  IND d   1       1.909  -2.775   3.240  0.00  0.00    -0.047 A 
ATOM      9  C9  IND d   1       2.970  -1.987   2.774  0.00  0.00    -0.096 A 
ATOM     10  HN1 IND d   1      -0.050  -2.522   2.894  0.00  0.00     0.298 HD
ENDROOT
TORSDOF 0
ENDMDL
