MODEL 1
REMARK minimizedAffinity -1.53368962
REMARK minimizedRMSD -1
REMARK  0 active torsions:
REMARK  status: ('A' for Active; 'I' for Inactive)
ROOT
ATOM      1  N1  IND d   1       3.149  -5.910  -1.621  0.00  0.00    -0.196 N 
ATOM      2  C2  IND d   1       4.493  -5.924  -1.369  0.00  0.00     0.054 A 
ATOM      3  C3  IND d   1       5.188  -5.986  -2.527  0.00  0.00    -0.031 A 
ATOM      4  C4  IND d   1       4.329  -5.968  -4.953  0.00  0.00     0.051 A 
ATOM      5  C5  IND d   1       3.177  -5.999  -5.688  0.00  0.00    -0.031 A 
ATOM      6  C6  IND d   1       1.932  -5.999  -5.093  0.00  0.00     0.015 A 
ATOM      7  C7  IND d   1       1.792  -5.957  -3.735  0.00  0.00    -0.016 A 
ATOM      8  C8  IND d   1       2.959  -5.932  -2.985  0.00  0.00    -0.047 A 
ATOM      9  C9  IND d   1       4.225  -5.975  -3.582  0.00  0.00    -0.096 A 
ATOM     10  HN1 IND d   1       2.528  -5.890  -1.027  0.00  0.00     0.298 HD
ENDROOT
TORSDOF 0
ENDMDL
