MODEL 1
REMARK minimizedAffinity 4.12623119
REMARK minimizedRMSD -1
REMARK  0 active torsions:
REMARK  status: ('A' for Active; 'I' for Inactive)
ROOT
ATOM      1  N1  IND d   1       0.223  -5.185   5.169  0.00  0.00    -0.196 N 
ATOM      2  C2  IND d   1       0.942  -6.000   5.999  0.00  0.00     0.054 A 
ATOM      3  C3  IND d   1       2.248  -5.650   5.986  0.00  0.00    -0.031 A 
ATOM      4  C4  IND d   1       3.409  -3.709   4.756  0.00  0.00     0.051 A 
ATOM      5  C5  IND d   1       3.174  -2.714   3.850  0.00  0.00    -0.031 A 
ATOM      6  C6  IND d   1       1.916  -2.485   3.329  0.00  0.00     0.015 A 
ATOM      7  C7  IND d   1       0.841  -3.239   3.705  0.00  0.00    -0.016 A 
ATOM      8  C8  IND d   1       1.078  -4.255   4.619  0.00  0.00    -0.047 A 
ATOM      9  C9  IND d   1       2.360  -4.520   5.119  0.00  0.00    -0.096 A 
ATOM     10  HN1 IND d   1      -0.621  -5.244   5.016  0.00  0.00     0.298 HD
ENDROOT
TORSDOF 0
ENDMDL
