MODEL 1
REMARK minimizedAffinity -1.09429741
REMARK minimizedRMSD -1
REMARK  0 active torsions:
REMARK  status: ('A' for Active; 'I' for Inactive)
ROOT
ATOM      1  C   UNL d   1       0.635   2.996   1.480  0.00  0.00     0.077 C 
ATOM      2  C1  UNL d   1       0.895   1.747   0.691  0.00  0.00    -0.074 A 
ATOM      3  C2  UNL d   1       2.007   1.648  -0.151  0.00  0.00    -0.005 A 
ATOM      4  C3  UNL d   1       2.241   0.477  -0.872  0.00  0.00     0.006 A 
ATOM      5  C4  UNL d   1       1.367  -0.605  -0.758  0.00  0.00    -0.005 A 
ATOM      6  C5  UNL d   1       0.250  -0.524   0.080  0.00  0.00    -0.074 A 
ATOM      7  C6  UNL d   1      -0.694  -1.681   0.222  0.00  0.00     0.077 C 
ATOM      8  C7  UNL d   1       0.026   0.653   0.806  0.00  0.00    -0.001 A 
ENDROOT
TORSDOF 0
ENDMDL
