MODEL 1
REMARK minimizedAffinity -2.48961926
REMARK minimizedRMSD -1
REMARK  0 active torsions:
REMARK  status: ('A' for Active; 'I' for Inactive)
ROOT
ATOM      1  C   UNL d   1      -0.534   3.486  -1.210  0.00  0.00     0.077 C 
ATOM      2  C1  UNL d   1      -0.101   2.601  -0.078  0.00  0.00    -0.074 A 
ATOM      3  C2  UNL d   1       0.679   3.103   0.968  0.00  0.00    -0.005 A 
ATOM      4  C3  UNL d   1       1.066   2.270   2.019  0.00  0.00     0.006 A 
ATOM      5  C4  UNL d   1       0.678   0.930   2.033  0.00  0.00    -0.005 A 
ATOM      6  C5  UNL d   1      -0.103   0.411   0.995  0.00  0.00    -0.074 A 
ATOM      7  C6  UNL d   1      -0.537  -1.025   0.999  0.00  0.00     0.077 C 
ATOM      8  C7  UNL d   1      -0.493   1.255  -0.053  0.00  0.00    -0.001 A 
ENDROOT
TORSDOF 0
ENDMDL
