MODEL 1
REMARK minimizedAffinity -4.02599287
REMARK minimizedRMSD -1
REMARK  0 active torsions:
REMARK  status: ('A' for Active; 'I' for Inactive)
ROOT
ATOM      1  C   UNL d   1       0.548   1.261   0.242  0.00  0.00     0.077 C 
ATOM      2  C1  UNL d   1       0.033  -0.010  -0.366  0.00  0.00    -0.074 A 
ATOM      3  C2  UNL d   1       0.674  -1.230  -0.133  0.00  0.00    -0.005 A 
ATOM      4  C3  UNL d   1       0.178  -2.405  -0.697  0.00  0.00     0.006 A 
ATOM      5  C4  UNL d   1      -0.963  -2.371  -1.500  0.00  0.00    -0.005 A 
ATOM      6  C5  UNL d   1      -1.619  -1.160  -1.744  0.00  0.00    -0.074 A 
ATOM      7  C6  UNL d   1      -2.852  -1.108  -2.596  0.00  0.00     0.077 C 
ATOM      8  C7  UNL d   1      -1.118   0.015  -1.167  0.00  0.00    -0.001 A 
ENDROOT
TORSDOF 0
ENDMDL
