MODEL 1
REMARK minimizedAffinity -4.56966877
REMARK minimizedRMSD -1
REMARK  0 active torsions:
REMARK  status: ('A' for Active; 'I' for Inactive)
ROOT
ATOM      1  C   UNL d   1      -0.568  -1.475  -0.547  0.00  0.00     0.077 C 
ATOM      2  C1  UNL d   1       0.416  -0.420  -0.138  0.00  0.00    -0.074 A 
ATOM      3  C2  UNL d   1       1.756  -0.495  -0.532  0.00  0.00    -0.005 A 
ATOM      4  C3  UNL d   1       2.658   0.499  -0.152  0.00  0.00     0.006 A 
ATOM      5  C4  UNL d   1       2.229   1.577   0.625  0.00  0.00    -0.005 A 
ATOM      6  C5  UNL d   1       0.893   1.669   1.027  0.00  0.00    -0.074 A 
ATOM      7  C6  UNL d   1       0.414   2.826   1.853  0.00  0.00     0.077 C 
ATOM      8  C7  UNL d   1      -0.008   0.670   0.635  0.00  0.00    -0.001 A 
ENDROOT
TORSDOF 0
ENDMDL
