MODEL 1
REMARK minimizedAffinity -3.30203319
REMARK minimizedRMSD -1
REMARK  0 active torsions:
REMARK  status: ('A' for Active; 'I' for Inactive)
ROOT
ATOM      1  C   UNL d   1      -0.633  -0.572  -0.908  0.00  0.00     0.077 C 
ATOM      2  C1  UNL d   1       0.102   0.471  -0.120  0.00  0.00    -0.074 A 
ATOM      3  C2  UNL d   1       0.737   1.540  -0.761  0.00  0.00    -0.005 A 
ATOM      4  C3  UNL d   1       1.409   2.509  -0.014  0.00  0.00     0.006 A 
ATOM      5  C4  UNL d   1       1.451   2.418   1.378  0.00  0.00    -0.005 A 
ATOM      6  C5  UNL d   1       0.821   1.357   2.035  0.00  0.00    -0.074 A 
ATOM      7  C6  UNL d   1       0.849   1.251   3.531  0.00  0.00     0.077 C 
ATOM      8  C7  UNL d   1       0.142   0.392   1.279  0.00  0.00    -0.001 A 
ENDROOT
TORSDOF 0
ENDMDL
