MODEL 1
REMARK minimizedAffinity -5.36908293
REMARK minimizedRMSD -1
REMARK  0 active torsions:
REMARK  status: ('A' for Active; 'I' for Inactive)
ROOT
ATOM      1  C   UNL d   1       1.506   3.029   1.208  0.00  0.00     0.077 C 
ATOM      2  C1  UNL d   1       0.933   1.689   0.853  0.00  0.00    -0.074 A 
ATOM      3  C2  UNL d   1       1.591   0.841  -0.043  0.00  0.00    -0.005 A 
ATOM      4  C3  UNL d   1       1.050  -0.407  -0.356  0.00  0.00     0.006 A 
ATOM      5  C4  UNL d   1      -0.151  -0.817   0.223  0.00  0.00    -0.005 A 
ATOM      6  C5  UNL d   1      -0.823   0.018   1.122  0.00  0.00    -0.074 A 
ATOM      7  C6  UNL d   1      -2.110  -0.412   1.761  0.00  0.00     0.077 C 
ATOM      8  C7  UNL d   1      -0.269   1.267   1.437  0.00  0.00    -0.001 A 
ENDROOT
TORSDOF 0
ENDMDL
