MODEL 1
REMARK minimizedAffinity -3.30669808
REMARK minimizedRMSD -1
REMARK  0 active torsions:
REMARK  status: ('A' for Active; 'I' for Inactive)
ROOT
ATOM      1  C   UNL d   1      -1.566  -1.112  -0.783  0.00  0.00     0.077 C 
ATOM      2  C1  UNL d   1      -0.174  -0.635  -0.492  0.00  0.00    -0.074 A 
ATOM      3  C2  UNL d   1       0.891  -1.538  -0.404  0.00  0.00    -0.005 A 
ATOM      4  C3  UNL d   1       2.182  -1.078  -0.142  0.00  0.00     0.006 A 
ATOM      5  C4  UNL d   1       2.420   0.285   0.035  0.00  0.00    -0.005 A 
ATOM      6  C5  UNL d   1       1.368   1.202  -0.050  0.00  0.00    -0.074 A 
ATOM      7  C6  UNL d   1       1.609   2.672   0.127  0.00  0.00     0.077 C 
ATOM      8  C7  UNL d   1       0.075   0.734  -0.321  0.00  0.00    -0.001 A 
ENDROOT
TORSDOF 0
ENDMDL
