MODEL 1
REMARK minimizedAffinity -4.76661158
REMARK minimizedRMSD -1
REMARK  0 active torsions:
REMARK  status: ('A' for Active; 'I' for Inactive)
ROOT
ATOM      1  C   UNL d   1       2.128   1.721  -0.923  0.00  0.00     0.077 C 
ATOM      2  C1  UNL d   1       1.959   1.651   0.565  0.00  0.00    -0.074 A 
ATOM      3  C2  UNL d   1       0.809   2.153   1.183  0.00  0.00    -0.005 A 
ATOM      4  C3  UNL d   1       0.662   2.072   2.568  0.00  0.00     0.006 A 
ATOM      5  C4  UNL d   1       1.662   1.489   3.348  0.00  0.00    -0.005 A 
ATOM      6  C5  UNL d   1       2.819   0.982   2.748  0.00  0.00    -0.074 A 
ATOM      7  C6  UNL d   1       3.899   0.344   3.570  0.00  0.00     0.077 C 
ATOM      8  C7  UNL d   1       2.956   1.060   1.355  0.00  0.00    -0.001 A 
ENDROOT
TORSDOF 0
ENDMDL
