MODEL 1
REMARK minimizedAffinity -4.80469275
REMARK minimizedRMSD -1
REMARK  0 active torsions:
REMARK  status: ('A' for Active; 'I' for Inactive)
ROOT
ATOM      1  C   UNL d   1       2.623  -0.722  -1.254  0.00  0.00     0.077 C 
ATOM      2  C1  UNL d   1       1.534  -0.143  -0.401  0.00  0.00    -0.074 A 
ATOM      3  C2  UNL d   1       0.388  -0.884  -0.096  0.00  0.00    -0.005 A 
ATOM      4  C3  UNL d   1      -0.612  -0.335   0.706  0.00  0.00     0.006 A 
ATOM      5  C4  UNL d   1      -0.477   0.958   1.211  0.00  0.00    -0.005 A 
ATOM      6  C5  UNL d   1       0.662   1.715   0.918  0.00  0.00    -0.074 A 
ATOM      7  C6  UNL d   1       0.827   3.103   1.460  0.00  0.00     0.077 C 
ATOM      8  C7  UNL d   1       1.666   1.154   0.117  0.00  0.00    -0.001 A 
ENDROOT
TORSDOF 0
ENDMDL
