MODEL 1
REMARK minimizedAffinity -1.53519344
REMARK minimizedRMSD -1
REMARK  0 active torsions:
REMARK  status: ('A' for Active; 'I' for Inactive)
ROOT
ATOM      1  C   UNL d   1       1.985  -1.009  -0.913  0.00  0.00     0.077 C 
ATOM      2  C1  UNL d   1       1.485   0.181  -0.149  0.00  0.00    -0.074 A 
ATOM      3  C2  UNL d   1       2.072   1.440  -0.315  0.00  0.00    -0.005 A 
ATOM      4  C3  UNL d   1       1.591   2.539   0.396  0.00  0.00     0.006 A 
ATOM      5  C4  UNL d   1       0.519   2.392   1.277  0.00  0.00    -0.005 A 
ATOM      6  C5  UNL d   1      -0.081   1.141   1.455  0.00  0.00    -0.074 A 
ATOM      7  C6  UNL d   1      -1.240   0.968   2.391  0.00  0.00     0.077 C 
ATOM      8  C7  UNL d   1       0.404   0.043   0.733  0.00  0.00    -0.001 A 
ENDROOT
TORSDOF 0
ENDMDL
