MODEL 1
REMARK minimizedAffinity -0.925444782
REMARK minimizedRMSD -1
REMARK  0 active torsions:
REMARK  status: ('A' for Active; 'I' for Inactive)
ROOT
ATOM      1  C   UNL d   1       2.706  -1.679  -1.823  0.00  0.00     0.077 C 
ATOM      2  C1  UNL d   1       1.778  -0.868  -0.968  0.00  0.00    -0.074 A 
ATOM      3  C2  UNL d   1       0.735  -1.476  -0.262  0.00  0.00    -0.005 A 
ATOM      4  C3  UNL d   1      -0.115  -0.710   0.536  0.00  0.00     0.006 A 
ATOM      5  C4  UNL d   1       0.069   0.669   0.636  0.00  0.00    -0.005 A 
ATOM      6  C5  UNL d   1       1.107   1.295  -0.062  0.00  0.00    -0.074 A 
ATOM      7  C6  UNL d   1       1.325   2.775   0.042  0.00  0.00     0.077 C 
ATOM      8  C7  UNL d   1       1.961   0.518  -0.857  0.00  0.00    -0.001 A 
ENDROOT
TORSDOF 0
ENDMDL
