MODEL 1
REMARK minimizedAffinity -2.77657795
REMARK minimizedRMSD -1
REMARK  0 active torsions:
REMARK  status: ('A' for Active; 'I' for Inactive)
ROOT
ATOM      1  C   UNL d   1       0.582   3.273   0.725  0.00  0.00     0.077 C 
ATOM      2  C1  UNL d   1       0.232   1.817   0.643  0.00  0.00    -0.074 A 
ATOM      3  C2  UNL d   1       0.272   1.003   1.779  0.00  0.00    -0.005 A 
ATOM      4  C3  UNL d   1      -0.065  -0.347   1.689  0.00  0.00     0.006 A 
ATOM      5  C4  UNL d   1      -0.444  -0.897   0.464  0.00  0.00    -0.005 A 
ATOM      6  C5  UNL d   1      -0.490  -0.098  -0.683  0.00  0.00    -0.074 A 
ATOM      7  C6  UNL d   1      -0.905  -0.670  -2.006  0.00  0.00     0.077 C 
ATOM      8  C7  UNL d   1      -0.157   1.260  -0.583  0.00  0.00    -0.001 A 
ENDROOT
TORSDOF 0
ENDMDL
