MODEL 1
REMARK minimizedAffinity -2.47724009
REMARK minimizedRMSD -1
REMARK  0 active torsions:
REMARK  status: ('A' for Active; 'I' for Inactive)
ROOT
ATOM      1  C   UNL d   1      -0.166   1.597   0.752  0.00  0.00     0.077 C 
ATOM      2  C1  UNL d   1      -0.494   0.371  -0.047  0.00  0.00    -0.074 A 
ATOM      3  C2  UNL d   1      -0.183  -0.905   0.434  0.00  0.00    -0.005 A 
ATOM      4  C3  UNL d   1      -0.502  -2.037  -0.316  0.00  0.00     0.006 A 
ATOM      5  C4  UNL d   1      -1.135  -1.905  -1.552  0.00  0.00    -0.005 A 
ATOM      6  C5  UNL d   1      -1.455  -0.638  -2.049  0.00  0.00    -0.074 A 
ATOM      7  C6  UNL d   1      -2.144  -0.478  -3.372  0.00  0.00     0.077 C 
ATOM      8  C7  UNL d   1      -1.137   0.495  -1.287  0.00  0.00    -0.001 A 
ENDROOT
TORSDOF 0
ENDMDL
