MODEL 1
REMARK minimizedAffinity -5.1980505
REMARK minimizedRMSD -1
REMARK  0 active torsions:
REMARK  status: ('A' for Active; 'I' for Inactive)
ROOT
ATOM      1  C   UNL d   1      -2.170  -1.098   2.258  0.00  0.00     0.077 C 
ATOM      2  C1  UNL d   1      -1.059  -0.590   1.388  0.00  0.00    -0.074 A 
ATOM      3  C2  UNL d   1      -0.572  -1.357   0.325  0.00  0.00    -0.005 A 
ATOM      4  C3  UNL d   1       0.456  -0.867  -0.482  0.00  0.00     0.006 A 
ATOM      5  C4  UNL d   1       1.005   0.392  -0.233  0.00  0.00    -0.005 A 
ATOM      6  C5  UNL d   1       0.529   1.172   0.825  0.00  0.00    -0.074 A 
ATOM      7  C6  UNL d   1       1.102   2.531   1.100  0.00  0.00     0.077 C 
ATOM      8  C7  UNL d   1      -0.508   0.676   1.627  0.00  0.00    -0.001 A 
ENDROOT
TORSDOF 0
ENDMDL
