MODEL 1
REMARK minimizedAffinity -3.85730934
REMARK minimizedRMSD -1
REMARK  0 active torsions:
REMARK  status: ('A' for Active; 'I' for Inactive)
ROOT
ATOM      1  C   UNL d   1      -2.069  -0.931  -1.464  0.00  0.00     0.077 C 
ATOM      2  C1  UNL d   1      -0.778  -0.647  -0.755  0.00  0.00    -0.074 A 
ATOM      3  C2  UNL d   1       0.275  -1.567  -0.782  0.00  0.00    -0.005 A 
ATOM      4  C3  UNL d   1       1.473  -1.284  -0.126  0.00  0.00     0.006 A 
ATOM      5  C4  UNL d   1       1.630  -0.081   0.564  0.00  0.00    -0.005 A 
ATOM      6  C5  UNL d   1       0.588   0.851   0.602  0.00  0.00    -0.074 A 
ATOM      7  C6  UNL d   1       0.743   2.153   1.330  0.00  0.00     0.077 C 
ATOM      8  C7  UNL d   1      -0.610   0.563  -0.066  0.00  0.00    -0.001 A 
ENDROOT
TORSDOF 0
ENDMDL
