MODEL 1
REMARK minimizedAffinity -4.26792383
REMARK minimizedRMSD -1
REMARK  0 active torsions:
REMARK  status: ('A' for Active; 'I' for Inactive)
ROOT
ATOM      1  C   UNL d   1       1.124   3.293   0.761  0.00  0.00     0.077 C 
ATOM      2  C1  UNL d   1       1.323   1.868   0.338  0.00  0.00    -0.074 A 
ATOM      3  C2  UNL d   1       2.419   1.497  -0.447  0.00  0.00    -0.005 A 
ATOM      4  C3  UNL d   1       2.596   0.166  -0.825  0.00  0.00     0.006 A 
ATOM      5  C4  UNL d   1       1.681  -0.806  -0.421  0.00  0.00    -0.005 A 
ATOM      6  C5  UNL d   1       0.579  -0.455   0.365  0.00  0.00    -0.074 A 
ATOM      7  C6  UNL d   1      -0.408  -1.490   0.816  0.00  0.00     0.077 C 
ATOM      8  C7  UNL d   1       0.412   0.883   0.746  0.00  0.00    -0.001 A 
ENDROOT
TORSDOF 0
ENDMDL
