MODEL 1
REMARK minimizedAffinity -5.27852488
REMARK minimizedRMSD -1
REMARK  0 active torsions:
REMARK  status: ('A' for Active; 'I' for Inactive)
ROOT
ATOM      1  C   UNL d   1       0.979   3.094   0.953  0.00  0.00     0.077 C 
ATOM      2  C1  UNL d   1       0.694   1.651   0.660  0.00  0.00    -0.074 A 
ATOM      3  C2  UNL d   1       1.503   0.923  -0.219  0.00  0.00    -0.005 A 
ATOM      4  C3  UNL d   1       1.231  -0.421  -0.475  0.00  0.00     0.006 A 
ATOM      5  C4  UNL d   1       0.149  -1.049   0.144  0.00  0.00    -0.005 A 
ATOM      6  C5  UNL d   1      -0.670  -0.337   1.026  0.00  0.00    -0.074 A 
ATOM      7  C6  UNL d   1      -1.830  -1.000   1.707  0.00  0.00     0.077 C 
ATOM      8  C7  UNL d   1      -0.386   1.011   1.284  0.00  0.00    -0.001 A 
ENDROOT
TORSDOF 0
ENDMDL
