MODEL 1
REMARK minimizedAffinity -4.92384148
REMARK minimizedRMSD -1
REMARK  0 active torsions:
REMARK  status: ('A' for Active; 'I' for Inactive)
ROOT
ATOM      1  C   UNL d   1      -1.312   0.172   2.093  0.00  0.00     0.077 C 
ATOM      2  C1  UNL d   1      -0.132   0.666   1.310  0.00  0.00    -0.074 A 
ATOM      3  C2  UNL d   1       0.086   2.035   1.125  0.00  0.00    -0.005 A 
ATOM      4  C3  UNL d   1       1.193   2.481   0.404  0.00  0.00     0.006 A 
ATOM      5  C4  UNL d   1       2.093   1.563  -0.140  0.00  0.00    -0.005 A 
ATOM      6  C5  UNL d   1       1.892   0.190   0.036  0.00  0.00    -0.074 A 
ATOM      7  C6  UNL d   1       2.855  -0.810  -0.533  0.00  0.00     0.077 C 
ATOM      8  C7  UNL d   1       0.781  -0.249   0.768  0.00  0.00    -0.001 A 
ENDROOT
TORSDOF 0
ENDMDL
