MODEL 1
REMARK minimizedAffinity 7.46570969
REMARK minimizedRMSD -1
REMARK  0 active torsions:
REMARK  status: ('A' for Active; 'I' for Inactive)
ROOT
ATOM      1  C   UNL d   1       4.960   0.350   1.316  0.00  0.00     0.023 A 
ATOM      2  C1  UNL d   1       4.326   1.277   0.489  0.00  0.00     0.003 A 
ATOM      3  C2  UNL d   1       3.012   1.668   0.754  0.00  0.00     0.048 A 
ATOM      4  C3  UNL d   1       2.338   1.129   1.850  0.00  0.00     0.023 A 
ATOM      5  C4  UNL d   1       2.969   0.202   2.681  0.00  0.00     0.048 A 
ATOM      6  C5  UNL d   1       4.283  -0.187   2.411  0.00  0.00     0.003 A 
ATOM      7  I   UNL d   1       0.383   1.710   2.247  0.00  0.00    -0.146 I 
ENDROOT
TORSDOF 0
ENDMDL
