MODEL 1
REMARK minimizedAffinity -0.438787133
REMARK minimizedRMSD -1
REMARK  0 active torsions:
REMARK  status: ('A' for Active; 'I' for Inactive)
ROOT
ATOM      1  C   UNL d   1      -5.097   3.199   2.074  0.00  0.00     0.023 A 
ATOM      2  C1  UNL d   1      -4.656   2.785   3.331  0.00  0.00     0.003 A 
ATOM      3  C2  UNL d   1      -4.885   3.587   4.452  0.00  0.00     0.048 A 
ATOM      4  C3  UNL d   1      -5.556   4.801   4.308  0.00  0.00     0.023 A 
ATOM      5  C4  UNL d   1      -6.000   5.219   3.052  0.00  0.00     0.048 A 
ATOM      6  C5  UNL d   1      -5.768   4.414   1.935  0.00  0.00     0.003 A 
ATOM      7  I   UNL d   1      -5.898   5.996   5.974  0.00  0.00    -0.146 I 
ENDROOT
TORSDOF 0
ENDMDL
