MODEL 1
REMARK minimizedAffinity 14.4946651
REMARK minimizedRMSD -1
REMARK  0 active torsions:
REMARK  status: ('A' for Active; 'I' for Inactive)
ROOT
ATOM      1  C   UNL d   1      -5.973  -3.751  -2.994  0.00  0.00     0.023 A 
ATOM      2  C1  UNL d   1      -4.797  -3.001  -2.972  0.00  0.00     0.003 A 
ATOM      3  C2  UNL d   1      -3.558  -3.644  -2.938  0.00  0.00     0.048 A 
ATOM      4  C3  UNL d   1      -3.503  -5.038  -2.927  0.00  0.00     0.023 A 
ATOM      5  C4  UNL d   1      -4.677  -5.792  -2.950  0.00  0.00     0.048 A 
ATOM      6  C5  UNL d   1      -5.913  -5.144  -2.984  0.00  0.00     0.003 A 
ATOM      7  I   UNL d   1      -1.660  -5.998  -2.876  0.00  0.00    -0.146 I 
ENDROOT
TORSDOF 0
ENDMDL
