MODEL 1
REMARK minimizedAffinity 20.6054649
REMARK minimizedRMSD -1
REMARK  0 active torsions:
REMARK  status: ('A' for Active; 'I' for Inactive)
ROOT
ATOM      1  C   UNL d   1      -4.074   1.469   2.741  0.00  0.00     0.023 A 
ATOM      2  C1  UNL d   1      -3.159   2.488   3.001  0.00  0.00     0.003 A 
ATOM      3  C2  UNL d   1      -1.859   2.175   3.404  0.00  0.00     0.048 A 
ATOM      4  C3  UNL d   1      -1.481   0.841   3.544  0.00  0.00     0.023 A 
ATOM      5  C4  UNL d   1      -2.393  -0.183   3.284  0.00  0.00     0.048 A 
ATOM      6  C5  UNL d   1      -3.692   0.134   2.882  0.00  0.00     0.003 A 
ATOM      7  I   UNL d   1       0.454   0.372   4.143  0.00  0.00    -0.146 I 
ENDROOT
TORSDOF 0
ENDMDL
