MODEL 1
REMARK minimizedAffinity 8.304389
REMARK minimizedRMSD -1
REMARK  0 active torsions:
REMARK  status: ('A' for Active; 'I' for Inactive)
ROOT
ATOM      1  C   UNL d   1       5.131   5.981   3.071  0.00  0.00     0.023 A 
ATOM      2  C1  UNL d   1       5.619   4.766   3.552  0.00  0.00     0.003 A 
ATOM      3  C2  UNL d   1       5.049   3.564   3.125  0.00  0.00     0.048 A 
ATOM      4  C3  UNL d   1       3.991   3.586   2.217  0.00  0.00     0.023 A 
ATOM      5  C4  UNL d   1       3.500   4.799   1.732  0.00  0.00     0.048 A 
ATOM      6  C5  UNL d   1       4.073   5.997   2.162  0.00  0.00     0.003 A 
ATOM      7  I   UNL d   1       3.141   1.799   1.580  0.00  0.00    -0.146 I 
ENDROOT
TORSDOF 0
ENDMDL
