MODEL 1
REMARK minimizedAffinity 16.8139744
REMARK minimizedRMSD -1
REMARK  0 active torsions:
REMARK  status: ('A' for Active; 'I' for Inactive)
ROOT
ATOM      1  C   UNL d   1      -4.383  -4.752  -1.869  0.00  0.00     0.023 A 
ATOM      2  C1  UNL d   1      -3.769  -3.556  -2.244  0.00  0.00     0.003 A 
ATOM      3  C2  UNL d   1      -2.568  -3.579  -2.955  0.00  0.00     0.048 A 
ATOM      4  C3  UNL d   1      -1.985  -4.801  -3.289  0.00  0.00     0.023 A 
ATOM      5  C4  UNL d   1      -2.596  -6.000  -2.917  0.00  0.00     0.048 A 
ATOM      6  C5  UNL d   1      -3.797  -5.972  -2.206  0.00  0.00     0.003 A 
ATOM      7  I   UNL d   1      -0.197  -4.837  -4.347  0.00  0.00    -0.146 I 
ENDROOT
TORSDOF 0
ENDMDL
