MODEL 1
REMARK minimizedAffinity 3.79177094
REMARK minimizedRMSD -1
REMARK  0 active torsions:
REMARK  status: ('A' for Active; 'I' for Inactive)
ROOT
ATOM      1  C   UNL d   1       1.948   4.316  -3.765  0.00  0.00     0.023 A 
ATOM      2  C1  UNL d   1       3.206   3.835  -3.403  0.00  0.00     0.003 A 
ATOM      3  C2  UNL d   1       4.350   4.317  -4.043  0.00  0.00     0.048 A 
ATOM      4  C3  UNL d   1       4.228   5.281  -5.043  0.00  0.00     0.023 A 
ATOM      5  C4  UNL d   1       2.971   5.766  -5.408  0.00  0.00     0.048 A 
ATOM      6  C5  UNL d   1       1.830   5.280  -4.766  0.00  0.00     0.003 A 
ATOM      7  I   UNL d   1       5.929   6.000  -5.996  0.00  0.00    -0.146 I 
ENDROOT
TORSDOF 0
ENDMDL
