MODEL 1
REMARK minimizedAffinity 9.89561653
REMARK minimizedRMSD -1
REMARK  0 active torsions:
REMARK  status: ('A' for Active; 'I' for Inactive)
ROOT
ATOM      1  C   UNL d   1       2.313   1.622   1.646  0.00  0.00     0.023 A 
ATOM      2  C1  UNL d   1       2.410   0.759   0.555  0.00  0.00     0.003 A 
ATOM      3  C2  UNL d   1       1.518  -0.308   0.425  0.00  0.00     0.048 A 
ATOM      4  C3  UNL d   1       0.531  -0.504   1.390  0.00  0.00     0.023 A 
ATOM      5  C4  UNL d   1       0.429   0.358   2.483  0.00  0.00     0.048 A 
ATOM      6  C5  UNL d   1       1.324   1.422   2.609  0.00  0.00     0.003 A 
ATOM      7  I   UNL d   1      -0.799  -2.091   1.199  0.00  0.00    -0.146 I 
ENDROOT
TORSDOF 0
ENDMDL
