MODEL 1
REMARK minimizedAffinity 5.63283205
REMARK minimizedRMSD -1
REMARK  0 active torsions:
REMARK  status: ('A' for Active; 'I' for Inactive)
ROOT
ATOM      1  C   UNL d   1       1.309   4.151   1.410  0.00  0.00     0.023 A 
ATOM      2  C1  UNL d   1       2.457   3.366   1.295  0.00  0.00     0.003 A 
ATOM      3  C2  UNL d   1       3.703   3.895   1.635  0.00  0.00     0.048 A 
ATOM      4  C3  UNL d   1       3.795   5.209   2.091  0.00  0.00     0.023 A 
ATOM      5  C4  UNL d   1       2.650   5.998   2.208  0.00  0.00     0.048 A 
ATOM      6  C5  UNL d   1       1.406   5.465   1.866  0.00  0.00     0.003 A 
ATOM      7  I   UNL d   1       5.650   5.999   2.599  0.00  0.00    -0.146 I 
ENDROOT
TORSDOF 0
ENDMDL
