MODEL 1
REMARK minimizedAffinity -0.409945101
REMARK minimizedRMSD -1
REMARK  0 active torsions:
REMARK  status: ('A' for Active; 'I' for Inactive)
ROOT
ATOM      1  C   UNL d   1       5.244   3.960  -4.457  0.00  0.00     0.023 A 
ATOM      2  C1  UNL d   1       5.232   5.296  -4.860  0.00  0.00     0.003 A 
ATOM      3  C2  UNL d   1       4.045   5.883  -5.304  0.00  0.00     0.048 A 
ATOM      4  C3  UNL d   1       2.873   5.129  -5.340  0.00  0.00     0.023 A 
ATOM      5  C4  UNL d   1       2.879   3.792  -4.937  0.00  0.00     0.048 A 
ATOM      6  C5  UNL d   1       4.069   3.209  -4.496  0.00  0.00     0.003 A 
ATOM      7  I   UNL d   1       1.105   6.000  -6.000  0.00  0.00    -0.146 I 
ENDROOT
TORSDOF 0
ENDMDL
