MODEL 1
REMARK minimizedAffinity 16.3398209
REMARK minimizedRMSD -1
REMARK  0 active torsions:
REMARK  status: ('A' for Active; 'I' for Inactive)
ROOT
ATOM      1  C   UNL d   1       2.506   2.391   0.666  0.00  0.00     0.023 A 
ATOM      2  C1  UNL d   1       1.359   3.008   1.167  0.00  0.00     0.003 A 
ATOM      3  C2  UNL d   1       0.732   2.500   2.306  0.00  0.00     0.048 A 
ATOM      4  C3  UNL d   1       1.257   1.374   2.940  0.00  0.00     0.023 A 
ATOM      5  C4  UNL d   1       2.404   0.754   2.443  0.00  0.00     0.048 A 
ATOM      6  C5  UNL d   1       3.027   1.265   1.303  0.00  0.00     0.003 A 
ATOM      7  I   UNL d   1       0.325   0.616   4.636  0.00  0.00    -0.146 I 
ENDROOT
TORSDOF 0
ENDMDL
