MODEL 1
REMARK minimizedAffinity 15.6666708
REMARK minimizedRMSD -1
REMARK  0 active torsions:
REMARK  status: ('A' for Active; 'I' for Inactive)
ROOT
ATOM      1  C   UNL d   1       3.504   2.904  -3.853  0.00  0.00     0.023 A 
ATOM      2  C1  UNL d   1       2.934   2.245  -4.943  0.00  0.00     0.003 A 
ATOM      3  C2  UNL d   1       3.617   1.194  -5.560  0.00  0.00     0.048 A 
ATOM      4  C3  UNL d   1       4.869   0.808  -5.082  0.00  0.00     0.023 A 
ATOM      5  C4  UNL d   1       5.442   1.464  -3.991  0.00  0.00     0.048 A 
ATOM      6  C5  UNL d   1       4.756   2.514  -3.378  0.00  0.00     0.003 A 
ATOM      7  I   UNL d   1       5.887  -0.755  -5.998  0.00  0.00    -0.146 I 
ENDROOT
TORSDOF 0
ENDMDL
