MODEL 1
REMARK minimizedAffinity 8.86670208
REMARK minimizedRMSD -1
REMARK  0 active torsions:
REMARK  status: ('A' for Active; 'I' for Inactive)
ROOT
ATOM      1  C   UNL d   1      -1.362  -2.266  -2.604  0.00  0.00     0.023 A 
ATOM      2  C1  UNL d   1      -2.107  -2.392  -1.431  0.00  0.00     0.003 A 
ATOM      3  C2  UNL d   1      -3.302  -3.114  -1.436  0.00  0.00     0.048 A 
ATOM      4  C3  UNL d   1      -3.747  -3.708  -2.617  0.00  0.00     0.023 A 
ATOM      5  C4  UNL d   1      -3.004  -3.585  -3.793  0.00  0.00     0.048 A 
ATOM      6  C5  UNL d   1      -1.810  -2.861  -3.783  0.00  0.00     0.003 A 
ATOM      7  I   UNL d   1      -5.526  -4.783  -2.627  0.00  0.00    -0.146 I 
ENDROOT
TORSDOF 0
ENDMDL
