MODEL 1
REMARK minimizedAffinity 4.88379574
REMARK minimizedRMSD -1
REMARK  0 active torsions:
REMARK  status: ('A' for Active; 'I' for Inactive)
ROOT
ATOM      1  C   UNL d   1      -1.323  -2.681  -1.174  0.00  0.00     0.023 A 
ATOM      2  C1  UNL d   1      -2.312  -2.108  -1.974  0.00  0.00     0.003 A 
ATOM      3  C2  UNL d   1      -2.287  -2.292  -3.358  0.00  0.00     0.048 A 
ATOM      4  C3  UNL d   1      -1.270  -3.051  -3.936  0.00  0.00     0.023 A 
ATOM      5  C4  UNL d   1      -0.278  -3.627  -3.140  0.00  0.00     0.048 A 
ATOM      6  C5  UNL d   1      -0.307  -3.439  -1.757  0.00  0.00     0.003 A 
ATOM      7  I   UNL d   1      -1.230  -3.326  -5.995  0.00  0.00    -0.146 I 
ENDROOT
TORSDOF 0
ENDMDL
