MODEL 1
REMARK minimizedAffinity 10.5155191
REMARK minimizedRMSD -1
REMARK  0 active torsions:
REMARK  status: ('A' for Active; 'I' for Inactive)
ROOT
ATOM      1  C   UNL d   1       2.088   0.634   1.576  0.00  0.00     0.023 A 
ATOM      2  C1  UNL d   1       3.026  -0.254   1.048  0.00  0.00     0.003 A 
ATOM      3  C2  UNL d   1       3.834   0.137  -0.022  0.00  0.00     0.048 A 
ATOM      4  C3  UNL d   1       3.699   1.417  -0.558  0.00  0.00     0.023 A 
ATOM      5  C4  UNL d   1       2.762   2.309  -0.032  0.00  0.00     0.048 A 
ATOM      6  C5  UNL d   1       1.956   1.913   1.036  0.00  0.00     0.003 A 
ATOM      7  I   UNL d   1       4.901   2.002  -2.150  0.00  0.00    -0.146 I 
ENDROOT
TORSDOF 0
ENDMDL
