MODEL 1
REMARK minimizedAffinity 10.2807198
REMARK minimizedRMSD -1
REMARK  0 active torsions:
REMARK  status: ('A' for Active; 'I' for Inactive)
ROOT
ATOM      1  C   UNL d   1      -2.633  -2.543  -1.304  0.00  0.00     0.023 A 
ATOM      2  C1  UNL d   1      -1.492  -1.856  -1.718  0.00  0.00     0.003 A 
ATOM      3  C2  UNL d   1      -1.125  -1.857  -3.065  0.00  0.00     0.048 A 
ATOM      4  C3  UNL d   1      -1.904  -2.546  -3.993  0.00  0.00     0.023 A 
ATOM      5  C4  UNL d   1      -3.048  -3.235  -3.584  0.00  0.00     0.048 A 
ATOM      6  C5  UNL d   1      -3.410  -3.232  -2.235  0.00  0.00     0.003 A 
ATOM      7  I   UNL d   1      -1.361  -2.549  -5.999  0.00  0.00    -0.146 I 
ENDROOT
TORSDOF 0
ENDMDL
