MODEL 1
REMARK minimizedAffinity 8.94457817
REMARK minimizedRMSD -1
REMARK  1 active torsions:
REMARK  status: ('A' for Active; 'I' for Inactive)
REMARK    1  A    between atoms: C1_2  and  C2_3 
ROOT
ATOM      1  C2  UNL d   1      -4.526   2.245  -3.815  0.00  0.00    -0.077 A 
ATOM      2  C3  UNL d   1      -3.355   3.015  -3.842  0.00  0.00     0.002 A 
ATOM      3  C4  UNL d   1      -3.414   4.380  -4.133  0.00  0.00     0.002 A 
ATOM      4  C5  UNL d   1      -4.641   4.986  -4.395  0.00  0.00    -0.004 A 
ATOM      5  C6  UNL d   1      -5.811   4.227  -4.373  0.00  0.00     0.002 A 
ATOM      6  C7  UNL d   1      -5.754   2.863  -4.084  0.00  0.00     0.002 A 
ENDROOT
BRANCH   1   7
ATOM      7  C1  UNL d   1      -4.470   0.784  -3.453  0.00  0.00     0.055 C 
ATOM      8  C   UNL d   1      -3.880   0.579  -2.066  0.00  0.00     0.019 C 
ENDBRANCH   1   7
TORSDOF 1
ENDMDL
