MODEL 1
REMARK minimizedAffinity 4.07837677
REMARK minimizedRMSD -1
REMARK  1 active torsions:
REMARK  status: ('A' for Active; 'I' for Inactive)
REMARK    1  A    between atoms: C1_2  and  C2_3 
ROOT
ATOM      1  C2  UNL d   1       3.662  -3.705   1.643  0.00  0.00    -0.077 A 
ATOM      2  C3  UNL d   1       2.583  -3.801   0.753  0.00  0.00     0.002 A 
ATOM      3  C4  UNL d   1       1.421  -3.058   0.969  0.00  0.00     0.002 A 
ATOM      4  C5  UNL d   1       1.328  -2.212   2.072  0.00  0.00    -0.004 A 
ATOM      5  C6  UNL d   1       2.395  -2.111   2.964  0.00  0.00     0.002 A 
ATOM      6  C7  UNL d   1       3.557  -2.853   2.750  0.00  0.00     0.002 A 
ENDROOT
BRANCH   1   7
ATOM      7  C1  UNL d   1       4.935  -4.468   1.385  0.00  0.00     0.055 C 
ATOM      8  C   UNL d   1       5.497  -4.157   0.005  0.00  0.00     0.019 C 
ENDBRANCH   1   7
TORSDOF 1
ENDMDL
