MODEL 1
REMARK minimizedAffinity 8.14459515
REMARK minimizedRMSD -1
REMARK  1 active torsions:
REMARK  status: ('A' for Active; 'I' for Inactive)
REMARK    1  A    between atoms: C1_2  and  C2_3 
ROOT
ATOM      1  C2  UNL d   1       3.580  -4.860   0.790  0.00  0.00    -0.077 A 
ATOM      2  C3  UNL d   1       3.611  -5.729  -0.310  0.00  0.00     0.002 A 
ATOM      3  C4  UNL d   1       4.816  -6.000  -0.962  0.00  0.00     0.002 A 
ATOM      4  C5  UNL d   1       5.998  -5.410  -0.519  0.00  0.00    -0.004 A 
ATOM      5  C6  UNL d   1       5.977  -4.543   0.573  0.00  0.00     0.002 A 
ATOM      6  C7  UNL d   1       4.774  -4.270   1.225  0.00  0.00     0.002 A 
ENDROOT
BRANCH   1   7
ATOM      7  C1  UNL d   1       2.290  -4.605   1.525  0.00  0.00     0.055 C 
ATOM      8  C   UNL d   1       1.836  -3.162   1.362  0.00  0.00     0.019 C 
ENDBRANCH   1   7
TORSDOF 1
ENDMDL
