MODEL 1
REMARK minimizedAffinity 5.41792965
REMARK minimizedRMSD -1
REMARK  1 active torsions:
REMARK  status: ('A' for Active; 'I' for Inactive)
REMARK    1  A    between atoms: C1_2  and  C2_3 
ROOT
ATOM      1  C2  UNL d   1      -3.770  -0.841   0.906  0.00  0.00    -0.077 A 
ATOM      2  C3  UNL d   1      -2.774  -1.450   1.682  0.00  0.00     0.002 A 
ATOM      3  C4  UNL d   1      -2.463  -0.953   2.949  0.00  0.00     0.002 A 
ATOM      4  C5  UNL d   1      -3.146   0.152   3.453  0.00  0.00    -0.004 A 
ATOM      5  C6  UNL d   1      -4.137   0.766   2.688  0.00  0.00     0.002 A 
ATOM      6  C7  UNL d   1      -4.448   0.271   1.421  0.00  0.00     0.002 A 
ENDROOT
BRANCH   1   7
ATOM      7  C1  UNL d   1      -4.141  -1.406  -0.440  0.00  0.00     0.055 C 
ATOM      8  C   UNL d   1      -3.002  -1.252  -1.438  0.00  0.00     0.019 C 
ENDBRANCH   1   7
TORSDOF 1
ENDMDL
