MODEL 1
REMARK minimizedAffinity 7.06974745
REMARK minimizedRMSD -1
REMARK  1 active torsions:
REMARK  status: ('A' for Active; 'I' for Inactive)
REMARK    1  A    between atoms: C1_2  and  C2_3 
ROOT
ATOM      1  C2  UNL d   1       2.298  -3.178   1.577  0.00  0.00    -0.077 A 
ATOM      2  C3  UNL d   1       2.183  -4.523   1.955  0.00  0.00     0.002 A 
ATOM      3  C4  UNL d   1       3.310  -5.348   1.982  0.00  0.00     0.002 A 
ATOM      4  C5  UNL d   1       4.558  -4.836   1.636  0.00  0.00    -0.004 A 
ATOM      5  C6  UNL d   1       4.682  -3.500   1.257  0.00  0.00     0.002 A 
ATOM      6  C7  UNL d   1       3.557  -2.674   1.228  0.00  0.00     0.002 A 
ENDROOT
BRANCH   1   7
ATOM      7  C1  UNL d   1       1.092  -2.275   1.594  0.00  0.00     0.055 C 
ATOM      8  C   UNL d   1       0.581  -2.061   3.012  0.00  0.00     0.019 C 
ENDBRANCH   1   7
TORSDOF 1
ENDMDL
