MODEL 1
REMARK minimizedAffinity 3.8062427
REMARK minimizedRMSD -1
REMARK  0 active torsions:
REMARK  status: ('A' for Active; 'I' for Inactive)
ROOT
ATOM      1  C   UNL d   1       3.028  -5.180  -1.453  0.00  0.00     0.172 C 
ATOM      2  N   UNL d   1       3.134  -4.566  -2.756  0.00  0.00    -0.070 N 
ATOM      3  C1  UNL d   1       2.183  -3.778  -3.347  0.00  0.00    -0.004 A 
ATOM      4  C2  UNL d   1       2.662  -3.390  -4.579  0.00  0.00    -0.047 A 
ATOM      5  C3  UNL d   1       3.946  -3.964  -4.734  0.00  0.00    -0.047 A 
ATOM      6  C4  UNL d   1       4.214  -4.687  -3.591  0.00  0.00    -0.004 A 
ENDROOT
TORSDOF 0
ENDMDL
