MODEL 1
REMARK minimizedAffinity 2.91776586
REMARK minimizedRMSD -1
REMARK  0 active torsions:
REMARK  status: ('A' for Active; 'I' for Inactive)
ROOT
ATOM      1  C   UNL d   1       4.656  -4.972  -0.264  0.00  0.00     0.172 C 
ATOM      2  N   UNL d   1       3.862  -4.659  -1.429  0.00  0.00    -0.070 N 
ATOM      3  C1  UNL d   1       2.704  -3.929  -1.433  0.00  0.00    -0.004 A 
ATOM      4  C2  UNL d   1       2.255  -3.855  -2.734  0.00  0.00    -0.047 A 
ATOM      5  C3  UNL d   1       3.175  -4.566  -3.540  0.00  0.00    -0.047 A 
ATOM      6  C4  UNL d   1       4.160  -5.053  -2.706  0.00  0.00    -0.004 A 
ENDROOT
TORSDOF 0
ENDMDL
