MODEL 1
REMARK minimizedAffinity 1.15571308
REMARK minimizedRMSD -1
REMARK  0 active torsions:
REMARK  status: ('A' for Active; 'I' for Inactive)
ROOT
ATOM      1  C   UNL d   1       1.893  -3.195  -2.920  0.00  0.00     0.172 C 
ATOM      2  N   UNL d   1       2.778  -3.910  -2.031  0.00  0.00    -0.070 N 
ATOM      3  C1  UNL d   1       2.838  -3.758  -0.672  0.00  0.00    -0.004 A 
ATOM      4  C2  UNL d   1       3.805  -4.616  -0.193  0.00  0.00    -0.047 A 
ATOM      5  C3  UNL d   1       4.346  -5.306  -1.304  0.00  0.00    -0.047 A 
ATOM      6  C4  UNL d   1       3.692  -4.850  -2.429  0.00  0.00    -0.004 A 
ENDROOT
TORSDOF 0
ENDMDL
