MODEL 1
REMARK minimizedAffinity -2.08422852
REMARK minimizedRMSD -1
REMARK  0 active torsions:
REMARK  status: ('A' for Active; 'I' for Inactive)
ROOT
ATOM      1  C   UNL d   1      -6.000  -5.254   1.428  0.00  0.00     0.172 C 
ATOM      2  N   UNL d   1      -5.479  -4.156   2.209  0.00  0.00    -0.070 N 
ATOM      3  C1  UNL d   1      -6.000  -2.891   2.254  0.00  0.00    -0.004 A 
ATOM      4  C2  UNL d   1      -5.220  -2.144   3.111  0.00  0.00    -0.047 A 
ATOM      5  C3  UNL d   1      -4.195  -2.990   3.597  0.00  0.00    -0.047 A 
ATOM      6  C4  UNL d   1      -4.379  -4.230   3.022  0.00  0.00    -0.004 A 
ENDROOT
TORSDOF 0
ENDMDL
