MODEL 1
REMARK minimizedAffinity -0.791398823
REMARK minimizedRMSD -1
REMARK  0 active torsions:
REMARK  status: ('A' for Active; 'I' for Inactive)
ROOT
ATOM      1  C   UNL d   1       4.174  -4.841  -0.456  0.00  0.00     0.172 C 
ATOM      2  N   UNL d   1       3.871  -4.583  -1.844  0.00  0.00    -0.070 N 
ATOM      3  C1  UNL d   1       2.757  -3.938  -2.312  0.00  0.00    -0.004 A 
ATOM      4  C2  UNL d   1       2.842  -3.893  -3.687  0.00  0.00    -0.047 A 
ATOM      5  C3  UNL d   1       4.049  -4.533  -4.058  0.00  0.00    -0.047 A 
ATOM      6  C4  UNL d   1       4.666  -4.950  -2.898  0.00  0.00    -0.004 A 
ENDROOT
TORSDOF 0
ENDMDL
