MODEL 1
REMARK minimizedAffinity 6.60834169
REMARK minimizedRMSD -1
REMARK  0 active torsions:
REMARK  status: ('A' for Active; 'I' for Inactive)
ROOT
ATOM      1  C   UNL d   1      -5.998  -2.265   1.971  0.00  0.00     0.172 C 
ATOM      2  N   UNL d   1      -5.346  -3.071   2.976  0.00  0.00    -0.070 N 
ATOM      3  C1  UNL d   1      -3.995  -3.270   3.087  0.00  0.00    -0.004 A 
ATOM      4  C2  UNL d   1      -3.778  -4.096   4.169  0.00  0.00    -0.047 A 
ATOM      5  C3  UNL d   1      -5.041  -4.403   4.728  0.00  0.00    -0.047 A 
ATOM      6  C4  UNL d   1      -5.994  -3.756   3.970  0.00  0.00    -0.004 A 
ENDROOT
TORSDOF 0
ENDMDL
