MODEL 1
REMARK minimizedAffinity -0.70892936
REMARK minimizedRMSD -1
REMARK  0 active torsions:
REMARK  status: ('A' for Active; 'I' for Inactive)
ROOT
ATOM      1  C   UNL d   1       4.500  -4.500  -0.107  0.00  0.00     0.172 C 
ATOM      2  N   UNL d   1       3.740  -3.900  -1.178  0.00  0.00    -0.070 N 
ATOM      3  C1  UNL d   1       3.919  -4.136  -2.515  0.00  0.00    -0.004 A 
ATOM      4  C2  UNL d   1       3.000  -3.375  -3.205  0.00  0.00    -0.047 A 
ATOM      5  C3  UNL d   1       2.243  -2.656  -2.250  0.00  0.00    -0.047 A 
ATOM      6  C4  UNL d   1       2.721  -3.000  -1.003  0.00  0.00    -0.004 A 
ENDROOT
TORSDOF 0
ENDMDL
