MODEL 1
REMARK minimizedAffinity -1.88141
REMARK minimizedRMSD -1
REMARK  0 active torsions:
REMARK  status: ('A' for Active; 'I' for Inactive)
ROOT
ATOM      1  C   UNL d   1       3.350  -3.913  -0.468  0.00  0.00     0.172 C 
ATOM      2  N   UNL d   1       3.370  -3.742  -1.902  0.00  0.00    -0.070 N 
ATOM      3  C1  UNL d   1       2.408  -3.110  -2.644  0.00  0.00    -0.004 A 
ATOM      4  C2  UNL d   1       2.795  -3.158  -3.966  0.00  0.00    -0.047 A 
ATOM      5  C3  UNL d   1       4.032  -3.843  -4.020  0.00  0.00    -0.047 A 
ATOM      6  C4  UNL d   1       4.365  -4.193  -2.729  0.00  0.00    -0.004 A 
ENDROOT
TORSDOF 0
ENDMDL
