MODEL 1
REMARK minimizedAffinity 2.73688745
REMARK minimizedRMSD -1
REMARK  0 active torsions:
REMARK  status: ('A' for Active; 'I' for Inactive)
ROOT
ATOM      1  C   UNL d   1       4.130  -3.718  -4.830  0.00  0.00     0.172 C 
ATOM      2  N   UNL d   1       3.570  -3.971  -3.524  0.00  0.00    -0.070 N 
ATOM      3  C1  UNL d   1       2.423  -3.413  -3.026  0.00  0.00    -0.004 A 
ATOM      4  C2  UNL d   1       2.230  -3.908  -1.754  0.00  0.00    -0.047 A 
ATOM      5  C3  UNL d   1       3.299  -4.794  -1.478  0.00  0.00    -0.047 A 
ATOM      6  C4  UNL d   1       4.114  -4.814  -2.591  0.00  0.00    -0.004 A 
ENDROOT
TORSDOF 0
ENDMDL
