MODEL 1
REMARK minimizedAffinity -0.800020695
REMARK minimizedRMSD -1
REMARK  0 active torsions:
REMARK  status: ('A' for Active; 'I' for Inactive)
ROOT
ATOM      1  C   UNL d   1       5.164  -4.847  -0.310  0.00  0.00     0.172 C 
ATOM      2  N   UNL d   1       4.200  -4.578  -1.352  0.00  0.00    -0.070 N 
ATOM      3  C1  UNL d   1       4.211  -5.121  -2.609  0.00  0.00    -0.004 A 
ATOM      4  C2  UNL d   1       3.129  -4.616  -3.296  0.00  0.00    -0.047 A 
ATOM      5  C3  UNL d   1       2.445  -3.738  -2.422  0.00  0.00    -0.047 A 
ATOM      6  C4  UNL d   1       3.130  -3.733  -1.225  0.00  0.00    -0.004 A 
ENDROOT
TORSDOF 0
ENDMDL
