MODEL 1
REMARK minimizedAffinity -2.5345602
REMARK minimizedRMSD -1
REMARK  0 active torsions:
REMARK  status: ('A' for Active; 'I' for Inactive)
ROOT
ATOM      1  C   UNL d   1       4.097  -4.518  -0.087  0.00  0.00     0.172 C 
ATOM      2  N   UNL d   1       3.584  -4.185  -1.395  0.00  0.00    -0.070 N 
ATOM      3  C1  UNL d   1       4.225  -4.408  -2.585  0.00  0.00    -0.004 A 
ATOM      4  C2  UNL d   1       3.407  -3.952  -3.596  0.00  0.00    -0.047 A 
ATOM      5  C3  UNL d   1       2.235  -3.436  -2.994  0.00  0.00    -0.047 A 
ATOM      6  C4  UNL d   1       2.371  -3.594  -1.631  0.00  0.00    -0.004 A 
ENDROOT
TORSDOF 0
ENDMDL
