MODEL 1
REMARK minimizedAffinity 2.65774059
REMARK minimizedRMSD -1
REMARK  0 active torsions:
REMARK  status: ('A' for Active; 'I' for Inactive)
ROOT
ATOM      1  C   UNL d   1       3.804  -5.265  -0.562  0.00  0.00     0.172 C 
ATOM      2  N   UNL d   1       3.448  -4.903  -1.914  0.00  0.00    -0.070 N 
ATOM      3  C1  UNL d   1       2.232  -4.417  -2.317  0.00  0.00    -0.004 A 
ATOM      4  C2  UNL d   1       2.295  -4.197  -3.676  0.00  0.00    -0.047 A 
ATOM      5  C3  UNL d   1       3.593  -4.564  -4.105  0.00  0.00    -0.047 A 
ATOM      6  C4  UNL d   1       4.285  -4.998  -2.994  0.00  0.00    -0.004 A 
ENDROOT
TORSDOF 0
ENDMDL
