MODEL 1
REMARK minimizedAffinity 0.602674842
REMARK minimizedRMSD -1
REMARK  0 active torsions:
REMARK  status: ('A' for Active; 'I' for Inactive)
ROOT
ATOM      1  C   UNL d   1      -5.316  -2.116  -5.983  0.00  0.00     0.172 C 
ATOM      2  N   UNL d   1      -4.271  -3.077  -5.718  0.00  0.00    -0.070 N 
ATOM      3  C1  UNL d   1      -3.037  -2.791  -5.198  0.00  0.00    -0.004 A 
ATOM      4  C2  UNL d   1      -2.338  -3.975  -5.098  0.00  0.00    -0.047 A 
ATOM      5  C3  UNL d   1      -3.180  -5.006  -5.576  0.00  0.00    -0.047 A 
ATOM      6  C4  UNL d   1      -4.371  -4.423  -5.953  0.00  0.00    -0.004 A 
ENDROOT
TORSDOF 0
ENDMDL
