MODEL 1
REMARK minimizedAffinity 10.480813
REMARK minimizedRMSD -1
REMARK  0 active torsions:
REMARK  status: ('A' for Active; 'I' for Inactive)
ROOT
ATOM      1  C   UNL d   1       0.147   5.698   1.685  0.00  0.00     0.172 C 
ATOM      2  N   UNL d   1       0.794   5.206   0.491  0.00  0.00    -0.070 N 
ATOM      3  C1  UNL d   1       1.441   4.005   0.371  0.00  0.00    -0.004 A 
ATOM      4  C2  UNL d   1       1.918   3.909  -0.918  0.00  0.00    -0.047 A 
ATOM      5  C3  UNL d   1       1.546   5.094  -1.596  0.00  0.00    -0.047 A 
ATOM      6  C4  UNL d   1       0.851   5.879  -0.700  0.00  0.00    -0.004 A 
ENDROOT
TORSDOF 0
ENDMDL
