MODEL 1
REMARK minimizedAffinity 12.7588873
REMARK minimizedRMSD -1
REMARK  0 active torsions:
REMARK  status: ('A' for Active; 'I' for Inactive)
ROOT
ATOM      1  C   UNL d   1      -5.625   3.091   4.142  0.00  0.00     0.172 C 
ATOM      2  N   UNL d   1      -4.698   2.102   4.641  0.00  0.00    -0.070 N 
ATOM      3  C1  UNL d   1      -4.256   2.002   5.933  0.00  0.00    -0.004 A 
ATOM      4  C2  UNL d   1      -3.388   0.934   6.000  0.00  0.00    -0.047 A 
ATOM      5  C3  UNL d   1      -3.304   0.374   4.703  0.00  0.00    -0.047 A 
ATOM      6  C4  UNL d   1      -4.125   1.116   3.881  0.00  0.00    -0.004 A 
ENDROOT
TORSDOF 0
ENDMDL
