MODEL 1
REMARK minimizedAffinity 15.853529
REMARK minimizedRMSD -1
REMARK  0 active torsions:
REMARK  status: ('A' for Active; 'I' for Inactive)
ROOT
ATOM      1  C   UNL d   1      -1.901   0.274  -1.451  0.00  0.00     0.124 A 
ATOM      2  C1  UNL d   1      -3.002   0.428  -2.282  0.00  0.00     0.062 A 
ATOM      3  C2  UNL d   1      -4.006   1.334  -1.953  0.00  0.00     0.162 A 
ATOM      4  C3  UNL d   1      -3.913   2.094  -0.787  0.00  0.00    -0.034 A 
ATOM      5  C4  UNL d   1      -2.803   1.934   0.044  0.00  0.00     0.162 A 
ATOM      6  C5  UNL d   1      -1.802   1.027  -0.290  0.00  0.00     0.062 A 
ATOM      7  F   UNL d   1      -0.739   0.880   0.514  0.00  0.00    -0.097 F 
ATOM      8  F1  UNL d   1      -2.682   2.649   1.172  0.00  0.00    -0.096 F 
ATOM      9  I   UNL d   1      -5.413   3.450  -0.292  0.00  0.00    -0.060 I 
ATOM     10  F2  UNL d   1      -5.059   1.461  -2.774  0.00  0.00    -0.096 F 
ATOM     11  F3  UNL d   1      -3.100  -0.299  -3.404  0.00  0.00    -0.097 F 
ATOM     12  F4  UNL d   1      -0.936  -0.599  -1.770  0.00  0.00    -0.092 F 
ENDROOT
TORSDOF 0
ENDMDL
