MODEL 1
REMARK minimizedAffinity 13.1251345
REMARK minimizedRMSD -1
REMARK  0 active torsions:
REMARK  status: ('A' for Active; 'I' for Inactive)
ROOT
ATOM      1  C   UNL d   1       2.707  -2.408   3.065  0.00  0.00     0.124 A 
ATOM      2  C1  UNL d   1       3.346  -3.535   3.563  0.00  0.00     0.062 A 
ATOM      3  C2  UNL d   1       2.640  -4.460   4.327  0.00  0.00     0.162 A 
ATOM      4  C3  UNL d   1       1.286  -4.262   4.597  0.00  0.00    -0.034 A 
ATOM      5  C4  UNL d   1       0.651  -3.126   4.094  0.00  0.00     0.162 A 
ATOM      6  C5  UNL d   1       1.361  -2.204   3.331  0.00  0.00     0.062 A 
ATOM      7  F   UNL d   1       0.742  -1.116   2.851  0.00  0.00    -0.097 F 
ATOM      8  F1  UNL d   1      -0.650  -2.904   4.334  0.00  0.00    -0.096 F 
ATOM      9  I   UNL d   1       0.227  -5.643   5.738  0.00  0.00    -0.060 I 
ATOM     10  F2  UNL d   1       3.283  -5.540   4.795  0.00  0.00    -0.096 F 
ATOM     11  F3  UNL d   1       4.648  -3.734   3.309  0.00  0.00    -0.097 F 
ATOM     12  F4  UNL d   1       3.390  -1.519   2.332  0.00  0.00    -0.092 F 
ENDROOT
TORSDOF 0
ENDMDL
