MODEL 1
REMARK minimizedAffinity 6.09036493
REMARK minimizedRMSD -1
REMARK  0 active torsions:
REMARK  status: ('A' for Active; 'I' for Inactive)
ROOT
ATOM      1  C   UNL d   1       2.636  -2.088   2.262  0.00  0.00     0.124 A 
ATOM      2  C1  UNL d   1       1.779  -1.405   3.113  0.00  0.00     0.062 A 
ATOM      3  C2  UNL d   1       1.178  -2.066   4.180  0.00  0.00     0.162 A 
ATOM      4  C3  UNL d   1       1.433  -3.419   4.403  0.00  0.00    -0.034 A 
ATOM      5  C4  UNL d   1       2.296  -4.100   3.542  0.00  0.00     0.162 A 
ATOM      6  C5  UNL d   1       2.894  -3.434   2.477  0.00  0.00     0.062 A 
ATOM      7  F   UNL d   1       3.723  -4.096   1.656  0.00  0.00    -0.097 F 
ATOM      8  F1  UNL d   1       2.564  -5.401   3.728  0.00  0.00    -0.096 F 
ATOM      9  I   UNL d   1       0.537  -4.412   5.998  0.00  0.00    -0.060 I 
ATOM     10  F2  UNL d   1       0.353  -1.381   4.986  0.00  0.00    -0.096 F 
ATOM     11  F3  UNL d   1       1.527  -0.104   2.906  0.00  0.00    -0.097 F 
ATOM     12  F4  UNL d   1       3.213  -1.449   1.235  0.00  0.00    -0.092 F 
ENDROOT
TORSDOF 0
ENDMDL
