MODEL 1
REMARK minimizedAffinity 7.30899429
REMARK minimizedRMSD -1
REMARK  0 active torsions:
REMARK  status: ('A' for Active; 'I' for Inactive)
ROOT
ATOM      1  C   UNL d   1       1.789  -4.083   3.030  0.00  0.00     0.124 A 
ATOM      2  C1  UNL d   1       2.351  -3.638   1.841  0.00  0.00     0.062 A 
ATOM      3  C2  UNL d   1       2.552  -2.277   1.628  0.00  0.00     0.162 A 
ATOM      4  C3  UNL d   1       2.191  -1.351   2.606  0.00  0.00    -0.034 A 
ATOM      5  C4  UNL d   1       1.626  -1.806   3.799  0.00  0.00     0.162 A 
ATOM      6  C5  UNL d   1       1.427  -3.166   4.007  0.00  0.00     0.062 A 
ATOM      7  F   UNL d   1       0.884  -3.594   5.156  0.00  0.00    -0.097 F 
ATOM      8  F1  UNL d   1       1.268  -0.942   4.761  0.00  0.00    -0.096 F 
ATOM      9  I   UNL d   1       2.490   0.685   2.291  0.00  0.00    -0.060 I 
ATOM     10  F2  UNL d   1       3.097  -1.876   0.470  0.00  0.00    -0.096 F 
ATOM     11  F3  UNL d   1       2.701  -4.521   0.895  0.00  0.00    -0.097 F 
ATOM     12  F4  UNL d   1       1.596  -5.392   3.232  0.00  0.00    -0.092 F 
ENDROOT
TORSDOF 0
ENDMDL
