MODEL 1
REMARK minimizedAffinity 14.5201092
REMARK minimizedRMSD -1
REMARK  0 active torsions:
REMARK  status: ('A' for Active; 'I' for Inactive)
ROOT
ATOM      1  C   UNL d   1       2.288  -2.368   1.646  0.00  0.00     0.124 A 
ATOM      2  C1  UNL d   1       2.333  -3.754   1.708  0.00  0.00     0.062 A 
ATOM      3  C2  UNL d   1       1.812  -4.423   2.812  0.00  0.00     0.162 A 
ATOM      4  C3  UNL d   1       1.240  -3.707   3.863  0.00  0.00    -0.034 A 
ATOM      5  C4  UNL d   1       1.200  -2.313   3.795  0.00  0.00     0.162 A 
ATOM      6  C5  UNL d   1       1.722  -1.649   2.689  0.00  0.00     0.062 A 
ATOM      7  F   UNL d   1       1.678  -0.310   2.632  0.00  0.00    -0.097 F 
ATOM      8  F1  UNL d   1       0.657  -1.593   4.788  0.00  0.00    -0.096 F 
ATOM      9  I   UNL d   1       0.460  -4.703   5.515  0.00  0.00    -0.060 I 
ATOM     10  F2  UNL d   1       1.869  -5.763   2.844  0.00  0.00    -0.096 F 
ATOM     11  F3  UNL d   1       2.881  -4.451   0.702  0.00  0.00    -0.097 F 
ATOM     12  F4  UNL d   1       2.791  -1.727   0.584  0.00  0.00    -0.092 F 
ENDROOT
TORSDOF 0
ENDMDL
