MODEL 1
REMARK minimizedAffinity 18.5741463
REMARK minimizedRMSD -1
REMARK  0 active torsions:
REMARK  status: ('A' for Active; 'I' for Inactive)
ROOT
ATOM      1  C   UNL d   1       2.376  -5.996  -4.613  0.00  0.00     0.124 A 
ATOM      2  C1  UNL d   1       1.808  -5.994  -3.347  0.00  0.00     0.062 A 
ATOM      3  C2  UNL d   1       2.618  -5.992  -2.216  0.00  0.00     0.162 A 
ATOM      4  C3  UNL d   1       4.007  -5.991  -2.345  0.00  0.00    -0.034 A 
ATOM      5  C4  UNL d   1       4.572  -5.994  -3.622  0.00  0.00     0.162 A 
ATOM      6  C5  UNL d   1       3.757  -5.996  -4.749  0.00  0.00     0.062 A 
ATOM      7  F   UNL d   1       4.308  -5.998  -5.972  0.00  0.00    -0.097 F 
ATOM      8  F1  UNL d   1       5.903  -5.993  -3.782  0.00  0.00    -0.096 F 
ATOM      9  I   UNL d   1       5.223  -5.988  -0.656  0.00  0.00    -0.060 I 
ATOM     10  F2  UNL d   1       2.041  -5.991  -1.005  0.00  0.00    -0.096 F 
ATOM     11  F3  UNL d   1       0.473  -5.995  -3.213  0.00  0.00    -0.097 F 
ATOM     12  F4  UNL d   1       1.594  -5.999  -5.700  0.00  0.00    -0.092 F 
ENDROOT
TORSDOF 0
ENDMDL
