MODEL 1
REMARK minimizedAffinity 23.8311558
REMARK minimizedRMSD -1
REMARK  0 active torsions:
REMARK  status: ('A' for Active; 'I' for Inactive)
ROOT
ATOM      1  C   UNL d   1       1.834  -3.414   2.879  0.00  0.00     0.124 A 
ATOM      2  C1  UNL d   1       0.735  -2.567   2.929  0.00  0.00     0.062 A 
ATOM      3  C2  UNL d   1       0.872  -1.223   2.595  0.00  0.00     0.162 A 
ATOM      4  C3  UNL d   1       2.113  -0.717   2.209  0.00  0.00    -0.034 A 
ATOM      5  C4  UNL d   1       3.214  -1.574   2.163  0.00  0.00     0.162 A 
ATOM      6  C5  UNL d   1       3.072  -2.917   2.497  0.00  0.00     0.062 A 
ATOM      7  F   UNL d   1       4.135  -3.733   2.449  0.00  0.00    -0.097 F 
ATOM      8  F1  UNL d   1       4.421  -1.120   1.795  0.00  0.00    -0.096 F 
ATOM      9  I   UNL d   1       2.322   1.293   1.710  0.00  0.00    -0.060 I 
ATOM     10  F2  UNL d   1      -0.207  -0.428   2.652  0.00  0.00    -0.096 F 
ATOM     11  F3  UNL d   1      -0.461  -3.045   3.299  0.00  0.00    -0.097 F 
ATOM     12  F4  UNL d   1       1.700  -4.707   3.202  0.00  0.00    -0.092 F 
ENDROOT
TORSDOF 0
ENDMDL
