MODEL 1
REMARK minimizedAffinity 18.5162926
REMARK minimizedRMSD -1
REMARK  0 active torsions:
REMARK  status: ('A' for Active; 'I' for Inactive)
ROOT
ATOM      1  C   UNL d   1      -3.363   1.110  -2.959  0.00  0.00     0.124 A 
ATOM      2  C1  UNL d   1      -4.037   1.359  -4.146  0.00  0.00     0.062 A 
ATOM      3  C2  UNL d   1      -4.621   0.311  -4.853  0.00  0.00     0.162 A 
ATOM      4  C3  UNL d   1      -4.534  -0.996  -4.373  0.00  0.00    -0.034 A 
ATOM      5  C4  UNL d   1      -3.853  -1.238  -3.178  0.00  0.00     0.162 A 
ATOM      6  C5  UNL d   1      -3.272  -0.187  -2.476  0.00  0.00     0.062 A 
ATOM      7  F   UNL d   1      -2.621  -0.429  -1.329  0.00  0.00    -0.097 F 
ATOM      8  F1  UNL d   1      -3.750  -2.482  -2.688  0.00  0.00    -0.096 F 
ATOM      9  I   UNL d   1      -5.404  -2.565  -5.426  0.00  0.00    -0.060 I 
ATOM     10  F2  UNL d   1      -5.266   0.580  -5.997  0.00  0.00    -0.096 F 
ATOM     11  F3  UNL d   1      -4.127   2.612  -4.615  0.00  0.00    -0.097 F 
ATOM     12  F4  UNL d   1      -2.802   2.121  -2.282  0.00  0.00    -0.092 F 
ENDROOT
TORSDOF 0
ENDMDL
