MODEL 1
REMARK minimizedAffinity 6.16529846
REMARK minimizedRMSD -1
REMARK  0 active torsions:
REMARK  status: ('A' for Active; 'I' for Inactive)
ROOT
ATOM      1  C   UNL d   1       2.315  -3.852   3.663  0.00  0.00     0.124 A 
ATOM      2  C1  UNL d   1       1.816  -2.970   4.612  0.00  0.00     0.062 A 
ATOM      3  C2  UNL d   1       1.622  -1.631   4.288  0.00  0.00     0.162 A 
ATOM      4  C3  UNL d   1       1.926  -1.164   3.009  0.00  0.00    -0.034 A 
ATOM      5  C4  UNL d   1       2.428  -2.057   2.061  0.00  0.00     0.162 A 
ATOM      6  C5  UNL d   1       2.620  -3.395   2.389  0.00  0.00     0.062 A 
ATOM      7  F   UNL d   1       3.102  -4.246   1.472  0.00  0.00    -0.097 F 
ATOM      8  F1  UNL d   1       2.731  -1.643   0.822  0.00  0.00    -0.096 F 
ATOM      9  I   UNL d   1       1.638   0.838   2.521  0.00  0.00    -0.060 I 
ATOM     10  F2  UNL d   1       1.139  -0.801   5.225  0.00  0.00    -0.096 F 
ATOM     11  F3  UNL d   1       1.521  -3.409   5.844  0.00  0.00    -0.097 F 
ATOM     12  F4  UNL d   1       2.501  -5.141   3.978  0.00  0.00    -0.092 F 
ENDROOT
TORSDOF 0
ENDMDL
