MODEL 1
REMARK minimizedAffinity 14.6258488
REMARK minimizedRMSD -1
REMARK  0 active torsions:
REMARK  status: ('A' for Active; 'I' for Inactive)
ROOT
ATOM      1  C   UNL d   1      -3.422   1.474  -3.256  0.00  0.00     0.124 A 
ATOM      2  C1  UNL d   1      -3.455   1.752  -1.897  0.00  0.00     0.062 A 
ATOM      3  C2  UNL d   1      -4.189   2.835  -1.421  0.00  0.00     0.162 A 
ATOM      4  C3  UNL d   1      -4.898   3.647  -2.306  0.00  0.00    -0.034 A 
ATOM      5  C4  UNL d   1      -4.860   3.362  -3.672  0.00  0.00     0.162 A 
ATOM      6  C5  UNL d   1      -4.124   2.279  -4.142  0.00  0.00     0.062 A 
ATOM      7  F   UNL d   1      -4.094   2.011  -5.456  0.00  0.00    -0.097 F 
ATOM      8  F1  UNL d   1      -5.530   4.122  -4.551  0.00  0.00    -0.096 F 
ATOM      9  I   UNL d   1      -5.998   5.267  -1.599  0.00  0.00    -0.060 I 
ATOM     10  F2  UNL d   1      -4.203   3.080  -0.103  0.00  0.00    -0.096 F 
ATOM     11  F3  UNL d   1      -2.777   0.977  -1.039  0.00  0.00    -0.097 F 
ATOM     12  F4  UNL d   1      -2.714   0.432  -3.711  0.00  0.00    -0.092 F 
ENDROOT
TORSDOF 0
ENDMDL
