MODEL 1
REMARK minimizedAffinity 13.7530861
REMARK minimizedRMSD -1
REMARK  0 active torsions:
REMARK  status: ('A' for Active; 'I' for Inactive)
ROOT
ATOM      1  C   UNL d   1      -1.804   0.415  -1.729  0.00  0.00     0.124 A 
ATOM      2  C1  UNL d   1      -1.846   1.082  -0.512  0.00  0.00     0.062 A 
ATOM      3  C2  UNL d   1      -2.868   1.989  -0.246  0.00  0.00     0.162 A 
ATOM      4  C3  UNL d   1      -3.857   2.234  -1.199  0.00  0.00    -0.034 A 
ATOM      5  C4  UNL d   1      -3.807   1.560  -2.420  0.00  0.00     0.162 A 
ATOM      6  C5  UNL d   1      -2.784   0.655  -2.681  0.00  0.00     0.062 A 
ATOM      7  F   UNL d   1      -2.745   0.011  -3.857  0.00  0.00    -0.097 F 
ATOM      8  F1  UNL d   1      -4.742   1.772  -3.359  0.00  0.00    -0.096 F 
ATOM      9  I   UNL d   1      -5.387   3.589  -0.805  0.00  0.00    -0.060 I 
ATOM     10  F2  UNL d   1      -2.884   2.619   0.938  0.00  0.00    -0.096 F 
ATOM     11  F3  UNL d   1      -0.900   0.853   0.410  0.00  0.00    -0.097 F 
ATOM     12  F4  UNL d   1      -0.819  -0.456  -1.982  0.00  0.00    -0.092 F 
ENDROOT
TORSDOF 0
ENDMDL
