MODEL 1
REMARK minimizedAffinity -4.11401987
REMARK minimizedRMSD -1
REMARK  0 active torsions:
REMARK  status: ('A' for Active; 'I' for Inactive)
ROOT
ATOM      1  O1  BZF d   1      -0.610  -0.605  -0.987  0.00  0.00    -0.204 OA
ATOM      2  C2  BZF d   1       0.734  -0.335  -1.156  0.00  0.00     0.174 A 
ATOM      3  C3  BZF d   1       1.194   0.446  -0.157  0.00  0.00    -0.012 A 
ATOM      4  C3A BZF d   1       0.089   0.603   0.738  0.00  0.00    -0.107 A 
ATOM      5  C4  BZF d   1      -0.073   1.259   1.924  0.00  0.00     0.055 A 
ATOM      6  C5  BZF d   1      -1.300   1.277   2.507  0.00  0.00    -0.016 A 
ATOM      7  C6  BZF d   1      -2.387   0.655   1.930  0.00  0.00     0.022 A 
ATOM      8  C7  BZF d   1      -2.275  -0.013   0.756  0.00  0.00     0.029 A 
ATOM      9  C7A BZF d   1      -1.029  -0.061   0.181  0.00  0.00     0.058 A 
ENDROOT
TORSDOF 0
ENDMDL
