MODEL 1
REMARK minimizedAffinity -1.36872911
REMARK minimizedRMSD -1
REMARK  0 active torsions:
REMARK  status: ('A' for Active; 'I' for Inactive)
ROOT
ATOM      1  O1  BZF d   1       0.735   0.283   2.552  0.00  0.00    -0.204 OA
ATOM      2  C2  BZF d   1      -0.366   1.048   2.887  0.00  0.00     0.174 A 
ATOM      3  C3  BZF d   1      -1.104   1.328   1.793  0.00  0.00    -0.012 A 
ATOM      4  C3A BZF d   1      -0.472   0.622   0.721  0.00  0.00    -0.107 A 
ATOM      5  C4  BZF d   1      -0.747   0.494  -0.610  0.00  0.00     0.055 A 
ATOM      6  C5  BZF d   1       0.109  -0.208  -1.397  0.00  0.00    -0.016 A 
ATOM      7  C6  BZF d   1       1.251  -0.791  -0.888  0.00  0.00     0.022 A 
ATOM      8  C7  BZF d   1       1.564  -0.695   0.427  0.00  0.00     0.029 A 
ATOM      9  C7A BZF d   1       0.683  -0.014   1.231  0.00  0.00     0.058 A 
ENDROOT
TORSDOF 0
ENDMDL
