MODEL 1
REMARK minimizedAffinity -3.08227062
REMARK minimizedRMSD -1
REMARK  0 active torsions:
REMARK  status: ('A' for Active; 'I' for Inactive)
ROOT
ATOM      1  O1  BZF d   1      -0.653  -0.538  -1.733  0.00  0.00    -0.204 OA
ATOM      2  C2  BZF d   1       0.624  -0.844  -2.163  0.00  0.00     0.174 A 
ATOM      3  C3  BZF d   1       1.536  -0.514  -1.226  0.00  0.00    -0.012 A 
ATOM      4  C3A BZF d   1       0.775  -0.053  -0.106  0.00  0.00    -0.107 A 
ATOM      5  C4  BZF d   1       1.114   0.399   1.137  0.00  0.00     0.055 A 
ATOM      6  C5  BZF d   1       0.134   0.842   1.969  0.00  0.00    -0.016 A 
ATOM      7  C6  BZF d   1      -1.192   0.851   1.589  0.00  0.00     0.022 A 
ATOM      8  C7  BZF d   1      -1.577   0.406   0.368  0.00  0.00     0.029 A 
ATOM      9  C7A BZF d   1      -0.593  -0.072  -0.463  0.00  0.00     0.058 A 
ENDROOT
TORSDOF 0
ENDMDL
