MODEL 1
REMARK minimizedAffinity -3.11195326
REMARK minimizedRMSD -1
REMARK  0 active torsions:
REMARK  status: ('A' for Active; 'I' for Inactive)
ROOT
ATOM      1  O1  BZF d   1      -2.402   0.450   0.882  0.00  0.00    -0.204 OA
ATOM      2  C2  BZF d   1      -2.214  -0.276  -0.278  0.00  0.00     0.174 A 
ATOM      3  C3  BZF d   1      -0.900  -0.418  -0.547  0.00  0.00    -0.012 A 
ATOM      4  C3A BZF d   1      -0.223   0.183   0.561  0.00  0.00    -0.107 A 
ATOM      5  C4  BZF d   1       1.095   0.343   0.881  0.00  0.00     0.055 A 
ATOM      6  C5  BZF d   1       1.423   1.039   2.001  0.00  0.00    -0.016 A 
ATOM      7  C6  BZF d   1       0.461   1.594   2.819  0.00  0.00     0.022 A 
ATOM      8  C7  BZF d   1      -0.859   1.458   2.546  0.00  0.00     0.029 A 
ATOM      9  C7A BZF d   1      -1.195   0.726   1.433  0.00  0.00     0.058 A 
ENDROOT
TORSDOF 0
ENDMDL
