MODEL 1
REMARK minimizedAffinity -5.14977169
REMARK minimizedRMSD -1
REMARK  0 active torsions:
REMARK  status: ('A' for Active; 'I' for Inactive)
ROOT
ATOM      1  O1  BZF d   1       1.233  -0.323  -0.186  0.00  0.00    -0.204 OA
ATOM      2  C2  BZF d   1       0.432  -0.637  -1.266  0.00  0.00     0.174 A 
ATOM      3  C3  BZF d   1      -0.873  -0.524  -0.944  0.00  0.00    -0.012 A 
ATOM      4  C3A BZF d   1      -0.887  -0.025   0.397  0.00  0.00    -0.107 A 
ATOM      5  C4  BZF d   1      -1.887   0.309   1.265  0.00  0.00     0.055 A 
ATOM      6  C5  BZF d   1      -1.566   0.696   2.527  0.00  0.00    -0.016 A 
ATOM      7  C6  BZF d   1      -0.256   0.756   2.956  0.00  0.00     0.022 A 
ATOM      8  C7  BZF d   1       0.771   0.440   2.130  0.00  0.00     0.029 A 
ATOM      9  C7A BZF d   1       0.451   0.080   0.844  0.00  0.00     0.058 A 
ENDROOT
TORSDOF 0
ENDMDL
