MODEL 1
REMARK minimizedAffinity -3.60861015
REMARK minimizedRMSD -1
REMARK  0 active torsions:
REMARK  status: ('A' for Active; 'I' for Inactive)
ROOT
ATOM      1  O1  BZF d   1      -1.224  -0.428  -0.573  0.00  0.00    -0.204 OA
ATOM      2  C2  BZF d   1      -0.099  -0.386  -1.375  0.00  0.00     0.174 A 
ATOM      3  C3  BZF d   1       0.863   0.372  -0.810  0.00  0.00    -0.012 A 
ATOM      4  C3A BZF d   1       0.339   0.756   0.465  0.00  0.00    -0.107 A 
ATOM      5  C4  BZF d   1       0.834   1.501   1.497  0.00  0.00     0.055 A 
ATOM      6  C5  BZF d   1       0.040   1.750   2.572  0.00  0.00    -0.016 A 
ATOM      7  C6  BZF d   1      -1.253   1.274   2.645  0.00  0.00     0.022 A 
ATOM      8  C7  BZF d   1      -1.785   0.526   1.648  0.00  0.00     0.029 A 
ATOM      9  C7A BZF d   1      -0.975   0.246   0.575  0.00  0.00     0.058 A 
ENDROOT
TORSDOF 0
ENDMDL
