MODEL 1
REMARK minimizedAffinity -5.52131701
REMARK minimizedRMSD -1
REMARK  0 active torsions:
REMARK  status: ('A' for Active; 'I' for Inactive)
ROOT
ATOM      1  O1  BZF d   1       1.123   0.395   0.306  0.00  0.00    -0.204 OA
ATOM      2  C2  BZF d   1       0.867  -0.368  -0.816  0.00  0.00     0.174 A 
ATOM      3  C3  BZF d   1      -0.429  -0.742  -0.855  0.00  0.00    -0.012 A 
ATOM      4  C3A BZF d   1      -1.039  -0.101   0.269  0.00  0.00    -0.107 A 
ATOM      5  C4  BZF d   1      -2.315  -0.074   0.756  0.00  0.00     0.055 A 
ATOM      6  C5  BZF d   1      -2.565   0.589   1.915  0.00  0.00    -0.016 A 
ATOM      7  C6  BZF d   1      -1.565   1.231   2.615  0.00  0.00     0.022 A 
ATOM      8  C7  BZF d   1      -0.285   1.237   2.169  0.00  0.00     0.029 A 
ATOM      9  C7A BZF d   1      -0.035   0.595   0.980  0.00  0.00     0.058 A 
ENDROOT
TORSDOF 0
ENDMDL
