MODEL 1
REMARK minimizedAffinity -3.82637787
REMARK minimizedRMSD -1
REMARK  0 active torsions:
REMARK  status: ('A' for Active; 'I' for Inactive)
ROOT
ATOM      1  O1  BZF d   1       1.002   0.072   0.123  0.00  0.00    -0.204 OA
ATOM      2  C2  BZF d   1       0.588  -0.367  -1.119  0.00  0.00     0.174 A 
ATOM      3  C3  BZF d   1      -0.755  -0.474  -1.166  0.00  0.00    -0.012 A 
ATOM      4  C3A BZF d   1      -1.216   0.011   0.099  0.00  0.00    -0.107 A 
ATOM      5  C4  BZF d   1      -2.456   0.170   0.649  0.00  0.00     0.055 A 
ATOM      6  C5  BZF d   1      -2.558   0.601   1.933  0.00  0.00    -0.016 A 
ATOM      7  C6  BZF d   1      -1.443   0.876   2.698  0.00  0.00     0.022 A 
ATOM      8  C7  BZF d   1      -0.193   0.739   2.194  0.00  0.00     0.029 A 
ATOM      9  C7A BZF d   1      -0.086   0.335   0.886  0.00  0.00     0.058 A 
ENDROOT
TORSDOF 0
ENDMDL
