MODEL 1
REMARK minimizedAffinity -4.09466743
REMARK minimizedRMSD -1
REMARK  0 active torsions:
REMARK  status: ('A' for Active; 'I' for Inactive)
ROOT
ATOM      1  O1  BZF d   1      -1.104   0.781  -1.119  0.00  0.00    -0.204 OA
ATOM      2  C2  BZF d   1      -0.768   0.166   0.072  0.00  0.00     0.174 A 
ATOM      3  C3  BZF d   1       0.318  -0.619  -0.085  0.00  0.00    -0.012 A 
ATOM      4  C3A BZF d   1       0.737  -0.415  -1.438  0.00  0.00    -0.107 A 
ATOM      5  C4  BZF d   1       1.769  -0.906  -2.185  0.00  0.00     0.055 A 
ATOM      6  C5  BZF d   1       1.856  -0.564  -3.497  0.00  0.00    -0.016 A 
ATOM      7  C6  BZF d   1       0.927   0.262  -4.095  0.00  0.00     0.022 A 
ATOM      8  C7  BZF d   1      -0.111   0.779  -3.393  0.00  0.00     0.029 A 
ATOM      9  C7A BZF d   1      -0.183   0.461  -2.059  0.00  0.00     0.058 A 
ENDROOT
TORSDOF 0
ENDMDL
