MODEL 1
REMARK minimizedAffinity -5.03963804
REMARK minimizedRMSD -1
REMARK  0 active torsions:
REMARK  status: ('A' for Active; 'I' for Inactive)
ROOT
ATOM      1  O1  BZF d   1       0.359  -0.021  -0.615  0.00  0.00    -0.204 OA
ATOM      2  C2  BZF d   1      -0.715  -0.760  -1.072  0.00  0.00     0.174 A 
ATOM      3  C3  BZF d   1      -1.657  -0.878  -0.114  0.00  0.00    -0.012 A 
ATOM      4  C3A BZF d   1      -1.180  -0.090   0.981  0.00  0.00    -0.107 A 
ATOM      5  C4  BZF d   1      -1.682   0.201   2.217  0.00  0.00     0.055 A 
ATOM      6  C5  BZF d   1      -0.935   0.941   3.076  0.00  0.00    -0.016 A 
ATOM      7  C6  BZF d   1       0.320   1.403   2.735  0.00  0.00     0.022 A 
ATOM      8  C7  BZF d   1       0.858   1.145   1.518  0.00  0.00     0.029 A 
ATOM      9  C7A BZF d   1       0.091   0.425   0.635  0.00  0.00     0.058 A 
ENDROOT
TORSDOF 0
ENDMDL
