MODEL 1
REMARK minimizedAffinity 6.02878141
REMARK minimizedRMSD -1
REMARK  1 active torsions:
REMARK  status: ('A' for Active; 'I' for Inactive)
REMARK    1  A    between atoms: C3_4  and  O_7 
ROOT
ATOM      1  C   UNL d   1       1.682   5.858   2.834  0.00  0.00    -0.033 A 
ATOM      2  C1  UNL d   1       2.608   5.999   1.799  0.00  0.00     0.039 A 
ATOM      3  C2  UNL d   1       3.976   5.933   2.071  0.00  0.00    -0.080 A 
ATOM      4  C3  UNL d   1       4.404   5.724   3.379  0.00  0.00     0.150 A 
ATOM      5  C4  UNL d   1       3.486   5.579   4.414  0.00  0.00    -0.007 A 
ATOM      6  C5  UNL d   1       2.121   5.646   4.142  0.00  0.00     0.039 A 
ENDROOT
BRANCH   4   7
ATOM      7  O   UNL d   1       5.729   5.656   3.694  0.00  0.00    -0.526 OA
ATOM      8  H5  UNL d   1       6.245   5.802   2.883  0.00  0.00     0.418 HD
ENDBRANCH   4   7
TORSDOF 1
ENDMDL
