MODEL 1
REMARK minimizedAffinity 4.87197876
REMARK minimizedRMSD -1
REMARK  1 active torsions:
REMARK  status: ('A' for Active; 'I' for Inactive)
REMARK    1  A    between atoms: C3_4  and  O_7 
ROOT
ATOM      1  C   UNL d   1      -5.072   4.725   1.934  0.00  0.00    -0.033 A 
ATOM      2  C1  UNL d   1      -5.634   3.629   2.592  0.00  0.00     0.039 A 
ATOM      3  C2  UNL d   1      -5.955   3.716   3.948  0.00  0.00    -0.080 A 
ATOM      4  C3  UNL d   1      -5.709   4.902   4.634  0.00  0.00     0.150 A 
ATOM      5  C4  UNL d   1      -5.152   5.999   3.984  0.00  0.00    -0.007 A 
ATOM      6  C5  UNL d   1      -4.832   5.910   2.630  0.00  0.00     0.039 A 
ENDROOT
BRANCH   4   7
ATOM      7  O   UNL d   1      -6.000   5.033   5.959  0.00  0.00    -0.526 OA
ATOM      8  H5  UNL d   1      -6.352   4.186   6.281  0.00  0.00     0.418 HD
ENDBRANCH   4   7
TORSDOF 1
ENDMDL
