MODEL 1
REMARK minimizedAffinity 11.2121992
REMARK minimizedRMSD -1
REMARK  1 active torsions:
REMARK  status: ('A' for Active; 'I' for Inactive)
REMARK    1  A    between atoms: C3_4  and  O_7 
ROOT
ATOM      1  C   UNL d   1       3.927   1.596  -0.712  0.00  0.00    -0.033 A 
ATOM      2  C1  UNL d   1       4.847   1.982  -1.688  0.00  0.00     0.039 A 
ATOM      3  C2  UNL d   1       4.855   1.348  -2.932  0.00  0.00    -0.080 A 
ATOM      4  C3  UNL d   1       3.938   0.331  -3.186  0.00  0.00     0.150 A 
ATOM      5  C4  UNL d   1       3.016  -0.056  -2.219  0.00  0.00    -0.007 A 
ATOM      6  C5  UNL d   1       3.011   0.578  -0.977  0.00  0.00     0.039 A 
ENDROOT
BRANCH   4   7
ATOM      7  O   UNL d   1       3.911  -0.321  -4.383  0.00  0.00    -0.526 OA
ATOM      8  H5  UNL d   1       4.623   0.033  -4.942  0.00  0.00     0.418 HD
ENDBRANCH   4   7
TORSDOF 1
ENDMDL
