MODEL 1
REMARK minimizedAffinity 6.87685204
REMARK minimizedRMSD -1
REMARK  1 active torsions:
REMARK  status: ('A' for Active; 'I' for Inactive)
REMARK    1  A    between atoms: C3_4  and  O_7 
ROOT
ATOM      1  C   UNL d   1       3.326   0.408   0.082  0.00  0.00    -0.033 A 
ATOM      2  C1  UNL d   1       4.349   1.179   0.636  0.00  0.00     0.039 A 
ATOM      3  C2  UNL d   1       5.225   1.880  -0.195  0.00  0.00    -0.080 A 
ATOM      4  C3  UNL d   1       5.066   1.803  -1.576  0.00  0.00     0.150 A 
ATOM      5  C4  UNL d   1       4.047   1.040  -2.135  0.00  0.00    -0.007 A 
ATOM      6  C5  UNL d   1       3.174   0.339  -1.304  0.00  0.00     0.039 A 
ENDROOT
BRANCH   4   7
ATOM      7  O   UNL d   1       5.899   2.466  -2.427  0.00  0.00    -0.526 OA
ATOM      8  H5  UNL d   1       6.573   2.929  -1.901  0.00  0.00     0.418 HD
ENDBRANCH   4   7
TORSDOF 1
ENDMDL
