MODEL 1
REMARK minimizedAffinity 3.45742679
REMARK minimizedRMSD -1
REMARK  1 active torsions:
REMARK  status: ('A' for Active; 'I' for Inactive)
REMARK    1  A    between atoms: C3_4  and  O_7 
ROOT
ATOM      1  C   UNL d   1       3.018   0.025  -0.229  0.00  0.00    -0.033 A 
ATOM      2  C1  UNL d   1       3.926   0.805   0.491  0.00  0.00     0.039 A 
ATOM      3  C2  UNL d   1       4.935   1.500  -0.178  0.00  0.00    -0.080 A 
ATOM      4  C3  UNL d   1       5.026   1.407  -1.564  0.00  0.00     0.150 A 
ATOM      5  C4  UNL d   1       4.124   0.634  -2.287  0.00  0.00    -0.007 A 
ATOM      6  C5  UNL d   1       3.117  -0.059  -1.618  0.00  0.00     0.039 A 
ENDROOT
BRANCH   4   7
ATOM      7  O   UNL d   1       5.998   2.063  -2.260  0.00  0.00    -0.526 OA
ATOM      8  H5  UNL d   1       6.566   2.533  -1.627  0.00  0.00     0.418 HD
ENDBRANCH   4   7
TORSDOF 1
ENDMDL
