MODEL 1
REMARK minimizedAffinity 6.24496651
REMARK minimizedRMSD -1
REMARK  1 active torsions:
REMARK  status: ('A' for Active; 'I' for Inactive)
REMARK    1  A    between atoms: C3_4  and  O_7 
ROOT
ATOM      1  C   UNL d   1       3.021  -0.404   2.579  0.00  0.00    -0.033 A 
ATOM      2  C1  UNL d   1       4.101  -1.144   2.094  0.00  0.00     0.039 A 
ATOM      3  C2  UNL d   1       5.114  -1.555   2.963  0.00  0.00    -0.080 A 
ATOM      4  C3  UNL d   1       5.034  -1.221   4.313  0.00  0.00     0.150 A 
ATOM      5  C4  UNL d   1       3.958  -0.488   4.803  0.00  0.00    -0.007 A 
ATOM      6  C5  UNL d   1       2.949  -0.077   3.933  0.00  0.00     0.039 A 
ENDROOT
BRANCH   4   7
ATOM      7  O   UNL d   1       6.000  -1.596   5.198  0.00  0.00    -0.526 OA
ATOM      8  H5  UNL d   1       6.694  -2.072   4.713  0.00  0.00     0.418 HD
ENDBRANCH   4   7
TORSDOF 1
ENDMDL
