MODEL 1
REMARK minimizedAffinity 5.70255375
REMARK minimizedRMSD -1
REMARK  1 active torsions:
REMARK  status: ('A' for Active; 'I' for Inactive)
REMARK    1  A    between atoms: C3_4  and  O_7 
ROOT
ATOM      1  C   UNL d   1       5.982   2.423  -1.556  0.00  0.00    -0.033 A 
ATOM      2  C1  UNL d   1       5.998   2.284  -0.167  0.00  0.00     0.039 A 
ATOM      3  C2  UNL d   1       4.971   1.593   0.479  0.00  0.00    -0.080 A 
ATOM      4  C3  UNL d   1       3.936   1.047  -0.275  0.00  0.00     0.150 A 
ATOM      5  C4  UNL d   1       3.915   1.179  -1.660  0.00  0.00    -0.007 A 
ATOM      6  C5  UNL d   1       4.942   1.870  -2.303  0.00  0.00     0.039 A 
ENDROOT
BRANCH   4   7
ATOM      7  O   UNL d   1       2.909   0.369   0.311  0.00  0.00    -0.526 OA
ATOM      8  H5  UNL d   1       3.041   0.382   1.274  0.00  0.00     0.418 HD
ENDBRANCH   4   7
TORSDOF 1
ENDMDL
