MODEL 1
REMARK minimizedAffinity 7.06036329
REMARK minimizedRMSD -1
REMARK  1 active torsions:
REMARK  status: ('A' for Active; 'I' for Inactive)
REMARK    1  A    between atoms: C3_4  and  O_7 
ROOT
ATOM      1  C   UNL d   1       1.505   3.551   1.308  0.00  0.00    -0.033 A 
ATOM      2  C1  UNL d   1       0.492   4.118   2.084  0.00  0.00     0.039 A 
ATOM      3  C2  UNL d   1       0.408   3.827   3.446  0.00  0.00    -0.080 A 
ATOM      4  C3  UNL d   1       1.341   2.968   4.021  0.00  0.00     0.150 A 
ATOM      5  C4  UNL d   1       2.355   2.402   3.255  0.00  0.00    -0.007 A 
ATOM      6  C5  UNL d   1       2.437   2.694   1.894  0.00  0.00     0.039 A 
ENDROOT
BRANCH   4   7
ATOM      7  O   UNL d   1       1.296   2.650   5.346  0.00  0.00    -0.526 OA
ATOM      8  H5  UNL d   1       0.527   3.091   5.742  0.00  0.00     0.418 HD
ENDBRANCH   4   7
TORSDOF 1
ENDMDL
