MODEL 1
REMARK minimizedAffinity 8.19095516
REMARK minimizedRMSD -1
REMARK  1 active torsions:
REMARK  status: ('A' for Active; 'I' for Inactive)
REMARK    1  A    between atoms: C3_4  and  O_7 
ROOT
ATOM      1  C   UNL d   1       6.000   2.613  -1.857  0.00  0.00    -0.033 A 
ATOM      2  C1  UNL d   1       5.096   1.984  -2.715  0.00  0.00     0.039 A 
ATOM      3  C2  UNL d   1       3.992   1.306  -2.193  0.00  0.00    -0.080 A 
ATOM      4  C3  UNL d   1       3.804   1.267  -0.814  0.00  0.00     0.150 A 
ATOM      5  C4  UNL d   1       4.698   1.895   0.046  0.00  0.00    -0.007 A 
ATOM      6  C5  UNL d   1       5.800   2.571  -0.477  0.00  0.00     0.039 A 
ENDROOT
BRANCH   4   7
ATOM      7  O   UNL d   1       2.744   0.614  -0.258  0.00  0.00    -0.526 OA
ATOM      8  H5  UNL d   1       2.227   0.203  -0.971  0.00  0.00     0.418 HD
ENDBRANCH   4   7
TORSDOF 1
ENDMDL
