MODEL 1
REMARK minimizedAffinity 10.7188616
REMARK minimizedRMSD -1
REMARK  1 active torsions:
REMARK  status: ('A' for Active; 'I' for Inactive)
REMARK    1  A    between atoms: C1_2  and  C2_3 
ROOT
ATOM      1  C2  UNL d   1       4.931  -2.982  -1.786  0.00  0.00    -0.081 A 
ATOM      2  C3  UNL d   1       4.735  -4.317  -1.414  0.00  0.00     0.006 A 
ATOM      3  C4  UNL d   1       4.500  -5.295  -2.384  0.00  0.00     0.002 A 
ATOM      4  C5  UNL d   1       4.464  -4.955  -3.740  0.00  0.00    -0.080 A 
ATOM      5  C6  UNL d   1       4.242  -6.000  -4.793  0.00  0.00     0.076 C 
ATOM      6  C7  UNL d   1       4.642  -3.618  -4.111  0.00  0.00     0.002 A 
ATOM      7  C8  UNL d   1       4.876  -2.640  -3.142  0.00  0.00     0.006 A 
ENDROOT
BRANCH   1   8
ATOM      8  C1  UNL d   1       5.249  -1.936  -0.748  0.00  0.00     0.054 C 
ATOM      9  C   UNL d   1       3.997  -1.498  -0.001  0.00  0.00     0.018 C 
ENDBRANCH   1   8
TORSDOF 1
ENDMDL
