MODEL 1
REMARK minimizedAffinity 14.8811455
REMARK minimizedRMSD -1
REMARK  1 active torsions:
REMARK  status: ('A' for Active; 'I' for Inactive)
REMARK    1  A    between atoms: C1_2  and  C2_3 
ROOT
ATOM      1  C2  UNL d   1      -0.171   2.544  -0.096  0.00  0.00    -0.081 A 
ATOM      2  C3  UNL d   1       0.827   1.588  -0.321  0.00  0.00     0.006 A 
ATOM      3  C4  UNL d   1       0.505   0.343  -0.866  0.00  0.00     0.002 A 
ATOM      4  C5  UNL d   1      -0.818   0.036  -1.203  0.00  0.00    -0.080 A 
ATOM      5  C6  UNL d   1      -1.173  -1.285  -1.817  0.00  0.00     0.076 C 
ATOM      6  C7  UNL d   1      -1.818   0.985  -0.962  0.00  0.00     0.002 A 
ATOM      7  C8  UNL d   1      -1.496   2.230  -0.416  0.00  0.00     0.006 A 
ENDROOT
BRANCH   1   8
ATOM      8  C1  UNL d   1       0.182   3.911   0.432  0.00  0.00     0.054 C 
ATOM      9  C   UNL d   1       0.277   4.931  -0.694  0.00  0.00     0.018 C 
ENDBRANCH   1   8
TORSDOF 1
ENDMDL
