MODEL 1
REMARK minimizedAffinity 5.57080984
REMARK minimizedRMSD -1
REMARK  1 active torsions:
REMARK  status: ('A' for Active; 'I' for Inactive)
REMARK    1  A    between atoms: C1_2  and  C2_3 
ROOT
ATOM      1  C2  UNL d   1       0.418   3.760   0.619  0.00  0.00    -0.081 A 
ATOM      2  C3  UNL d   1      -0.723   3.294  -0.045  0.00  0.00     0.006 A 
ATOM      3  C4  UNL d   1      -1.274   4.021  -1.103  0.00  0.00     0.002 A 
ATOM      4  C5  UNL d   1      -0.690   5.222  -1.519  0.00  0.00    -0.080 A 
ATOM      5  C6  UNL d   1      -1.253   5.997  -2.673  0.00  0.00     0.076 C 
ATOM      6  C7  UNL d   1       0.440   5.697  -0.845  0.00  0.00     0.002 A 
ATOM      7  C8  UNL d   1       0.992   4.971   0.213  0.00  0.00     0.006 A 
ENDROOT
BRANCH   1   8
ATOM      8  C1  UNL d   1       1.052   2.946   1.717  0.00  0.00     0.054 C 
ATOM      9  C   UNL d   1       0.026   2.532   2.762  0.00  0.00     0.018 C 
ENDBRANCH   1   8
TORSDOF 1
ENDMDL
