MODEL 1
REMARK minimizedAffinity 8.81857586
REMARK minimizedRMSD -1
REMARK  1 active torsions:
REMARK  status: ('A' for Active; 'I' for Inactive)
REMARK    1  A    between atoms: C1_2  and  C2_3 
ROOT
ATOM      1  C2  UNL d   1      -0.211   5.173  -1.190  0.00  0.00    -0.081 A 
ATOM      2  C3  UNL d   1      -1.051   5.591  -2.229  0.00  0.00     0.006 A 
ATOM      3  C4  UNL d   1      -0.528   5.871  -3.494  0.00  0.00     0.002 A 
ATOM      4  C5  UNL d   1       0.842   5.731  -3.742  0.00  0.00    -0.080 A 
ATOM      5  C6  UNL d   1       1.412   6.000  -5.103  0.00  0.00     0.076 C 
ATOM      6  C7  UNL d   1       1.684   5.331  -2.699  0.00  0.00     0.002 A 
ATOM      7  C8  UNL d   1       1.162   5.051  -1.435  0.00  0.00     0.006 A 
ENDROOT
BRANCH   1   8
ATOM      8  C1  UNL d   1      -0.781   4.807   0.157  0.00  0.00     0.054 C 
ATOM      9  C   UNL d   1      -0.363   3.404   0.572  0.00  0.00     0.018 C 
ENDBRANCH   1   8
TORSDOF 1
ENDMDL
