MODEL 1
REMARK minimizedAffinity 5.88493538
REMARK minimizedRMSD -1
REMARK  1 active torsions:
REMARK  status: ('A' for Active; 'I' for Inactive)
REMARK    1  A    between atoms: C1_2  and  C2_3 
ROOT
ATOM      1  C2  UNL d   1       4.605  -3.613  -1.865  0.00  0.00    -0.081 A 
ATOM      2  C3  UNL d   1       3.469  -3.044  -1.277  0.00  0.00     0.006 A 
ATOM      3  C4  UNL d   1       3.597  -2.136  -0.223  0.00  0.00     0.002 A 
ATOM      4  C5  UNL d   1       4.862  -1.776   0.255  0.00  0.00    -0.080 A 
ATOM      5  C6  UNL d   1       5.014  -0.779   1.365  0.00  0.00     0.076 C 
ATOM      6  C7  UNL d   1       5.996  -2.358  -0.321  0.00  0.00     0.002 A 
ATOM      7  C8  UNL d   1       5.869  -3.266  -1.374  0.00  0.00     0.006 A 
ENDROOT
BRANCH   1   8
ATOM      8  C1  UNL d   1       4.474  -4.543  -3.044  0.00  0.00     0.054 C 
ATOM      9  C   UNL d   1       3.050  -5.062  -3.183  0.00  0.00     0.018 C 
ENDBRANCH   1   8
TORSDOF 1
ENDMDL
