MODEL 1
REMARK minimizedAffinity 7.41141081
REMARK minimizedRMSD -1
REMARK  1 active torsions:
REMARK  status: ('A' for Active; 'I' for Inactive)
REMARK    1  A    between atoms: C1_2  and  C2_3 
ROOT
ATOM      1  C2  UNL d   1       0.171   0.865   4.108  0.00  0.00    -0.081 A 
ATOM      2  C3  UNL d   1      -0.954   1.670   3.893  0.00  0.00     0.006 A 
ATOM      3  C4  UNL d   1      -0.959   2.623   2.872  0.00  0.00     0.002 A 
ATOM      4  C5  UNL d   1       0.157   2.781   2.044  0.00  0.00    -0.080 A 
ATOM      5  C6  UNL d   1       0.154   3.780   0.924  0.00  0.00     0.076 C 
ATOM      6  C7  UNL d   1       1.288   1.989   2.269  0.00  0.00     0.002 A 
ATOM      7  C8  UNL d   1       1.294   1.037   3.290  0.00  0.00     0.006 A 
ENDROOT
BRANCH   1   8
ATOM      8  C1  UNL d   1       0.156  -0.208   5.167  0.00  0.00     0.054 C 
ATOM      9  C   UNL d   1       1.083  -1.358   4.802  0.00  0.00     0.018 C 
ENDBRANCH   1   8
TORSDOF 1
ENDMDL
