MODEL 1
REMARK minimizedAffinity 11.1891212
REMARK minimizedRMSD -1
REMARK  1 active torsions:
REMARK  status: ('A' for Active; 'I' for Inactive)
REMARK    1  A    between atoms: C1_2  and  C2_3 
ROOT
ATOM      1  C2  UNL d   1      -0.218   2.100  -0.007  0.00  0.00    -0.081 A 
ATOM      2  C3  UNL d   1      -1.541   1.659  -0.132  0.00  0.00     0.006 A 
ATOM      3  C4  UNL d   1      -1.827   0.448  -0.768  0.00  0.00     0.002 A 
ATOM      4  C5  UNL d   1      -0.795  -0.345  -1.282  0.00  0.00    -0.080 A 
ATOM      5  C6  UNL d   1      -1.086  -1.661  -1.939  0.00  0.00     0.076 C 
ATOM      6  C7  UNL d   1       0.525   0.104  -1.172  0.00  0.00     0.002 A 
ATOM      7  C8  UNL d   1       0.812   1.315  -0.537  0.00  0.00     0.006 A 
ENDROOT
BRANCH   1   8
ATOM      8  C1  UNL d   1       0.098   3.373   0.735  0.00  0.00     0.054 C 
ATOM      9  C   UNL d   1       0.386   4.517  -0.227  0.00  0.00     0.018 C 
ENDBRANCH   1   8
TORSDOF 1
ENDMDL
