MODEL 1
REMARK minimizedAffinity 6.32838297
REMARK minimizedRMSD -1
REMARK  0 active torsions:
REMARK  status: ('A' for Active; 'I' for Inactive)
ROOT
ATOM      1  C   UNL d   1       3.453  -2.203   3.439  0.00  0.00     0.172 C 
ATOM      2  N   UNL d   1       4.370  -2.604   4.480  0.00  0.00    -0.070 N 
ATOM      3  C1  UNL d   1       5.331  -1.811   5.046  0.00  0.00    -0.004 A 
ATOM      4  C2  UNL d   1       5.992  -2.560   5.996  0.00  0.00    -0.047 A 
ATOM      5  C3  UNL d   1       5.407  -3.849   6.000  0.00  0.00    -0.047 A 
ATOM      6  C4  UNL d   1       4.406  -3.849   5.052  0.00  0.00    -0.004 A 
ENDROOT
TORSDOF 0
ENDMDL
