MODEL 1
REMARK minimizedAffinity 0.630277812
REMARK minimizedRMSD -1
REMARK  0 active torsions:
REMARK  status: ('A' for Active; 'I' for Inactive)
ROOT
ATOM      1  C   UNL d   1       2.455  -5.805   0.078  0.00  0.00     0.172 C 
ATOM      2  N   UNL d   1       2.416  -4.394   0.383  0.00  0.00    -0.070 N 
ATOM      3  C1  UNL d   1       1.398  -3.535   0.064  0.00  0.00    -0.004 A 
ATOM      4  C2  UNL d   1       1.741  -2.283   0.527  0.00  0.00    -0.047 A 
ATOM      5  C3  UNL d   1       3.010  -2.393   1.144  0.00  0.00    -0.047 A 
ATOM      6  C4  UNL d   1       3.405  -3.710   1.041  0.00  0.00    -0.004 A 
ENDROOT
TORSDOF 0
ENDMDL
