MODEL 1
REMARK minimizedAffinity 8.29462051
REMARK minimizedRMSD -1
REMARK  0 active torsions:
REMARK  status: ('A' for Active; 'I' for Inactive)
ROOT
ATOM      1  C   UNL d   1      -5.066  -2.326  -2.151  0.00  0.00     0.172 C 
ATOM      2  N   UNL d   1      -5.242  -1.956  -3.535  0.00  0.00    -0.070 N 
ATOM      3  C1  UNL d   1      -5.997  -0.909  -3.992  0.00  0.00    -0.004 A 
ATOM      4  C2  UNL d   1      -5.907  -0.892  -5.368  0.00  0.00    -0.047 A 
ATOM      5  C3  UNL d   1      -5.069  -1.967  -5.750  0.00  0.00    -0.047 A 
ATOM      6  C4  UNL d   1      -4.671  -2.609  -4.596  0.00  0.00    -0.004 A 
ENDROOT
TORSDOF 0
ENDMDL
