MODEL 1
REMARK minimizedAffinity 1.4686271
REMARK minimizedRMSD -1
REMARK  0 active torsions:
REMARK  status: ('A' for Active; 'I' for Inactive)
ROOT
ATOM      1  C   UNL d   1       3.786  -5.040   0.664  0.00  0.00     0.172 C 
ATOM      2  N   UNL d   1       3.068  -3.816   0.933  0.00  0.00    -0.070 N 
ATOM      3  C1  UNL d   1       3.437  -2.857   1.838  0.00  0.00    -0.004 A 
ATOM      4  C2  UNL d   1       2.495  -1.852   1.796  0.00  0.00    -0.047 A 
ATOM      5  C3  UNL d   1       1.525  -2.221   0.833  0.00  0.00    -0.047 A 
ATOM      6  C4  UNL d   1       1.905  -3.441   0.314  0.00  0.00    -0.004 A 
ENDROOT
TORSDOF 0
ENDMDL
