MODEL 1
REMARK minimizedAffinity 1.31685555
REMARK minimizedRMSD -1
REMARK  0 active torsions:
REMARK  status: ('A' for Active; 'I' for Inactive)
ROOT
ATOM      1  C   UNL d   1       0.092   5.584  -5.685  0.00  0.00     0.172 C 
ATOM      2  N   UNL d   1      -1.125   5.261  -4.978  0.00  0.00    -0.070 N 
ATOM      3  C1  UNL d   1      -1.308   4.183  -4.154  0.00  0.00    -0.004 A 
ATOM      4  C2  UNL d   1      -2.599   4.230  -3.676  0.00  0.00    -0.047 A 
ATOM      5  C3  UNL d   1      -3.215   5.376  -4.233  0.00  0.00    -0.047 A 
ATOM      6  C4  UNL d   1      -2.280   5.996  -5.035  0.00  0.00    -0.004 A 
ENDROOT
TORSDOF 0
ENDMDL
