MODEL 1
REMARK minimizedAffinity 2.68094707
REMARK minimizedRMSD -1
REMARK  0 active torsions:
REMARK  status: ('A' for Active; 'I' for Inactive)
ROOT
ATOM      1  C   UNL d   1       4.787  -5.697   5.999  0.00  0.00     0.172 C 
ATOM      2  N   UNL d   1       4.931  -4.324   5.578  0.00  0.00    -0.070 N 
ATOM      3  C1  UNL d   1       5.904  -3.457   6.000  0.00  0.00    -0.004 A 
ATOM      4  C2  UNL d   1       5.698  -2.250   5.368  0.00  0.00    -0.047 A 
ATOM      5  C3  UNL d   1       4.561  -2.396   4.538  0.00  0.00    -0.047 A 
ATOM      6  C4  UNL d   1       4.106  -3.689   4.687  0.00  0.00    -0.004 A 
ENDROOT
TORSDOF 0
ENDMDL
