MODEL 1
REMARK minimizedAffinity 10.2680197
REMARK minimizedRMSD -1
REMARK  0 active torsions:
REMARK  status: ('A' for Active; 'I' for Inactive)
ROOT
ATOM      1  C   UNL d   1      -2.579  -0.909   1.726  0.00  0.00     0.172 C 
ATOM      2  N   UNL d   1      -3.393   0.222   2.105  0.00  0.00    -0.070 N 
ATOM      3  C1  UNL d   1      -3.297   0.917   3.280  0.00  0.00    -0.004 A 
ATOM      4  C2  UNL d   1      -4.243   1.919   3.258  0.00  0.00    -0.047 A 
ATOM      5  C3  UNL d   1      -4.934   1.821   2.026  0.00  0.00    -0.047 A 
ATOM      6  C4  UNL d   1      -4.387   0.762   1.332  0.00  0.00    -0.004 A 
ENDROOT
TORSDOF 0
ENDMDL
