MODEL 1
REMARK minimizedAffinity 4.27204037
REMARK minimizedRMSD -1
REMARK  0 active torsions:
REMARK  status: ('A' for Active; 'I' for Inactive)
ROOT
ATOM      1  C   UNL d   1       0.391  -1.412   2.046  0.00  0.00     0.172 C 
ATOM      2  N   UNL d   1       1.150  -2.375   1.283  0.00  0.00    -0.070 N 
ATOM      3  C1  UNL d   1       2.469  -2.256   0.936  0.00  0.00    -0.004 A 
ATOM      4  C2  UNL d   1       2.818  -3.378   0.215  0.00  0.00    -0.047 A 
ATOM      5  C3  UNL d   1       1.669  -4.198   0.125  0.00  0.00    -0.047 A 
ATOM      6  C4  UNL d   1       0.651  -3.553   0.795  0.00  0.00    -0.004 A 
ENDROOT
TORSDOF 0
ENDMDL
