MODEL 1
REMARK minimizedAffinity 3.65694857
REMARK minimizedRMSD -1
REMARK  0 active torsions:
REMARK  status: ('A' for Active; 'I' for Inactive)
ROOT
ATOM      1  C   UNL d   1       0.121  -1.157   2.549  0.00  0.00     0.172 C 
ATOM      2  N   UNL d   1       1.069  -1.754   1.638  0.00  0.00    -0.070 N 
ATOM      3  C1  UNL d   1       2.416  -1.878   1.855  0.00  0.00    -0.004 A 
ATOM      4  C2  UNL d   1       2.965  -2.499   0.754  0.00  0.00    -0.047 A 
ATOM      5  C3  UNL d   1       1.912  -2.758  -0.156  0.00  0.00    -0.047 A 
ATOM      6  C4  UNL d   1       0.750  -2.286   0.417  0.00  0.00    -0.004 A 
ENDROOT
TORSDOF 0
ENDMDL
