MODEL 1
REMARK minimizedAffinity 7.3849349
REMARK minimizedRMSD -1
REMARK  0 active torsions:
REMARK  status: ('A' for Active; 'I' for Inactive)
ROOT
ATOM      1  C   UNL d   1      -1.877   0.356   3.391  0.00  0.00     0.172 C 
ATOM      2  N   UNL d   1      -3.183   0.946   3.213  0.00  0.00    -0.070 N 
ATOM      3  C1  UNL d   1      -3.967   0.828   2.097  0.00  0.00    -0.004 A 
ATOM      4  C2  UNL d   1      -5.130   1.532   2.322  0.00  0.00    -0.047 A 
ATOM      5  C3  UNL d   1      -5.042   2.093   3.618  0.00  0.00    -0.047 A 
ATOM      6  C4  UNL d   1      -3.826   1.714   4.147  0.00  0.00    -0.004 A 
ENDROOT
TORSDOF 0
ENDMDL
