MODEL 1
REMARK minimizedAffinity 6.1340723
REMARK minimizedRMSD -1
REMARK  2 active torsions:
REMARK  status: ('A' for Active; 'I' for Inactive)
REMARK    1  A    between atoms: C2'_3  and  C1'_4 
REMARK    2  A    between atoms: C1'_4  and  C1_5 
ROOT
ATOM      1  C1  I4B d   1      -1.044  -0.024   1.353  0.00  0.00    -0.075 A 
ATOM      2  C2  I4B d   1       0.302  -0.074   1.087  0.00  0.00     0.003 A 
ATOM      3  C3  I4B d   1       0.766  -0.022  -0.250  0.00  0.00     0.002 A 
ATOM      4  C4  I4B d   1      -0.145   0.027  -1.285  0.00  0.00    -0.004 A 
ATOM      5  C5  I4B d   1      -1.508   0.101  -1.012  0.00  0.00     0.002 A 
ATOM      6  C6  I4B d   1      -1.960   0.087   0.316  0.00  0.00     0.003 A 
ENDROOT
BRANCH   1   7
ATOM      7  C1' I4B d   1      -1.501  -0.114   2.774  0.00  0.00     0.060 C 
BRANCH   7   8
ATOM      8  C2' I4B d   1      -0.775  -1.273   3.426  0.00  0.00    -0.013 C 
ATOM      9  C4' I4B d   1      -0.030  -0.828   4.657  0.00  0.00     0.013 C 
ATOM     10  C3' I4B d   1      -1.789  -2.326   3.759  0.00  0.00     0.013 C 
ENDBRANCH   7   8
ENDBRANCH   1   7
TORSDOF 2
ENDMDL
