MODEL 1
REMARK minimizedAffinity -1.49416614
REMARK minimizedRMSD -1
REMARK  2 active torsions:
REMARK  status: ('A' for Active; 'I' for Inactive)
REMARK    1  A    between atoms: C2'_3  and  C1'_4 
REMARK    2  A    between atoms: C1'_4  and  C1_5 
ROOT
ATOM      1  C1  I4B d   1       0.281  -0.275   1.056  0.00  0.00    -0.075 A 
ATOM      2  C2  I4B d   1       0.282  -0.680   2.367  0.00  0.00     0.003 A 
ATOM      3  C3  I4B d   1      -0.864  -0.480   3.175  0.00  0.00     0.002 A 
ATOM      4  C4  I4B d   1      -1.961   0.170   2.650  0.00  0.00    -0.004 A 
ATOM      5  C5  I4B d   1      -1.969   0.560   1.313  0.00  0.00     0.002 A 
ATOM      6  C6  I4B d   1      -0.845   0.325   0.508  0.00  0.00     0.003 A 
ENDROOT
BRANCH   1   7
ATOM      7  C1' I4B d   1       1.519  -0.472   0.240  0.00  0.00     0.060 C 
BRANCH   7   8
ATOM      8  C2' I4B d   1       1.983   0.888  -0.242  0.00  0.00    -0.013 C 
ATOM      9  C4' I4B d   1       2.434   1.749   0.908  0.00  0.00     0.013 C 
ATOM     10  C3' I4B d   1       3.092   0.676  -1.228  0.00  0.00     0.013 C 
ENDBRANCH   7   8
ENDBRANCH   1   7
TORSDOF 2
ENDMDL
