MODEL 1
REMARK minimizedAffinity 2.63709378
REMARK minimizedRMSD -1
REMARK  2 active torsions:
REMARK  status: ('A' for Active; 'I' for Inactive)
REMARK    1  A    between atoms: C2'_3  and  C1'_4 
REMARK    2  A    between atoms: C1'_4  and  C1_5 
ROOT
ATOM      1  C1  I4B d   1      -0.317  -0.395   1.214  0.00  0.00    -0.075 A 
ATOM      2  C2  I4B d   1      -0.523  -0.275  -0.138  0.00  0.00     0.003 A 
ATOM      3  C3  I4B d   1      -1.819  -0.003  -0.639  0.00  0.00     0.002 A 
ATOM      4  C4  I4B d   1      -2.881   0.089   0.236  0.00  0.00    -0.004 A 
ATOM      5  C5  I4B d   1      -2.666  -0.011   1.608  0.00  0.00     0.002 A 
ATOM      6  C6  I4B d   1      -1.374  -0.242   2.101  0.00  0.00     0.003 A 
ENDROOT
BRANCH   1   7
ATOM      7  C1' I4B d   1       1.059  -0.715   1.707  0.00  0.00     0.060 C 
BRANCH   7   8
ATOM      8  C2' I4B d   1       2.052   0.026   0.835  0.00  0.00    -0.013 C 
ATOM      9  C4' I4B d   1       2.747   1.117   1.606  0.00  0.00     0.013 C 
ATOM     10  C3' I4B d   1       3.036  -0.972   0.302  0.00  0.00     0.013 C 
ENDBRANCH   7   8
ENDBRANCH   1   7
TORSDOF 2
ENDMDL
