MODEL 1
REMARK minimizedAffinity 4.31126261
REMARK minimizedRMSD -1
REMARK  0 active torsions:
REMARK  status: ('A' for Active; 'I' for Inactive)
ROOT
ATOM      1  N1  IND d   1      -0.675   2.756  -1.826  0.00  0.00    -0.196 N 
ATOM      2  C2  IND d   1      -0.522   1.407  -1.667  0.00  0.00     0.054 A 
ATOM      3  C3  IND d   1      -1.577   0.748  -2.197  0.00  0.00    -0.031 A 
ATOM      4  C4  IND d   1      -3.616   1.677  -3.464  0.00  0.00     0.051 A 
ATOM      5  C5  IND d   1      -4.215   2.851  -3.828  0.00  0.00    -0.031 A 
ATOM      6  C6  IND d   1      -3.652   4.077  -3.540  0.00  0.00     0.015 A 
ATOM      7  C7  IND d   1      -2.458   4.176  -2.884  0.00  0.00    -0.016 A 
ATOM      8  C8  IND d   1      -1.850   2.987  -2.507  0.00  0.00    -0.047 A 
ATOM      9  C9  IND d   1      -2.438   1.740  -2.759  0.00  0.00    -0.096 A 
ATOM     10  HN1 IND d   1      -0.129   3.359  -1.548  0.00  0.00     0.298 HD
ENDROOT
TORSDOF 0
ENDMDL
