MODEL 1
REMARK minimizedAffinity 2.4300499
REMARK minimizedRMSD -1
REMARK  0 active torsions:
REMARK  status: ('A' for Active; 'I' for Inactive)
ROOT
ATOM      1  N1  IND d   1      -0.427   1.309  -0.850  0.00  0.00    -0.196 N 
ATOM      2  C2  IND d   1      -1.134   0.754  -1.880  0.00  0.00     0.054 A 
ATOM      3  C3  IND d   1      -1.548   1.714  -2.737  0.00  0.00    -0.031 A 
ATOM      4  C4  IND d   1      -1.093   4.247  -2.700  0.00  0.00     0.051 A 
ATOM      5  C5  IND d   1      -0.526   5.229  -1.936  0.00  0.00    -0.031 A 
ATOM      6  C6  IND d   1       0.119   4.948  -0.749  0.00  0.00     0.015 A 
ATOM      7  C7  IND d   1       0.230   3.668  -0.284  0.00  0.00    -0.016 A 
ATOM      8  C8  IND d   1      -0.351   2.669  -1.054  0.00  0.00    -0.047 A 
ATOM      9  C9  IND d   1      -1.043   2.953  -2.238  0.00  0.00    -0.096 A 
ATOM     10  HN1 IND d   1      -0.088   0.881  -0.186  0.00  0.00     0.298 HD
ENDROOT
TORSDOF 0
ENDMDL
