MODEL 1
REMARK minimizedAffinity 6.26331472
REMARK minimizedRMSD -1
REMARK  0 active torsions:
REMARK  status: ('A' for Active; 'I' for Inactive)
ROOT
ATOM      1  N1  IND d   1       0.878  -4.899  -2.750  0.00  0.00    -0.196 N 
ATOM      2  C2  IND d   1       0.369  -5.047  -1.490  0.00  0.00     0.054 A 
ATOM      3  C3  IND d   1       1.329  -5.483  -0.643  0.00  0.00    -0.031 A 
ATOM      4  C4  IND d   1       3.826  -5.922  -1.088  0.00  0.00     0.051 A 
ATOM      5  C5  IND d   1       4.750  -5.961  -2.094  0.00  0.00    -0.031 A 
ATOM      6  C6  IND d   1       4.425  -5.639  -3.396  0.00  0.00     0.015 A 
ATOM      7  C7  IND d   1       3.160  -5.253  -3.740  0.00  0.00    -0.016 A 
ATOM      8  C8  IND d   1       2.218  -5.219  -2.722  0.00  0.00    -0.047 A 
ATOM      9  C9  IND d   1       2.532  -5.586  -1.407  0.00  0.00    -0.096 A 
ATOM     10  HN1 IND d   1       0.436  -4.648  -3.443  0.00  0.00     0.298 HD
ENDROOT
TORSDOF 0
ENDMDL
