MODEL 1
REMARK minimizedAffinity 5.36402559
REMARK minimizedRMSD -1
REMARK  0 active torsions:
REMARK  status: ('A' for Active; 'I' for Inactive)
ROOT
ATOM      1  N1  IND d   1       0.669   2.295  -0.786  0.00  0.00    -0.196 N 
ATOM      2  C2  IND d   1       0.288   3.608  -0.816  0.00  0.00     0.054 A 
ATOM      3  C3  IND d   1      -0.905   3.737  -1.437  0.00  0.00    -0.031 A 
ATOM      4  C4  IND d   1      -2.459   1.918  -2.390  0.00  0.00     0.051 A 
ATOM      5  C5  IND d   1      -2.524   0.574  -2.627  0.00  0.00    -0.031 A 
ATOM      6  C6  IND d   1      -1.509  -0.283  -2.253  0.00  0.00     0.015 A 
ATOM      7  C7  IND d   1      -0.391   0.173  -1.614  0.00  0.00    -0.016 A 
ATOM      8  C8  IND d   1      -0.318   1.539  -1.378  0.00  0.00    -0.047 A 
ATOM      9  C9  IND d   1      -1.325   2.419  -1.793  0.00  0.00    -0.096 A 
ATOM     10  HN1 IND d   1       1.402   1.993  -0.453  0.00  0.00     0.298 HD
ENDROOT
TORSDOF 0
ENDMDL
