MODEL 1
REMARK minimizedAffinity 3.94060302
REMARK minimizedRMSD -1
REMARK  0 active torsions:
REMARK  status: ('A' for Active; 'I' for Inactive)
ROOT
ATOM      1  N1  IND d   1       0.008   1.550  -1.032  0.00  0.00    -0.196 N 
ATOM      2  C2  IND d   1      -0.941   0.699  -1.526  0.00  0.00     0.054 A 
ATOM      3  C3  IND d   1      -1.933   1.396  -2.124  0.00  0.00    -0.031 A 
ATOM      4  C4  IND d   1      -2.152   3.933  -2.501  0.00  0.00     0.051 A 
ATOM      5  C5  IND d   1      -1.552   5.123  -2.198  0.00  0.00    -0.031 A 
ATOM      6  C6  IND d   1      -0.375   5.184  -1.479  0.00  0.00     0.015 A 
ATOM      7  C7  IND d   1       0.253   4.051  -1.044  0.00  0.00    -0.016 A 
ATOM      8  C8  IND d   1      -0.358   2.842  -1.343  0.00  0.00    -0.047 A 
ATOM      9  C9  IND d   1      -1.574   2.776  -2.036  0.00  0.00    -0.096 A 
ATOM     10  HN1 IND d   1       0.714   1.318  -0.601  0.00  0.00     0.298 HD
ENDROOT
TORSDOF 0
ENDMDL
