MODEL 1
REMARK minimizedAffinity -1.96756876
REMARK minimizedRMSD -1
REMARK  0 active torsions:
REMARK  status: ('A' for Active; 'I' for Inactive)
ROOT
ATOM      1  N1  IND d   1       0.081   2.774  -1.275  0.00  0.00    -0.196 N 
ATOM      2  C2  IND d   1      -0.383   1.488  -1.285  0.00  0.00     0.054 A 
ATOM      3  C3  IND d   1      -0.241   0.927  -0.063  0.00  0.00    -0.031 A 
ATOM      4  C4  IND d   1       0.634   1.968   2.123  0.00  0.00     0.051 A 
ATOM      5  C5  IND d   1       1.206   3.105   2.621  0.00  0.00    -0.031 A 
ATOM      6  C6  IND d   1       1.434   4.213   1.831  0.00  0.00     0.015 A 
ATOM      7  C7  IND d   1       1.087   4.229   0.510  0.00  0.00    -0.016 A 
ATOM      8  C8  IND d   1       0.512   3.074  -0.001  0.00  0.00    -0.047 A 
ATOM      9  C9  IND d   1       0.317   1.932   0.785  0.00  0.00    -0.096 A 
ATOM     10  HN1 IND d   1       0.100   3.306  -1.950  0.00  0.00     0.298 HD
ENDROOT
TORSDOF 0
ENDMDL
