MODEL 1
REMARK minimizedAffinity 2.12708259
REMARK minimizedRMSD -1
REMARK  0 active torsions:
REMARK  status: ('A' for Active; 'I' for Inactive)
ROOT
ATOM      1  N1  IND d   1      -6.000  -2.642   0.943  0.00  0.00    -0.196 N 
ATOM      2  C2  IND d   1      -5.994  -1.518   0.166  0.00  0.00     0.054 A 
ATOM      3  C3  IND d   1      -5.999  -0.410   0.941  0.00  0.00    -0.031 A 
ATOM      4  C4  IND d   1      -5.912  -0.210   3.506  0.00  0.00     0.051 A 
ATOM      5  C5  IND d   1      -5.941  -0.961   4.647  0.00  0.00    -0.031 A 
ATOM      6  C6  IND d   1      -5.990  -2.340   4.611  0.00  0.00     0.015 A 
ATOM      7  C7  IND d   1      -6.000  -3.021   3.427  0.00  0.00    -0.016 A 
ATOM      8  C8  IND d   1      -5.977  -2.261   2.266  0.00  0.00    -0.047 A 
ATOM      9  C9  IND d   1      -5.970  -0.861   2.297  0.00  0.00    -0.096 A 
ATOM     10  HN1 IND d   1      -6.015  -3.452   0.653  0.00  0.00     0.298 HD
ENDROOT
TORSDOF 0
ENDMDL
