MODEL 1
REMARK minimizedAffinity -4.25402641
REMARK minimizedRMSD -1
REMARK  0 active torsions:
REMARK  status: ('A' for Active; 'I' for Inactive)
ROOT
ATOM      1  N1  IND d   1       0.167   1.092  -0.816  0.00  0.00    -0.196 N 
ATOM      2  C2  IND d   1       0.081   0.011   0.016  0.00  0.00     0.054 A 
ATOM      3  C3  IND d   1       0.124   0.407   1.308  0.00  0.00    -0.031 A 
ATOM      4  C4  IND d   1       0.229   2.786   2.286  0.00  0.00     0.051 A 
ATOM      5  C5  IND d   1       0.360   4.096   1.920  0.00  0.00    -0.031 A 
ATOM      6  C6  IND d   1       0.432   4.480   0.597  0.00  0.00     0.015 A 
ATOM      7  C7  IND d   1       0.364   3.565  -0.415  0.00  0.00    -0.016 A 
ATOM      8  C8  IND d   1       0.238   2.233  -0.047  0.00  0.00    -0.047 A 
ATOM      9  C9  IND d   1       0.208   1.833   1.295  0.00  0.00    -0.096 A 
ATOM     10  HN1 IND d   1       0.175   1.064  -1.676  0.00  0.00     0.298 HD
ENDROOT
TORSDOF 0
ENDMDL
