MODEL 1
REMARK minimizedAffinity 14.6942062
REMARK minimizedRMSD -1
REMARK  1 active torsions:
REMARK  status: ('A' for Active; 'I' for Inactive)
REMARK    1  A    between atoms: C1_2  and  C2_3 
ROOT
ATOM      1  C2  UNL d   1       2.273   0.690   3.495  0.00  0.00    -0.081 A 
ATOM      2  C3  UNL d   1       2.092  -0.110   2.361  0.00  0.00     0.006 A 
ATOM      3  C4  UNL d   1       0.842  -0.667   2.079  0.00  0.00     0.002 A 
ATOM      4  C5  UNL d   1      -0.249  -0.426   2.922  0.00  0.00    -0.080 A 
ATOM      5  C6  UNL d   1      -1.603  -0.993   2.614  0.00  0.00     0.076 C 
ATOM      6  C7  UNL d   1      -0.064   0.359   4.065  0.00  0.00     0.002 A 
ATOM      7  C8  UNL d   1       1.186   0.915   4.347  0.00  0.00     0.006 A 
ENDROOT
BRANCH   1   8
ATOM      8  C1  UNL d   1       3.603   1.345   3.767  0.00  0.00     0.054 C 
ATOM      9  C   UNL d   1       4.026   2.240   2.610  0.00  0.00     0.018 C 
ENDBRANCH   1   8
TORSDOF 1
ENDMDL
