MODEL 1
REMARK minimizedAffinity 6.79820013
REMARK minimizedRMSD -1
REMARK  1 active torsions:
REMARK  status: ('A' for Active; 'I' for Inactive)
REMARK    1  A    between atoms: C1_2  and  C2_3 
ROOT
ATOM      1  C2  UNL d   1      -0.130  -0.224   3.155  0.00  0.00    -0.081 A 
ATOM      2  C3  UNL d   1      -1.231   0.474   2.642  0.00  0.00     0.006 A 
ATOM      3  C4  UNL d   1      -2.490  -0.129   2.592  0.00  0.00     0.002 A 
ATOM      4  C5  UNL d   1      -2.672  -1.435   3.060  0.00  0.00    -0.080 A 
ATOM      5  C6  UNL d   1      -4.024  -2.082   3.040  0.00  0.00     0.076 C 
ATOM      6  C7  UNL d   1      -1.569  -2.137   3.557  0.00  0.00     0.002 A 
ATOM      7  C8  UNL d   1      -0.309  -1.536   3.607  0.00  0.00     0.006 A 
ENDROOT
BRANCH   1   8
ATOM      8  C1  UNL d   1       1.215   0.446   3.270  0.00  0.00     0.054 C 
ATOM      9  C   UNL d   1       1.788   0.777   1.900  0.00  0.00     0.018 C 
ENDBRANCH   1   8
TORSDOF 1
ENDMDL
