MODEL 1
REMARK minimizedAffinity 4.93892241
REMARK minimizedRMSD -1
REMARK  1 active torsions:
REMARK  status: ('A' for Active; 'I' for Inactive)
REMARK    1  A    between atoms: C1_2  and  C2_3 
ROOT
ATOM      1  C2  UNL d   1       3.881   2.146   3.151  0.00  0.00    -0.081 A 
ATOM      2  C3  UNL d   1       4.071   3.297   3.926  0.00  0.00     0.006 A 
ATOM      3  C4  UNL d   1       4.259   4.539   3.315  0.00  0.00     0.002 A 
ATOM      4  C5  UNL d   1       4.253   4.652   1.920  0.00  0.00    -0.080 A 
ATOM      5  C6  UNL d   1       4.424   5.984   1.252  0.00  0.00     0.076 C 
ATOM      6  C7  UNL d   1       4.082   3.500   1.146  0.00  0.00     0.002 A 
ATOM      7  C8  UNL d   1       3.894   2.257   1.756  0.00  0.00     0.006 A 
ENDROOT
BRANCH   1   8
ATOM      8  C1  UNL d   1       3.613   0.816   3.807  0.00  0.00     0.054 C 
ATOM      9  C   UNL d   1       2.174   0.370   3.588  0.00  0.00     0.018 C 
ENDBRANCH   1   8
TORSDOF 1
ENDMDL
