MODEL 1
REMARK minimizedAffinity 18.0548038
REMARK minimizedRMSD -1
REMARK  1 active torsions:
REMARK  status: ('A' for Active; 'I' for Inactive)
REMARK    1  A    between atoms: C1_2  and  C2_3 
ROOT
ATOM      1  C2  UNL d   1       0.392   1.926   1.497  0.00  0.00    -0.081 A 
ATOM      2  C3  UNL d   1      -0.795   2.476   1.997  0.00  0.00     0.006 A 
ATOM      3  C4  UNL d   1      -1.141   3.797   1.705  0.00  0.00     0.002 A 
ATOM      4  C5  UNL d   1      -0.310   4.588   0.904  0.00  0.00    -0.080 A 
ATOM      5  C6  UNL d   1      -0.684   5.999   0.558  0.00  0.00     0.076 C 
ATOM      6  C7  UNL d   1       0.885   4.044   0.419  0.00  0.00     0.002 A 
ATOM      7  C8  UNL d   1       1.231   2.723   0.711  0.00  0.00     0.006 A 
ENDROOT
BRANCH   1   8
ATOM      8  C1  UNL d   1       0.736   0.481   1.757  0.00  0.00     0.054 C 
ATOM      9  C   UNL d   1      -0.067  -0.078   2.922  0.00  0.00     0.018 C 
ENDBRANCH   1   8
TORSDOF 1
ENDMDL
