MODEL 1
REMARK minimizedAffinity 12.966218
REMARK minimizedRMSD -1
REMARK  1 active torsions:
REMARK  status: ('A' for Active; 'I' for Inactive)
REMARK    1  A    between atoms: C1_2  and  C2_3 
ROOT
ATOM      1  C2  UNL d   1       3.361   3.569   1.611  0.00  0.00    -0.081 A 
ATOM      2  C3  UNL d   1       3.598   2.194   1.502  0.00  0.00     0.006 A 
ATOM      3  C4  UNL d   1       4.165   1.486   2.565  0.00  0.00     0.002 A 
ATOM      4  C5  UNL d   1       4.498   2.141   3.756  0.00  0.00    -0.080 A 
ATOM      5  C6  UNL d   1       5.079   1.387   4.915  0.00  0.00     0.076 C 
ATOM      6  C7  UNL d   1       4.277   3.518   3.859  0.00  0.00     0.002 A 
ATOM      7  C8  UNL d   1       3.711   4.226   2.796  0.00  0.00     0.006 A 
ENDROOT
BRANCH   1   8
ATOM      8  C1  UNL d   1       2.690   4.323   0.491  0.00  0.00     0.054 C 
ATOM      9  C   UNL d   1       1.222   3.942   0.371  0.00  0.00     0.018 C 
ENDBRANCH   1   8
TORSDOF 1
ENDMDL
