MODEL 1
REMARK minimizedAffinity 14.6869154
REMARK minimizedRMSD -1
REMARK  1 active torsions:
REMARK  status: ('A' for Active; 'I' for Inactive)
REMARK    1  A    between atoms: C1_2  and  C2_3 
ROOT
ATOM      1  C2  UNL d   1       2.047  -3.568  -5.623  0.00  0.00    -0.081 A 
ATOM      2  C3  UNL d   1       2.771  -2.636  -4.869  0.00  0.00     0.006 A 
ATOM      3  C4  UNL d   1       2.187  -1.425  -4.490  0.00  0.00     0.002 A 
ATOM      4  C5  UNL d   1       0.868  -1.130  -4.851  0.00  0.00    -0.080 A 
ATOM      5  C6  UNL d   1       0.219   0.153  -4.424  0.00  0.00     0.076 C 
ATOM      6  C7  UNL d   1       0.151  -2.053  -5.619  0.00  0.00     0.002 A 
ATOM      7  C8  UNL d   1       0.735  -3.263  -5.999  0.00  0.00     0.006 A 
ENDROOT
BRANCH   1   8
ATOM      8  C1  UNL d   1       2.653  -4.902  -5.979  0.00  0.00     0.054 C 
ATOM      9  C   UNL d   1       1.599  -6.000  -5.999  0.00  0.00     0.018 C 
ENDBRANCH   1   8
TORSDOF 1
ENDMDL
