MODEL 1
REMARK minimizedAffinity 7.82177782
REMARK minimizedRMSD -1
REMARK  1 active torsions:
REMARK  status: ('A' for Active; 'I' for Inactive)
REMARK    1  A    between atoms: C1_2  and  C2_3 
ROOT
ATOM      1  C2  UNL d   1       2.109   0.308   4.190  0.00  0.00    -0.081 A 
ATOM      2  C3  UNL d   1       1.837  -0.930   3.596  0.00  0.00     0.006 A 
ATOM      3  C4  UNL d   1       0.648  -1.131   2.890  0.00  0.00     0.002 A 
ATOM      4  C5  UNL d   1      -0.283  -0.095   2.759  0.00  0.00    -0.080 A 
ATOM      5  C6  UNL d   1      -1.549  -0.287   1.978  0.00  0.00     0.076 C 
ATOM      6  C7  UNL d   1      -0.019   1.137   3.368  0.00  0.00     0.002 A 
ATOM      7  C8  UNL d   1       1.169   1.337   4.074  0.00  0.00     0.006 A 
ENDROOT
BRANCH   1   8
ATOM      8  C1  UNL d   1       3.419   0.547   4.897  0.00  0.00     0.054 C 
ATOM      9  C   UNL d   1       4.074   1.838   4.427  0.00  0.00     0.018 C 
ENDBRANCH   1   8
TORSDOF 1
ENDMDL
