MODEL 1
REMARK minimizedAffinity 11.8990259
REMARK minimizedRMSD -1
REMARK  1 active torsions:
REMARK  status: ('A' for Active; 'I' for Inactive)
REMARK    1  A    between atoms: C1_2  and  C2_3 
ROOT
ATOM      1  C2  UNL d   1       0.645   0.934   4.161  0.00  0.00    -0.081 A 
ATOM      2  C3  UNL d   1      -0.333   1.659   3.469  0.00  0.00     0.006 A 
ATOM      3  C4  UNL d   1      -0.892   1.151   2.294  0.00  0.00     0.002 A 
ATOM      4  C5  UNL d   1      -0.489  -0.092   1.795  0.00  0.00    -0.080 A 
ATOM      5  C6  UNL d   1      -1.103  -0.663   0.551  0.00  0.00     0.076 C 
ATOM      6  C7  UNL d   1       0.501  -0.809   2.477  0.00  0.00     0.002 A 
ATOM      7  C8  UNL d   1       1.061  -0.301   3.651  0.00  0.00     0.006 A 
ENDROOT
BRANCH   1   8
ATOM      8  C1  UNL d   1       1.203   1.449   5.463  0.00  0.00     0.054 C 
ATOM      9  C   UNL d   1       0.375   2.608   5.999  0.00  0.00     0.018 C 
ENDBRANCH   1   8
TORSDOF 1
ENDMDL
