MODEL 1
REMARK minimizedAffinity 6.98642826
REMARK minimizedRMSD -1
REMARK  1 active torsions:
REMARK  status: ('A' for Active; 'I' for Inactive)
REMARK    1  A    between atoms: C1_2  and  C2_3 
ROOT
ATOM      1  C2  UNL d   1       1.084  -1.893   3.895  0.00  0.00    -0.081 A 
ATOM      2  C3  UNL d   1       1.818  -0.700   3.875  0.00  0.00     0.006 A 
ATOM      3  C4  UNL d   1       1.244   0.476   3.386  0.00  0.00     0.002 A 
ATOM      4  C5  UNL d   1      -0.074   0.481   2.917  0.00  0.00    -0.080 A 
ATOM      5  C6  UNL d   1      -0.711   1.744   2.418  0.00  0.00     0.076 C 
ATOM      6  C7  UNL d   1      -0.801  -0.714   2.921  0.00  0.00     0.002 A 
ATOM      7  C8  UNL d   1      -0.228  -1.890   3.409  0.00  0.00     0.006 A 
ENDROOT
BRANCH   1   8
ATOM      8  C1  UNL d   1       1.678  -3.148   4.482  0.00  0.00     0.054 C 
ATOM      9  C   UNL d   1       2.540  -2.837   5.697  0.00  0.00     0.018 C 
ENDBRANCH   1   8
TORSDOF 1
ENDMDL
