MODEL 1
REMARK minimizedAffinity 5.90752459
REMARK minimizedRMSD -1
REMARK  0 active torsions:
REMARK  status: ('A' for Active; 'I' for Inactive)
ROOT
ATOM      1  C   UNL d   1       4.601  -1.290  -1.539  0.00  0.00     0.077 C 
ATOM      2  C1  UNL d   1       3.177  -0.821  -1.582  0.00  0.00    -0.074 A 
ATOM      3  C2  UNL d   1       2.398  -0.995  -2.731  0.00  0.00    -0.005 A 
ATOM      4  C3  UNL d   1       1.072  -0.562  -2.753  0.00  0.00     0.006 A 
ATOM      5  C4  UNL d   1       0.513   0.047  -1.629  0.00  0.00    -0.005 A 
ATOM      6  C5  UNL d   1       1.276   0.229  -0.472  0.00  0.00    -0.074 A 
ATOM      7  C6  UNL d   1       0.688   0.873   0.748  0.00  0.00     0.077 C 
ATOM      8  C7  UNL d   1       2.606  -0.215  -0.455  0.00  0.00    -0.001 A 
ENDROOT
TORSDOF 0
ENDMDL
