MODEL 1
REMARK minimizedAffinity -0.409999728
REMARK minimizedRMSD -1
REMARK  0 active torsions:
REMARK  status: ('A' for Active; 'I' for Inactive)
ROOT
ATOM      1  C   UNL d   1       3.344  -1.652  -1.772  0.00  0.00     0.077 C 
ATOM      2  C1  UNL d   1       2.455  -0.685  -1.048  0.00  0.00    -0.074 A 
ATOM      3  C2  UNL d   1       1.276  -1.116  -0.431  0.00  0.00    -0.005 A 
ATOM      4  C3  UNL d   1       0.465  -0.207   0.247  0.00  0.00     0.006 A 
ATOM      5  C4  UNL d   1       0.823   1.140   0.316  0.00  0.00    -0.005 A 
ATOM      6  C5  UNL d   1       1.999   1.589  -0.293  0.00  0.00    -0.074 A 
ATOM      7  C6  UNL d   1       2.404   3.031  -0.220  0.00  0.00     0.077 C 
ATOM      8  C7  UNL d   1       2.813   0.668  -0.967  0.00  0.00    -0.001 A 
ENDROOT
TORSDOF 0
ENDMDL
