MODEL 1
REMARK minimizedAffinity -0.495572209
REMARK minimizedRMSD -1
REMARK  0 active torsions:
REMARK  status: ('A' for Active; 'I' for Inactive)
ROOT
ATOM      1  C   UNL d   1       2.798   1.580   0.141  0.00  0.00     0.077 C 
ATOM      2  C1  UNL d   1       2.607   0.515  -0.898  0.00  0.00    -0.074 A 
ATOM      3  C2  UNL d   1       3.516  -0.541  -1.021  0.00  0.00    -0.005 A 
ATOM      4  C3  UNL d   1       3.321  -1.528  -1.986  0.00  0.00     0.006 A 
ATOM      5  C4  UNL d   1       2.216  -1.471  -2.836  0.00  0.00    -0.005 A 
ATOM      6  C5  UNL d   1       1.296  -0.423  -2.728  0.00  0.00    -0.074 A 
ATOM      7  C6  UNL d   1       0.099  -0.351  -3.628  0.00  0.00     0.077 C 
ATOM      8  C7  UNL d   1       1.496   0.562  -1.751  0.00  0.00    -0.001 A 
ENDROOT
TORSDOF 0
ENDMDL
