MODEL 1
REMARK minimizedAffinity -3.42129874
REMARK minimizedRMSD -1
REMARK  0 active torsions:
REMARK  status: ('A' for Active; 'I' for Inactive)
ROOT
ATOM      1  C   UNL d   1       0.116   0.618  -0.343  0.00  0.00     0.077 C 
ATOM      2  C1  UNL d   1       1.463   0.275  -0.906  0.00  0.00    -0.074 A 
ATOM      3  C2  UNL d   1       1.581  -0.460  -2.090  0.00  0.00    -0.005 A 
ATOM      4  C3  UNL d   1       2.840  -0.763  -2.607  0.00  0.00     0.006 A 
ATOM      5  C4  UNL d   1       3.992  -0.335  -1.946  0.00  0.00    -0.005 A 
ATOM      6  C5  UNL d   1       3.894   0.401  -0.762  0.00  0.00    -0.074 A 
ATOM      7  C6  UNL d   1       5.122   0.877  -0.044  0.00  0.00     0.077 C 
ATOM      8  C7  UNL d   1       2.625   0.708  -0.252  0.00  0.00    -0.001 A 
ENDROOT
TORSDOF 0
ENDMDL
