MODEL 1
REMARK minimizedAffinity -1.21137285
REMARK minimizedRMSD -1
REMARK  0 active torsions:
REMARK  status: ('A' for Active; 'I' for Inactive)
ROOT
ATOM      1  C   UNL d   1      -4.129  -0.070  -5.856  0.00  0.00     0.077 C 
ATOM      2  C1  UNL d   1      -4.322   1.417  -5.897  0.00  0.00    -0.074 A 
ATOM      3  C2  UNL d   1      -5.602   1.974  -5.972  0.00  0.00    -0.005 A 
ATOM      4  C3  UNL d   1      -5.766   3.359  -6.000  0.00  0.00     0.006 A 
ATOM      5  C4  UNL d   1      -4.653   4.199  -5.953  0.00  0.00    -0.005 A 
ATOM      6  C5  UNL d   1      -3.365   3.660  -5.877  0.00  0.00    -0.074 A 
ATOM      7  C6  UNL d   1      -2.159   4.549  -5.817  0.00  0.00     0.077 C 
ATOM      8  C7  UNL d   1      -3.209   2.268  -5.843  0.00  0.00    -0.001 A 
ENDROOT
TORSDOF 0
ENDMDL
