MODEL 1
REMARK minimizedAffinity 1.47635555
REMARK minimizedRMSD -1
REMARK  0 active torsions:
REMARK  status: ('A' for Active; 'I' for Inactive)
ROOT
ATOM      1  C   UNL d   1       3.792  -2.679  -1.579  0.00  0.00     0.077 C 
ATOM      2  C1  UNL d   1       2.724  -1.628  -1.536  0.00  0.00    -0.074 A 
ATOM      3  C2  UNL d   1       1.497  -1.823  -2.179  0.00  0.00    -0.005 A 
ATOM      4  C3  UNL d   1       0.509  -0.840  -2.123  0.00  0.00     0.006 A 
ATOM      5  C4  UNL d   1       0.738   0.346  -1.424  0.00  0.00    -0.005 A 
ATOM      6  C5  UNL d   1       1.958   0.559  -0.775  0.00  0.00    -0.074 A 
ATOM      7  C6  UNL d   1       2.216   1.824  -0.011  0.00  0.00     0.077 C 
ATOM      8  C7  UNL d   1       2.943  -0.437  -0.830  0.00  0.00    -0.001 A 
ENDROOT
TORSDOF 0
ENDMDL
