MODEL 1
REMARK minimizedAffinity 0.768983006
REMARK minimizedRMSD -1
REMARK  0 active torsions:
REMARK  status: ('A' for Active; 'I' for Inactive)
ROOT
ATOM      1  C   UNL d   1      -5.516   3.791  -5.994  0.00  0.00     0.077 C 
ATOM      2  C1  UNL d   1      -4.670   2.553  -5.988  0.00  0.00    -0.074 A 
ATOM      3  C2  UNL d   1      -5.255   1.282  -5.995  0.00  0.00    -0.005 A 
ATOM      4  C3  UNL d   1      -4.455   0.140  -5.999  0.00  0.00     0.006 A 
ATOM      5  C4  UNL d   1      -3.065   0.255  -5.997  0.00  0.00    -0.005 A 
ATOM      6  C5  UNL d   1      -2.462   1.517  -5.991  0.00  0.00    -0.074 A 
ATOM      7  C6  UNL d   1      -0.968   1.659  -5.999  0.00  0.00     0.077 C 
ATOM      8  C7  UNL d   1      -3.272   2.661  -5.994  0.00  0.00    -0.001 A 
ENDROOT
TORSDOF 0
ENDMDL
