MODEL 1
REMARK minimizedAffinity -1.5578562
REMARK minimizedRMSD -1
REMARK  0 active torsions:
REMARK  status: ('A' for Active; 'I' for Inactive)
ROOT
ATOM      1  C   UNL d   1      -5.947   0.595  -5.966  0.00  0.00     0.077 C 
ATOM      2  C1  UNL d   1      -4.581   1.213  -5.970  0.00  0.00    -0.074 A 
ATOM      3  C2  UNL d   1      -3.431   0.415  -5.983  0.00  0.00    -0.005 A 
ATOM      4  C3  UNL d   1      -2.167   1.004  -5.996  0.00  0.00     0.006 A 
ATOM      5  C4  UNL d   1      -2.039   2.394  -5.998  0.00  0.00    -0.005 A 
ATOM      6  C5  UNL d   1      -3.177   3.207  -5.986  0.00  0.00    -0.074 A 
ATOM      7  C6  UNL d   1      -3.057   4.702  -5.997  0.00  0.00     0.077 C 
ATOM      8  C7  UNL d   1      -4.444   2.608  -5.979  0.00  0.00    -0.001 A 
ENDROOT
TORSDOF 0
ENDMDL
