MODEL 1
REMARK minimizedAffinity -3.3459506
REMARK minimizedRMSD -1
REMARK  0 active torsions:
REMARK  status: ('A' for Active; 'I' for Inactive)
ROOT
ATOM      1  C   UNL d   1      -5.245   3.886  -5.990  0.00  0.00     0.077 C 
ATOM      2  C1  UNL d   1      -4.598   2.534  -5.999  0.00  0.00    -0.074 A 
ATOM      3  C2  UNL d   1      -3.205   2.403  -5.997  0.00  0.00    -0.005 A 
ATOM      4  C3  UNL d   1      -2.617   1.139  -5.996  0.00  0.00     0.006 A 
ATOM      5  C4  UNL d   1      -3.414  -0.007  -5.997  0.00  0.00    -0.005 A 
ATOM      6  C5  UNL d   1      -4.808   0.104  -5.998  0.00  0.00    -0.074 A 
ATOM      7  C6  UNL d   1      -5.679  -1.117  -5.990  0.00  0.00     0.077 C 
ATOM      8  C7  UNL d   1      -5.392   1.378  -5.992  0.00  0.00    -0.001 A 
ENDROOT
TORSDOF 0
ENDMDL
