MODEL 1
REMARK minimizedAffinity 0.424291134
REMARK minimizedRMSD -1
REMARK  0 active torsions:
REMARK  status: ('A' for Active; 'I' for Inactive)
ROOT
ATOM      1  C   UNL d   1      -3.755  -0.081  -5.969  0.00  0.00     0.077 C 
ATOM      2  C1  UNL d   1      -3.650   1.415  -5.970  0.00  0.00    -0.074 A 
ATOM      3  C2  UNL d   1      -2.403   2.049  -5.977  0.00  0.00    -0.005 A 
ATOM      4  C3  UNL d   1      -2.321   3.441  -5.988  0.00  0.00     0.006 A 
ATOM      5  C4  UNL d   1      -3.484   4.213  -5.991  0.00  0.00    -0.005 A 
ATOM      6  C5  UNL d   1      -4.739   3.597  -5.985  0.00  0.00    -0.074 A 
ATOM      7  C6  UNL d   1      -5.999   4.412  -5.999  0.00  0.00     0.077 C 
ATOM      8  C7  UNL d   1      -4.813   2.198  -5.981  0.00  0.00    -0.001 A 
ENDROOT
TORSDOF 0
ENDMDL
