MODEL 1
REMARK minimizedAffinity 2.07512093
REMARK minimizedRMSD -1
REMARK  0 active torsions:
REMARK  status: ('A' for Active; 'I' for Inactive)
ROOT
ATOM      1  C   UNL d   1      -1.383   0.923   0.025  0.00  0.00     0.077 C 
ATOM      2  C1  UNL d   1      -0.163   0.418  -0.688  0.00  0.00    -0.074 A 
ATOM      3  C2  UNL d   1      -0.258  -0.147  -1.963  0.00  0.00    -0.005 A 
ATOM      4  C3  UNL d   1       0.886  -0.604  -2.617  0.00  0.00     0.006 A 
ATOM      5  C4  UNL d   1       2.135  -0.499  -2.003  0.00  0.00    -0.005 A 
ATOM      6  C5  UNL d   1       2.250   0.065  -0.729  0.00  0.00    -0.074 A 
ATOM      7  C6  UNL d   1       3.586   0.194  -0.059  0.00  0.00     0.077 C 
ATOM      8  C7  UNL d   1       1.096   0.527  -0.081  0.00  0.00    -0.001 A 
ENDROOT
TORSDOF 0
ENDMDL
