MODEL 1
REMARK minimizedAffinity -1.16424286
REMARK minimizedRMSD -1
REMARK  0 active torsions:
REMARK  status: ('A' for Active; 'I' for Inactive)
ROOT
ATOM      1  C   UNL d   1      -3.724  -0.471  -5.999  0.00  0.00     0.077 C 
ATOM      2  C1  UNL d   1      -3.627   1.025  -5.989  0.00  0.00    -0.074 A 
ATOM      3  C2  UNL d   1      -2.383   1.665  -5.996  0.00  0.00    -0.005 A 
ATOM      4  C3  UNL d   1      -2.309   3.058  -5.996  0.00  0.00     0.006 A 
ATOM      5  C4  UNL d   1      -3.476   3.824  -5.991  0.00  0.00    -0.005 A 
ATOM      6  C5  UNL d   1      -4.728   3.202  -5.985  0.00  0.00    -0.074 A 
ATOM      7  C6  UNL d   1      -5.992   4.010  -5.989  0.00  0.00     0.077 C 
ATOM      8  C7  UNL d   1      -4.794   1.801  -5.991  0.00  0.00    -0.001 A 
ENDROOT
TORSDOF 0
ENDMDL
