MODEL 1
REMARK minimizedAffinity 2.24488497
REMARK minimizedRMSD -1
REMARK  0 active torsions:
REMARK  status: ('A' for Active; 'I' for Inactive)
ROOT
ATOM      1  C   UNL d   1      -4.502  -0.011  -5.978  0.00  0.00     0.077 C 
ATOM      2  C1  UNL d   1      -4.160   1.449  -5.960  0.00  0.00    -0.074 A 
ATOM      3  C2  UNL d   1      -2.828   1.875  -5.935  0.00  0.00    -0.005 A 
ATOM      4  C3  UNL d   1      -2.525   3.237  -5.928  0.00  0.00     0.006 A 
ATOM      5  C4  UNL d   1      -3.550   4.184  -5.945  0.00  0.00    -0.005 A 
ATOM      6  C5  UNL d   1      -4.887   3.777  -5.970  0.00  0.00    -0.074 A 
ATOM      7  C6  UNL d   1      -6.000   4.782  -5.998  0.00  0.00     0.077 C 
ATOM      8  C7  UNL d   1      -5.183   2.407  -5.984  0.00  0.00    -0.001 A 
ENDROOT
TORSDOF 0
ENDMDL
