MODEL 1
REMARK minimizedAffinity 5.53407049
REMARK minimizedRMSD -1
REMARK  0 active torsions:
REMARK  status: ('A' for Active; 'I' for Inactive)
ROOT
ATOM      1  C   UNL d   1      -1.170   0.969  -5.987  0.00  0.00     0.077 C 
ATOM      2  C1  UNL d   1      -2.328   1.922  -5.998  0.00  0.00    -0.074 A 
ATOM      3  C2  UNL d   1      -3.645   1.452  -5.998  0.00  0.00    -0.005 A 
ATOM      4  C3  UNL d   1      -4.712   2.350  -5.998  0.00  0.00     0.006 A 
ATOM      5  C4  UNL d   1      -4.473   3.725  -5.999  0.00  0.00    -0.005 A 
ATOM      6  C5  UNL d   1      -3.163   4.213  -5.999  0.00  0.00    -0.074 A 
ATOM      7  C6  UNL d   1      -2.888   5.688  -5.990  0.00  0.00     0.077 C 
ATOM      8  C7  UNL d   1      -2.096   3.304  -5.991  0.00  0.00    -0.001 A 
ENDROOT
TORSDOF 0
ENDMDL
