MODEL 1
REMARK minimizedAffinity -0.574624896
REMARK minimizedRMSD -1
REMARK  0 active torsions:
REMARK  status: ('A' for Active; 'I' for Inactive)
ROOT
ATOM      1  C   UNL d   1      -5.603   3.696  -5.994  0.00  0.00     0.077 C 
ATOM      2  C1  UNL d   1      -4.307   2.941  -6.000  0.00  0.00    -0.074 A 
ATOM      3  C2  UNL d   1      -3.082   3.617  -5.998  0.00  0.00    -0.005 A 
ATOM      4  C3  UNL d   1      -1.885   2.902  -5.994  0.00  0.00     0.006 A 
ATOM      5  C4  UNL d   1      -1.899   1.507  -5.992  0.00  0.00    -0.005 A 
ATOM      6  C5  UNL d   1      -3.114   0.814  -5.993  0.00  0.00    -0.074 A 
ATOM      7  C6  UNL d   1      -3.148  -0.686  -5.981  0.00  0.00     0.077 C 
ATOM      8  C7  UNL d   1      -4.313   1.540  -5.990  0.00  0.00    -0.001 A 
ENDROOT
TORSDOF 0
ENDMDL
