MODEL 1
REMARK minimizedAffinity -0.436144143
REMARK minimizedRMSD -1
REMARK  0 active torsions:
REMARK  status: ('A' for Active; 'I' for Inactive)
ROOT
ATOM      1  C   UNL d   1      -3.563  -1.644  -5.978  0.00  0.00     0.077 C 
ATOM      2  C1  UNL d   1      -3.486  -0.152  -5.854  0.00  0.00    -0.074 A 
ATOM      3  C2  UNL d   1      -2.263   0.490  -5.636  0.00  0.00    -0.005 A 
ATOM      4  C3  UNL d   1      -2.206   1.880  -5.532  0.00  0.00     0.006 A 
ATOM      5  C4  UNL d   1      -3.370   2.641  -5.645  0.00  0.00    -0.005 A 
ATOM      6  C5  UNL d   1      -4.602   2.017  -5.865  0.00  0.00    -0.074 A 
ATOM      7  C6  UNL d   1      -5.861   2.821  -5.999  0.00  0.00     0.077 C 
ATOM      8  C7  UNL d   1      -4.650   0.621  -5.975  0.00  0.00    -0.001 A 
ENDROOT
TORSDOF 0
ENDMDL
