MODEL 1
REMARK minimizedAffinity -2.00822663
REMARK minimizedRMSD -1
REMARK  0 active torsions:
REMARK  status: ('A' for Active; 'I' for Inactive)
ROOT
ATOM      1  C   UNL d   1      -3.928  -1.542  -5.987  0.00  0.00     0.077 C 
ATOM      2  C1  UNL d   1      -3.320  -0.172  -5.984  0.00  0.00    -0.074 A 
ATOM      3  C2  UNL d   1      -1.932  -0.001  -5.993  0.00  0.00    -0.005 A 
ATOM      4  C3  UNL d   1      -1.380   1.280  -6.000  0.00  0.00     0.006 A 
ATOM      5  C4  UNL d   1      -2.210   2.402  -5.998  0.00  0.00    -0.005 A 
ATOM      6  C5  UNL d   1      -3.600   2.251  -5.990  0.00  0.00    -0.074 A 
ATOM      7  C6  UNL d   1      -4.507   3.446  -5.999  0.00  0.00     0.077 C 
ATOM      8  C7  UNL d   1      -4.147   0.960  -5.991  0.00  0.00    -0.001 A 
ENDROOT
TORSDOF 0
ENDMDL
