MODEL 1
REMARK minimizedAffinity -3.07420731
REMARK minimizedRMSD -1
REMARK  0 active torsions:
REMARK  status: ('A' for Active; 'I' for Inactive)
ROOT
ATOM      1  C   UNL d   1      -2.908  -1.184  -6.000  0.00  0.00     0.077 C 
ATOM      2  C1  UNL d   1      -3.268  -2.640  -5.989  0.00  0.00    -0.074 A 
ATOM      3  C2  UNL d   1      -4.606  -3.049  -5.998  0.00  0.00    -0.005 A 
ATOM      4  C3  UNL d   1      -4.926  -4.406  -5.997  0.00  0.00     0.006 A 
ATOM      5  C4  UNL d   1      -3.913  -5.367  -5.988  0.00  0.00    -0.005 A 
ATOM      6  C5  UNL d   1      -2.571  -4.977  -5.979  0.00  0.00    -0.074 A 
ATOM      7  C6  UNL d   1      -1.470  -5.996  -5.979  0.00  0.00     0.077 C 
ATOM      8  C7  UNL d   1      -2.257  -3.610  -5.987  0.00  0.00    -0.001 A 
ENDROOT
TORSDOF 0
ENDMDL
