MODEL 1
REMARK minimizedAffinity 0.995505691
REMARK minimizedRMSD -1
REMARK  0 active torsions:
REMARK  status: ('A' for Active; 'I' for Inactive)
ROOT
ATOM      1  C   UNL d   1      -1.704   0.404  -5.767  0.00  0.00     0.077 C 
ATOM      2  C1  UNL d   1      -3.201   0.423  -5.855  0.00  0.00    -0.074 A 
ATOM      3  C2  UNL d   1      -3.932  -0.767  -5.926  0.00  0.00    -0.005 A 
ATOM      4  C3  UNL d   1      -5.325  -0.734  -5.998  0.00  0.00     0.006 A 
ATOM      5  C4  UNL d   1      -5.999   0.488  -6.000  0.00  0.00    -0.005 A 
ATOM      6  C5  UNL d   1      -5.285   1.688  -5.929  0.00  0.00    -0.074 A 
ATOM      7  C6  UNL d   1      -5.995   3.009  -5.920  0.00  0.00     0.077 C 
ATOM      8  C7  UNL d   1      -3.886   1.646  -5.850  0.00  0.00    -0.001 A 
ENDROOT
TORSDOF 0
ENDMDL
