MODEL 1
REMARK minimizedAffinity -0.93452549
REMARK minimizedRMSD -1
REMARK  0 active torsions:
REMARK  status: ('A' for Active; 'I' for Inactive)
ROOT
ATOM      1  C   UNL d   1      -1.368   1.444   2.565  0.00  0.00    -0.002 A 
ATOM      2  C1  UNL d   1      -0.013   1.744   2.563  0.00  0.00     0.010 A 
ATOM      3  C2  UNL d   1       0.822   1.249   1.560  0.00  0.00     0.041 A 
ATOM      4  C3  UNL d   1       0.267   0.441   0.547  0.00  0.00    -0.075 A 
ATOM      5  S   UNL d   1       1.097  -0.275  -0.783  0.00  0.00     0.015 SA
ATOM      6  C4  UNL d   1      -0.327  -0.995  -1.381  0.00  0.00     0.022 A 
ATOM      7  C5  UNL d   1      -1.419  -0.706  -0.597  0.00  0.00     0.026 A 
ATOM      8  C6  UNL d   1      -1.095   0.127   0.527  0.00  0.00    -0.082 A 
ATOM      9  C7  UNL d   1      -1.915   0.643   1.559  0.00  0.00     0.045 A 
ENDROOT
TORSDOF 0
ENDMDL
