MODEL 1
REMARK minimizedAffinity -2.76656723
REMARK minimizedRMSD -1
REMARK  0 active torsions:
REMARK  status: ('A' for Active; 'I' for Inactive)
ROOT
ATOM      1  C   UNL d   1      -0.720   0.203  -6.000  0.00  0.00    -0.002 A 
ATOM      2  C1  UNL d   1      -1.522  -0.722  -5.346  0.00  0.00     0.010 A 
ATOM      3  C2  UNL d   1      -1.206  -1.150  -4.056  0.00  0.00     0.041 A 
ATOM      4  C3  UNL d   1      -0.059  -0.627  -3.426  0.00  0.00    -0.075 A 
ATOM      5  S   UNL d   1       0.524  -1.005  -1.848  0.00  0.00     0.015 SA
ATOM      6  C4  UNL d   1       1.851   0.053  -2.004  0.00  0.00     0.022 A 
ATOM      7  C5  UNL d   1       1.865   0.687  -3.224  0.00  0.00     0.026 A 
ATOM      8  C6  UNL d   1       0.764   0.306  -4.064  0.00  0.00    -0.082 A 
ATOM      9  C7  UNL d   1       0.416   0.720  -5.372  0.00  0.00     0.045 A 
ENDROOT
TORSDOF 0
ENDMDL
