MODEL 1
REMARK minimizedAffinity -0.346219778
REMARK minimizedRMSD -1
REMARK  0 active torsions:
REMARK  status: ('A' for Active; 'I' for Inactive)
ROOT
ATOM      1  C   UNL d   1       0.840   1.356  -4.645  0.00  0.00    -0.002 A 
ATOM      2  C1  UNL d   1       2.181   1.183  -4.331  0.00  0.00     0.010 A 
ATOM      3  C2  UNL d   1       2.558   0.465  -3.195  0.00  0.00     0.041 A 
ATOM      4  C3  UNL d   1       1.555  -0.085  -2.372  0.00  0.00    -0.075 A 
ATOM      5  S   UNL d   1       1.781  -1.004  -0.931  0.00  0.00     0.015 SA
ATOM      6  C4  UNL d   1       0.103  -1.190  -0.698  0.00  0.00     0.022 A 
ATOM      7  C5  UNL d   1      -0.627  -0.572  -1.686  0.00  0.00     0.026 A 
ATOM      8  C6  UNL d   1       0.198   0.074  -2.668  0.00  0.00    -0.082 A 
ATOM      9  C7  UNL d   1      -0.152   0.809  -3.826  0.00  0.00     0.045 A 
ENDROOT
TORSDOF 0
ENDMDL
