MODEL 1
REMARK minimizedAffinity 1.46641743
REMARK minimizedRMSD -1
REMARK  0 active torsions:
REMARK  status: ('A' for Active; 'I' for Inactive)
ROOT
ATOM      1  C   UNL d   1       0.195   1.033  -4.727  0.00  0.00    -0.002 A 
ATOM      2  C1  UNL d   1       1.437   0.416  -4.716  0.00  0.00     0.010 A 
ATOM      3  C2  UNL d   1       1.857  -0.317  -3.604  0.00  0.00     0.041 A 
ATOM      4  C3  UNL d   1       0.997  -0.422  -2.493  0.00  0.00    -0.075 A 
ATOM      5  S   UNL d   1       1.298  -1.268  -1.022  0.00  0.00     0.015 SA
ATOM      6  C4  UNL d   1      -0.216  -0.830  -0.373  0.00  0.00     0.022 A 
ATOM      7  C5  UNL d   1      -0.946  -0.057  -1.244  0.00  0.00     0.026 A 
ATOM      8  C6  UNL d   1      -0.260   0.191  -2.481  0.00  0.00    -0.082 A 
ATOM      9  C7  UNL d   1      -0.655   0.928  -3.623  0.00  0.00     0.045 A 
ENDROOT
TORSDOF 0
ENDMDL
