MODEL 1
REMARK minimizedAffinity -1.42320013
REMARK minimizedRMSD -1
REMARK  0 active torsions:
REMARK  status: ('A' for Active; 'I' for Inactive)
ROOT
ATOM      1  C   UNL d   1      -1.654   0.855   2.515  0.00  0.00    -0.002 A 
ATOM      2  C1  UNL d   1      -0.406   1.036   3.094  0.00  0.00     0.010 A 
ATOM      3  C2  UNL d   1       0.729   0.445   2.535  0.00  0.00     0.041 A 
ATOM      4  C3  UNL d   1       0.587  -0.338   1.372  0.00  0.00    -0.075 A 
ATOM      5  S   UNL d   1       1.837  -1.158   0.513  0.00  0.00     0.015 SA
ATOM      6  C4  UNL d   1       0.743  -1.767  -0.644  0.00  0.00     0.022 A 
ATOM      7  C5  UNL d   1      -0.548  -1.364  -0.396  0.00  0.00     0.026 A 
ATOM      8  C6  UNL d   1      -0.659  -0.534   0.770  0.00  0.00    -0.082 A 
ATOM      9  C7  UNL d   1      -1.790   0.078   1.361  0.00  0.00     0.045 A 
ENDROOT
TORSDOF 0
ENDMDL
