MODEL 1
REMARK minimizedAffinity -3.17903447
REMARK minimizedRMSD -1
REMARK  0 active torsions:
REMARK  status: ('A' for Active; 'I' for Inactive)
ROOT
ATOM      1  C   UNL d   1      -1.559   1.293   2.213  0.00  0.00    -0.002 A 
ATOM      2  C1  UNL d   1      -0.293   1.218   2.775  0.00  0.00     0.010 A 
ATOM      3  C2  UNL d   1       0.746   0.574   2.101  0.00  0.00     0.041 A 
ATOM      4  C3  UNL d   1       0.490   0.004   0.839  0.00  0.00    -0.075 A 
ATOM      5  S   UNL d   1       1.609  -0.833  -0.171  0.00  0.00     0.015 SA
ATOM      6  C4  UNL d   1       0.432  -1.109  -1.373  0.00  0.00     0.022 A 
ATOM      7  C5  UNL d   1      -0.790  -0.583  -1.029  0.00  0.00     0.026 A 
ATOM      8  C6  UNL d   1      -0.777   0.068   0.251  0.00  0.00    -0.082 A 
ATOM      9  C7  UNL d   1      -1.810   0.726   0.961  0.00  0.00     0.045 A 
ENDROOT
TORSDOF 0
ENDMDL
