MODEL 1
REMARK minimizedAffinity -1.58724225
REMARK minimizedRMSD -1
REMARK  0 active torsions:
REMARK  status: ('A' for Active; 'I' for Inactive)
ROOT
ATOM      1  C   UNL d   1      -0.319  -0.131   3.266  0.00  0.00     0.023 A 
ATOM      2  C1  UNL d   1       0.540   0.832   2.737  0.00  0.00     0.003 A 
ATOM      3  C2  UNL d   1       0.811   0.851   1.367  0.00  0.00     0.048 A 
ATOM      4  C3  UNL d   1       0.218  -0.095   0.532  0.00  0.00     0.023 A 
ATOM      5  C4  UNL d   1      -0.643  -1.060   1.057  0.00  0.00     0.048 A 
ATOM      6  C5  UNL d   1      -0.910  -1.076   2.427  0.00  0.00     0.003 A 
ATOM      7  I   UNL d   1       0.620  -0.068  -1.507  0.00  0.00    -0.146 I 
ENDROOT
TORSDOF 0
ENDMDL
