MODEL 1
REMARK minimizedAffinity -2.94173694
REMARK minimizedRMSD -1
REMARK  0 active torsions:
REMARK  status: ('A' for Active; 'I' for Inactive)
ROOT
ATOM      1  C   UNL d   1      -0.690  -0.257   2.989  0.00  0.00     0.023 A 
ATOM      2  C1  UNL d   1      -1.678  -0.483   2.031  0.00  0.00     0.003 A 
ATOM      3  C2  UNL d   1      -1.333  -0.590   0.682  0.00  0.00     0.048 A 
ATOM      4  C3  UNL d   1       0.003  -0.471   0.298  0.00  0.00     0.023 A 
ATOM      5  C4  UNL d   1       0.995  -0.245   1.254  0.00  0.00     0.048 A 
ATOM      6  C5  UNL d   1       0.645  -0.138   2.601  0.00  0.00     0.003 A 
ATOM      7  I   UNL d   1       0.519  -0.630  -1.709  0.00  0.00    -0.146 I 
ENDROOT
TORSDOF 0
ENDMDL
