MODEL 1
REMARK minimizedAffinity -4.59338093
REMARK minimizedRMSD -1
REMARK  0 active torsions:
REMARK  status: ('A' for Active; 'I' for Inactive)
ROOT
ATOM      1  C   UNL d   1      -0.167  -0.183   2.963  0.00  0.00     0.023 A 
ATOM      2  C1  UNL d   1       1.092   0.142   2.456  0.00  0.00     0.003 A 
ATOM      3  C2  UNL d   1       1.314   0.132   1.078  0.00  0.00     0.048 A 
ATOM      4  C3  UNL d   1       0.273  -0.201   0.212  0.00  0.00     0.023 A 
ATOM      5  C4  UNL d   1      -0.988  -0.526   0.715  0.00  0.00     0.048 A 
ATOM      6  C5  UNL d   1      -1.205  -0.516   2.094  0.00  0.00     0.003 A 
ATOM      7  I   UNL d   1       0.602  -0.216  -1.840  0.00  0.00    -0.146 I 
ENDROOT
TORSDOF 0
ENDMDL
