MODEL 1
REMARK minimizedAffinity -0.852056623
REMARK minimizedRMSD -1
REMARK  0 active torsions:
REMARK  status: ('A' for Active; 'I' for Inactive)
ROOT
ATOM      1  C   UNL d   1       0.010  -0.069   1.910  0.00  0.00     0.023 A 
ATOM      2  C1  UNL d   1       1.007   0.527   1.138  0.00  0.00     0.003 A 
ATOM      3  C2  UNL d   1       1.306   0.022  -0.129  0.00  0.00     0.048 A 
ATOM      4  C3  UNL d   1       0.603  -1.078  -0.619  0.00  0.00     0.023 A 
ATOM      5  C4  UNL d   1      -0.397  -1.677   0.149  0.00  0.00     0.048 A 
ATOM      6  C5  UNL d   1      -0.691  -1.170   1.416  0.00  0.00     0.003 A 
ATOM      7  I   UNL d   1       1.045  -1.830  -2.506  0.00  0.00    -0.146 I 
ENDROOT
TORSDOF 0
ENDMDL
