MODEL 1
REMARK minimizedAffinity -3.1594224
REMARK minimizedRMSD -1
REMARK  0 active torsions:
REMARK  status: ('A' for Active; 'I' for Inactive)
ROOT
ATOM      1  C   UNL d   1      -0.409  -0.335   2.998  0.00  0.00     0.023 A 
ATOM      2  C1  UNL d   1      -1.212  -1.024   2.090  0.00  0.00     0.003 A 
ATOM      3  C2  UNL d   1      -1.000  -0.879   0.717  0.00  0.00     0.048 A 
ATOM      4  C3  UNL d   1       0.019  -0.044   0.260  0.00  0.00     0.023 A 
ATOM      5  C4  UNL d   1       0.827   0.646   1.165  0.00  0.00     0.048 A 
ATOM      6  C5  UNL d   1       0.610   0.499   2.536  0.00  0.00     0.003 A 
ATOM      7  I   UNL d   1       0.338   0.173  -1.782  0.00  0.00    -0.146 I 
ENDROOT
TORSDOF 0
ENDMDL
