MODEL 1
REMARK minimizedAffinity -2.00275326
REMARK minimizedRMSD -1
REMARK  0 active torsions:
REMARK  status: ('A' for Active; 'I' for Inactive)
ROOT
ATOM      1  C   UNL d   1      -0.896  -0.629   2.157  0.00  0.00     0.023 A 
ATOM      2  C1  UNL d   1       0.393  -0.214   1.823  0.00  0.00     0.003 A 
ATOM      3  C2  UNL d   1       0.749  -0.049   0.483  0.00  0.00     0.048 A 
ATOM      4  C3  UNL d   1      -0.189  -0.300  -0.518  0.00  0.00     0.023 A 
ATOM      5  C4  UNL d   1      -1.480  -0.716  -0.188  0.00  0.00     0.048 A 
ATOM      6  C5  UNL d   1      -1.831  -0.880   1.153  0.00  0.00     0.003 A 
ATOM      7  I   UNL d   1       0.339  -0.055  -2.513  0.00  0.00    -0.146 I 
ENDROOT
TORSDOF 0
ENDMDL
