MODEL 1
REMARK minimizedAffinity -1.10561478
REMARK minimizedRMSD -1
REMARK  0 active torsions:
REMARK  status: ('A' for Active; 'I' for Inactive)
ROOT
ATOM      1  C   UNL d   1      -0.648  -0.124   2.555  0.00  0.00     0.023 A 
ATOM      2  C1  UNL d   1      -1.336  -0.947   1.663  0.00  0.00     0.003 A 
ATOM      3  C2  UNL d   1      -0.874  -1.098   0.353  0.00  0.00     0.048 A 
ATOM      4  C3  UNL d   1       0.276  -0.424  -0.056  0.00  0.00     0.023 A 
ATOM      5  C4  UNL d   1       0.968   0.399   0.834  0.00  0.00     0.048 A 
ATOM      6  C5  UNL d   1       0.502   0.548   2.141  0.00  0.00     0.003 A 
ATOM      7  I   UNL d   1       0.965  -0.648  -2.005  0.00  0.00    -0.146 I 
ENDROOT
TORSDOF 0
ENDMDL
