MODEL 1
REMARK minimizedAffinity -4.30668926
REMARK minimizedRMSD -1
REMARK  0 active torsions:
REMARK  status: ('A' for Active; 'I' for Inactive)
ROOT
ATOM      1  C   UNL d   1       0.695  -0.091   3.159  0.00  0.00     0.023 A 
ATOM      2  C1  UNL d   1      -0.593  -0.325   2.677  0.00  0.00     0.003 A 
ATOM      3  C2  UNL d   1      -0.895  -0.070   1.337  0.00  0.00     0.048 A 
ATOM      4  C3  UNL d   1       0.096   0.417   0.486  0.00  0.00     0.023 A 
ATOM      5  C4  UNL d   1       1.386   0.652   0.963  0.00  0.00     0.048 A 
ATOM      6  C5  UNL d   1       1.683   0.397   2.303  0.00  0.00     0.003 A 
ATOM      7  I   UNL d   1      -0.352   0.797  -1.508  0.00  0.00    -0.146 I 
ENDROOT
TORSDOF 0
ENDMDL
