MODEL 1
REMARK minimizedAffinity -4.05439091
REMARK minimizedRMSD -1
REMARK  0 active torsions:
REMARK  status: ('A' for Active; 'I' for Inactive)
ROOT
ATOM      1  C   UNL d   1      -0.111  -0.004   2.640  0.00  0.00     0.023 A 
ATOM      2  C1  UNL d   1       1.063   0.520   2.097  0.00  0.00     0.003 A 
ATOM      3  C2  UNL d   1       1.346   0.344   0.741  0.00  0.00     0.048 A 
ATOM      4  C3  UNL d   1       0.451  -0.357  -0.066  0.00  0.00     0.023 A 
ATOM      5  C4  UNL d   1      -0.725  -0.882   0.472  0.00  0.00     0.048 A 
ATOM      6  C5  UNL d   1      -1.003  -0.704   1.829  0.00  0.00     0.003 A 
ATOM      7  I   UNL d   1       0.870  -0.621  -2.085  0.00  0.00    -0.146 I 
ENDROOT
TORSDOF 0
ENDMDL
