MODEL 1
REMARK minimizedAffinity -4.02506399
REMARK minimizedRMSD -1
REMARK  0 active torsions:
REMARK  status: ('A' for Active; 'I' for Inactive)
ROOT
ATOM      1  C   UNL d   1      -2.103  -0.021   2.958  0.00  0.00     0.023 A 
ATOM      2  C1  UNL d   1      -2.811   0.010   1.757  0.00  0.00     0.003 A 
ATOM      3  C2  UNL d   1      -2.128   0.149   0.546  0.00  0.00     0.048 A 
ATOM      4  C3  UNL d   1      -0.738   0.254   0.545  0.00  0.00     0.023 A 
ATOM      5  C4  UNL d   1      -0.025   0.223   1.745  0.00  0.00     0.048 A 
ATOM      6  C5  UNL d   1      -0.712   0.085   2.953  0.00  0.00     0.003 A 
ATOM      7  I   UNL d   1       0.281   0.460  -1.255  0.00  0.00    -0.146 I 
ENDROOT
TORSDOF 0
ENDMDL
