MODEL 1
REMARK minimizedAffinity -2.59687734
REMARK minimizedRMSD -1
REMARK  0 active torsions:
REMARK  status: ('A' for Active; 'I' for Inactive)
ROOT
ATOM      1  C   UNL d   1      -0.339  -0.218   1.800  0.00  0.00     0.023 A 
ATOM      2  C1  UNL d   1      -1.222  -0.384   0.733  0.00  0.00     0.003 A 
ATOM      3  C2  UNL d   1      -0.755  -0.305  -0.581  0.00  0.00     0.048 A 
ATOM      4  C3  UNL d   1       0.597  -0.061  -0.820  0.00  0.00     0.023 A 
ATOM      5  C4  UNL d   1       1.484   0.105   0.244  0.00  0.00     0.048 A 
ATOM      6  C5  UNL d   1       1.012   0.026   1.556  0.00  0.00     0.003 A 
ATOM      7  I   UNL d   1       1.295   0.057  -2.775  0.00  0.00    -0.146 I 
ENDROOT
TORSDOF 0
ENDMDL
