MODEL 1
REMARK minimizedAffinity -3.66845083
REMARK minimizedRMSD -1
REMARK  0 active torsions:
REMARK  status: ('A' for Active; 'I' for Inactive)
ROOT
ATOM      1  C   UNL d   1      -1.004  -0.340   2.767  0.00  0.00     0.023 A 
ATOM      2  C1  UNL d   1      -1.955  -0.674   1.802  0.00  0.00     0.003 A 
ATOM      3  C2  UNL d   1      -1.637  -0.580   0.445  0.00  0.00     0.048 A 
ATOM      4  C3  UNL d   1      -0.367  -0.151   0.061  0.00  0.00     0.023 A 
ATOM      5  C4  UNL d   1       0.587   0.183   1.023  0.00  0.00     0.048 A 
ATOM      6  C5  UNL d   1       0.265   0.088   2.378  0.00  0.00     0.003 A 
ATOM      7  I   UNL d   1       0.107  -0.010  -1.958  0.00  0.00    -0.146 I 
ENDROOT
TORSDOF 0
ENDMDL
