MODEL 1
REMARK minimizedAffinity -3.84241581
REMARK minimizedRMSD -1
REMARK  0 active torsions:
REMARK  status: ('A' for Active; 'I' for Inactive)
ROOT
ATOM      1  C   UNL d   1      -0.369   0.308   3.075  0.00  0.00     0.023 A 
ATOM      2  C1  UNL d   1       0.647   0.984   2.399  0.00  0.00     0.003 A 
ATOM      3  C2  UNL d   1       0.862   0.745   1.040  0.00  0.00     0.048 A 
ATOM      4  C3  UNL d   1       0.057  -0.170   0.363  0.00  0.00     0.023 A 
ATOM      5  C4  UNL d   1      -0.961  -0.848   1.035  0.00  0.00     0.048 A 
ATOM      6  C5  UNL d   1      -1.172  -0.606   2.394  0.00  0.00     0.003 A 
ATOM      7  I   UNL d   1       0.375  -0.526  -1.660  0.00  0.00    -0.146 I 
ENDROOT
TORSDOF 0
ENDMDL
