MODEL 1
REMARK minimizedAffinity 12.3781281
REMARK minimizedRMSD -1
REMARK  2 active torsions:
REMARK  status: ('A' for Active; 'I' for Inactive)
REMARK    1  A    between atoms: C1_2  and  C2_3 
REMARK    2  A    between atoms: C2_3  and  C3_4 
ROOT
ATOM      1  C3  UNL d   1      -5.899   2.858  -1.196  0.00  0.00    -0.075 A 
ATOM      2  C4  UNL d   1      -5.947   3.594  -0.003  0.00  0.00     0.002 A 
ATOM      3  C5  UNL d   1      -6.000   4.988  -0.033  0.00  0.00     0.002 A 
ATOM      4  C6  UNL d   1      -5.995   5.662  -1.252  0.00  0.00    -0.004 A 
ATOM      5  C7  UNL d   1      -5.932   4.942  -2.442  0.00  0.00     0.002 A 
ATOM      6  C8  UNL d   1      -5.883   3.547  -2.416  0.00  0.00     0.002 A 
ENDROOT
BRANCH   1   7
ATOM      7  C2  UNL d   1      -5.872   1.348  -1.172  0.00  0.00     0.056 C 
BRANCH   7   8
ATOM      8  C1  UNL d   1      -6.000   0.700  -2.554  0.00  0.00     0.007 C 
ATOM      9  C   UNL d   1      -4.882  -0.288  -2.860  0.00  0.00     0.009 C 
ENDBRANCH   7   8
ENDBRANCH   1   7
TORSDOF 2
ENDMDL
