MODEL 1
REMARK minimizedAffinity 15.5238619
REMARK minimizedRMSD -1
REMARK  2 active torsions:
REMARK  status: ('A' for Active; 'I' for Inactive)
REMARK    1  A    between atoms: C1_2  and  C2_3 
REMARK    2  A    between atoms: C2_3  and  C3_4 
ROOT
ATOM      1  C3  UNL d   1       3.124  -2.395  -4.812  0.00  0.00    -0.075 A 
ATOM      2  C4  UNL d   1       3.907  -2.200  -5.959  0.00  0.00     0.002 A 
ATOM      3  C5  UNL d   1       5.299  -2.242  -5.882  0.00  0.00     0.002 A 
ATOM      4  C6  UNL d   1       5.926  -2.468  -4.658  0.00  0.00    -0.004 A 
ATOM      5  C7  UNL d   1       5.158  -2.646  -3.509  0.00  0.00     0.002 A 
ATOM      6  C8  UNL d   1       3.765  -2.610  -3.584  0.00  0.00     0.002 A 
ENDROOT
BRANCH   1   7
ATOM      7  C2  UNL d   1       1.616  -2.381  -4.893  0.00  0.00     0.056 C 
BRANCH   7   8
ATOM      8  C1  UNL d   1       1.027  -1.030  -5.315  0.00  0.00     0.007 C 
ATOM      9  C   UNL d   1      -0.271  -0.690  -4.595  0.00  0.00     0.009 C 
ENDBRANCH   7   8
ENDBRANCH   1   7
TORSDOF 2
ENDMDL
