MODEL 1
REMARK minimizedAffinity 6.26143312
REMARK minimizedRMSD -1
REMARK  2 active torsions:
REMARK  status: ('A' for Active; 'I' for Inactive)
REMARK    1  A    between atoms: C1_2  and  C2_3 
REMARK    2  A    between atoms: C2_3  and  C3_4 
ROOT
ATOM      1  C3  UNL d   1       4.532   3.243   2.227  0.00  0.00    -0.075 A 
ATOM      2  C4  UNL d   1       3.776   4.153   1.474  0.00  0.00     0.002 A 
ATOM      3  C5  UNL d   1       4.032   5.522   1.550  0.00  0.00     0.002 A 
ATOM      4  C6  UNL d   1       5.038   6.000   2.387  0.00  0.00    -0.004 A 
ATOM      5  C7  UNL d   1       5.785   5.107   3.153  0.00  0.00     0.002 A 
ATOM      6  C8  UNL d   1       5.534   3.736   3.074  0.00  0.00     0.002 A 
ENDROOT
BRANCH   1   7
ATOM      7  C2  UNL d   1       4.280   1.758   2.126  0.00  0.00     0.056 C 
BRANCH   7   8
ATOM      8  C1  UNL d   1       3.496   1.177   3.308  0.00  0.00     0.007 C 
ATOM      9  C   UNL d   1       2.273   0.377   2.881  0.00  0.00     0.009 C 
ENDBRANCH   7   8
ENDBRANCH   1   7
TORSDOF 2
ENDMDL
