MODEL 1
REMARK minimizedAffinity 9.11270332
REMARK minimizedRMSD -1
REMARK  2 active torsions:
REMARK  status: ('A' for Active; 'I' for Inactive)
REMARK    1  A    between atoms: C1_2  and  C2_3 
REMARK    2  A    between atoms: C2_3  and  C3_4 
ROOT
ATOM      1  C3  UNL d   1       0.496   0.247   3.793  0.00  0.00    -0.075 A 
ATOM      2  C4  UNL d   1       0.814   1.136   4.829  0.00  0.00     0.002 A 
ATOM      3  C5  UNL d   1       0.225   2.400   4.885  0.00  0.00     0.002 A 
ATOM      4  C6  UNL d   1      -0.680   2.793   3.903  0.00  0.00    -0.004 A 
ATOM      5  C7  UNL d   1      -0.992   1.925   2.859  0.00  0.00     0.002 A 
ATOM      6  C8  UNL d   1      -0.407   0.658   2.803  0.00  0.00     0.002 A 
ENDROOT
BRANCH   1   7
ATOM      7  C2  UNL d   1       1.108  -1.132   3.743  0.00  0.00     0.056 C 
BRANCH   7   8
ATOM      8  C1  UNL d   1       0.996  -1.912   5.057  0.00  0.00     0.007 C 
ATOM      9  C   UNL d   1       2.320  -2.032   5.798  0.00  0.00     0.009 C 
ENDBRANCH   7   8
ENDBRANCH   1   7
TORSDOF 2
ENDMDL
