MODEL 1
REMARK minimizedAffinity 13.0983276
REMARK minimizedRMSD -1
REMARK  2 active torsions:
REMARK  status: ('A' for Active; 'I' for Inactive)
REMARK    1  A    between atoms: C1_2  and  C2_3 
REMARK    2  A    between atoms: C2_3  and  C3_4 
ROOT
ATOM      1  C3  UNL d   1       0.390   0.229   2.553  0.00  0.00    -0.075 A 
ATOM      2  C4  UNL d   1      -0.403   1.363   2.328  0.00  0.00     0.002 A 
ATOM      3  C5  UNL d   1      -1.595   1.262   1.609  0.00  0.00     0.002 A 
ATOM      4  C6  UNL d   1      -2.001   0.032   1.098  0.00  0.00    -0.004 A 
ATOM      5  C7  UNL d   1      -1.212  -1.098   1.301  0.00  0.00     0.002 A 
ATOM      6  C8  UNL d   1      -0.022  -1.002   2.024  0.00  0.00     0.002 A 
ENDROOT
BRANCH   1   7
ATOM      7  C2  UNL d   1       1.666   0.325   3.356  0.00  0.00     0.056 C 
BRANCH   7   8
ATOM      8  C1  UNL d   1       1.444   0.591   4.849  0.00  0.00     0.007 C 
ATOM      9  C   UNL d   1       1.904  -0.557   5.738  0.00  0.00     0.009 C 
ENDBRANCH   7   8
ENDBRANCH   1   7
TORSDOF 2
ENDMDL
