MODEL 1
REMARK minimizedAffinity 17.5878315
REMARK minimizedRMSD -1
REMARK  2 active torsions:
REMARK  status: ('A' for Active; 'I' for Inactive)
REMARK    1  A    between atoms: C1_2  and  C2_3 
REMARK    2  A    between atoms: C2_3  and  C3_4 
ROOT
ATOM      1  C3  UNL d   1      -0.711  -2.690  -5.061  0.00  0.00    -0.075 A 
ATOM      2  C4  UNL d   1      -1.428  -2.755  -3.858  0.00  0.00     0.002 A 
ATOM      3  C5  UNL d   1      -1.486  -1.650  -3.007  0.00  0.00     0.002 A 
ATOM      4  C6  UNL d   1      -0.821  -0.473  -3.344  0.00  0.00    -0.004 A 
ATOM      5  C7  UNL d   1      -0.092  -0.403  -4.530  0.00  0.00     0.002 A 
ATOM      6  C8  UNL d   1      -0.037  -1.505  -5.384  0.00  0.00     0.002 A 
ENDROOT
BRANCH   1   7
ATOM      7  C2  UNL d   1      -0.670  -3.872  -6.000  0.00  0.00     0.056 C 
BRANCH   7   8
ATOM      8  C1  UNL d   1      -1.950  -4.714  -6.000  0.00  0.00     0.007 C 
ATOM      9  C   UNL d   1      -1.837  -5.979  -5.159  0.00  0.00     0.009 C 
ENDBRANCH   7   8
ENDBRANCH   1   7
TORSDOF 2
ENDMDL
