MODEL 1
REMARK minimizedAffinity 18.8385944
REMARK minimizedRMSD -1
REMARK  2 active torsions:
REMARK  status: ('A' for Active; 'I' for Inactive)
REMARK    1  A    between atoms: C1_2  and  C2_3 
REMARK    2  A    between atoms: C2_3  and  C3_4 
ROOT
ATOM      1  C3  UNL d   1      -0.447  -3.831  -5.528  0.00  0.00    -0.075 A 
ATOM      2  C4  UNL d   1      -1.840  -3.789  -5.690  0.00  0.00     0.002 A 
ATOM      3  C5  UNL d   1      -2.638  -4.835  -5.227  0.00  0.00     0.002 A 
ATOM      4  C6  UNL d   1      -2.056  -5.939  -4.609  0.00  0.00    -0.004 A 
ATOM      5  C7  UNL d   1      -0.672  -6.000  -4.459  0.00  0.00     0.002 A 
ATOM      6  C8  UNL d   1       0.129  -4.952  -4.916  0.00  0.00     0.002 A 
ENDROOT
BRANCH   1   7
ATOM      7  C2  UNL d   1       0.420  -2.688  -6.000  0.00  0.00     0.056 C 
BRANCH   7   8
ATOM      8  C1  UNL d   1       0.843  -1.726  -4.885  0.00  0.00     0.007 C 
ATOM      9  C   UNL d   1       0.111  -0.391  -4.934  0.00  0.00     0.009 C 
ENDBRANCH   7   8
ENDBRANCH   1   7
TORSDOF 2
ENDMDL
