MODEL 1
REMARK minimizedAffinity 11.9993372
REMARK minimizedRMSD -1
REMARK  2 active torsions:
REMARK  status: ('A' for Active; 'I' for Inactive)
REMARK    1  A    between atoms: C1_2  and  C2_3 
REMARK    2  A    between atoms: C2_3  and  C3_4 
ROOT
ATOM      1  C3  UNL d   1       0.123   1.041   3.305  0.00  0.00    -0.075 A 
ATOM      2  C4  UNL d   1      -0.009   0.547   1.999  0.00  0.00     0.002 A 
ATOM      3  C5  UNL d   1       0.493  -0.711   1.664  0.00  0.00     0.002 A 
ATOM      4  C6  UNL d   1       1.141  -1.485   2.624  0.00  0.00    -0.004 A 
ATOM      5  C7  UNL d   1       1.292  -0.997   3.920  0.00  0.00     0.002 A 
ATOM      6  C8  UNL d   1       0.787   0.259   4.260  0.00  0.00     0.002 A 
ENDROOT
BRANCH   1   7
ATOM      7  C2  UNL d   1      -0.444   2.388   3.682  0.00  0.00     0.056 C 
BRANCH   7   8
ATOM      8  C1  UNL d   1      -0.743   2.543   5.177  0.00  0.00     0.007 C 
ATOM      9  C   UNL d   1       0.472   2.965   5.992  0.00  0.00     0.009 C 
ENDBRANCH   7   8
ENDBRANCH   1   7
TORSDOF 2
ENDMDL
