MODEL 1
REMARK minimizedAffinity 10.2984381
REMARK minimizedRMSD -1
REMARK  2 active torsions:
REMARK  status: ('A' for Active; 'I' for Inactive)
REMARK    1  A    between atoms: C1_2  and  C2_3 
REMARK    2  A    between atoms: C2_3  and  C3_4 
ROOT
ATOM      1  C3  UNL d   1      -0.303  -0.023   3.067  0.00  0.00    -0.075 A 
ATOM      2  C4  UNL d   1      -1.599  -0.354   2.646  0.00  0.00     0.002 A 
ATOM      3  C5  UNL d   1      -2.118  -1.627   2.881  0.00  0.00     0.002 A 
ATOM      4  C6  UNL d   1      -1.345  -2.588   3.530  0.00  0.00    -0.004 A 
ATOM      5  C7  UNL d   1      -0.050  -2.276   3.938  0.00  0.00     0.002 A 
ATOM      6  C8  UNL d   1       0.470  -1.001   3.708  0.00  0.00     0.002 A 
ENDROOT
BRANCH   1   7
ATOM      7  C2  UNL d   1       0.253   1.362   2.842  0.00  0.00     0.056 C 
BRANCH   7   8
ATOM      8  C1  UNL d   1      -0.463   2.459   3.638  0.00  0.00     0.007 C 
ATOM      9  C   UNL d   1       0.038   2.586   5.070  0.00  0.00     0.009 C 
ENDBRANCH   7   8
ENDBRANCH   1   7
TORSDOF 2
ENDMDL
