MODEL 1
REMARK minimizedAffinity 11.2580938
REMARK minimizedRMSD -1
REMARK  0 active torsions:
REMARK  status: ('A' for Active; 'I' for Inactive)
ROOT
ATOM      1  C   UNL d   1       0.464  -1.130  -0.095  0.00  0.00     0.124 A 
ATOM      2  C1  UNL d   1      -0.768  -1.147   0.544  0.00  0.00     0.062 A 
ATOM      3  C2  UNL d   1      -0.863  -0.806   1.890  0.00  0.00     0.162 A 
ATOM      4  C3  UNL d   1       0.278  -0.444   2.606  0.00  0.00    -0.034 A 
ATOM      5  C4  UNL d   1       1.514  -0.431   1.957  0.00  0.00     0.162 A 
ATOM      6  C5  UNL d   1       1.603  -0.772   0.611  0.00  0.00     0.062 A 
ATOM      7  F   UNL d   1       2.794  -0.756  -0.005  0.00  0.00    -0.097 F 
ATOM      8  F1  UNL d   1       2.631  -0.087   2.615  0.00  0.00    -0.096 F 
ATOM      9  I   UNL d   1       0.141   0.067   4.619  0.00  0.00    -0.060 I 
ATOM     10  F2  UNL d   1      -2.066  -0.831   2.483  0.00  0.00    -0.096 F 
ATOM     11  F3  UNL d   1      -1.870  -1.494  -0.136  0.00  0.00    -0.097 F 
ATOM     12  F4  UNL d   1       0.552  -1.460  -1.390  0.00  0.00    -0.092 F 
ENDROOT
TORSDOF 0
ENDMDL
