MODEL 1
REMARK minimizedAffinity 9.85124493
REMARK minimizedRMSD -1
REMARK  0 active torsions:
REMARK  status: ('A' for Active; 'I' for Inactive)
ROOT
ATOM      1  C   UNL d   1       0.024  -1.818   0.454  0.00  0.00     0.124 A 
ATOM      2  C1  UNL d   1       0.806  -2.862  -0.020  0.00  0.00     0.062 A 
ATOM      3  C2  UNL d   1       2.189  -2.722  -0.095  0.00  0.00     0.162 A 
ATOM      4  C3  UNL d   1       2.799  -1.534   0.307  0.00  0.00    -0.034 A 
ATOM      5  C4  UNL d   1       2.005  -0.488   0.782  0.00  0.00     0.162 A 
ATOM      6  C5  UNL d   1       0.624  -0.633   0.855  0.00  0.00     0.062 A 
ATOM      7  F   UNL d   1      -0.130   0.377   1.313  0.00  0.00    -0.097 F 
ATOM      8  F1  UNL d   1       2.559   0.668   1.177  0.00  0.00    -0.096 F 
ATOM      9  I   UNL d   1       4.866  -1.321   0.198  0.00  0.00    -0.060 I 
ATOM     10  F2  UNL d   1       2.920  -3.747  -0.557  0.00  0.00    -0.096 F 
ATOM     11  F3  UNL d   1       0.229  -4.008  -0.409  0.00  0.00    -0.097 F 
ATOM     12  F4  UNL d   1      -1.307  -1.955   0.524  0.00  0.00    -0.092 F 
ENDROOT
TORSDOF 0
ENDMDL
