MODEL 1
REMARK minimizedAffinity -0.603399992
REMARK minimizedRMSD -1
REMARK  0 active torsions:
REMARK  status: ('A' for Active; 'I' for Inactive)
ROOT
ATOM      1  C   UNL d   1       0.651  -0.734   0.882  0.00  0.00     0.124 A 
ATOM      2  C1  UNL d   1       2.030  -0.591   0.804  0.00  0.00     0.062 A 
ATOM      3  C2  UNL d   1       2.825  -1.668   0.421  0.00  0.00     0.162 A 
ATOM      4  C3  UNL d   1       2.243  -2.897   0.112  0.00  0.00    -0.034 A 
ATOM      5  C4  UNL d   1       0.856  -3.034   0.194  0.00  0.00     0.162 A 
ATOM      6  C5  UNL d   1       0.066  -1.955   0.577  0.00  0.00     0.062 A 
ATOM      7  F   UNL d   1      -1.265  -2.095   0.651  0.00  0.00    -0.097 F 
ATOM      8  F1  UNL d   1       0.264  -4.202  -0.097  0.00  0.00    -0.096 F 
ATOM      9  I   UNL d   1       3.428  -4.509  -0.461  0.00  0.00    -0.060 I 
ATOM     10  F2  UNL d   1       4.154  -1.501   0.355  0.00  0.00    -0.096 F 
ATOM     11  F3  UNL d   1       2.598   0.587   1.100  0.00  0.00    -0.097 F 
ATOM     12  F4  UNL d   1      -0.111   0.303   1.252  0.00  0.00    -0.092 F 
ENDROOT
TORSDOF 0
ENDMDL
