MODEL 1
REMARK minimizedAffinity 7.10382843
REMARK minimizedRMSD -1
REMARK  0 active torsions:
REMARK  status: ('A' for Active; 'I' for Inactive)
ROOT
ATOM      1  C   UNL d   1       1.397  -2.780   0.121  0.00  0.00     0.124 A 
ATOM      2  C1  UNL d   1       0.038  -3.019   0.275  0.00  0.00     0.062 A 
ATOM      3  C2  UNL d   1      -0.771  -2.078   0.906  0.00  0.00     0.162 A 
ATOM      4  C3  UNL d   1      -0.223  -0.889   1.387  0.00  0.00    -0.034 A 
ATOM      5  C4  UNL d   1       1.144  -0.657   1.230  0.00  0.00     0.162 A 
ATOM      6  C5  UNL d   1       1.948  -1.600   0.599  0.00  0.00     0.062 A 
ATOM      7  F   UNL d   1       3.261  -1.367   0.451  0.00  0.00    -0.097 F 
ATOM      8  F1  UNL d   1       1.703   0.476   1.681  0.00  0.00    -0.096 F 
ATOM      9  I   UNL d   1      -1.430   0.520   2.331  0.00  0.00    -0.060 I 
ATOM     10  F2  UNL d   1      -2.080  -2.336   1.040  0.00  0.00    -0.096 F 
ATOM     11  F3  UNL d   1      -0.497  -4.159  -0.185  0.00  0.00    -0.097 F 
ATOM     12  F4  UNL d   1       2.173  -3.687  -0.486  0.00  0.00    -0.092 F 
ENDROOT
TORSDOF 0
ENDMDL
