MODEL 1
REMARK minimizedAffinity 3.38538098
REMARK minimizedRMSD -1
REMARK  0 active torsions:
REMARK  status: ('A' for Active; 'I' for Inactive)
ROOT
ATOM      1  C   UNL d   1       1.255  -2.525  -0.376  0.00  0.00     0.124 A 
ATOM      2  C1  UNL d   1      -0.089  -2.699  -0.077  0.00  0.00     0.062 A 
ATOM      3  C2  UNL d   1      -0.754  -1.775   0.723  0.00  0.00     0.162 A 
ATOM      4  C3  UNL d   1      -0.076  -0.666   1.230  0.00  0.00    -0.034 A 
ATOM      5  C4  UNL d   1       1.276  -0.498   0.926  0.00  0.00     0.162 A 
ATOM      6  C5  UNL d   1       1.936  -1.425   0.126  0.00  0.00     0.062 A 
ATOM      7  F   UNL d   1       3.235  -1.255  -0.161  0.00  0.00    -0.097 F 
ATOM      8  F1  UNL d   1       1.958   0.557   1.397  0.00  0.00    -0.096 F 
ATOM      9  I   UNL d   1      -1.067   0.719   2.426  0.00  0.00    -0.060 I 
ATOM     10  F2  UNL d   1      -2.054  -1.968   0.995  0.00  0.00    -0.096 F 
ATOM     11  F3  UNL d   1      -0.749  -3.762  -0.560  0.00  0.00    -0.097 F 
ATOM     12  F4  UNL d   1       1.893  -3.417  -1.145  0.00  0.00    -0.092 F 
ENDROOT
TORSDOF 0
ENDMDL
