MODEL 1
REMARK minimizedAffinity 3.46735907
REMARK minimizedRMSD -1
REMARK  0 active torsions:
REMARK  status: ('A' for Active; 'I' for Inactive)
ROOT
ATOM      1  C   UNL d   1      -0.867  -1.884   0.350  0.00  0.00     0.124 A 
ATOM      2  C1  UNL d   1      -0.178  -0.764   0.797  0.00  0.00     0.062 A 
ATOM      3  C2  UNL d   1       1.213  -0.741   0.768  0.00  0.00     0.162 A 
ATOM      4  C3  UNL d   1       1.926  -1.840   0.290  0.00  0.00    -0.034 A 
ATOM      5  C4  UNL d   1       1.227  -2.963  -0.157  0.00  0.00     0.162 A 
ATOM      6  C5  UNL d   1      -0.164  -2.982  -0.126  0.00  0.00     0.062 A 
ATOM      7  F   UNL d   1      -0.827  -4.064  -0.558  0.00  0.00    -0.097 F 
ATOM      8  F1  UNL d   1       1.881  -4.037  -0.623  0.00  0.00    -0.096 F 
ATOM      9  I   UNL d   1       4.006  -1.809   0.246  0.00  0.00    -0.060 I 
ATOM     10  F2  UNL d   1       1.852   0.354   1.206  0.00  0.00    -0.096 F 
ATOM     11  F3  UNL d   1      -0.855   0.297   1.259  0.00  0.00    -0.097 F 
ATOM     12  F4  UNL d   1      -2.206  -1.904   0.380  0.00  0.00    -0.092 F 
ENDROOT
TORSDOF 0
ENDMDL
