MODEL 1
REMARK minimizedAffinity 0.881188691
REMARK minimizedRMSD -1
REMARK  0 active torsions:
REMARK  status: ('A' for Active; 'I' for Inactive)
ROOT
ATOM      1  C   UNL d   1      -1.089  -1.827   0.545  0.00  0.00     0.124 A 
ATOM      2  C1  UNL d   1      -0.316  -0.743   0.938  0.00  0.00     0.062 A 
ATOM      3  C2  UNL d   1       1.072  -0.808   0.858  0.00  0.00     0.162 A 
ATOM      4  C3  UNL d   1       1.697  -1.961   0.382  0.00  0.00    -0.034 A 
ATOM      5  C4  UNL d   1       0.913  -3.047  -0.011  0.00  0.00     0.162 A 
ATOM      6  C5  UNL d   1      -0.474  -2.977   0.071  0.00  0.00     0.062 A 
ATOM      7  F   UNL d   1      -1.219  -4.025  -0.309  0.00  0.00    -0.097 F 
ATOM      8  F1  UNL d   1       1.481  -4.171  -0.474  0.00  0.00    -0.096 F 
ATOM      9  I   UNL d   1       3.772  -2.061   0.261  0.00  0.00    -0.060 I 
ATOM     10  F2  UNL d   1       1.794   0.254   1.245  0.00  0.00    -0.096 F 
ATOM     11  F3  UNL d   1      -0.907   0.369   1.397  0.00  0.00    -0.097 F 
ATOM     12  F4  UNL d   1      -2.424  -1.763   0.624  0.00  0.00    -0.092 F 
ENDROOT
TORSDOF 0
ENDMDL
