MODEL 1
REMARK minimizedAffinity 11.8363409
REMARK minimizedRMSD -1
REMARK  0 active torsions:
REMARK  status: ('A' for Active; 'I' for Inactive)
ROOT
ATOM      1  C   UNL d   1       1.957  -1.627   0.595  0.00  0.00     0.124 A 
ATOM      2  C1  UNL d   1       1.199  -2.734   0.237  0.00  0.00     0.062 A 
ATOM      3  C2  UNL d   1      -0.188  -2.697   0.345  0.00  0.00     0.162 A 
ATOM      4  C3  UNL d   1      -0.827  -1.548   0.812  0.00  0.00    -0.034 A 
ATOM      5  C4  UNL d   1      -0.058  -0.440   1.170  0.00  0.00     0.162 A 
ATOM      6  C5  UNL d   1       1.328  -0.482   1.061  0.00  0.00     0.062 A 
ATOM      7  F   UNL d   1       2.058   0.589   1.407  0.00  0.00    -0.097 F 
ATOM      8  F1  UNL d   1      -0.641   0.681   1.623  0.00  0.00    -0.096 F 
ATOM      9  I   UNL d   1      -2.901  -1.489   0.975  0.00  0.00    -0.060 I 
ATOM     10  F2  UNL d   1      -0.895  -3.781  -0.007  0.00  0.00    -0.096 F 
ATOM     11  F3  UNL d   1       1.805  -3.842  -0.212  0.00  0.00    -0.097 F 
ATOM     12  F4  UNL d   1       3.292  -1.666   0.491  0.00  0.00    -0.092 F 
ENDROOT
TORSDOF 0
ENDMDL
