MODEL 1
REMARK minimizedAffinity 9.6964674
REMARK minimizedRMSD -1
REMARK  0 active torsions:
REMARK  status: ('A' for Active; 'I' for Inactive)
ROOT
ATOM      1  C   UNL d   1       0.667  -0.752   1.646  0.00  0.00     0.124 A 
ATOM      2  C1  UNL d   1       0.002   0.051   2.562  0.00  0.00     0.062 A 
ATOM      3  C2  UNL d   1      -1.220   0.628   2.229  0.00  0.00     0.162 A 
ATOM      4  C3  UNL d   1      -1.786   0.403   0.975  0.00  0.00    -0.034 A 
ATOM      5  C4  UNL d   1      -1.112  -0.406   0.058  0.00  0.00     0.162 A 
ATOM      6  C5  UNL d   1       0.110  -0.980   0.396  0.00  0.00     0.062 A 
ATOM      7  F   UNL d   1       0.750  -1.757  -0.491  0.00  0.00    -0.097 F 
ATOM      8  F1  UNL d   1      -1.628  -0.643  -1.157  0.00  0.00    -0.096 F 
ATOM      9  I   UNL d   1      -3.614   1.264   0.473  0.00  0.00    -0.060 I 
ATOM     10  F2  UNL d   1      -1.840   1.401   3.134  0.00  0.00    -0.096 F 
ATOM     11  F3  UNL d   1       0.539   0.274   3.770  0.00  0.00    -0.097 F 
ATOM     12  F4  UNL d   1       1.843  -1.306   1.968  0.00  0.00    -0.092 F 
ENDROOT
TORSDOF 0
ENDMDL
