MODEL 1
REMARK minimizedAffinity 12.5222206
REMARK minimizedRMSD -1
REMARK  0 active torsions:
REMARK  status: ('A' for Active; 'I' for Inactive)
ROOT
ATOM      1  C   UNL d   1       1.700  -2.483  -0.052  0.00  0.00     0.124 A 
ATOM      2  C1  UNL d   1       0.328  -2.691  -0.040  0.00  0.00     0.062 A 
ATOM      3  C2  UNL d   1      -0.516  -1.758   0.556  0.00  0.00     0.162 A 
ATOM      4  C3  UNL d   1       0.010  -0.607   1.143  0.00  0.00    -0.034 A 
ATOM      5  C4  UNL d   1       1.391  -0.406   1.128  0.00  0.00     0.162 A 
ATOM      6  C5  UNL d   1       2.230  -1.341   0.532  0.00  0.00     0.062 A 
ATOM      7  F   UNL d   1       3.556  -1.139   0.521  0.00  0.00    -0.097 F 
ATOM      8  F1  UNL d   1       1.930   0.690   1.684  0.00  0.00    -0.096 F 
ATOM      9  I   UNL d   1      -1.249   0.791   2.034  0.00  0.00    -0.060 I 
ATOM     10  F2  UNL d   1      -1.838  -1.984   0.553  0.00  0.00    -0.096 F 
ATOM     11  F3  UNL d   1      -0.187  -3.794  -0.602  0.00  0.00    -0.097 F 
ATOM     12  F4  UNL d   1       2.510  -3.383  -0.624  0.00  0.00    -0.092 F 
ENDROOT
TORSDOF 0
ENDMDL
