MODEL 1
REMARK minimizedAffinity 9.54104614
REMARK minimizedRMSD -1
REMARK  0 active torsions:
REMARK  status: ('A' for Active; 'I' for Inactive)
ROOT
ATOM      1  C   UNL d   1       1.722  -2.866  -0.298  0.00  0.00     0.124 A 
ATOM      2  C1  UNL d   1       2.411  -1.796   0.255  0.00  0.00     0.062 A 
ATOM      3  C2  UNL d   1       1.766  -0.921   1.125  0.00  0.00     0.162 A 
ATOM      4  C3  UNL d   1       0.423  -1.114   1.448  0.00  0.00    -0.034 A 
ATOM      5  C4  UNL d   1      -0.264  -2.192   0.888  0.00  0.00     0.162 A 
ATOM      6  C5  UNL d   1       0.385  -3.063   0.019  0.00  0.00     0.062 A 
ATOM      7  F   UNL d   1      -0.282  -4.097  -0.515  0.00  0.00    -0.097 F 
ATOM      8  F1  UNL d   1      -1.556  -2.407   1.177  0.00  0.00    -0.096 F 
ATOM      9  I   UNL d   1      -0.546   0.190   2.749  0.00  0.00    -0.060 I 
ATOM     10  F2  UNL d   1       2.457   0.104   1.644  0.00  0.00    -0.096 F 
ATOM     11  F3  UNL d   1       3.703  -1.602  -0.050  0.00  0.00    -0.097 F 
ATOM     12  F4  UNL d   1       2.345  -3.705  -1.135  0.00  0.00    -0.092 F 
ENDROOT
TORSDOF 0
ENDMDL
