MODEL 1
REMARK minimizedAffinity 10.8407736
REMARK minimizedRMSD -1
REMARK  0 active torsions:
REMARK  status: ('A' for Active; 'I' for Inactive)
ROOT
ATOM      1  C   UNL d   1       0.951  -0.952   2.966  0.00  0.00     0.124 A 
ATOM      2  C1  UNL d   1       2.011  -1.016   2.072  0.00  0.00     0.062 A 
ATOM      3  C2  UNL d   1       1.777  -1.280   0.726  0.00  0.00     0.162 A 
ATOM      4  C3  UNL d   1       0.476  -1.481   0.264  0.00  0.00    -0.034 A 
ATOM      5  C4  UNL d   1      -0.585  -1.416   1.169  0.00  0.00     0.162 A 
ATOM      6  C5  UNL d   1      -0.345  -1.152   2.514  0.00  0.00     0.062 A 
ATOM      7  F   UNL d   1      -1.371  -1.090   3.376  0.00  0.00    -0.097 F 
ATOM      8  F1  UNL d   1      -1.848  -1.604   0.759  0.00  0.00    -0.096 F 
ATOM      9  I   UNL d   1       0.121  -1.876  -1.748  0.00  0.00    -0.060 I 
ATOM     10  F2  UNL d   1       2.820  -1.337  -0.115  0.00  0.00    -0.096 F 
ATOM     11  F3  UNL d   1       3.265  -0.825   2.507  0.00  0.00    -0.097 F 
ATOM     12  F4  UNL d   1       1.180  -0.699   4.261  0.00  0.00    -0.092 F 
ENDROOT
TORSDOF 0
ENDMDL
