MODEL 1
REMARK minimizedAffinity 12.648325
REMARK minimizedRMSD -1
REMARK  0 active torsions:
REMARK  status: ('A' for Active; 'I' for Inactive)
ROOT
ATOM      1  C   UNL d   1      -0.135  -0.555   0.810  0.00  0.00     0.124 A 
ATOM      2  C1  UNL d   1      -0.621  -1.849   0.687  0.00  0.00     0.062 A 
ATOM      3  C2  UNL d   1       0.203  -2.863   0.208  0.00  0.00     0.162 A 
ATOM      4  C3  UNL d   1       1.523  -2.588  -0.150  0.00  0.00    -0.034 A 
ATOM      5  C4  UNL d   1       2.004  -1.283  -0.025  0.00  0.00     0.162 A 
ATOM      6  C5  UNL d   1       1.176  -0.273   0.455  0.00  0.00     0.062 A 
ATOM      7  F   UNL d   1       1.647   0.977   0.573  0.00  0.00    -0.097 F 
ATOM      8  F1  UNL d   1       3.267  -0.983  -0.360  0.00  0.00    -0.096 F 
ATOM      9  I   UNL d   1       2.758  -4.101  -0.867  0.00  0.00    -0.060 I 
ATOM     10  F2  UNL d   1      -0.293  -4.105   0.100  0.00  0.00    -0.096 F 
ATOM     11  F3  UNL d   1      -1.888  -2.124   1.030  0.00  0.00    -0.097 F 
ATOM     12  F4  UNL d   1      -0.931   0.419   1.271  0.00  0.00    -0.092 F 
ENDROOT
TORSDOF 0
ENDMDL
