MODEL 1
REMARK minimizedAffinity 8.22925949
REMARK minimizedRMSD -1
REMARK  0 active torsions:
REMARK  status: ('A' for Active; 'I' for Inactive)
ROOT
ATOM      1  C   UNL d   1       1.619  -2.650  -0.307  0.00  0.00     0.124 A 
ATOM      2  C1  UNL d   1       0.294  -2.909   0.014  0.00  0.00     0.062 A 
ATOM      3  C2  UNL d   1      -0.413  -2.031   0.831  0.00  0.00     0.162 A 
ATOM      4  C3  UNL d   1       0.204  -0.885   1.333  0.00  0.00    -0.034 A 
ATOM      5  C4  UNL d   1       1.538  -0.632   1.007  0.00  0.00     0.162 A 
ATOM      6  C5  UNL d   1       2.239  -1.512   0.189  0.00  0.00     0.062 A 
ATOM      7  F   UNL d   1       3.520  -1.260  -0.120  0.00  0.00    -0.097 F 
ATOM      8  F1  UNL d   1       2.162   0.460   1.472  0.00  0.00    -0.096 F 
ATOM      9  I   UNL d   1      -0.849   0.429   2.556  0.00  0.00    -0.060 I 
ATOM     10  F2  UNL d   1      -1.692  -2.307   1.125  0.00  0.00    -0.096 F 
ATOM     11  F3  UNL d   1      -0.308  -4.007  -0.464  0.00  0.00    -0.097 F 
ATOM     12  F4  UNL d   1       2.297  -3.496  -1.093  0.00  0.00    -0.092 F 
ENDROOT
TORSDOF 0
ENDMDL
