MODEL 1
REMARK minimizedAffinity 11.793746
REMARK minimizedRMSD -1
REMARK  0 active torsions:
REMARK  status: ('A' for Active; 'I' for Inactive)
ROOT
ATOM      1  C   UNL d   1      -4.877  -2.522   2.386  0.00  0.00     0.124 A 
ATOM      2  C1  UNL d   1      -4.735  -2.244   3.739  0.00  0.00     0.062 A 
ATOM      3  C2  UNL d   1      -5.017  -3.223   4.688  0.00  0.00     0.162 A 
ATOM      4  C3  UNL d   1      -5.444  -4.489   4.287  0.00  0.00    -0.034 A 
ATOM      5  C4  UNL d   1      -5.585  -4.761   2.925  0.00  0.00     0.162 A 
ATOM      6  C5  UNL d   1      -5.302  -3.779   1.981  0.00  0.00     0.062 A 
ATOM      7  F   UNL d   1      -5.439  -4.050   0.675  0.00  0.00    -0.097 F 
ATOM      8  F1  UNL d   1      -5.993  -5.968   2.506  0.00  0.00    -0.096 F 
ATOM      9  I   UNL d   1      -5.867  -5.955   5.703  0.00  0.00    -0.060 I 
ATOM     10  F2  UNL d   1      -4.871  -2.927   5.988  0.00  0.00    -0.096 F 
ATOM     11  F3  UNL d   1      -4.325  -1.030   4.133  0.00  0.00    -0.097 F 
ATOM     12  F4  UNL d   1      -4.605  -1.579   1.475  0.00  0.00    -0.092 F 
ENDROOT
TORSDOF 0
ENDMDL
