MODEL 1
REMARK minimizedAffinity 8.25921154
REMARK minimizedRMSD -1
REMARK  0 active torsions:
REMARK  status: ('A' for Active; 'I' for Inactive)
ROOT
ATOM      1  C   UNL d   1       0.298  -0.633   0.697  0.00  0.00     0.124 A 
ATOM      2  C1  UNL d   1       1.680  -0.515   0.735  0.00  0.00     0.062 A 
ATOM      3  C2  UNL d   1       2.485  -1.583   0.349  0.00  0.00     0.162 A 
ATOM      4  C3  UNL d   1       1.909  -2.779  -0.081  0.00  0.00    -0.034 A 
ATOM      5  C4  UNL d   1       0.518  -2.890  -0.116  0.00  0.00     0.162 A 
ATOM      6  C5  UNL d   1      -0.282  -1.820   0.271  0.00  0.00     0.062 A 
ATOM      7  F   UNL d   1      -1.617  -1.936   0.233  0.00  0.00    -0.097 F 
ATOM      8  F1  UNL d   1      -0.068  -4.025  -0.524  0.00  0.00    -0.096 F 
ATOM      9  I   UNL d   1       3.109  -4.378  -0.660  0.00  0.00    -0.060 I 
ATOM     10  F2  UNL d   1       3.818  -1.441   0.396  0.00  0.00    -0.096 F 
ATOM     11  F3  UNL d   1       2.243   0.630   1.147  0.00  0.00    -0.097 F 
ATOM     12  F4  UNL d   1      -0.474   0.395   1.070  0.00  0.00    -0.092 F 
ENDROOT
TORSDOF 0
ENDMDL
