MODEL 1
REMARK minimizedAffinity 4.30640841
REMARK minimizedRMSD -1
REMARK  0 active torsions:
REMARK  status: ('A' for Active; 'I' for Inactive)
ROOT
ATOM      1  C   UNL d   1      -3.457   1.764   1.447  0.00  0.00     0.077 C 
ATOM      2  C1  UNL d   1      -2.013   1.587   1.811  0.00  0.00    -0.074 A 
ATOM      3  C2  UNL d   1      -1.292   0.471   1.372  0.00  0.00    -0.005 A 
ATOM      4  C3  UNL d   1       0.053   0.325   1.711  0.00  0.00     0.006 A 
ATOM      5  C4  UNL d   1       0.691   1.291   2.489  0.00  0.00    -0.005 A 
ATOM      6  C5  UNL d   1      -0.013   2.414   2.936  0.00  0.00    -0.074 A 
ATOM      7  C6  UNL d   1       0.660   3.467   3.765  0.00  0.00     0.077 C 
ATOM      8  C7  UNL d   1      -1.363   2.557   2.586  0.00  0.00    -0.001 A 
ENDROOT
TORSDOF 0
ENDMDL
