MODEL 1
REMARK minimizedAffinity 1.69256341
REMARK minimizedRMSD -1
REMARK  0 active torsions:
REMARK  status: ('A' for Active; 'I' for Inactive)
ROOT
ATOM      1  C   UNL d   1       2.963   2.249  -5.353  0.00  0.00     0.077 C 
ATOM      2  C1  UNL d   1       2.961   0.820  -4.898  0.00  0.00    -0.074 A 
ATOM      3  C2  UNL d   1       3.655   0.432  -3.747  0.00  0.00    -0.005 A 
ATOM      4  C3  UNL d   1       3.636  -0.899  -3.330  0.00  0.00     0.006 A 
ATOM      5  C4  UNL d   1       2.924  -1.854  -4.058  0.00  0.00    -0.005 A 
ATOM      6  C5  UNL d   1       2.224  -1.484  -5.211  0.00  0.00    -0.074 A 
ATOM      7  C6  UNL d   1       1.446  -2.495  -5.999  0.00  0.00     0.077 C 
ATOM      8  C7  UNL d   1       2.242  -0.143  -5.619  0.00  0.00    -0.001 A 
ENDROOT
TORSDOF 0
ENDMDL
