MODEL 1
REMARK minimizedAffinity 4.09674501
REMARK minimizedRMSD -1
REMARK  0 active torsions:
REMARK  status: ('A' for Active; 'I' for Inactive)
ROOT
ATOM      1  C   UNL d   1      -4.121   0.830   3.991  0.00  0.00     0.077 C 
ATOM      2  C1  UNL d   1      -3.039   0.727   2.957  0.00  0.00    -0.074 A 
ATOM      3  C2  UNL d   1      -3.333   0.336   1.647  0.00  0.00    -0.005 A 
ATOM      4  C3  UNL d   1      -2.318   0.254   0.693  0.00  0.00     0.006 A 
ATOM      5  C4  UNL d   1      -1.002   0.561   1.040  0.00  0.00    -0.005 A 
ATOM      6  C5  UNL d   1      -0.689   0.954   2.345  0.00  0.00    -0.074 A 
ATOM      7  C6  UNL d   1       0.719   1.297   2.732  0.00  0.00     0.077 C 
ATOM      8  C7  UNL d   1      -1.716   1.041   3.296  0.00  0.00    -0.001 A 
ENDROOT
TORSDOF 0
ENDMDL
