MODEL 1
REMARK minimizedAffinity 4.48052692
REMARK minimizedRMSD -1
REMARK  0 active torsions:
REMARK  status: ('A' for Active; 'I' for Inactive)
ROOT
ATOM      1  C   UNL d   1       1.072   0.328   1.880  0.00  0.00     0.077 C 
ATOM      2  C1  UNL d   1      -0.384   0.686   1.892  0.00  0.00    -0.074 A 
ATOM      3  C2  UNL d   1      -1.044   1.054   0.715  0.00  0.00    -0.005 A 
ATOM      4  C3  UNL d   1      -2.401   1.375   0.741  0.00  0.00     0.006 A 
ATOM      5  C4  UNL d   1      -3.111   1.332   1.942  0.00  0.00    -0.005 A 
ATOM      6  C5  UNL d   1      -2.468   0.966   3.129  0.00  0.00    -0.074 A 
ATOM      7  C6  UNL d   1      -3.218   0.906   4.426  0.00  0.00     0.077 C 
ATOM      8  C7  UNL d   1      -1.105   0.638   3.093  0.00  0.00    -0.001 A 
ENDROOT
TORSDOF 0
ENDMDL
