MODEL 1
REMARK minimizedAffinity 5.41977835
REMARK minimizedRMSD -1
REMARK  0 active torsions:
REMARK  status: ('A' for Active; 'I' for Inactive)
ROOT
ATOM      1  C   UNL d   1      -2.195   0.251  -0.018  0.00  0.00     0.077 C 
ATOM      2  C1  UNL d   1      -1.332   0.647   1.143  0.00  0.00    -0.074 A 
ATOM      3  C2  UNL d   1      -0.141  -0.032   1.417  0.00  0.00    -0.005 A 
ATOM      4  C3  UNL d   1       0.657   0.353   2.495  0.00  0.00     0.006 A 
ATOM      5  C4  UNL d   1       0.271   1.420   3.308  0.00  0.00    -0.005 A 
ATOM      6  C5  UNL d   1      -0.916   2.112   3.048  0.00  0.00    -0.074 A 
ATOM      7  C6  UNL d   1      -1.340   3.267   3.906  0.00  0.00     0.077 C 
ATOM      8  C7  UNL d   1      -1.708   1.723   1.959  0.00  0.00    -0.001 A 
ENDROOT
TORSDOF 0
ENDMDL
