MODEL 1
REMARK minimizedAffinity 4.38136911
REMARK minimizedRMSD -1
REMARK  0 active torsions:
REMARK  status: ('A' for Active; 'I' for Inactive)
ROOT
ATOM      1  C   UNL d   1       2.027   2.753  -5.547  0.00  0.00     0.077 C 
ATOM      2  C1  UNL d   1       2.424   1.486  -4.850  0.00  0.00    -0.074 A 
ATOM      3  C2  UNL d   1       3.312   1.508  -3.769  0.00  0.00    -0.005 A 
ATOM      4  C3  UNL d   1       3.664   0.322  -3.125  0.00  0.00     0.006 A 
ATOM      5  C4  UNL d   1       3.134  -0.896  -3.554  0.00  0.00    -0.005 A 
ATOM      6  C5  UNL d   1       2.245  -0.937  -4.633  0.00  0.00    -0.074 A 
ATOM      7  C6  UNL d   1       1.659  -2.236  -5.101  0.00  0.00     0.077 C 
ATOM      8  C7  UNL d   1       1.890   0.260  -5.271  0.00  0.00    -0.001 A 
ENDROOT
TORSDOF 0
ENDMDL
