MODEL 1
REMARK minimizedAffinity 6.73490334
REMARK minimizedRMSD -1
REMARK  0 active torsions:
REMARK  status: ('A' for Active; 'I' for Inactive)
ROOT
ATOM      1  C   UNL d   1       2.334  -0.073   1.312  0.00  0.00     0.077 C 
ATOM      2  C1  UNL d   1       0.985   0.510   1.612  0.00  0.00    -0.074 A 
ATOM      3  C2  UNL d   1       0.779   1.300   2.747  0.00  0.00    -0.005 A 
ATOM      4  C3  UNL d   1      -0.479   1.843   3.008  0.00  0.00     0.006 A 
ATOM      5  C4  UNL d   1      -1.543   1.601   2.138  0.00  0.00    -0.005 A 
ATOM      6  C5  UNL d   1      -1.356   0.813   0.998  0.00  0.00    -0.074 A 
ATOM      7  C6  UNL d   1      -2.486   0.552   0.047  0.00  0.00     0.077 C 
ATOM      8  C7  UNL d   1      -0.087   0.277   0.738  0.00  0.00    -0.001 A 
ENDROOT
TORSDOF 0
ENDMDL
