MODEL 1
REMARK minimizedAffinity 14.4637375
REMARK minimizedRMSD -1
REMARK  0 active torsions:
REMARK  status: ('A' for Active; 'I' for Inactive)
ROOT
ATOM      1  C   UNL d   1       3.220  -0.243  -0.027  0.00  0.00     0.077 C 
ATOM      2  C1  UNL d   1       2.107  -0.054   0.960  0.00  0.00    -0.074 A 
ATOM      3  C2  UNL d   1       2.317  -0.253   2.328  0.00  0.00    -0.005 A 
ATOM      4  C3  UNL d   1       1.275  -0.063   3.235  0.00  0.00     0.006 A 
ATOM      5  C4  UNL d   1       0.013   0.327   2.784  0.00  0.00    -0.005 A 
ATOM      6  C5  UNL d   1      -0.216   0.531   1.419  0.00  0.00    -0.074 A 
ATOM      7  C6  UNL d   1      -1.563   0.960   0.919  0.00  0.00     0.077 C 
ATOM      8  C7  UNL d   1       0.839   0.346   0.515  0.00  0.00    -0.001 A 
ENDROOT
TORSDOF 0
ENDMDL
