MODEL 1
REMARK minimizedAffinity 6.50154591
REMARK minimizedRMSD -1
REMARK  0 active torsions:
REMARK  status: ('A' for Active; 'I' for Inactive)
ROOT
ATOM      1  C   UNL d   1      -3.018   1.595   2.222  0.00  0.00     0.077 C 
ATOM      2  C1  UNL d   1      -1.566   1.235   2.319  0.00  0.00    -0.074 A 
ATOM      3  C2  UNL d   1      -1.005   0.277   1.469  0.00  0.00    -0.005 A 
ATOM      4  C3  UNL d   1       0.350  -0.041   1.564  0.00  0.00     0.006 A 
ATOM      5  C4  UNL d   1       1.156   0.595   2.508  0.00  0.00    -0.005 A 
ATOM      6  C5  UNL d   1       0.613   1.557   3.366  0.00  0.00    -0.074 A 
ATOM      7  C6  UNL d   1       1.468   2.257   4.381  0.00  0.00     0.077 C 
ATOM      8  C7  UNL d   1      -0.748   1.876   3.260  0.00  0.00    -0.001 A 
ENDROOT
TORSDOF 0
ENDMDL
