MODEL 1
REMARK minimizedAffinity 5.8082552
REMARK minimizedRMSD -1
REMARK  0 active torsions:
REMARK  status: ('A' for Active; 'I' for Inactive)
ROOT
ATOM      1  C   UNL d   1      -1.491   0.138   0.683  0.00  0.00     0.077 C 
ATOM      2  C1  UNL d   1      -1.438   0.903   1.972  0.00  0.00    -0.074 A 
ATOM      3  C2  UNL d   1      -2.611   1.316   2.612  0.00  0.00    -0.005 A 
ATOM      4  C3  UNL d   1      -2.546   2.019   3.815  0.00  0.00     0.006 A 
ATOM      5  C4  UNL d   1      -1.310   2.315   4.390  0.00  0.00    -0.005 A 
ATOM      6  C5  UNL d   1      -0.126   1.909   3.765  0.00  0.00    -0.074 A 
ATOM      7  C6  UNL d   1       1.211   2.211   4.375  0.00  0.00     0.077 C 
ATOM      8  C7  UNL d   1      -0.200   1.198   2.560  0.00  0.00    -0.001 A 
ENDROOT
TORSDOF 0
ENDMDL
