MODEL 1
REMARK minimizedAffinity 1.87411785
REMARK minimizedRMSD -1
REMARK  0 active torsions:
REMARK  status: ('A' for Active; 'I' for Inactive)
ROOT
ATOM      1  C   UNL d   1       0.787  -0.344   2.841  0.00  0.00     0.077 C 
ATOM      2  C1  UNL d   1       2.076   0.099   2.215  0.00  0.00    -0.074 A 
ATOM      3  C2  UNL d   1       2.081   0.878   1.053  0.00  0.00    -0.005 A 
ATOM      4  C3  UNL d   1       3.287   1.291   0.488  0.00  0.00     0.006 A 
ATOM      5  C4  UNL d   1       4.499   0.929   1.077  0.00  0.00    -0.005 A 
ATOM      6  C5  UNL d   1       4.514   0.151   2.239  0.00  0.00    -0.074 A 
ATOM      7  C6  UNL d   1       5.808  -0.238   2.891  0.00  0.00     0.077 C 
ATOM      8  C7  UNL d   1       3.298  -0.254   2.805  0.00  0.00    -0.001 A 
ENDROOT
TORSDOF 0
ENDMDL
