MODEL 1
REMARK minimizedAffinity 3.77462649
REMARK minimizedRMSD -1
REMARK  0 active torsions:
REMARK  status: ('A' for Active; 'I' for Inactive)
ROOT
ATOM      1  C   UNL d   1       2.219   1.008   1.988  0.00  0.00     0.077 C 
ATOM      2  C1  UNL d   1       0.893   1.595   2.374  0.00  0.00    -0.074 A 
ATOM      3  C2  UNL d   1       0.817   2.707   3.218  0.00  0.00    -0.005 A 
ATOM      4  C3  UNL d   1      -0.422   3.247   3.560  0.00  0.00     0.006 A 
ATOM      5  C4  UNL d   1      -1.597   2.681   3.063  0.00  0.00    -0.005 A 
ATOM      6  C5  UNL d   1      -1.541   1.569   2.217  0.00  0.00    -0.074 A 
ATOM      7  C6  UNL d   1      -2.793   0.954   1.666  0.00  0.00     0.077 C 
ATOM      8  C7  UNL d   1      -0.291   1.036   1.872  0.00  0.00    -0.001 A 
ENDROOT
TORSDOF 0
ENDMDL
