MODEL 1
REMARK minimizedAffinity 5.47890091
REMARK minimizedRMSD -1
REMARK  0 active torsions:
REMARK  status: ('A' for Active; 'I' for Inactive)
ROOT
ATOM      1  C   UNL d   1      -3.215  -1.941  -0.225  0.00  0.00     0.077 C 
ATOM      2  C1  UNL d   1      -3.023  -0.616   0.451  0.00  0.00    -0.074 A 
ATOM      3  C2  UNL d   1      -1.959   0.222   0.101  0.00  0.00    -0.005 A 
ATOM      4  C3  UNL d   1      -1.799   1.456   0.732  0.00  0.00     0.006 A 
ATOM      5  C4  UNL d   1      -2.699   1.864   1.718  0.00  0.00    -0.005 A 
ATOM      6  C5  UNL d   1      -3.769   1.039   2.080  0.00  0.00    -0.074 A 
ATOM      7  C6  UNL d   1      -4.751   1.466   3.131  0.00  0.00     0.077 C 
ATOM      8  C7  UNL d   1      -3.927  -0.196   1.437  0.00  0.00    -0.001 A 
ENDROOT
TORSDOF 0
ENDMDL
