MODEL 1
REMARK minimizedAffinity 4.59420347
REMARK minimizedRMSD -1
REMARK  0 active torsions:
REMARK  status: ('A' for Active; 'I' for Inactive)
ROOT
ATOM      1  C   UNL d   1       2.579   0.976   1.444  0.00  0.00     0.077 C 
ATOM      2  C1  UNL d   1       1.224   0.407   1.742  0.00  0.00    -0.074 A 
ATOM      3  C2  UNL d   1       1.052  -0.963   1.965  0.00  0.00    -0.005 A 
ATOM      4  C3  UNL d   1      -0.213  -1.476   2.250  0.00  0.00     0.006 A 
ATOM      5  C4  UNL d   1      -1.318  -0.625   2.316  0.00  0.00    -0.005 A 
ATOM      6  C5  UNL d   1      -1.165   0.747   2.097  0.00  0.00    -0.074 A 
ATOM      7  C6  UNL d   1      -2.340   1.676   2.173  0.00  0.00     0.077 C 
ATOM      8  C7  UNL d   1       0.111   1.256   1.817  0.00  0.00    -0.001 A 
ENDROOT
TORSDOF 0
ENDMDL
