MODEL 1
REMARK minimizedAffinity 11.4301901
REMARK minimizedRMSD -1
REMARK  0 active torsions:
REMARK  status: ('A' for Active; 'I' for Inactive)
ROOT
ATOM      1  C   UNL d   1      -5.408   1.586   1.726  0.00  0.00     0.077 C 
ATOM      2  C1  UNL d   1      -5.256   1.487   3.215  0.00  0.00    -0.074 A 
ATOM      3  C2  UNL d   1      -4.717   2.546   3.954  0.00  0.00    -0.005 A 
ATOM      4  C3  UNL d   1      -4.590   2.443   5.339  0.00  0.00     0.006 A 
ATOM      5  C4  UNL d   1      -5.000   1.284   5.998  0.00  0.00    -0.005 A 
ATOM      6  C5  UNL d   1      -5.542   0.216   5.277  0.00  0.00    -0.074 A 
ATOM      7  C6  UNL d   1      -5.997  -1.033   5.971  0.00  0.00     0.077 C 
ATOM      8  C7  UNL d   1      -5.673   0.329   3.886  0.00  0.00    -0.001 A 
ENDROOT
TORSDOF 0
ENDMDL
