MODEL 1
REMARK minimizedAffinity 3.60832357
REMARK minimizedRMSD -1
REMARK  0 active torsions:
REMARK  status: ('A' for Active; 'I' for Inactive)
ROOT
ATOM      1  C   UNL d   1      -2.866   2.257   3.580  0.00  0.00     0.077 C 
ATOM      2  C1  UNL d   1      -2.234   1.536   2.427  0.00  0.00    -0.074 A 
ATOM      3  C2  UNL d   1      -2.994   1.154   1.316  0.00  0.00    -0.005 A 
ATOM      4  C3  UNL d   1      -2.391   0.492   0.246  0.00  0.00     0.006 A 
ATOM      5  C4  UNL d   1      -1.025   0.207   0.276  0.00  0.00    -0.005 A 
ATOM      6  C5  UNL d   1      -0.250   0.582   1.378  0.00  0.00    -0.074 A 
ATOM      7  C6  UNL d   1       1.221   0.291   1.422  0.00  0.00     0.077 C 
ATOM      8  C7  UNL d   1      -0.862   1.253   2.446  0.00  0.00    -0.001 A 
ENDROOT
TORSDOF 0
ENDMDL
