MODEL 1
REMARK minimizedAffinity 8.54415417
REMARK minimizedRMSD -1
REMARK  0 active torsions:
REMARK  status: ('A' for Active; 'I' for Inactive)
ROOT
ATOM      1  C   UNL d   1       1.252   0.194   2.062  0.00  0.00     0.077 C 
ATOM      2  C1  UNL d   1      -0.197   0.510   1.833  0.00  0.00    -0.074 A 
ATOM      3  C2  UNL d   1      -0.831   0.150   0.640  0.00  0.00    -0.005 A 
ATOM      4  C3  UNL d   1      -2.181   0.442   0.446  0.00  0.00     0.006 A 
ATOM      5  C4  UNL d   1      -2.909   1.095   1.441  0.00  0.00    -0.005 A 
ATOM      6  C5  UNL d   1      -2.292   1.462   2.641  0.00  0.00    -0.074 A 
ATOM      7  C6  UNL d   1      -3.062   2.156   3.725  0.00  0.00     0.077 C 
ATOM      8  C7  UNL d   1      -0.937   1.159   2.832  0.00  0.00    -0.001 A 
ENDROOT
TORSDOF 0
ENDMDL
