MODEL 1
REMARK minimizedAffinity 8.1805954
REMARK minimizedRMSD -1
REMARK  0 active torsions:
REMARK  status: ('A' for Active; 'I' for Inactive)
ROOT
ATOM      1  C   UNL d   1      -5.260   2.690   5.998  0.00  0.00     0.077 C 
ATOM      2  C1  UNL d   1      -5.500   1.410   5.253  0.00  0.00    -0.074 A 
ATOM      3  C2  UNL d   1      -5.789   1.418   3.885  0.00  0.00    -0.005 A 
ATOM      4  C3  UNL d   1      -6.000   0.219   3.204  0.00  0.00     0.006 A 
ATOM      5  C4  UNL d   1      -5.924  -0.998   3.883  0.00  0.00    -0.005 A 
ATOM      6  C5  UNL d   1      -5.636  -1.025   5.251  0.00  0.00    -0.074 A 
ATOM      7  C6  UNL d   1      -5.541  -2.325   5.994  0.00  0.00     0.077 C 
ATOM      8  C7  UNL d   1      -5.418   0.183   5.927  0.00  0.00    -0.001 A 
ENDROOT
TORSDOF 0
ENDMDL
