MODEL 1
REMARK minimizedAffinity -4.69105625
REMARK minimizedRMSD -1
REMARK  0 active torsions:
REMARK  status: ('A' for Active; 'I' for Inactive)
ROOT
ATOM      1  N1  IND d   1       0.778  -0.797  -0.042  0.00  0.00    -0.196 N 
ATOM      2  C2  IND d   1      -0.500  -0.865  -0.525  0.00  0.00     0.054 A 
ATOM      3  C3  IND d   1      -0.991   0.377  -0.732  0.00  0.00    -0.031 A 
ATOM      4  C4  IND d   1       0.161   2.661  -0.444  0.00  0.00     0.051 A 
ATOM      5  C5  IND d   1       1.316   3.236   0.007  0.00  0.00    -0.031 A 
ATOM      6  C6  IND d   1       2.373   2.480   0.472  0.00  0.00     0.015 A 
ATOM      7  C7  IND d   1       2.319   1.115   0.492  0.00  0.00    -0.016 A 
ATOM      8  C8  IND d   1       1.144   0.528   0.041  0.00  0.00    -0.047 A 
ATOM      9  C9  IND d   1       0.052   1.292  -0.392  0.00  0.00    -0.096 A 
ATOM     10  HN1 IND d   1       1.269  -1.469   0.173  0.00  0.00     0.298 HD
ENDROOT
TORSDOF 0
ENDMDL
