MODEL 1
REMARK minimizedAffinity -2.28137684
REMARK minimizedRMSD -1
REMARK  0 active torsions:
REMARK  status: ('A' for Active; 'I' for Inactive)
ROOT
ATOM      1  N1  IND d   1       0.603  -0.886  -1.254  0.00  0.00    -0.196 N 
ATOM      2  C2  IND d   1      -0.042  -1.949  -0.685  0.00  0.00     0.054 A 
ATOM      3  C3  IND d   1      -0.934  -1.520   0.236  0.00  0.00    -0.031 A 
ATOM      4  C4  IND d   1      -1.574   0.885   0.897  0.00  0.00     0.051 A 
ATOM      5  C5  IND d   1      -1.231   2.189   0.677  0.00  0.00    -0.031 A 
ATOM      6  C6  IND d   1      -0.242   2.543  -0.218  0.00  0.00     0.015 A 
ATOM      7  C7  IND d   1       0.437   1.601  -0.937  0.00  0.00    -0.016 A 
ATOM      8  C8  IND d   1       0.097   0.275  -0.712  0.00  0.00    -0.047 A 
ATOM      9  C9  IND d   1      -0.877  -0.092   0.226  0.00  0.00    -0.096 A 
ATOM     10  HN1 IND d   1       1.220  -0.935  -1.850  0.00  0.00     0.298 HD
ENDROOT
TORSDOF 0
ENDMDL
