MODEL 1
REMARK minimizedAffinity -3.22690511
REMARK minimizedRMSD -1
REMARK  0 active torsions:
REMARK  status: ('A' for Active; 'I' for Inactive)
ROOT
ATOM      1  N1  IND d   1      -1.097  -0.209   1.303  0.00  0.00    -0.196 N 
ATOM      2  C2  IND d   1      -0.635  -1.322   0.658  0.00  0.00     0.054 A 
ATOM      3  C3  IND d   1       0.173  -0.970  -0.367  0.00  0.00    -0.031 A 
ATOM      4  C4  IND d   1       0.957   1.369  -1.103  0.00  0.00     0.051 A 
ATOM      5  C5  IND d   1       0.773   2.698  -0.842  0.00  0.00    -0.031 A 
ATOM      6  C6  IND d   1      -0.058   3.135   0.169  0.00  0.00     0.015 A 
ATOM      7  C7  IND d   1      -0.731   2.254   0.968  0.00  0.00    -0.016 A 
ATOM      8  C8  IND d   1      -0.552   0.904   0.702  0.00  0.00    -0.047 A 
ATOM      9  C9  IND d   1       0.257   0.456  -0.350  0.00  0.00    -0.096 A 
ATOM     10  HN1 IND d   1      -1.638  -0.205   1.972  0.00  0.00     0.298 HD
ENDROOT
TORSDOF 0
ENDMDL
