MODEL 1
REMARK minimizedAffinity -3.67386794
REMARK minimizedRMSD -1
REMARK  0 active torsions:
REMARK  status: ('A' for Active; 'I' for Inactive)
ROOT
ATOM      1  N1  IND d   1       1.181  -0.646  -0.825  0.00  0.00    -0.196 N 
ATOM      2  C2  IND d   1       0.588  -1.599  -0.044  0.00  0.00     0.054 A 
ATOM      3  C3  IND d   1      -0.244  -1.022   0.852  0.00  0.00    -0.031 A 
ATOM      4  C4  IND d   1      -0.864   1.459   1.146  0.00  0.00     0.051 A 
ATOM      5  C5  IND d   1      -0.553   2.708   0.690  0.00  0.00    -0.031 A 
ATOM      6  C6  IND d   1       0.370   2.908  -0.318  0.00  0.00     0.015 A 
ATOM      7  C7  IND d   1       1.009   1.859  -0.916  0.00  0.00    -0.016 A 
ATOM      8  C8  IND d   1       0.700   0.589  -0.450  0.00  0.00    -0.047 A 
ATOM      9  C9  IND d   1      -0.204   0.383   0.601  0.00  0.00    -0.096 A 
ATOM     10  HN1 IND d   1       1.757  -0.794  -1.446  0.00  0.00     0.298 HD
ENDROOT
TORSDOF 0
ENDMDL
