MODEL 1
REMARK minimizedAffinity -4.40571785
REMARK minimizedRMSD -1
REMARK  0 active torsions:
REMARK  status: ('A' for Active; 'I' for Inactive)
ROOT
ATOM      1  N1  IND d   1      -1.059   1.632  -0.027  0.00  0.00    -0.196 N 
ATOM      2  C2  IND d   1      -0.590   2.916  -0.054  0.00  0.00     0.054 A 
ATOM      3  C3  IND d   1       0.759   2.926   0.035  0.00  0.00    -0.031 A 
ATOM      4  C4  IND d   1       2.407   0.950   0.131  0.00  0.00     0.051 A 
ATOM      5  C5  IND d   1       2.450  -0.413   0.218  0.00  0.00    -0.031 A 
ATOM      6  C6  IND d   1       1.303  -1.180   0.225  0.00  0.00     0.015 A 
ATOM      7  C7  IND d   1       0.065  -0.610   0.133  0.00  0.00    -0.016 A 
ATOM      8  C8  IND d   1       0.016   0.774   0.052  0.00  0.00    -0.047 A 
ATOM      9  C9  IND d   1       1.175   1.560   0.087  0.00  0.00    -0.096 A 
ATOM     10  HN1 IND d   1      -1.886   1.399  -0.055  0.00  0.00     0.298 HD
ENDROOT
TORSDOF 0
ENDMDL
