MODEL 1
REMARK minimizedAffinity -3.02356529
REMARK minimizedRMSD -1
REMARK  0 active torsions:
REMARK  status: ('A' for Active; 'I' for Inactive)
ROOT
ATOM      1  N1  IND d   1       2.192  -0.369   0.633  0.00  0.00    -0.196 N 
ATOM      2  C2  IND d   1       1.414  -1.493   0.600  0.00  0.00     0.054 A 
ATOM      3  C3  IND d   1       0.109  -1.159   0.491  0.00  0.00    -0.031 A 
ATOM      4  C4  IND d   1      -0.970   1.165   0.250  0.00  0.00     0.051 A 
ATOM      5  C5  IND d   1      -0.670   2.499   0.263  0.00  0.00    -0.031 A 
ATOM      6  C6  IND d   1       0.625   2.953   0.400  0.00  0.00     0.015 A 
ATOM      7  C7  IND d   1       1.675   2.087   0.518  0.00  0.00    -0.016 A 
ATOM      8  C8  IND d   1       1.374   0.733   0.512  0.00  0.00    -0.047 A 
ATOM      9  C9  IND d   1       0.057   0.266   0.416  0.00  0.00    -0.096 A 
ATOM     10  HN1 IND d   1       3.048  -0.353   0.715  0.00  0.00     0.298 HD
ENDROOT
TORSDOF 0
ENDMDL
