MODEL 1
REMARK minimizedAffinity -3.2948041
REMARK minimizedRMSD -1
REMARK  0 active torsions:
REMARK  status: ('A' for Active; 'I' for Inactive)
ROOT
ATOM      1  N1  IND d   1      -1.452   0.010   1.125  0.00  0.00    -0.196 N 
ATOM      2  C2  IND d   1      -1.078  -1.070   0.374  0.00  0.00     0.054 A 
ATOM      3  C3  IND d   1      -0.195  -0.696  -0.579  0.00  0.00    -0.031 A 
ATOM      4  C4  IND d   1       0.852   1.613  -1.024  0.00  0.00     0.051 A 
ATOM      5  C5  IND d   1       0.793   2.918  -0.622  0.00  0.00    -0.031 A 
ATOM      6  C6  IND d   1      -0.032   3.328   0.405  0.00  0.00     0.015 A 
ATOM      7  C7  IND d   1      -0.824   2.442   1.079  0.00  0.00    -0.016 A 
ATOM      8  C8  IND d   1      -0.771   1.118   0.669  0.00  0.00    -0.047 A 
ATOM      9  C9  IND d   1       0.032   0.703  -0.400  0.00  0.00    -0.096 A 
ATOM     10  HN1 IND d   1      -2.017  -0.002   1.773  0.00  0.00     0.298 HD
ENDROOT
TORSDOF 0
ENDMDL
