MODEL 1
REMARK minimizedAffinity -3.35261202
REMARK minimizedRMSD -1
REMARK  0 active torsions:
REMARK  status: ('A' for Active; 'I' for Inactive)
ROOT
ATOM      1  N1  IND d   1       0.609  -1.004   0.194  0.00  0.00    -0.196 N 
ATOM      2  C2  IND d   1      -0.678  -1.341   0.512  0.00  0.00     0.054 A 
ATOM      3  C3  IND d   1      -1.427  -0.228   0.678  0.00  0.00    -0.031 A 
ATOM      4  C4  IND d   1      -0.774   2.244   0.379  0.00  0.00     0.051 A 
ATOM      5  C5  IND d   1       0.300   3.052   0.129  0.00  0.00    -0.031 A 
ATOM      6  C6  IND d   1       1.557   2.538  -0.119  0.00  0.00     0.015 A 
ATOM      7  C7  IND d   1       1.784   1.191  -0.139  0.00  0.00    -0.016 A 
ATOM      8  C8  IND d   1       0.698   0.368   0.121  0.00  0.00    -0.047 A 
ATOM      9  C9  IND d   1      -0.570   0.885   0.416  0.00  0.00    -0.096 A 
ATOM     10  HN1 IND d   1       1.254  -1.557   0.062  0.00  0.00     0.298 HD
ENDROOT
TORSDOF 0
ENDMDL
