MODEL 1
REMARK minimizedAffinity -2.99203658
REMARK minimizedRMSD -1
REMARK  0 active torsions:
REMARK  status: ('A' for Active; 'I' for Inactive)
ROOT
ATOM      1  N1  IND d   1       0.802  -0.779   0.104  0.00  0.00    -0.196 N 
ATOM      2  C2  IND d   1      -0.557  -0.911   0.169  0.00  0.00     0.054 A 
ATOM      3  C3  IND d   1      -1.136   0.286   0.413  0.00  0.00    -0.031 A 
ATOM      4  C4  IND d   1      -0.051   2.610   0.642  0.00  0.00     0.051 A 
ATOM      5  C5  IND d   1       1.165   3.231   0.694  0.00  0.00    -0.031 A 
ATOM      6  C6  IND d   1       2.347   2.533   0.546  0.00  0.00     0.015 A 
ATOM      7  C7  IND d   1       2.355   1.184   0.329  0.00  0.00    -0.016 A 
ATOM      8  C8  IND d   1       1.122   0.549   0.282  0.00  0.00    -0.047 A 
ATOM      9  C9  IND d   1      -0.079   1.246   0.474  0.00  0.00    -0.096 A 
ATOM     10  HN1 IND d   1       1.362  -1.417  -0.025  0.00  0.00     0.298 HD
ENDROOT
TORSDOF 0
ENDMDL
