MODEL 1
REMARK minimizedAffinity -3.69655442
REMARK minimizedRMSD -1
REMARK  0 active torsions:
REMARK  status: ('A' for Active; 'I' for Inactive)
ROOT
ATOM      1  N1  IND d   1      -1.118  -0.124   1.092  0.00  0.00    -0.196 N 
ATOM      2  C2  IND d   1      -0.553  -1.184   0.438  0.00  0.00     0.054 A 
ATOM      3  C3  IND d   1       0.407  -0.755  -0.412  0.00  0.00    -0.031 A 
ATOM      4  C4  IND d   1       1.286   1.630  -0.817  0.00  0.00     0.051 A 
ATOM      5  C5  IND d   1       1.056   2.934  -0.481  0.00  0.00    -0.031 A 
ATOM      6  C6  IND d   1       0.072   3.293   0.418  0.00  0.00     0.015 A 
ATOM      7  C7  IND d   1      -0.715   2.355   1.024  0.00  0.00    -0.016 A 
ATOM      8  C8  IND d   1      -0.489   1.030   0.679  0.00  0.00    -0.047 A 
ATOM      9  C9  IND d   1       0.480   0.664  -0.264  0.00  0.00    -0.096 A 
ATOM     10  HN1 IND d   1      -1.758  -0.171   1.664  0.00  0.00     0.298 HD
ENDROOT
TORSDOF 0
ENDMDL
