MODEL 1
REMARK minimizedAffinity 2.21079421
REMARK minimizedRMSD -1
REMARK  0 active torsions:
REMARK  status: ('A' for Active; 'I' for Inactive)
ROOT
ATOM      1  N1  IND d   1       2.430   1.009   0.658  0.00  0.00    -0.196 N 
ATOM      2  C2  IND d   1       2.427  -0.356   0.584  0.00  0.00     0.054 A 
ATOM      3  C3  IND d   1       1.162  -0.828   0.651  0.00  0.00    -0.031 A 
ATOM      4  C4  IND d   1      -1.061   0.465   0.782  0.00  0.00     0.051 A 
ATOM      5  C5  IND d   1      -1.567   1.728   0.910  0.00  0.00    -0.031 A 
ATOM      6  C6  IND d   1      -0.749   2.839   0.959  0.00  0.00     0.015 A 
ATOM      7  C7  IND d   1       0.609   2.728   0.870  0.00  0.00    -0.016 A 
ATOM      8  C8  IND d   1       1.127   1.446   0.747  0.00  0.00    -0.047 A 
ATOM      9  C9  IND d   1       0.305   0.312   0.739  0.00  0.00    -0.096 A 
ATOM     10  HN1 IND d   1       3.129   1.510   0.650  0.00  0.00     0.298 HD
ENDROOT
TORSDOF 0
ENDMDL
