MODEL 1
REMARK minimizedAffinity -2.01800275
REMARK minimizedRMSD -1
REMARK  0 active torsions:
REMARK  status: ('A' for Active; 'I' for Inactive)
ROOT
ATOM      1  N1  IND d   1      -1.179   2.342   0.153  0.00  0.00    -0.196 N 
ATOM      2  C2  IND d   1      -0.307   3.395   0.162  0.00  0.00     0.054 A 
ATOM      3  C3  IND d   1       0.965   2.951   0.266  0.00  0.00    -0.031 A 
ATOM      4  C4  IND d   1       1.854   0.536   0.333  0.00  0.00     0.051 A 
ATOM      5  C5  IND d   1       1.437  -0.765   0.388  0.00  0.00    -0.031 A 
ATOM      6  C6  IND d   1       0.099  -1.103   0.364  0.00  0.00     0.015 A 
ATOM      7  C7  IND d   1      -0.875  -0.149   0.272  0.00  0.00    -0.016 A 
ATOM      8  C8  IND d   1      -0.455   1.173   0.224  0.00  0.00    -0.047 A 
ATOM      9  C9  IND d   1       0.899   1.524   0.291  0.00  0.00    -0.096 A 
ATOM     10  HN1 IND d   1      -2.036   2.401   0.111  0.00  0.00     0.298 HD
ENDROOT
TORSDOF 0
ENDMDL
