MODEL 1
REMARK minimizedAffinity -2.1086731
REMARK minimizedRMSD -1
REMARK  0 active torsions:
REMARK  status: ('A' for Active; 'I' for Inactive)
ROOT
ATOM      1  N1  IND d   1       2.175  -0.423   1.299  0.00  0.00    -0.196 N 
ATOM      2  C2  IND d   1       3.014  -0.468   0.220  0.00  0.00     0.054 A 
ATOM      3  C3  IND d   1       2.370  -0.052  -0.894  0.00  0.00    -0.031 A 
ATOM      4  C4  IND d   1      -0.028   0.844  -1.159  0.00  0.00     0.051 A 
ATOM      5  C5  IND d   1      -1.188   1.039  -0.463  0.00  0.00    -0.031 A 
ATOM      6  C6  IND d   1      -1.288   0.754   0.884  0.00  0.00     0.015 A 
ATOM      7  C7  IND d   1      -0.223   0.271   1.590  0.00  0.00    -0.016 A 
ATOM      8  C8  IND d   1       0.955   0.065   0.885  0.00  0.00    -0.047 A 
ATOM      9  C9  IND d   1       1.049   0.313  -0.490  0.00  0.00    -0.096 A 
ATOM     10  HN1 IND d   1       2.376  -0.659   2.101  0.00  0.00     0.298 HD
ENDROOT
TORSDOF 0
ENDMDL
