MODEL 1
REMARK minimizedAffinity -3.66441607
REMARK minimizedRMSD -1
REMARK  0 active torsions:
REMARK  status: ('A' for Active; 'I' for Inactive)
ROOT
ATOM      1  N1  IND d   1       2.509  -0.725   0.934  0.00  0.00    -0.196 N 
ATOM      2  C2  IND d   1       3.578   0.115   0.793  0.00  0.00     0.054 A 
ATOM      3  C3  IND d   1       3.204   1.252   0.164  0.00  0.00    -0.031 A 
ATOM      4  C4  IND d   1       0.869   1.988  -0.633  0.00  0.00     0.051 A 
ATOM      5  C5  IND d   1      -0.417   1.542  -0.757  0.00  0.00    -0.031 A 
ATOM      6  C6  IND d   1      -0.802   0.294  -0.312  0.00  0.00     0.015 A 
ATOM      7  C7  IND d   1       0.087  -0.555   0.286  0.00  0.00    -0.016 A 
ATOM      8  C8  IND d   1       1.395  -0.108   0.407  0.00  0.00    -0.047 A 
ATOM      9  C9  IND d   1       1.801   1.141  -0.081  0.00  0.00    -0.096 A 
ATOM     10  HN1 IND d   1       2.528  -1.507   1.291  0.00  0.00     0.298 HD
ENDROOT
TORSDOF 0
ENDMDL
