MODEL 1
REMARK minimizedAffinity 4.37954617
REMARK minimizedRMSD -1
REMARK  0 active torsions:
REMARK  status: ('A' for Active; 'I' for Inactive)
ROOT
ATOM      1  N1  IND d   1       0.600  -1.486   0.630  0.00  0.00    -0.196 N 
ATOM      2  C2  IND d   1      -0.716  -1.360   0.281  0.00  0.00     0.054 A 
ATOM      3  C3  IND d   1      -0.896  -0.261  -0.485  0.00  0.00    -0.031 A 
ATOM      4  C4  IND d   1       0.844   1.417  -1.372  0.00  0.00     0.051 A 
ATOM      5  C5  IND d   1       2.170   1.738  -1.291  0.00  0.00    -0.031 A 
ATOM      6  C6  IND d   1       3.059   0.984  -0.552  0.00  0.00     0.015 A 
ATOM      7  C7  IND d   1       2.655  -0.131   0.126  0.00  0.00    -0.016 A 
ATOM      8  C8  IND d   1       1.308  -0.456   0.052  0.00  0.00    -0.047 A 
ATOM      9  C9  IND d   1       0.393   0.330  -0.661  0.00  0.00    -0.096 A 
ATOM     10  HN1 IND d   1       0.930  -2.105   1.128  0.00  0.00     0.298 HD
ENDROOT
TORSDOF 0
ENDMDL
