MODEL 1
REMARK minimizedAffinity -4.15543175
REMARK minimizedRMSD -1
REMARK  0 active torsions:
REMARK  status: ('A' for Active; 'I' for Inactive)
ROOT
ATOM      1  N1  IND d   1       0.354  -0.813  -0.195  0.00  0.00    -0.196 N 
ATOM      2  C2  IND d   1      -0.594  -1.263   0.680  0.00  0.00     0.054 A 
ATOM      3  C3  IND d   1      -1.227  -0.222   1.266  0.00  0.00    -0.031 A 
ATOM      4  C4  IND d   1      -0.938   2.304   0.861  0.00  0.00     0.051 A 
ATOM      5  C5  IND d   1      -0.168   3.205   0.181  0.00  0.00    -0.031 A 
ATOM      6  C6  IND d   1       0.834   2.804  -0.679  0.00  0.00     0.015 A 
ATOM      7  C7  IND d   1       1.097   1.482  -0.900  0.00  0.00    -0.016 A 
ATOM      8  C8  IND d   1       0.321   0.565  -0.206  0.00  0.00    -0.047 A 
ATOM      9  C9  IND d   1      -0.669   0.965   0.701  0.00  0.00    -0.096 A 
ATOM     10  HN1 IND d   1       0.882  -1.306  -0.661  0.00  0.00     0.298 HD
ENDROOT
TORSDOF 0
ENDMDL
