MODEL 1
REMARK minimizedAffinity -1.18921936
REMARK minimizedRMSD -1
REMARK  0 active torsions:
REMARK  status: ('A' for Active; 'I' for Inactive)
ROOT
ATOM      1  N1  IND d   1       0.995  -1.118   0.578  0.00  0.00    -0.196 N 
ATOM      2  C2  IND d   1      -0.360  -1.292   0.588  0.00  0.00     0.054 A 
ATOM      3  C3  IND d   1      -0.986  -0.101   0.721  0.00  0.00    -0.031 A 
ATOM      4  C4  IND d   1       0.015   2.268   0.838  0.00  0.00     0.051 A 
ATOM      5  C5  IND d   1       1.208   2.932   0.903  0.00  0.00    -0.031 A 
ATOM      6  C6  IND d   1       2.416   2.266   0.860  0.00  0.00     0.015 A 
ATOM      7  C7  IND d   1       2.475   0.906   0.738  0.00  0.00    -0.016 A 
ATOM      8  C8  IND d   1       1.266   0.229   0.678  0.00  0.00    -0.047 A 
ATOM      9  C9  IND d   1       0.037   0.896   0.764  0.00  0.00    -0.096 A 
ATOM     10  HN1 IND d   1       1.581  -1.745   0.520  0.00  0.00     0.298 HD
ENDROOT
TORSDOF 0
ENDMDL
