MODEL 1
REMARK minimizedAffinity -2.71091938
REMARK minimizedRMSD -1
REMARK  0 active torsions:
REMARK  status: ('A' for Active; 'I' for Inactive)
ROOT
ATOM      1  O1  BZF d   1       0.439   0.138   3.185  0.00  0.00    -0.204 OA
ATOM      2  C2  BZF d   1      -0.660  -0.688   3.326  0.00  0.00     0.174 A 
ATOM      3  C3  BZF d   1      -1.327  -0.800   2.159  0.00  0.00    -0.012 A 
ATOM      4  C3A BZF d   1      -0.548  -0.068   1.208  0.00  0.00    -0.107 A 
ATOM      5  C4  BZF d   1      -0.685   0.176  -0.128  0.00  0.00     0.055 A 
ATOM      6  C5  BZF d   1       0.211   0.990  -0.746  0.00  0.00    -0.016 A 
ATOM      7  C6  BZF d   1       1.251   1.579  -0.058  0.00  0.00     0.022 A 
ATOM      8  C7  BZF d   1       1.431   1.363   1.268  0.00  0.00     0.029 A 
ATOM      9  C7A BZF d   1       0.546   0.515   1.888  0.00  0.00     0.058 A 
ENDROOT
TORSDOF 0
ENDMDL
