MODEL 1
REMARK minimizedAffinity -2.08885765
REMARK minimizedRMSD -1
REMARK  0 active torsions:
REMARK  status: ('A' for Active; 'I' for Inactive)
ROOT
ATOM      1  O1  BZF d   1      -1.180   0.122  -0.773  0.00  0.00    -0.204 OA
ATOM      2  C2  BZF d   1       0.015   0.425  -1.396  0.00  0.00     0.174 A 
ATOM      3  C3  BZF d   1       1.036   0.395  -0.515  0.00  0.00    -0.012 A 
ATOM      4  C3A BZF d   1       0.455  -0.038   0.719  0.00  0.00    -0.107 A 
ATOM      5  C4  BZF d   1       0.964  -0.277   1.963  0.00  0.00     0.055 A 
ATOM      6  C5  BZF d   1       0.116  -0.620   2.969  0.00  0.00    -0.016 A 
ATOM      7  C6  BZF d   1      -1.244  -0.727   2.767  0.00  0.00     0.022 A 
ATOM      8  C7  BZF d   1      -1.795  -0.504   1.549  0.00  0.00     0.029 A 
ATOM      9  C7A BZF d   1      -0.937  -0.190   0.523  0.00  0.00     0.058 A 
ENDROOT
TORSDOF 0
ENDMDL
