MODEL 1
REMARK minimizedAffinity -5.33978271
REMARK minimizedRMSD -1
REMARK  0 active torsions:
REMARK  status: ('A' for Active; 'I' for Inactive)
ROOT
ATOM      1  O1  BZF d   1       1.209   0.200  -0.612  0.00  0.00    -0.204 OA
ATOM      2  C2  BZF d   1       0.123   0.070  -1.457  0.00  0.00     0.174 A 
ATOM      3  C3  BZF d   1      -0.982  -0.273  -0.765  0.00  0.00    -0.012 A 
ATOM      4  C3A BZF d   1      -0.582  -0.273   0.609  0.00  0.00    -0.107 A 
ATOM      5  C4  BZF d   1      -1.241  -0.520   1.779  0.00  0.00     0.055 A 
ATOM      6  C5  BZF d   1      -0.544  -0.509   2.945  0.00  0.00    -0.016 A 
ATOM      7  C6  BZF d   1       0.813  -0.260   2.978  0.00  0.00     0.022 A 
ATOM      8  C7  BZF d   1       1.509  -0.004   1.843  0.00  0.00     0.029 A 
ATOM      9  C7A BZF d   1       0.801   0.018   0.667  0.00  0.00     0.058 A 
ENDROOT
TORSDOF 0
ENDMDL
