MODEL 1
REMARK minimizedAffinity -1.18726528
REMARK minimizedRMSD -1
REMARK  0 active torsions:
REMARK  status: ('A' for Active; 'I' for Inactive)
ROOT
ATOM      1  O1  BZF d   1       0.154   0.207   2.914  0.00  0.00    -0.204 OA
ATOM      2  C2  BZF d   1      -0.656  -0.861   3.248  0.00  0.00     0.174 A 
ATOM      3  C3  BZF d   1      -0.930  -1.611   2.162  0.00  0.00    -0.012 A 
ATOM      4  C3A BZF d   1      -0.174  -1.025   1.098  0.00  0.00    -0.107 A 
ATOM      5  C4  BZF d   1      -0.018  -1.332  -0.223  0.00  0.00     0.055 A 
ATOM      6  C5  BZF d   1       0.735  -0.515  -1.006  0.00  0.00    -0.016 A 
ATOM      7  C6  BZF d   1       1.341   0.618  -0.503  0.00  0.00     0.022 A 
ATOM      8  C7  BZF d   1       1.219   0.960   0.803  0.00  0.00     0.029 A 
ATOM      9  C7A BZF d   1       0.486   0.119   1.604  0.00  0.00     0.058 A 
ENDROOT
TORSDOF 0
ENDMDL
