MODEL 1
REMARK minimizedAffinity -4.62343407
REMARK minimizedRMSD -1
REMARK  0 active torsions:
REMARK  status: ('A' for Active; 'I' for Inactive)
ROOT
ATOM      1  O1  BZF d   1       1.151   1.319   0.220  0.00  0.00    -0.204 OA
ATOM      2  C2  BZF d   1       0.724   1.060  -1.068  0.00  0.00     0.174 A 
ATOM      3  C3  BZF d   1      -0.222   0.099  -1.074  0.00  0.00    -0.012 A 
ATOM      4  C3A BZF d   1      -0.462  -0.202   0.304  0.00  0.00    -0.107 A 
ATOM      5  C4  BZF d   1      -1.305  -1.065   0.944  0.00  0.00     0.055 A 
ATOM      6  C5  BZF d   1      -1.241  -1.169   2.298  0.00  0.00    -0.016 A 
ATOM      7  C6  BZF d   1      -0.345  -0.430   3.041  0.00  0.00     0.022 A 
ATOM      8  C7  BZF d   1       0.508   0.443   2.452  0.00  0.00     0.029 A 
ATOM      9  C7A BZF d   1       0.424   0.575   1.087  0.00  0.00     0.058 A 
ENDROOT
TORSDOF 0
ENDMDL
