MODEL 1
REMARK minimizedAffinity -2.46983361
REMARK minimizedRMSD -1
REMARK  0 active torsions:
REMARK  status: ('A' for Active; 'I' for Inactive)
ROOT
ATOM      1  O1  BZF d   1       0.364  -0.257   2.233  0.00  0.00    -0.204 OA
ATOM      2  C2  BZF d   1      -0.824  -0.814   2.667  0.00  0.00     0.174 A 
ATOM      3  C3  BZF d   1      -1.691  -0.949   1.644  0.00  0.00    -0.012 A 
ATOM      4  C3A BZF d   1      -0.970  -0.529   0.481  0.00  0.00    -0.107 A 
ATOM      5  C4  BZF d   1      -1.289  -0.449  -0.844  0.00  0.00     0.055 A 
ATOM      6  C5  BZF d   1      -0.383   0.072  -1.712  0.00  0.00    -0.016 A 
ATOM      7  C6  BZF d   1       0.849   0.527  -1.288  0.00  0.00     0.022 A 
ATOM      8  C7  BZF d   1       1.213   0.464   0.015  0.00  0.00     0.029 A 
ATOM      9  C7A BZF d   1       0.312  -0.093   0.890  0.00  0.00     0.058 A 
ENDROOT
TORSDOF 0
ENDMDL
