MODEL 1
REMARK minimizedAffinity -0.976918638
REMARK minimizedRMSD -1
REMARK  0 active torsions:
REMARK  status: ('A' for Active; 'I' for Inactive)
ROOT
ATOM      1  O1  BZF d   1       1.504  -0.109  -0.553  0.00  0.00    -0.204 OA
ATOM      2  C2  BZF d   1       0.937  -0.548  -1.733  0.00  0.00     0.174 A 
ATOM      3  C3  BZF d   1      -0.339  -0.939  -1.535  0.00  0.00    -0.012 A 
ATOM      4  C3A BZF d   1      -0.613  -0.646  -0.161  0.00  0.00    -0.107 A 
ATOM      5  C4  BZF d   1      -1.717  -0.794   0.628  0.00  0.00     0.055 A 
ATOM      6  C5  BZF d   1      -1.633  -0.477   1.947  0.00  0.00    -0.016 A 
ATOM      7  C6  BZF d   1      -0.461  -0.016   2.510  0.00  0.00     0.022 A 
ATOM      8  C7  BZF d   1       0.659   0.151   1.766  0.00  0.00     0.029 A 
ATOM      9  C7A BZF d   1       0.568  -0.136   0.426  0.00  0.00     0.058 A 
ENDROOT
TORSDOF 0
ENDMDL
