MODEL 1
REMARK minimizedAffinity -4.99818897
REMARK minimizedRMSD -1
REMARK  0 active torsions:
REMARK  status: ('A' for Active; 'I' for Inactive)
ROOT
ATOM      1  O1  BZF d   1       0.826  -0.143   1.791  0.00  0.00    -0.204 OA
ATOM      2  C2  BZF d   1       0.208  -0.381   3.004  0.00  0.00     0.174 A 
ATOM      3  C3  BZF d   1      -1.131  -0.263   2.890  0.00  0.00    -0.012 A 
ATOM      4  C3A BZF d   1      -1.370  -0.020   1.500  0.00  0.00    -0.107 A 
ATOM      5  C4  BZF d   1      -2.504   0.169   0.762  0.00  0.00     0.055 A 
ATOM      6  C5  BZF d   1      -2.389   0.455  -0.562  0.00  0.00    -0.016 A 
ATOM      7  C6  BZF d   1      -1.160   0.565  -1.177  0.00  0.00     0.022 A 
ATOM      8  C7  BZF d   1      -0.008   0.381  -0.487  0.00  0.00     0.029 A 
ATOM      9  C7A BZF d   1      -0.121   0.059   0.843  0.00  0.00     0.058 A 
ENDROOT
TORSDOF 0
ENDMDL
