MODEL 1
REMARK minimizedAffinity -3.9825263
REMARK minimizedRMSD -1
REMARK  0 active torsions:
REMARK  status: ('A' for Active; 'I' for Inactive)
ROOT
ATOM      1  O1  BZF d   1       1.079   1.000   0.189  0.00  0.00    -0.204 OA
ATOM      2  C2  BZF d   1       0.613   0.630  -1.058  0.00  0.00     0.174 A 
ATOM      3  C3  BZF d   1      -0.373  -0.283  -0.948  0.00  0.00    -0.012 A 
ATOM      4  C3A BZF d   1      -0.597  -0.429   0.457  0.00  0.00    -0.107 A 
ATOM      5  C4  BZF d   1      -1.463  -1.182   1.197  0.00  0.00     0.055 A 
ATOM      6  C5  BZF d   1      -1.376  -1.149   2.553  0.00  0.00    -0.016 A 
ATOM      7  C6  BZF d   1      -0.432  -0.380   3.201  0.00  0.00     0.022 A 
ATOM      8  C7  BZF d   1       0.446   0.388   2.510  0.00  0.00     0.029 A 
ATOM      9  C7A BZF d   1       0.338   0.382   1.140  0.00  0.00     0.058 A 
ENDROOT
TORSDOF 0
ENDMDL
