MODEL 1
REMARK minimizedAffinity -6.06115913
REMARK minimizedRMSD -1
REMARK  0 active torsions:
REMARK  status: ('A' for Active; 'I' for Inactive)
ROOT
ATOM      1  O1  BZF d   1      -0.918   0.517  -0.864  0.00  0.00    -0.204 OA
ATOM      2  C2  BZF d   1       0.457   0.614  -0.775  0.00  0.00     0.174 A 
ATOM      3  C3  BZF d   1       0.863   0.496   0.506  0.00  0.00    -0.012 A 
ATOM      4  C3A BZF d   1      -0.325   0.222   1.254  0.00  0.00    -0.107 A 
ATOM      5  C4  BZF d   1      -0.569  -0.010   2.577  0.00  0.00     0.055 A 
ATOM      6  C5  BZF d   1      -1.852  -0.171   2.994  0.00  0.00    -0.016 A 
ATOM      7  C6  BZF d   1      -2.915  -0.101   2.117  0.00  0.00     0.022 A 
ATOM      8  C7  BZF d   1      -2.722   0.123   0.794  0.00  0.00     0.029 A 
ATOM      9  C7A BZF d   1      -1.424   0.253   0.364  0.00  0.00     0.058 A 
ENDROOT
TORSDOF 0
ENDMDL
