MODEL 1
REMARK minimizedAffinity -5.30083513
REMARK minimizedRMSD -1
REMARK  0 active torsions:
REMARK  status: ('A' for Active; 'I' for Inactive)
ROOT
ATOM      1  O1  BZF d   1       0.382   1.032  -0.634  0.00  0.00    -0.204 OA
ATOM      2  C2  BZF d   1      -0.922   0.871  -1.061  0.00  0.00     0.174 A 
ATOM      3  C3  BZF d   1      -1.673   0.297  -0.098  0.00  0.00    -0.012 A 
ATOM      4  C3A BZF d   1      -0.805   0.172   1.032  0.00  0.00    -0.107 A 
ATOM      5  C4  BZF d   1      -0.975  -0.310   2.298  0.00  0.00     0.055 A 
ATOM      6  C5  BZF d   1       0.093  -0.359   3.136  0.00  0.00    -0.016 A 
ATOM      7  C6  BZF d   1       1.346   0.061   2.740  0.00  0.00     0.022 A 
ATOM      8  C7  BZF d   1       1.564   0.552   1.495  0.00  0.00     0.029 A 
ATOM      9  C7A BZF d   1       0.479   0.633   0.657  0.00  0.00     0.058 A 
ENDROOT
TORSDOF 0
ENDMDL
