MODEL 1
REMARK minimizedAffinity -4.67200613
REMARK minimizedRMSD -1
REMARK  0 active torsions:
REMARK  status: ('A' for Active; 'I' for Inactive)
ROOT
ATOM      1  O1  BZF d   1       0.434  -0.253   2.912  0.00  0.00    -0.204 OA
ATOM      2  C2  BZF d   1      -0.706  -1.004   3.122  0.00  0.00     0.174 A 
ATOM      3  C3  BZF d   1      -1.334  -1.257   1.955  0.00  0.00    -0.012 A 
ATOM      4  C3A BZF d   1      -0.487  -0.702   0.944  0.00  0.00    -0.107 A 
ATOM      5  C4  BZF d   1      -0.563  -0.649  -0.419  0.00  0.00     0.055 A 
ATOM      6  C5  BZF d   1       0.392   0.030  -1.107  0.00  0.00    -0.016 A 
ATOM      7  C6  BZF d   1       1.432   0.670  -0.466  0.00  0.00     0.022 A 
ATOM      8  C7  BZF d   1       1.552   0.641   0.884  0.00  0.00     0.029 A 
ATOM      9  C7A BZF d   1       0.607  -0.072   1.580  0.00  0.00     0.058 A 
ENDROOT
TORSDOF 0
ENDMDL
