MODEL 1
REMARK minimizedAffinity -5.91479254
REMARK minimizedRMSD -1
REMARK  0 active torsions:
REMARK  status: ('A' for Active; 'I' for Inactive)
ROOT
ATOM      1  O1  BZF d   1      -0.684   0.589  -0.909  0.00  0.00    -0.204 OA
ATOM      2  C2  BZF d   1       0.683   0.648  -0.722  0.00  0.00     0.174 A 
ATOM      3  C3  BZF d   1       0.995   0.488   0.580  0.00  0.00    -0.012 A 
ATOM      4  C3A BZF d   1      -0.250   0.225   1.236  0.00  0.00    -0.107 A 
ATOM      5  C4  BZF d   1      -0.592  -0.034   2.532  0.00  0.00     0.055 A 
ATOM      6  C5  BZF d   1      -1.905  -0.172   2.854  0.00  0.00    -0.016 A 
ATOM      7  C6  BZF d   1      -2.901  -0.053   1.907  0.00  0.00     0.022 A 
ATOM      8  C7  BZF d   1      -2.610   0.199   0.607  0.00  0.00     0.029 A 
ATOM      9  C7A BZF d   1      -1.282   0.307   0.273  0.00  0.00     0.058 A 
ENDROOT
TORSDOF 0
ENDMDL
