MODEL 1
REMARK minimizedAffinity -3.07284427
REMARK minimizedRMSD -1
REMARK  0 active torsions:
REMARK  status: ('A' for Active; 'I' for Inactive)
ROOT
ATOM      1  O1  BZF d   1      -0.753  -1.039  -0.767  0.00  0.00    -0.204 OA
ATOM      2  C2  BZF d   1      -0.383   0.057  -0.012  0.00  0.00     0.174 A 
ATOM      3  C3  BZF d   1       0.688   0.671  -0.553  0.00  0.00    -0.012 A 
ATOM      4  C3A BZF d   1       0.951  -0.033  -1.771  0.00  0.00    -0.107 A 
ATOM      5  C4  BZF d   1       1.881   0.115  -2.760  0.00  0.00     0.055 A 
ATOM      6  C5  BZF d   1       1.912  -0.785  -3.777  0.00  0.00    -0.016 A 
ATOM      7  C6  BZF d   1       1.033  -1.847  -3.835  0.00  0.00     0.022 A 
ATOM      8  C7  BZF d   1       0.090  -2.032  -2.880  0.00  0.00     0.029 A 
ATOM      9  C7A BZF d   1       0.034  -1.106  -1.867  0.00  0.00     0.058 A 
ENDROOT
TORSDOF 0
ENDMDL
