MODEL 1
REMARK minimizedAffinity -4.64039516
REMARK minimizedRMSD -1
REMARK  0 active torsions:
REMARK  status: ('A' for Active; 'I' for Inactive)
ROOT
ATOM      1  O1  BZF d   1      -1.254   0.026  -1.204  0.00  0.00    -0.204 OA
ATOM      2  C2  BZF d   1      -0.135   0.346  -1.948  0.00  0.00     0.174 A 
ATOM      3  C3  BZF d   1       0.964   0.388  -1.167  0.00  0.00    -0.012 A 
ATOM      4  C3A BZF d   1       0.518  -0.016   0.131  0.00  0.00    -0.107 A 
ATOM      5  C4  BZF d   1       1.150  -0.186   1.330  0.00  0.00     0.055 A 
ATOM      6  C5  BZF d   1       0.413  -0.518   2.423  0.00  0.00    -0.016 A 
ATOM      7  C6  BZF d   1      -0.955  -0.681   2.355  0.00  0.00     0.022 A 
ATOM      8  C7  BZF d   1      -1.625  -0.527   1.187  0.00  0.00     0.029 A 
ATOM      9  C7A BZF d   1      -0.879  -0.225   0.074  0.00  0.00     0.058 A 
ENDROOT
TORSDOF 0
ENDMDL
