MODEL 1
REMARK minimizedAffinity -2.75472069
REMARK minimizedRMSD -1
REMARK  0 active torsions:
REMARK  status: ('A' for Active; 'I' for Inactive)
ROOT
ATOM      1  O1  BZF d   1       0.512   0.006   2.927  0.00  0.00    -0.204 OA
ATOM      2  C2  BZF d   1      -0.740  -0.385   3.363  0.00  0.00     0.174 A 
ATOM      3  C3  BZF d   1      -1.586  -0.526   2.322  0.00  0.00    -0.012 A 
ATOM      4  C3A BZF d   1      -0.791  -0.293   1.156  0.00  0.00    -0.107 A 
ATOM      5  C4  BZF d   1      -1.061  -0.307  -0.183  0.00  0.00     0.055 A 
ATOM      6  C5  BZF d   1      -0.080   0.036  -1.058  0.00  0.00    -0.016 A 
ATOM      7  C6  BZF d   1       1.180   0.401  -0.630  0.00  0.00     0.022 A 
ATOM      8  C7  BZF d   1       1.497   0.425   0.688  0.00  0.00     0.029 A 
ATOM      9  C7A BZF d   1       0.517   0.047   1.573  0.00  0.00     0.058 A 
ENDROOT
TORSDOF 0
ENDMDL
