MODEL 1
REMARK minimizedAffinity -1.23315847
REMARK minimizedRMSD -1
REMARK  0 active torsions:
REMARK  status: ('A' for Active; 'I' for Inactive)
ROOT
ATOM      1  O1  BZF d   1      -0.077  -1.352  -1.015  0.00  0.00    -0.204 OA
ATOM      2  C2  BZF d   1      -0.485  -0.042  -0.850  0.00  0.00     0.174 A 
ATOM      3  C3  BZF d   1       0.018   0.742  -1.825  0.00  0.00    -0.012 A 
ATOM      4  C3A BZF d   1       0.713  -0.149  -2.703  0.00  0.00    -0.107 A 
ATOM      5  C4  BZF d   1       1.409   0.031  -3.864  0.00  0.00     0.055 A 
ATOM      6  C5  BZF d   1       2.030  -1.036  -4.434  0.00  0.00    -0.016 A 
ATOM      7  C6  BZF d   1       1.980  -2.292  -3.868  0.00  0.00     0.022 A 
ATOM      8  C7  BZF d   1       1.298  -2.521  -2.719  0.00  0.00     0.029 A 
ATOM      9  C7A BZF d   1       0.642  -1.452  -2.159  0.00  0.00     0.058 A 
ENDROOT
TORSDOF 0
ENDMDL
