MODEL 1
REMARK minimizedAffinity -4.56676626
REMARK minimizedRMSD -1
REMARK  0 active torsions:
REMARK  status: ('A' for Active; 'I' for Inactive)
ROOT
ATOM      1  O1  BZF d   1       0.005  -0.198   2.685  0.00  0.00    -0.204 OA
ATOM      2  C2  BZF d   1      -1.254  -0.726   2.895  0.00  0.00     0.174 A 
ATOM      3  C3  BZF d   1      -1.960  -0.752   1.746  0.00  0.00    -0.012 A 
ATOM      4  C3A BZF d   1      -1.055  -0.291   0.738  0.00  0.00    -0.107 A 
ATOM      5  C4  BZF d   1      -1.166  -0.110  -0.611  0.00  0.00     0.055 A 
ATOM      6  C5  BZF d   1      -0.119   0.424  -1.294  0.00  0.00    -0.016 A 
ATOM      7  C6  BZF d   1       1.049   0.792  -0.660  0.00  0.00     0.022 A 
ATOM      8  C7  BZF d   1       1.208   0.626   0.676  0.00  0.00     0.029 A 
ATOM      9  C7A BZF d   1       0.164   0.056   1.364  0.00  0.00     0.058 A 
ENDROOT
TORSDOF 0
ENDMDL
