MODEL 1
REMARK minimizedAffinity -4.6609869
REMARK minimizedRMSD -1
REMARK  0 active torsions:
REMARK  status: ('A' for Active; 'I' for Inactive)
ROOT
ATOM      1  O1  BZF d   1      -1.754  -0.491   2.460  0.00  0.00    -0.204 OA
ATOM      2  C2  BZF d   1      -0.417  -0.754   2.689  0.00  0.00     0.174 A 
ATOM      3  C3  BZF d   1       0.306  -0.570   1.566  0.00  0.00    -0.012 A 
ATOM      4  C3A BZF d   1      -0.624  -0.078   0.596  0.00  0.00    -0.107 A 
ATOM      5  C4  BZF d   1      -0.504   0.307  -0.709  0.00  0.00     0.055 A 
ATOM      6  C5  BZF d   1      -1.620   0.668  -1.396  0.00  0.00    -0.016 A 
ATOM      7  C6  BZF d   1      -2.869   0.653  -0.812  0.00  0.00     0.022 A 
ATOM      8  C7  BZF d   1      -3.037   0.284   0.481  0.00  0.00     0.029 A 
ATOM      9  C7A BZF d   1      -1.908  -0.051   1.188  0.00  0.00     0.058 A 
ENDROOT
TORSDOF 0
ENDMDL
