MODEL 1
REMARK minimizedAffinity 2.62033749
REMARK minimizedRMSD -1
REMARK  0 active torsions:
REMARK  status: ('A' for Active; 'I' for Inactive)
ROOT
ATOM      1  C   UNL d   1      -1.016  -5.728   5.974  0.00  0.00     0.020 A 
ATOM      2  C1  UNL d   1      -1.463  -4.408   5.992  0.00  0.00     0.020 A 
ATOM      3  C2  UNL d   1      -0.542  -3.358   6.000  0.00  0.00     0.034 A 
ATOM      4  C3  UNL d   1       0.831  -3.627   5.989  0.00  0.00     0.017 A 
ATOM      5  C4  UNL d   1       1.280  -4.953   5.971  0.00  0.00     0.017 A 
ATOM      6  C5  UNL d   1       0.353  -6.000   5.963  0.00  0.00     0.034 A 
ATOM      7 Cl   UNL d   1       2.959  -5.363   5.956  0.00  0.00    -0.070 Cl
ATOM      8 Cl1  UNL d   1       1.914  -2.280   5.999  0.00  0.00    -0.070 Cl
ENDROOT
TORSDOF 0
ENDMDL
