MODEL 1
REMARK minimizedAffinity -2.52838039
REMARK minimizedRMSD -1
REMARK  0 active torsions:
REMARK  status: ('A' for Active; 'I' for Inactive)
ROOT
ATOM      1  C   UNL d   1      -0.893  -4.081   3.336  0.00  0.00     0.020 A 
ATOM      2  C1  UNL d   1      -0.701  -5.449   3.150  0.00  0.00     0.020 A 
ATOM      3  C2  UNL d   1      -0.769  -5.996   1.867  0.00  0.00     0.034 A 
ATOM      4  C3  UNL d   1      -1.031  -5.175   0.765  0.00  0.00     0.017 A 
ATOM      5  C4  UNL d   1      -1.224  -3.801   0.952  0.00  0.00     0.017 A 
ATOM      6  C5  UNL d   1      -1.154  -3.259   2.239  0.00  0.00     0.034 A 
ATOM      7 Cl   UNL d   1      -1.550  -2.724  -0.360  0.00  0.00    -0.070 Cl
ATOM      8 Cl1  UNL d   1      -1.101  -5.919  -0.793  0.00  0.00    -0.070 Cl
ENDROOT
TORSDOF 0
ENDMDL
