MODEL 1
REMARK minimizedAffinity 7.79282236
REMARK minimizedRMSD -1
REMARK  0 active torsions:
REMARK  status: ('A' for Active; 'I' for Inactive)
ROOT
ATOM      1  C   UNL d   1      -4.636   1.789   1.377  0.00  0.00     0.020 A 
ATOM      2  C1  UNL d   1      -5.763   1.761   0.556  0.00  0.00     0.020 A 
ATOM      3  C2  UNL d   1      -5.996   0.662  -0.273  0.00  0.00     0.034 A 
ATOM      4  C3  UNL d   1      -5.101  -0.414  -0.284  0.00  0.00     0.017 A 
ATOM      5  C4  UNL d   1      -3.970  -0.385   0.540  0.00  0.00     0.017 A 
ATOM      6  C5  UNL d   1      -3.742   0.718   1.369  0.00  0.00     0.034 A 
ATOM      7 Cl   UNL d   1      -2.820  -1.675   0.582  0.00  0.00    -0.070 Cl
ATOM      8 Cl1  UNL d   1      -5.452  -1.740  -1.334  0.00  0.00    -0.070 Cl
ENDROOT
TORSDOF 0
ENDMDL
