MODEL 1
REMARK minimizedAffinity -0.81378907
REMARK minimizedRMSD -1
REMARK  0 active torsions:
REMARK  status: ('A' for Active; 'I' for Inactive)
ROOT
ATOM      1  C   UNL d   1       1.519  -1.835   5.997  0.00  0.00     0.020 A 
ATOM      2  C1  UNL d   1       0.126  -1.788   5.996  0.00  0.00     0.020 A 
ATOM      3  C2  UNL d   1      -0.613  -2.973   5.996  0.00  0.00     0.034 A 
ATOM      4  C3  UNL d   1       0.042  -4.211   5.997  0.00  0.00     0.017 A 
ATOM      5  C4  UNL d   1       1.441  -4.257   5.998  0.00  0.00     0.017 A 
ATOM      6  C5  UNL d   1       2.175  -3.067   5.998  0.00  0.00     0.034 A 
ATOM      7 Cl   UNL d   1       2.319  -5.745   5.999  0.00  0.00    -0.070 Cl
ATOM      8 Cl1  UNL d   1      -0.935  -5.636   5.997  0.00  0.00    -0.070 Cl
ENDROOT
TORSDOF 0
ENDMDL
