MODEL 1
REMARK minimizedAffinity -1.2398628
REMARK minimizedRMSD -1
REMARK  0 active torsions:
REMARK  status: ('A' for Active; 'I' for Inactive)
ROOT
ATOM      1  C   UNL d   1      -0.602  -2.028   5.987  0.00  0.00     0.020 A 
ATOM      2  C1  UNL d   1       0.780  -1.844   5.987  0.00  0.00     0.020 A 
ATOM      3  C2  UNL d   1       1.631  -2.951   5.990  0.00  0.00     0.034 A 
ATOM      4  C3  UNL d   1       1.102  -4.247   5.994  0.00  0.00     0.017 A 
ATOM      5  C4  UNL d   1      -0.286  -4.430   5.994  0.00  0.00     0.017 A 
ATOM      6  C5  UNL d   1      -1.134  -3.318   5.991  0.00  0.00     0.034 A 
ATOM      7 Cl   UNL d   1      -1.013  -5.998   5.998  0.00  0.00    -0.070 Cl
ATOM      8 Cl1  UNL d   1       2.214  -5.569   5.997  0.00  0.00    -0.070 Cl
ENDROOT
TORSDOF 0
ENDMDL
