MODEL 1
REMARK minimizedAffinity -1.00731683
REMARK minimizedRMSD -1
REMARK  0 active torsions:
REMARK  status: ('A' for Active; 'I' for Inactive)
ROOT
ATOM      1  O1  BZF d   1       1.163   1.436   0.216  0.00  0.00    -0.204 OA
ATOM      2  C2  BZF d   1       0.093   1.441  -0.658  0.00  0.00     0.174 A 
ATOM      3  C3  BZF d   1      -0.792   0.476  -0.336  0.00  0.00    -0.012 A 
ATOM      4  C3A BZF d   1      -0.285  -0.114   0.865  0.00  0.00    -0.107 A 
ATOM      5  C4  BZF d   1      -0.731  -1.115   1.680  0.00  0.00     0.055 A 
ATOM      6  C5  BZF d   1       0.036  -1.499   2.735  0.00  0.00    -0.016 A 
ATOM      7  C6  BZF d   1       1.253  -0.907   3.001  0.00  0.00     0.022 A 
ATOM      8  C7  BZF d   1       1.734   0.093   2.224  0.00  0.00     0.029 A 
ATOM      9  C7A BZF d   1       0.947   0.506   1.177  0.00  0.00     0.058 A 
ENDROOT
TORSDOF 0
ENDMDL
