MODEL 1
REMARK minimizedAffinity -4.42012072
REMARK minimizedRMSD -1
REMARK  0 active torsions:
REMARK  status: ('A' for Active; 'I' for Inactive)
ROOT
ATOM      1  O1  BZF d   1       0.503  -0.962   3.131  0.00  0.00    -0.204 OA
ATOM      2  C2  BZF d   1       1.747  -1.389   3.553  0.00  0.00     0.174 A 
ATOM      3  C3  BZF d   1       2.626  -1.388   2.531  0.00  0.00    -0.012 A 
ATOM      4  C3A BZF d   1       1.909  -0.843   1.419  0.00  0.00    -0.107 A 
ATOM      5  C4  BZF d   1       2.248  -0.574   0.124  0.00  0.00     0.055 A 
ATOM      6  C5  BZF d   1       1.293  -0.112  -0.727  0.00  0.00    -0.016 A 
ATOM      7  C6  BZF d   1      -0.009   0.086  -0.317  0.00  0.00     0.022 A 
ATOM      8  C7  BZF d   1      -0.392  -0.162   0.959  0.00  0.00     0.029 A 
ATOM      9  C7A BZF d   1       0.578  -0.597   1.829  0.00  0.00     0.058 A 
ENDROOT
TORSDOF 0
ENDMDL
