MODEL 1
REMARK minimizedAffinity 1.43670189
REMARK minimizedRMSD -1
REMARK  0 active torsions:
REMARK  status: ('A' for Active; 'I' for Inactive)
ROOT
ATOM      1  O1  BZF d   1       1.864  -1.556   0.201  0.00  0.00    -0.204 OA
ATOM      2  C2  BZF d   1       2.002  -1.139  -1.109  0.00  0.00     0.174 A 
ATOM      3  C3  BZF d   1       1.010  -0.291  -1.448  0.00  0.00    -0.012 A 
ATOM      4  C3A BZF d   1       0.254  -0.097  -0.248  0.00  0.00    -0.107 A 
ATOM      5  C4  BZF d   1      -0.846   0.651   0.058  0.00  0.00     0.055 A 
ATOM      6  C5  BZF d   1      -1.380   0.562   1.304  0.00  0.00    -0.016 A 
ATOM      7  C6  BZF d   1      -0.843  -0.269   2.266  0.00  0.00     0.022 A 
ATOM      8  C7  BZF d   1       0.251  -1.027   2.011  0.00  0.00     0.029 A 
ATOM      9  C7A BZF d   1       0.812  -0.913   0.763  0.00  0.00     0.058 A 
ENDROOT
TORSDOF 0
ENDMDL
