MODEL 1
REMARK minimizedAffinity 2.23613691
REMARK minimizedRMSD -1
REMARK  0 active torsions:
REMARK  status: ('A' for Active; 'I' for Inactive)
ROOT
ATOM      1  O1  BZF d   1       0.166   1.574  -1.697  0.00  0.00    -0.204 OA
ATOM      2  C2  BZF d   1       0.050   2.059  -0.408  0.00  0.00     0.174 A 
ATOM      3  C3  BZF d   1       0.390   3.363  -0.356  0.00  0.00    -0.012 A 
ATOM      4  C3A BZF d   1       0.651   3.738  -1.712  0.00  0.00    -0.107 A 
ATOM      5  C4  BZF d   1       1.017   4.911  -2.308  0.00  0.00     0.055 A 
ATOM      6  C5  BZF d   1       1.263   4.925  -3.644  0.00  0.00    -0.016 A 
ATOM      7  C6  BZF d   1       1.157   3.785  -4.413  0.00  0.00     0.022 A 
ATOM      8  C7  BZF d   1       0.792   2.599  -3.868  0.00  0.00     0.029 A 
ATOM      9  C7A BZF d   1       0.511   2.589  -2.524  0.00  0.00     0.058 A 
ENDROOT
TORSDOF 0
ENDMDL
