MODEL 1
REMARK minimizedAffinity -2.12915206
REMARK minimizedRMSD -1
REMARK  0 active torsions:
REMARK  status: ('A' for Active; 'I' for Inactive)
ROOT
ATOM      1  O1  BZF d   1      -1.427   1.488   0.109  0.00  0.00    -0.204 OA
ATOM      2  C2  BZF d   1      -0.821   1.654  -1.122  0.00  0.00     0.174 A 
ATOM      3  C3  BZF d   1       0.282   0.885  -1.220  0.00  0.00    -0.012 A 
ATOM      4  C3A BZF d   1       0.320   0.125  -0.008  0.00  0.00    -0.107 A 
ATOM      5  C4  BZF d   1       1.171  -0.827   0.477  0.00  0.00     0.055 A 
ATOM      6  C5  BZF d   1       0.968  -1.318   1.727  0.00  0.00    -0.016 A 
ATOM      7  C6  BZF d   1      -0.071  -0.878   2.521  0.00  0.00     0.022 A 
ATOM      8  C7  BZF d   1      -0.943   0.061   2.081  0.00  0.00     0.029 A 
ATOM      9  C7A BZF d   1      -0.761   0.536   0.806  0.00  0.00     0.058 A 
ENDROOT
TORSDOF 0
ENDMDL
