MODEL 1
REMARK minimizedAffinity -3.47819638
REMARK minimizedRMSD -1
REMARK  0 active torsions:
REMARK  status: ('A' for Active; 'I' for Inactive)
ROOT
ATOM      1  O1  BZF d   1      -0.925  -0.797   2.554  0.00  0.00    -0.204 OA
ATOM      2  C2  BZF d   1      -1.929  -0.538   1.641  0.00  0.00     0.174 A 
ATOM      3  C3  BZF d   1      -1.412  -0.117   0.469  0.00  0.00    -0.012 A 
ATOM      4  C3A BZF d   1       0.007  -0.201   0.631  0.00  0.00    -0.107 A 
ATOM      5  C4  BZF d   1       1.063   0.067  -0.192  0.00  0.00     0.055 A 
ATOM      6  C5  BZF d   1       2.326  -0.048   0.296  0.00  0.00    -0.016 A 
ATOM      7  C6  BZF d   1       2.569  -0.423   1.602  0.00  0.00     0.022 A 
ATOM      8  C7  BZF d   1       1.553  -0.704   2.454  0.00  0.00     0.029 A 
ATOM      9  C7A BZF d   1       0.277  -0.621   1.954  0.00  0.00     0.058 A 
ENDROOT
TORSDOF 0
ENDMDL
