MODEL 1
REMARK minimizedAffinity -4.70761871
REMARK minimizedRMSD -1
REMARK  0 active torsions:
REMARK  status: ('A' for Active; 'I' for Inactive)
ROOT
ATOM      1  O1  BZF d   1      -1.422  -0.291   0.166  0.00  0.00    -0.204 OA
ATOM      2  C2  BZF d   1      -1.072  -0.153  -1.164  0.00  0.00     0.174 A 
ATOM      3  C3  BZF d   1       0.268  -0.094  -1.302  0.00  0.00    -0.012 A 
ATOM      4  C3A BZF d   1       0.792  -0.295   0.015  0.00  0.00    -0.107 A 
ATOM      5  C4  BZF d   1       2.058  -0.359   0.522  0.00  0.00     0.055 A 
ATOM      6  C5  BZF d   1       2.226  -0.493   1.864  0.00  0.00    -0.016 A 
ATOM      7  C6  BZF d   1       1.151  -0.561   2.727  0.00  0.00     0.022 A 
ATOM      8  C7  BZF d   1      -0.123  -0.507   2.270  0.00  0.00     0.029 A 
ATOM      9  C7A BZF d   1      -0.296  -0.405   0.911  0.00  0.00     0.058 A 
ENDROOT
TORSDOF 0
ENDMDL
