MODEL 1
REMARK minimizedAffinity -2.67776895
REMARK minimizedRMSD -1
REMARK  0 active torsions:
REMARK  status: ('A' for Active; 'I' for Inactive)
ROOT
ATOM      1  O1  BZF d   1      -2.680   3.005   4.524  0.00  0.00    -0.204 OA
ATOM      2  C2  BZF d   1      -2.470   3.007   3.159  0.00  0.00     0.174 A 
ATOM      3  C3  BZF d   1      -3.388   2.243   2.533  0.00  0.00    -0.012 A 
ATOM      4  C3A BZF d   1      -4.280   1.806   3.563  0.00  0.00    -0.107 A 
ATOM      5  C4  BZF d   1      -5.405   1.032   3.566  0.00  0.00     0.055 A 
ATOM      6  C5  BZF d   1      -6.000   0.735   4.751  0.00  0.00    -0.016 A 
ATOM      7  C6  BZF d   1      -5.495   1.190   5.951  0.00  0.00     0.022 A 
ATOM      8  C7  BZF d   1      -4.384   1.966   5.999  0.00  0.00     0.029 A 
ATOM      9  C7A BZF d   1      -3.799   2.295   4.800  0.00  0.00     0.058 A 
ENDROOT
TORSDOF 0
ENDMDL
