MODEL 1
REMARK minimizedAffinity 2.29054856
REMARK minimizedRMSD -1
REMARK  0 active torsions:
REMARK  status: ('A' for Active; 'I' for Inactive)
ROOT
ATOM      1  C   UNL d   1      -1.222  -6.000  -0.319  0.00  0.00     0.172 C 
ATOM      2  N   UNL d   1       0.219  -5.999  -0.423  0.00  0.00    -0.070 N 
ATOM      3  C1  UNL d   1       0.935  -5.999  -1.590  0.00  0.00    -0.004 A 
ATOM      4  C2  UNL d   1       2.274  -5.998  -1.263  0.00  0.00    -0.047 A 
ATOM      5  C3  UNL d   1       2.365  -5.999   0.150  0.00  0.00    -0.047 A 
ATOM      6  C4  UNL d   1       1.078  -5.999   0.644  0.00  0.00    -0.004 A 
ENDROOT
TORSDOF 0
ENDMDL
