MODEL 1
REMARK minimizedAffinity 4.22247028
REMARK minimizedRMSD -1
REMARK  0 active torsions:
REMARK  status: ('A' for Active; 'I' for Inactive)
ROOT
ATOM      1  C   UNL d   1      -2.410   0.086  -2.964  0.00  0.00     0.172 C 
ATOM      2  N   UNL d   1      -3.799   0.158  -2.576  0.00  0.00    -0.070 N 
ATOM      3  C1  UNL d   1      -4.536  -0.871  -2.054  0.00  0.00    -0.004 A 
ATOM      4  C2  UNL d   1      -5.810  -0.400  -1.818  0.00  0.00    -0.047 A 
ATOM      5  C3  UNL d   1      -5.839   0.959  -2.211  0.00  0.00    -0.047 A 
ATOM      6  C4  UNL d   1      -4.581   1.278  -2.677  0.00  0.00    -0.004 A 
ENDROOT
TORSDOF 0
ENDMDL
