MODEL 1
REMARK minimizedAffinity 1.69882739
REMARK minimizedRMSD -1
REMARK  0 active torsions:
REMARK  status: ('A' for Active; 'I' for Inactive)
ROOT
ATOM      1  C   UNL d   1      -4.861  -2.033  -3.753  0.00  0.00     0.172 C 
ATOM      2  N   UNL d   1      -4.869  -3.156  -4.660  0.00  0.00    -0.070 N 
ATOM      3  C1  UNL d   1      -3.761  -3.766  -5.185  0.00  0.00    -0.004 A 
ATOM      4  C2  UNL d   1      -4.190  -4.792  -6.000  0.00  0.00    -0.047 A 
ATOM      5  C3  UNL d   1      -5.605  -4.797  -5.964  0.00  0.00    -0.047 A 
ATOM      6  C4  UNL d   1      -5.999  -3.774  -5.127  0.00  0.00    -0.004 A 
ENDROOT
TORSDOF 0
ENDMDL
