MODEL 1
REMARK minimizedAffinity -1.44554901
REMARK minimizedRMSD -1
REMARK  0 active torsions:
REMARK  status: ('A' for Active; 'I' for Inactive)
ROOT
ATOM      1  C   UNL d   1       5.989  -5.944  -5.789  0.00  0.00     0.172 C 
ATOM      2  N   UNL d   1       4.672  -5.951  -5.196  0.00  0.00    -0.070 N 
ATOM      3  C1  UNL d   1       3.487  -5.976  -5.883  0.00  0.00    -0.004 A 
ATOM      4  C2  UNL d   1       2.464  -5.974  -4.960  0.00  0.00    -0.047 A 
ATOM      5  C3  UNL d   1       3.054  -5.946  -3.674  0.00  0.00    -0.047 A 
ATOM      6  C4  UNL d   1       4.421  -5.932  -3.850  0.00  0.00    -0.004 A 
ENDROOT
TORSDOF 0
ENDMDL
