MODEL 1
REMARK minimizedAffinity 1.02587497
REMARK minimizedRMSD -1
REMARK  0 active torsions:
REMARK  status: ('A' for Active; 'I' for Inactive)
ROOT
ATOM      1  C   UNL d   1       2.298  -1.250   2.692  0.00  0.00     0.172 C 
ATOM      2  N   UNL d   1       1.939  -2.585   3.111  0.00  0.00    -0.070 N 
ATOM      3  C1  UNL d   1       1.006  -2.898   4.064  0.00  0.00    -0.004 A 
ATOM      4  C2  UNL d   1       0.957  -4.271   4.172  0.00  0.00    -0.047 A 
ATOM      5  C3  UNL d   1       1.894  -4.801   3.253  0.00  0.00    -0.047 A 
ATOM      6  C4  UNL d   1       2.487  -3.735   2.610  0.00  0.00    -0.004 A 
ENDROOT
TORSDOF 0
ENDMDL
