MODEL 1
REMARK minimizedAffinity -1.64721227
REMARK minimizedRMSD -1
REMARK  0 active torsions:
REMARK  status: ('A' for Active; 'I' for Inactive)
ROOT
ATOM      1  C   UNL d   1       1.905  -6.000  -5.986  0.00  0.00     0.172 C 
ATOM      2  N   UNL d   1       2.732  -5.976  -4.803  0.00  0.00    -0.070 N 
ATOM      3  C1  UNL d   1       4.101  -5.997  -4.785  0.00  0.00    -0.004 A 
ATOM      4  C2  UNL d   1       4.507  -5.962  -3.469  0.00  0.00    -0.047 A 
ATOM      5  C3  UNL d   1       3.341  -5.921  -2.667  0.00  0.00    -0.047 A 
ATOM      6  C4  UNL d   1       2.257  -5.931  -3.519  0.00  0.00    -0.004 A 
ENDROOT
TORSDOF 0
ENDMDL
