MODEL 1
REMARK minimizedAffinity 1.49157262
REMARK minimizedRMSD -1
REMARK  0 active torsions:
REMARK  status: ('A' for Active; 'I' for Inactive)
ROOT
ATOM      1  C   UNL d   1       4.203  -3.193   5.369  0.00  0.00     0.172 C 
ATOM      2  N   UNL d   1       3.155  -3.196   4.375  0.00  0.00    -0.070 N 
ATOM      3  C1  UNL d   1       2.316  -2.150   4.097  0.00  0.00    -0.004 A 
ATOM      4  C2  UNL d   1       1.463  -2.550   3.091  0.00  0.00    -0.047 A 
ATOM      5  C3  UNL d   1       1.801  -3.882   2.754  0.00  0.00    -0.047 A 
ATOM      6  C4  UNL d   1       2.851  -4.257   3.564  0.00  0.00    -0.004 A 
ENDROOT
TORSDOF 0
ENDMDL
