MODEL 1
REMARK minimizedAffinity 0.435315758
REMARK minimizedRMSD -1
REMARK  0 active torsions:
REMARK  status: ('A' for Active; 'I' for Inactive)
ROOT
ATOM      1  C   UNL d   1      -5.992  -3.719  -5.993  0.00  0.00     0.172 C 
ATOM      2  N   UNL d   1      -5.358  -3.334  -4.754  0.00  0.00    -0.070 N 
ATOM      3  C1  UNL d   1      -6.000  -2.854  -3.644  0.00  0.00    -0.004 A 
ATOM      4  C2  UNL d   1      -5.047  -2.605  -2.680  0.00  0.00    -0.047 A 
ATOM      5  C3  UNL d   1      -3.789  -2.947  -3.230  0.00  0.00    -0.047 A 
ATOM      6  C4  UNL d   1      -4.010  -3.395  -4.515  0.00  0.00    -0.004 A 
ENDROOT
TORSDOF 0
ENDMDL
