MODEL 1
REMARK minimizedAffinity 3.6750381
REMARK minimizedRMSD -1
REMARK  0 active torsions:
REMARK  status: ('A' for Active; 'I' for Inactive)
ROOT
ATOM      1  C   UNL d   1       3.185  -2.673  -2.220  0.00  0.00     0.172 C 
ATOM      2  N   UNL d   1       3.579  -4.008  -1.835  0.00  0.00    -0.070 N 
ATOM      3  C1  UNL d   1       4.450  -4.812  -2.520  0.00  0.00    -0.004 A 
ATOM      4  C2  UNL d   1       4.560  -5.999  -1.830  0.00  0.00    -0.047 A 
ATOM      5  C3  UNL d   1       3.725  -5.906  -0.691  0.00  0.00    -0.047 A 
ATOM      6  C4  UNL d   1       3.130  -4.663  -0.719  0.00  0.00    -0.004 A 
ENDROOT
TORSDOF 0
ENDMDL
