MODEL 1
REMARK minimizedAffinity 4.37340641
REMARK minimizedRMSD -1
REMARK  0 active torsions:
REMARK  status: ('A' for Active; 'I' for Inactive)
ROOT
ATOM      1  C   UNL d   1      -6.000   3.003  -2.349  0.00  0.00     0.172 C 
ATOM      2  N   UNL d   1      -5.873   3.108  -0.915  0.00  0.00    -0.070 N 
ATOM      3  C1  UNL d   1      -5.609   4.257  -0.218  0.00  0.00    -0.004 A 
ATOM      4  C2  UNL d   1      -5.567   3.938   1.122  0.00  0.00    -0.047 A 
ATOM      5  C3  UNL d   1      -5.814   2.549   1.235  0.00  0.00    -0.047 A 
ATOM      6  C4  UNL d   1      -5.999   2.060  -0.041  0.00  0.00    -0.004 A 
ENDROOT
TORSDOF 0
ENDMDL
