MODEL 1
REMARK minimizedAffinity -3.3509748
REMARK minimizedRMSD -1
REMARK  0 active torsions:
REMARK  status: ('A' for Active; 'I' for Inactive)
ROOT
ATOM      1  C   UNL d   1       4.574  -1.637   1.694  0.00  0.00     0.172 C 
ATOM      2  N   UNL d   1       3.302  -1.976   2.287  0.00  0.00    -0.070 N 
ATOM      3  C1  UNL d   1       2.645  -3.168   2.139  0.00  0.00    -0.004 A 
ATOM      4  C2  UNL d   1       1.472  -3.096   2.859  0.00  0.00    -0.047 A 
ATOM      5  C3  UNL d   1       1.422  -1.816   3.460  0.00  0.00    -0.047 A 
ATOM      6  C4  UNL d   1       2.567  -1.144   3.089  0.00  0.00    -0.004 A 
ENDROOT
TORSDOF 0
ENDMDL
