MODEL 1
REMARK minimizedAffinity 1.94584513
REMARK minimizedRMSD -1
REMARK  0 active torsions:
REMARK  status: ('A' for Active; 'I' for Inactive)
ROOT
ATOM      1  C   UNL d   1       1.852  -5.979  -5.879  0.00  0.00     0.172 C 
ATOM      2  N   UNL d   1       2.758  -5.985  -4.754  0.00  0.00    -0.070 N 
ATOM      3  C1  UNL d   1       4.125  -5.979  -4.830  0.00  0.00    -0.004 A 
ATOM      4  C2  UNL d   1       4.618  -5.987  -3.543  0.00  0.00    -0.047 A 
ATOM      5  C3  UNL d   1       3.510  -5.999  -2.664  0.00  0.00    -0.047 A 
ATOM      6  C4  UNL d   1       2.370  -5.997  -3.440  0.00  0.00    -0.004 A 
ENDROOT
TORSDOF 0
ENDMDL
