MODEL 1
REMARK minimizedAffinity 2.01969481
REMARK minimizedRMSD -1
REMARK  0 active torsions:
REMARK  status: ('A' for Active; 'I' for Inactive)
ROOT
ATOM      1  C   UNL d   1       1.502  -0.860   2.782  0.00  0.00     0.172 C 
ATOM      2  N   UNL d   1       2.209  -2.086   3.066  0.00  0.00    -0.070 N 
ATOM      3  C1  UNL d   1       1.640  -3.326   3.188  0.00  0.00    -0.004 A 
ATOM      4  C2  UNL d   1       2.647  -4.227   3.460  0.00  0.00    -0.047 A 
ATOM      5  C3  UNL d   1       3.862  -3.504   3.504  0.00  0.00    -0.047 A 
ATOM      6  C4  UNL d   1       3.562  -2.181   3.257  0.00  0.00    -0.004 A 
ENDROOT
TORSDOF 0
ENDMDL
