MODEL 1
REMARK minimizedAffinity -1.79574311
REMARK minimizedRMSD -1
REMARK  0 active torsions:
REMARK  status: ('A' for Active; 'I' for Inactive)
ROOT
ATOM      1  C   UNL d   1       3.801  -2.635   4.309  0.00  0.00     0.172 C 
ATOM      2  N   UNL d   1       2.752  -2.395   3.346  0.00  0.00    -0.070 N 
ATOM      3  C1  UNL d   1       2.730  -1.381   2.426  0.00  0.00    -0.004 A 
ATOM      4  C2  UNL d   1       1.566  -1.497   1.698  0.00  0.00    -0.047 A 
ATOM      5  C3  UNL d   1       0.863  -2.618   2.199  0.00  0.00    -0.047 A 
ATOM      6  C4  UNL d   1       1.620  -3.155   3.219  0.00  0.00    -0.004 A 
ENDROOT
TORSDOF 0
ENDMDL
