MODEL 1
REMARK minimizedAffinity -2.56739235
REMARK minimizedRMSD -1
REMARK  0 active torsions:
REMARK  status: ('A' for Active; 'I' for Inactive)
ROOT
ATOM      1  C   UNL d   1      -2.366  -1.545   0.187  0.00  0.00     0.124 A 
ATOM      2  C1  UNL d   1      -2.236  -0.445  -0.650  0.00  0.00     0.062 A 
ATOM      3  C2  UNL d   1      -1.039   0.264  -0.692  0.00  0.00     0.162 A 
ATOM      4  C3  UNL d   1       0.038  -0.124   0.105  0.00  0.00    -0.034 A 
ATOM      5  C4  UNL d   1      -0.101  -1.231   0.945  0.00  0.00     0.162 A 
ATOM      6  C5  UNL d   1      -1.299  -1.937   0.983  0.00  0.00     0.062 A 
ATOM      7  F   UNL d   1      -1.423  -2.999   1.792  0.00  0.00    -0.097 F 
ATOM      8  F1  UNL d   1       0.915  -1.631   1.724  0.00  0.00    -0.096 F 
ATOM      9  I   UNL d   1       1.829   0.935   0.045  0.00  0.00    -0.060 I 
ATOM     10  F2  UNL d   1      -0.941   1.323  -1.510  0.00  0.00    -0.096 F 
ATOM     11  F3  UNL d   1      -3.265  -0.065  -1.419  0.00  0.00    -0.097 F 
ATOM     12  F4  UNL d   1      -3.518  -2.226   0.226  0.00  0.00    -0.092 F 
ENDROOT
TORSDOF 0
ENDMDL
