MODEL 1
REMARK minimizedAffinity -4.91070271
REMARK minimizedRMSD -1
REMARK  0 active torsions:
REMARK  status: ('A' for Active; 'I' for Inactive)
ROOT
ATOM      1  C   UNL d   1      -2.613  -1.835   0.513  0.00  0.00     0.124 A 
ATOM      2  C1  UNL d   1      -2.471  -0.758  -0.350  0.00  0.00     0.062 A 
ATOM      3  C2  UNL d   1      -1.230  -0.148  -0.510  0.00  0.00     0.162 A 
ATOM      4  C3  UNL d   1      -0.121  -0.615   0.195  0.00  0.00    -0.034 A 
ATOM      5  C4  UNL d   1      -0.272  -1.698   1.062  0.00  0.00     0.162 A 
ATOM      6  C5  UNL d   1      -1.514  -2.304   1.218  0.00  0.00     0.062 A 
ATOM      7  F   UNL d   1      -1.650  -3.345   2.053  0.00  0.00    -0.097 F 
ATOM      8  F1  UNL d   1       0.774  -2.173   1.755  0.00  0.00    -0.096 F 
ATOM      9  I   UNL d   1       1.737   0.295  -0.041  0.00  0.00    -0.060 I 
ATOM     10  F2  UNL d   1      -1.122   0.892  -1.351  0.00  0.00    -0.096 F 
ATOM     11  F3  UNL d   1      -3.532  -0.302  -1.032  0.00  0.00    -0.097 F 
ATOM     12  F4  UNL d   1      -3.809  -2.420   0.665  0.00  0.00    -0.092 F 
ENDROOT
TORSDOF 0
ENDMDL
