MODEL 1
REMARK minimizedAffinity 0.648148358
REMARK minimizedRMSD -1
REMARK  0 active torsions:
REMARK  status: ('A' for Active; 'I' for Inactive)
ROOT
ATOM      1  C   UNL d   1      -2.373  -1.043   0.664  0.00  0.00     0.124 A 
ATOM      2  C1  UNL d   1      -1.323  -1.191   1.559  0.00  0.00     0.062 A 
ATOM      3  C2  UNL d   1      -0.057  -0.710   1.238  0.00  0.00     0.162 A 
ATOM      4  C3  UNL d   1       0.166  -0.076   0.016  0.00  0.00    -0.034 A 
ATOM      5  C4  UNL d   1      -0.895   0.068  -0.879  0.00  0.00     0.162 A 
ATOM      6  C5  UNL d   1      -2.158  -0.414  -0.554  0.00  0.00     0.062 A 
ATOM      7  F   UNL d   1      -3.172  -0.271  -1.420  0.00  0.00    -0.097 F 
ATOM      8  F1  UNL d   1      -0.715   0.673  -2.063  0.00  0.00    -0.096 F 
ATOM      9  I   UNL d   1       2.058   0.645  -0.467  0.00  0.00    -0.060 I 
ATOM     10  F2  UNL d   1       0.940  -0.867   2.123  0.00  0.00    -0.096 F 
ATOM     11  F3  UNL d   1      -1.528  -1.799   2.736  0.00  0.00    -0.097 F 
ATOM     12  F4  UNL d   1      -3.590  -1.508   0.975  0.00  0.00    -0.092 F 
ENDROOT
TORSDOF 0
ENDMDL
