MODEL 1
REMARK minimizedAffinity -3.58593941
REMARK minimizedRMSD -1
REMARK  0 active torsions:
REMARK  status: ('A' for Active; 'I' for Inactive)
ROOT
ATOM      1  C   UNL d   1      -2.862  -1.848   0.422  0.00  0.00     0.124 A 
ATOM      2  C1  UNL d   1      -1.844  -2.410   1.180  0.00  0.00     0.062 A 
ATOM      3  C2  UNL d   1      -0.591  -1.805   1.228  0.00  0.00     0.162 A 
ATOM      4  C3  UNL d   1      -0.349  -0.631   0.515  0.00  0.00    -0.034 A 
ATOM      5  C4  UNL d   1      -1.377  -0.073  -0.246  0.00  0.00     0.162 A 
ATOM      6  C5  UNL d   1      -2.628  -0.680  -0.290  0.00  0.00     0.062 A 
ATOM      7  F   UNL d   1      -3.610  -0.136  -1.024  0.00  0.00    -0.097 F 
ATOM      8  F1  UNL d   1      -1.179   1.056  -0.943  0.00  0.00    -0.096 F 
ATOM      9  I   UNL d   1       1.523   0.276   0.583  0.00  0.00    -0.060 I 
ATOM     10  F2  UNL d   1       0.374  -2.370   1.969  0.00  0.00    -0.096 F 
ATOM     11  F3  UNL d   1      -2.068  -3.539   1.869  0.00  0.00    -0.097 F 
ATOM     12  F4  UNL d   1      -4.066  -2.432   0.377  0.00  0.00    -0.092 F 
ENDROOT
TORSDOF 0
ENDMDL
