MODEL 1
REMARK minimizedAffinity -3.1596899
REMARK minimizedRMSD -1
REMARK  0 active torsions:
REMARK  status: ('A' for Active; 'I' for Inactive)
ROOT
ATOM      1  C   UNL d   1      -2.034  -1.717   0.340  0.00  0.00     0.124 A 
ATOM      2  C1  UNL d   1      -2.061  -0.636  -0.530  0.00  0.00     0.062 A 
ATOM      3  C2  UNL d   1      -0.940   0.177  -0.671  0.00  0.00     0.162 A 
ATOM      4  C3  UNL d   1       0.219  -0.089   0.059  0.00  0.00    -0.034 A 
ATOM      5  C4  UNL d   1       0.238  -1.178   0.932  0.00  0.00     0.162 A 
ATOM      6  C5  UNL d   1      -0.885  -1.987   1.070  0.00  0.00     0.062 A 
ATOM      7  F   UNL d   1      -0.857  -3.032   1.910  0.00  0.00    -0.097 F 
ATOM      8  F1  UNL d   1       1.336  -1.463   1.649  0.00  0.00    -0.096 F 
ATOM      9  I   UNL d   1       1.897   1.124  -0.150  0.00  0.00    -0.060 I 
ATOM     10  F2  UNL d   1      -0.994   1.215  -1.518  0.00  0.00    -0.096 F 
ATOM     11  F3  UNL d   1      -3.170  -0.372  -1.235  0.00  0.00    -0.097 F 
ATOM     12  F4  UNL d   1      -3.114  -2.497   0.475  0.00  0.00    -0.092 F 
ENDROOT
TORSDOF 0
ENDMDL
