MODEL 1
REMARK minimizedAffinity 0.544080377
REMARK minimizedRMSD -1
REMARK  0 active torsions:
REMARK  status: ('A' for Active; 'I' for Inactive)
ROOT
ATOM      1  C   UNL d   1      -1.805  -0.846  -0.195  0.00  0.00     0.124 A 
ATOM      2  C1  UNL d   1      -0.759  -1.120   0.675  0.00  0.00     0.062 A 
ATOM      3  C2  UNL d   1       0.391  -0.335   0.657  0.00  0.00     0.162 A 
ATOM      4  C3  UNL d   1       0.499   0.733  -0.234  0.00  0.00    -0.034 A 
ATOM      5  C4  UNL d   1      -0.556   1.001  -1.106  0.00  0.00     0.162 A 
ATOM      6  C5  UNL d   1      -1.703   0.214  -1.085  0.00  0.00     0.062 A 
ATOM      7  F   UNL d   1      -2.713   0.480  -1.926  0.00  0.00    -0.097 F 
ATOM      8  F1  UNL d   1      -0.485   2.020  -1.976  0.00  0.00    -0.096 F 
ATOM      9  I   UNL d   1       2.216   1.909  -0.264  0.00  0.00    -0.060 I 
ATOM     10  F2  UNL d   1       1.386  -0.623   1.509  0.00  0.00    -0.096 F 
ATOM     11  F3  UNL d   1      -0.854  -2.145   1.535  0.00  0.00    -0.097 F 
ATOM     12  F4  UNL d   1      -2.909  -1.604  -0.176  0.00  0.00    -0.092 F 
ENDROOT
TORSDOF 0
ENDMDL
