MODEL 1
REMARK minimizedAffinity -3.010602
REMARK minimizedRMSD -1
REMARK  0 active torsions:
REMARK  status: ('A' for Active; 'I' for Inactive)
ROOT
ATOM      1  C   UNL d   1      -2.658  -2.068   0.228  0.00  0.00     0.124 A 
ATOM      2  C1  UNL d   1      -1.701  -2.528   1.122  0.00  0.00     0.062 A 
ATOM      3  C2  UNL d   1      -0.436  -1.949   1.152  0.00  0.00     0.162 A 
ATOM      4  C3  UNL d   1      -0.120  -0.902   0.286  0.00  0.00    -0.034 A 
ATOM      5  C4  UNL d   1      -1.087  -0.446  -0.611  0.00  0.00     0.162 A 
ATOM      6  C5  UNL d   1      -2.350  -1.028  -0.638  0.00  0.00     0.062 A 
ATOM      7  F   UNL d   1      -3.273  -0.582  -1.503  0.00  0.00    -0.097 F 
ATOM      8  F1  UNL d   1      -0.817   0.558  -1.458  0.00  0.00    -0.096 F 
ATOM      9  I   UNL d   1       1.771  -0.034   0.328  0.00  0.00    -0.060 I 
ATOM     10  F2  UNL d   1       0.469  -2.413   2.027  0.00  0.00    -0.096 F 
ATOM     11  F3  UNL d   1      -1.996  -3.533   1.959  0.00  0.00    -0.097 F 
ATOM     12  F4  UNL d   1      -3.875  -2.627   0.200  0.00  0.00    -0.092 F 
ENDROOT
TORSDOF 0
ENDMDL
