MODEL 1
REMARK minimizedAffinity -4.43322039
REMARK minimizedRMSD -1
REMARK  0 active torsions:
REMARK  status: ('A' for Active; 'I' for Inactive)
ROOT
ATOM      1  C   UNL d   1      -1.804  -2.030   0.053  0.00  0.00     0.124 A 
ATOM      2  C1  UNL d   1      -1.779  -0.796  -0.581  0.00  0.00     0.062 A 
ATOM      3  C2  UNL d   1      -0.660   0.025  -0.472  0.00  0.00     0.162 A 
ATOM      4  C3  UNL d   1       0.445  -0.388   0.272  0.00  0.00    -0.034 A 
ATOM      5  C4  UNL d   1       0.413  -1.631   0.907  0.00  0.00     0.162 A 
ATOM      6  C5  UNL d   1      -0.708  -2.447   0.796  0.00  0.00     0.062 A 
ATOM      7  F   UNL d   1      -0.730  -3.639   1.409  0.00  0.00    -0.097 F 
ATOM      8  F1  UNL d   1       1.458  -2.058   1.631  0.00  0.00    -0.096 F 
ATOM      9  I   UNL d   1       2.121   0.835   0.436  0.00  0.00    -0.060 I 
ATOM     10  F2  UNL d   1      -0.664   1.213  -1.095  0.00  0.00    -0.096 F 
ATOM     11  F3  UNL d   1      -2.837  -0.391  -1.298  0.00  0.00    -0.097 F 
ATOM     12  F4  UNL d   1      -2.883  -2.817  -0.052  0.00  0.00    -0.092 F 
ENDROOT
TORSDOF 0
ENDMDL
