MODEL 1
REMARK minimizedAffinity -2.68041158
REMARK minimizedRMSD -1
REMARK  0 active torsions:
REMARK  status: ('A' for Active; 'I' for Inactive)
ROOT
ATOM      1  C   UNL d   1      -2.708  -1.743  -0.247  0.00  0.00     0.124 A 
ATOM      2  C1  UNL d   1      -2.037  -2.025   0.936  0.00  0.00     0.062 A 
ATOM      3  C2  UNL d   1      -0.802  -1.440   1.197  0.00  0.00     0.162 A 
ATOM      4  C3  UNL d   1      -0.228  -0.565   0.273  0.00  0.00    -0.034 A 
ATOM      5  C4  UNL d   1      -0.908  -0.288  -0.914  0.00  0.00     0.162 A 
ATOM      6  C5  UNL d   1      -2.142  -0.875  -1.170  0.00  0.00     0.062 A 
ATOM      7  F   UNL d   1      -2.788  -0.602  -2.313  0.00  0.00    -0.097 F 
ATOM      8  F1  UNL d   1      -0.385   0.548  -1.823  0.00  0.00    -0.096 F 
ATOM      9  I   UNL d   1       1.619   0.312   0.660  0.00  0.00    -0.060 I 
ATOM     10  F2  UNL d   1      -0.177  -1.730   2.347  0.00  0.00    -0.096 F 
ATOM     11  F3  UNL d   1      -2.581  -2.864   1.829  0.00  0.00    -0.097 F 
ATOM     12  F4  UNL d   1      -3.896  -2.309  -0.496  0.00  0.00    -0.092 F 
ENDROOT
TORSDOF 0
ENDMDL
