MODEL 1
REMARK minimizedAffinity -0.808149219
REMARK minimizedRMSD -1
REMARK  0 active torsions:
REMARK  status: ('A' for Active; 'I' for Inactive)
ROOT
ATOM      1  C   UNL d   1      -1.968  -1.862   0.956  0.00  0.00     0.124 A 
ATOM      2  C1  UNL d   1      -0.737  -2.372   1.344  0.00  0.00     0.062 A 
ATOM      3  C2  UNL d   1       0.407  -1.585   1.253  0.00  0.00     0.162 A 
ATOM      4  C3  UNL d   1       0.327  -0.279   0.772  0.00  0.00    -0.034 A 
ATOM      5  C4  UNL d   1      -0.915   0.227   0.382  0.00  0.00     0.162 A 
ATOM      6  C5  UNL d   1      -2.056  -0.563   0.475  0.00  0.00     0.062 A 
ATOM      7  F   UNL d   1      -3.244  -0.068   0.099  0.00  0.00    -0.097 F 
ATOM      8  F1  UNL d   1      -1.028   1.480  -0.085  0.00  0.00    -0.096 F 
ATOM      9  I   UNL d   1       2.036   0.901   0.633  0.00  0.00    -0.060 I 
ATOM     10  F2  UNL d   1       1.584  -2.104   1.636  0.00  0.00    -0.096 F 
ATOM     11  F3  UNL d   1      -0.649  -3.627   1.808  0.00  0.00    -0.097 F 
ATOM     12  F4  UNL d   1      -3.067  -2.621   1.044  0.00  0.00    -0.092 F 
ENDROOT
TORSDOF 0
ENDMDL
