MODEL 1
REMARK minimizedAffinity -3.15841937
REMARK minimizedRMSD -1
REMARK  0 active torsions:
REMARK  status: ('A' for Active; 'I' for Inactive)
ROOT
ATOM      1  C   UNL d   1      -2.371  -1.697   1.239  0.00  0.00     0.124 A 
ATOM      2  C1  UNL d   1      -2.386  -0.648   0.329  0.00  0.00     0.062 A 
ATOM      3  C2  UNL d   1      -1.192  -0.086  -0.112  0.00  0.00     0.162 A 
ATOM      4  C3  UNL d   1       0.029  -0.572   0.356  0.00  0.00    -0.034 A 
ATOM      5  C4  UNL d   1       0.037  -1.625   1.272  0.00  0.00     0.162 A 
ATOM      6  C5  UNL d   1      -1.159  -2.184   1.709  0.00  0.00     0.062 A 
ATOM      7  F   UNL d   1      -1.142  -3.197   2.588  0.00  0.00    -0.097 F 
ATOM      8  F1  UNL d   1       1.193  -2.116   1.742  0.00  0.00    -0.096 F 
ATOM      9  I   UNL d   1       1.818   0.266  -0.301  0.00  0.00    -0.060 I 
ATOM     10  F2  UNL d   1      -1.237   0.926  -0.991  0.00  0.00    -0.096 F 
ATOM     11  F3  UNL d   1      -3.555  -0.175  -0.126  0.00  0.00    -0.097 F 
ATOM     12  F4  UNL d   1      -3.521  -2.235   1.662  0.00  0.00    -0.092 F 
ENDROOT
TORSDOF 0
ENDMDL
