MODEL 1
REMARK minimizedAffinity -2.97558212
REMARK minimizedRMSD -1
REMARK  0 active torsions:
REMARK  status: ('A' for Active; 'I' for Inactive)
ROOT
ATOM      1  C   UNL d   1      -2.783  -1.768   0.433  0.00  0.00     0.124 A 
ATOM      2  C1  UNL d   1      -2.507  -0.730  -0.446  0.00  0.00     0.062 A 
ATOM      3  C2  UNL d   1      -1.231  -0.175  -0.494  0.00  0.00     0.162 A 
ATOM      4  C3  UNL d   1      -0.222  -0.658   0.338  0.00  0.00    -0.034 A 
ATOM      5  C4  UNL d   1      -0.507  -1.702   1.219  0.00  0.00     0.162 A 
ATOM      6  C5  UNL d   1      -1.784  -2.253   1.264  0.00  0.00     0.062 A 
ATOM      7  F   UNL d   1      -2.049  -3.256   2.114  0.00  0.00    -0.097 F 
ATOM      8  F1  UNL d   1       0.440  -2.190   2.033  0.00  0.00    -0.096 F 
ATOM      9  I   UNL d   1       1.687   0.169   0.268  0.00  0.00    -0.060 I 
ATOM     10  F2  UNL d   1      -0.993   0.828  -1.353  0.00  0.00    -0.096 F 
ATOM     11  F3  UNL d   1      -3.471  -0.258  -1.249  0.00  0.00    -0.097 F 
ATOM     12  F4  UNL d   1      -4.012  -2.299   0.478  0.00  0.00    -0.092 F 
ENDROOT
TORSDOF 0
ENDMDL
