MODEL 1
REMARK minimizedAffinity -2.27847409
REMARK minimizedRMSD -1
REMARK  0 active torsions:
REMARK  status: ('A' for Active; 'I' for Inactive)
ROOT
ATOM      1  C   UNL d   1      -2.053  -1.829   0.023  0.00  0.00     0.124 A 
ATOM      2  C1  UNL d   1      -0.973  -2.140   0.837  0.00  0.00     0.062 A 
ATOM      3  C2  UNL d   1       0.196  -1.386   0.768  0.00  0.00     0.162 A 
ATOM      4  C3  UNL d   1       0.290  -0.314  -0.119  0.00  0.00    -0.034 A 
ATOM      5  C4  UNL d   1      -0.800  -0.009  -0.936  0.00  0.00     0.162 A 
ATOM      6  C5  UNL d   1      -1.965  -0.764  -0.863  0.00  0.00     0.062 A 
ATOM      7  F   UNL d   1      -3.008  -0.463  -1.651  0.00  0.00    -0.097 F 
ATOM      8  F1  UNL d   1      -0.743   1.016  -1.800  0.00  0.00    -0.096 F 
ATOM      9  I   UNL d   1       2.035   0.815  -0.226  0.00  0.00    -0.060 I 
ATOM     10  F2  UNL d   1       1.224  -1.709   1.567  0.00  0.00    -0.096 F 
ATOM     11  F3  UNL d   1      -1.054  -3.169   1.693  0.00  0.00    -0.097 F 
ATOM     12  F4  UNL d   1      -3.175  -2.557   0.091  0.00  0.00    -0.092 F 
ENDROOT
TORSDOF 0
ENDMDL
