MODEL 1
REMARK minimizedAffinity -0.654352844
REMARK minimizedRMSD -1
REMARK  0 active torsions:
REMARK  status: ('A' for Active; 'I' for Inactive)
ROOT
ATOM      1  C   UNL d   1      -1.997  -1.831  -0.005  0.00  0.00     0.124 A 
ATOM      2  C1  UNL d   1      -0.932  -2.160   0.822  0.00  0.00     0.062 A 
ATOM      3  C2  UNL d   1       0.191  -1.339   0.878  0.00  0.00     0.162 A 
ATOM      4  C3  UNL d   1       0.253  -0.179   0.106  0.00  0.00    -0.034 A 
ATOM      5  C4  UNL d   1      -0.822   0.145  -0.724  0.00  0.00     0.162 A 
ATOM      6  C5  UNL d   1      -1.941  -0.679  -0.776  0.00  0.00     0.062 A 
ATOM      7  F   UNL d   1      -2.970  -0.359  -1.575  0.00  0.00    -0.097 F 
ATOM      8  F1  UNL d   1      -0.795   1.253  -1.479  0.00  0.00    -0.096 F 
ATOM      9  I   UNL d   1       1.929   1.052   0.187  0.00  0.00    -0.060 I 
ATOM     10  F2  UNL d   1       1.205  -1.682   1.685  0.00  0.00    -0.096 F 
ATOM     11  F3  UNL d   1      -0.982  -3.274   1.567  0.00  0.00    -0.097 F 
ATOM     12  F4  UNL d   1      -3.075  -2.624  -0.058  0.00  0.00    -0.092 F 
ENDROOT
TORSDOF 0
ENDMDL
