MODEL 1
REMARK minimizedAffinity 19.127512
REMARK minimizedRMSD -1
REMARK  0 active torsions:
REMARK  status: ('A' for Active; 'I' for Inactive)
ROOT
ATOM      1  C   UNL d   1      -4.523   6.000   1.346  0.00  0.00    -0.002 A 
ATOM      2  C1  UNL d   1      -3.320   5.998   0.654  0.00  0.00     0.010 A 
ATOM      3  C2  UNL d   1      -2.707   4.794   0.301  0.00  0.00     0.041 A 
ATOM      4  C3  UNL d   1      -3.330   3.581   0.655  0.00  0.00    -0.075 A 
ATOM      5  S   UNL d   1      -2.764   1.987   0.326  0.00  0.00     0.015 SA
ATOM      6  C4  UNL d   1      -4.106   1.271   1.094  0.00  0.00     0.022 A 
ATOM      7  C5  UNL d   1      -4.975   2.211   1.596  0.00  0.00     0.026 A 
ATOM      8  C6  UNL d   1      -4.542   3.558   1.350  0.00  0.00    -0.082 A 
ATOM      9  C7  UNL d   1      -5.139   4.795   1.696  0.00  0.00     0.045 A 
ENDROOT
TORSDOF 0
ENDMDL
