MODEL 1
REMARK minimizedAffinity 22.9362583
REMARK minimizedRMSD -1
REMARK  0 active torsions:
REMARK  status: ('A' for Active; 'I' for Inactive)
ROOT
ATOM      1  C   UNL d   1      -1.630   2.049   1.665  0.00  0.00    -0.002 A 
ATOM      2  C1  UNL d   1      -0.256   1.975   1.841  0.00  0.00     0.010 A 
ATOM      3  C2  UNL d   1       0.613   2.389   0.829  0.00  0.00     0.041 A 
ATOM      4  C3  UNL d   1       0.072   2.886  -0.373  0.00  0.00    -0.075 A 
ATOM      5  S   UNL d   1       0.942   3.451  -1.750  0.00  0.00     0.015 SA
ATOM      6  C4  UNL d   1      -0.490   3.805  -2.603  0.00  0.00     0.022 A 
ATOM      7  C5  UNL d   1      -1.614   3.505  -1.871  0.00  0.00     0.026 A 
ATOM      8  C6  UNL d   1      -1.309   2.970  -0.573  0.00  0.00    -0.082 A 
ATOM      9  C7  UNL d   1      -2.163   2.542   0.471  0.00  0.00     0.045 A 
ENDROOT
TORSDOF 0
ENDMDL
