MODEL 1
REMARK minimizedAffinity 15.4249792
REMARK minimizedRMSD -1
REMARK  0 active torsions:
REMARK  status: ('A' for Active; 'I' for Inactive)
ROOT
ATOM      1  C   UNL d   1      -1.586   5.396  -4.229  0.00  0.00    -0.002 A 
ATOM      2  C1  UNL d   1      -2.310   5.999  -5.248  0.00  0.00     0.010 A 
ATOM      3  C2  UNL d   1      -3.377   5.332  -5.852  0.00  0.00     0.041 A 
ATOM      4  C3  UNL d   1      -3.710   4.037  -5.409  0.00  0.00    -0.075 A 
ATOM      5  S   UNL d   1      -4.978   3.029  -6.000  0.00  0.00     0.015 SA
ATOM      6  C4  UNL d   1      -4.590   1.775  -4.913  0.00  0.00     0.022 A 
ATOM      7  C5  UNL d   1      -3.521   2.100  -4.111  0.00  0.00     0.026 A 
ATOM      8  C6  UNL d   1      -2.997   3.409  -4.383  0.00  0.00    -0.082 A 
ATOM      9  C7  UNL d   1      -1.919   4.111  -3.792  0.00  0.00     0.045 A 
ENDROOT
TORSDOF 0
ENDMDL
