MODEL 1
REMARK minimizedAffinity -0.702287614
REMARK minimizedRMSD -1
REMARK  0 active torsions:
REMARK  status: ('A' for Active; 'I' for Inactive)
ROOT
ATOM      1  C   UNL d   1      -1.969   5.004  -4.191  0.00  0.00    -0.002 A 
ATOM      2  C1  UNL d   1      -2.651   5.624  -5.228  0.00  0.00     0.010 A 
ATOM      3  C2  UNL d   1      -3.733   4.993  -5.845  0.00  0.00     0.041 A 
ATOM      4  C3  UNL d   1      -4.123   3.716  -5.395  0.00  0.00    -0.075 A 
ATOM      5  S   UNL d   1      -5.419   2.753  -6.000  0.00  0.00     0.015 SA
ATOM      6  C4  UNL d   1      -5.099   1.495  -4.894  0.00  0.00     0.022 A 
ATOM      7  C5  UNL d   1      -4.032   1.786  -4.077  0.00  0.00     0.026 A 
ATOM      8  C6  UNL d   1      -3.453   3.071  -4.352  0.00  0.00    -0.082 A 
ATOM      9  C7  UNL d   1      -2.359   3.737  -3.748  0.00  0.00     0.045 A 
ENDROOT
TORSDOF 0
ENDMDL
