MODEL 1
REMARK minimizedAffinity 14.1603813
REMARK minimizedRMSD -1
REMARK  0 active torsions:
REMARK  status: ('A' for Active; 'I' for Inactive)
ROOT
ATOM      1  C   UNL d   1      -5.180  -2.852   5.781  0.00  0.00    -0.002 A 
ATOM      2  C1  UNL d   1      -5.270  -3.954   4.942  0.00  0.00     0.010 A 
ATOM      3  C2  UNL d   1      -4.134  -4.453   4.301  0.00  0.00     0.041 A 
ATOM      4  C3  UNL d   1      -2.894  -3.821   4.522  0.00  0.00    -0.075 A 
ATOM      5  S   UNL d   1      -1.370  -4.258   3.845  0.00  0.00     0.015 SA
ATOM      6  C4  UNL d   1      -0.564  -2.993   4.655  0.00  0.00     0.022 A 
ATOM      7  C5  UNL d   1      -1.421  -2.246   5.427  0.00  0.00     0.026 A 
ATOM      8  C6  UNL d   1      -2.779  -2.711   5.363  0.00  0.00    -0.082 A 
ATOM      9  C7  UNL d   1      -3.949  -2.228   5.997  0.00  0.00     0.045 A 
ENDROOT
TORSDOF 0
ENDMDL
