MODEL 1
REMARK minimizedAffinity 4.5366621
REMARK minimizedRMSD -1
REMARK  0 active torsions:
REMARK  status: ('A' for Active; 'I' for Inactive)
ROOT
ATOM      1  C   UNL d   1      -2.679   5.957  -5.454  0.00  0.00    -0.002 A 
ATOM      2  C1  UNL d   1      -1.881   5.331  -4.507  0.00  0.00     0.010 A 
ATOM      3  C2  UNL d   1      -2.167   4.032  -4.084  0.00  0.00     0.041 A 
ATOM      4  C3  UNL d   1      -3.279   3.365  -4.636  0.00  0.00    -0.075 A 
ATOM      5  S   UNL d   1      -3.821   1.770  -4.270  0.00  0.00     0.015 SA
ATOM      6  C4  UNL d   1      -5.124   1.882  -5.363  0.00  0.00     0.022 A 
ATOM      7  C5  UNL d   1      -5.160   3.100  -6.000  0.00  0.00     0.026 A 
ATOM      8  C6  UNL d   1      -4.097   3.974  -5.592  0.00  0.00    -0.082 A 
ATOM      9  C7  UNL d   1      -3.780   5.293  -5.999  0.00  0.00     0.045 A 
ENDROOT
TORSDOF 0
ENDMDL
