MODEL 1
REMARK minimizedAffinity 20.5149937
REMARK minimizedRMSD -1
REMARK  0 active torsions:
REMARK  status: ('A' for Active; 'I' for Inactive)
ROOT
ATOM      1  C   UNL d   1      -2.971   1.079   2.915  0.00  0.00    -0.002 A 
ATOM      2  C1  UNL d   1      -3.021   1.743   1.698  0.00  0.00     0.010 A 
ATOM      3  C2  UNL d   1      -1.914   2.455   1.232  0.00  0.00     0.041 A 
ATOM      4  C3  UNL d   1      -0.744   2.486   2.016  0.00  0.00    -0.075 A 
ATOM      5  S   UNL d   1       0.734   3.293   1.646  0.00  0.00     0.015 SA
ATOM      6  C4  UNL d   1       1.467   2.773   3.094  0.00  0.00     0.022 A 
ATOM      7  C5  UNL d   1       0.619   2.003   3.854  0.00  0.00     0.026 A 
ATOM      8  C6  UNL d   1      -0.669   1.824   3.244  0.00  0.00    -0.082 A 
ATOM      9  C7  UNL d   1      -1.808   1.112   3.690  0.00  0.00     0.045 A 
ENDROOT
TORSDOF 0
ENDMDL
