MODEL 1
REMARK minimizedAffinity 31.803236
REMARK minimizedRMSD -1
REMARK  0 active torsions:
REMARK  status: ('A' for Active; 'I' for Inactive)
ROOT
ATOM      1  C   UNL d   1      -5.677   6.000   0.586  0.00  0.00    -0.002 A 
ATOM      2  C1  UNL d   1      -4.424   5.771   1.136  0.00  0.00     0.010 A 
ATOM      3  C2  UNL d   1      -3.392   5.243   0.357  0.00  0.00     0.041 A 
ATOM      4  C3  UNL d   1      -3.644   4.947  -0.997  0.00  0.00    -0.075 A 
ATOM      5  S   UNL d   1      -2.532   4.294  -2.142  0.00  0.00     0.015 SA
ATOM      6  C4  UNL d   1      -3.695   4.304  -3.388  0.00  0.00     0.022 A 
ATOM      7  C5  UNL d   1      -4.907   4.790  -2.958  0.00  0.00     0.026 A 
ATOM      8  C6  UNL d   1      -4.897   5.169  -1.573  0.00  0.00    -0.082 A 
ATOM      9  C7  UNL d   1      -5.923   5.705  -0.757  0.00  0.00     0.045 A 
ENDROOT
TORSDOF 0
ENDMDL
