MODEL 1
REMARK minimizedAffinity 3.37736559
REMARK minimizedRMSD -1
REMARK  0 active torsions:
REMARK  status: ('A' for Active; 'I' for Inactive)
ROOT
ATOM      1  C   UNL d   1      -5.998  -6.000   3.619  0.00  0.00    -0.002 A 
ATOM      2  C1  UNL d   1      -6.000  -4.806   4.326  0.00  0.00     0.010 A 
ATOM      3  C2  UNL d   1      -5.999  -3.582   3.653  0.00  0.00     0.041 A 
ATOM      4  C3  UNL d   1      -5.999  -3.579   2.244  0.00  0.00    -0.075 A 
ATOM      5  S   UNL d   1      -6.000  -2.201   1.208  0.00  0.00     0.015 SA
ATOM      6  C4  UNL d   1      -5.999  -3.165  -0.198  0.00  0.00     0.022 A 
ATOM      7  C5  UNL d   1      -5.997  -4.508   0.098  0.00  0.00     0.026 A 
ATOM      8  C6  UNL d   1      -5.998  -4.768   1.510  0.00  0.00    -0.082 A 
ATOM      9  C7  UNL d   1      -5.998  -5.992   2.221  0.00  0.00     0.045 A 
ENDROOT
TORSDOF 0
ENDMDL
