MODEL 1
REMARK minimizedAffinity 18.5790405
REMARK minimizedRMSD -1
REMARK  0 active torsions:
REMARK  status: ('A' for Active; 'I' for Inactive)
ROOT
ATOM      1  C   UNL d   1      -1.190   1.881   2.199  0.00  0.00    -0.002 A 
ATOM      2  C1  UNL d   1      -0.009   1.219   1.896  0.00  0.00     0.010 A 
ATOM      3  C2  UNL d   1       0.254  -0.045   2.428  0.00  0.00     0.041 A 
ATOM      4  C3  UNL d   1      -0.701  -0.639   3.276  0.00  0.00    -0.075 A 
ATOM      5  S   UNL d   1      -0.595  -2.180   4.042  0.00  0.00     0.015 SA
ATOM      6  C4  UNL d   1      -2.116  -1.996   4.789  0.00  0.00     0.022 A 
ATOM      7  C5  UNL d   1      -2.704  -0.795   4.473  0.00  0.00     0.026 A 
ATOM      8  C6  UNL d   1      -1.899   0.007   3.595  0.00  0.00    -0.082 A 
ATOM      9  C7  UNL d   1      -2.135   1.288   3.041  0.00  0.00     0.045 A 
ENDROOT
TORSDOF 0
ENDMDL
