MODEL 1
REMARK minimizedAffinity 21.7062035
REMARK minimizedRMSD -1
REMARK  0 active torsions:
REMARK  status: ('A' for Active; 'I' for Inactive)
ROOT
ATOM      1  C   UNL d   1       0.761   2.689   0.296  0.00  0.00    -0.002 A 
ATOM      2  C1  UNL d   1      -0.317   2.029   0.870  0.00  0.00     0.010 A 
ATOM      3  C2  UNL d   1      -1.403   1.630   0.089  0.00  0.00     0.041 A 
ATOM      4  C3  UNL d   1      -1.387   1.906  -1.293  0.00  0.00    -0.075 A 
ATOM      5  S   UNL d   1      -2.606   1.511  -2.446  0.00  0.00     0.015 SA
ATOM      6  C4  UNL d   1      -1.724   2.207  -3.728  0.00  0.00     0.022 A 
ATOM      7  C5  UNL d   1      -0.527   2.734  -3.304  0.00  0.00     0.026 A 
ATOM      8  C6  UNL d   1      -0.312   2.568  -1.894  0.00  0.00    -0.082 A 
ATOM      9  C7  UNL d   1       0.774   2.961  -1.074  0.00  0.00     0.045 A 
ENDROOT
TORSDOF 0
ENDMDL
