MODEL 1
REMARK minimizedAffinity 19.9679012
REMARK minimizedRMSD -1
REMARK  0 active torsions:
REMARK  status: ('A' for Active; 'I' for Inactive)
ROOT
ATOM      1  C   UNL d   1      -1.689  -2.820   4.775  0.00  0.00    -0.002 A 
ATOM      2  C1  UNL d   1      -2.249  -1.849   5.593  0.00  0.00     0.010 A 
ATOM      3  C2  UNL d   1      -3.582  -1.946   6.000  0.00  0.00     0.041 A 
ATOM      4  C3  UNL d   1      -4.348  -3.046   5.568  0.00  0.00    -0.075 A 
ATOM      5  S   UNL d   1      -5.999  -3.373   5.940  0.00  0.00     0.015 SA
ATOM      6  C4  UNL d   1      -5.999  -4.810   5.023  0.00  0.00     0.022 A 
ATOM      7  C5  UNL d   1      -4.778  -5.049   4.440  0.00  0.00     0.026 A 
ATOM      8  C6  UNL d   1      -3.806  -4.037   4.744  0.00  0.00    -0.082 A 
ATOM      9  C7  UNL d   1      -2.452  -3.910   4.349  0.00  0.00     0.045 A 
ENDROOT
TORSDOF 0
ENDMDL
