MODEL 1
REMARK minimizedAffinity 24.2005596
REMARK minimizedRMSD -1
REMARK  0 active torsions:
REMARK  status: ('A' for Active; 'I' for Inactive)
ROOT
ATOM      1  C   UNL d   1       0.523   3.391  -0.959  0.00  0.00    -0.002 A 
ATOM      2  C1  UNL d   1       0.573   2.112  -0.424  0.00  0.00     0.010 A 
ATOM      3  C2  UNL d   1      -0.500   1.608   0.313  0.00  0.00     0.041 A 
ATOM      4  C3  UNL d   1      -1.636   2.418   0.505  0.00  0.00    -0.075 A 
ATOM      5  S   UNL d   1      -3.069   2.011   1.372  0.00  0.00     0.015 SA
ATOM      6  C4  UNL d   1      -3.782   3.526   1.052  0.00  0.00     0.022 A 
ATOM      7  C5  UNL d   1      -2.961   4.335   0.304  0.00  0.00     0.026 A 
ATOM      8  C6  UNL d   1      -1.711   3.710  -0.025  0.00  0.00    -0.082 A 
ATOM      9  C7  UNL d   1      -0.606   4.192  -0.767  0.00  0.00     0.045 A 
ENDROOT
TORSDOF 0
ENDMDL
