MODEL 1
REMARK minimizedAffinity -3.57716131
REMARK minimizedRMSD -1
REMARK  1 active torsions:
REMARK  status: ('A' for Active; 'I' for Inactive)
REMARK    1  A    between atoms: C3_4  and  O_7 
ROOT
ATOM      1  C   UNL d   1      -3.585   2.619  -1.446  0.00  0.00    -0.033 A 
ATOM      2  C1  UNL d   1      -2.981   1.747  -2.354  0.00  0.00     0.039 A 
ATOM      3  C2  UNL d   1      -2.626   2.198  -3.627  0.00  0.00    -0.080 A 
ATOM      4  C3  UNL d   1      -2.879   3.521  -3.978  0.00  0.00     0.150 A 
ATOM      5  C4  UNL d   1      -3.476   4.397  -3.076  0.00  0.00    -0.007 A 
ATOM      6  C5  UNL d   1      -3.831   3.944  -1.806  0.00  0.00     0.039 A 
ENDROOT
BRANCH   4   7
ATOM      7  O   UNL d   1      -2.554   4.006  -5.210  0.00  0.00    -0.526 OA
ATOM      8  H5  UNL d   1      -2.176   3.282  -5.736  0.00  0.00     0.418 HD
ENDBRANCH   4   7
TORSDOF 1
ENDMDL
