MODEL 1
REMARK minimizedAffinity -2.13404775
REMARK minimizedRMSD -1
REMARK  1 active torsions:
REMARK  status: ('A' for Active; 'I' for Inactive)
REMARK    1  A    between atoms: C3_4  and  O_7 
ROOT
ATOM      1  C   UNL d   1      -3.406   6.000  -4.663  0.00  0.00    -0.033 A 
ATOM      2  C1  UNL d   1      -3.430   5.953  -3.268  0.00  0.00     0.039 A 
ATOM      3  C2  UNL d   1      -3.108   4.769  -2.602  0.00  0.00    -0.080 A 
ATOM      4  C3  UNL d   1      -2.763   3.641  -3.342  0.00  0.00     0.150 A 
ATOM      5  C4  UNL d   1      -2.733   3.682  -4.732  0.00  0.00    -0.007 A 
ATOM      6  C5  UNL d   1      -3.056   4.865  -5.395  0.00  0.00     0.039 A 
ENDROOT
BRANCH   4   7
ATOM      7  O   UNL d   1      -2.446   2.461  -2.736  0.00  0.00    -0.526 OA
ATOM      8  H5  UNL d   1      -2.537   2.574  -1.775  0.00  0.00     0.418 HD
ENDBRANCH   4   7
TORSDOF 1
ENDMDL
