MODEL 1
REMARK minimizedAffinity -3.51187897
REMARK minimizedRMSD -1
REMARK  1 active torsions:
REMARK  status: ('A' for Active; 'I' for Inactive)
REMARK    1  A    between atoms: C3_4  and  O_7 
ROOT
ATOM      1  C   UNL d   1      -2.917   6.000  -4.656  0.00  0.00    -0.033 A 
ATOM      2  C1  UNL d   1      -3.377   5.741  -3.364  0.00  0.00     0.039 A 
ATOM      3  C2  UNL d   1      -2.909   4.627  -2.664  0.00  0.00    -0.080 A 
ATOM      4  C3  UNL d   1      -1.982   3.781  -3.267  0.00  0.00     0.150 A 
ATOM      5  C4  UNL d   1      -1.517   4.035  -4.553  0.00  0.00    -0.007 A 
ATOM      6  C5  UNL d   1      -1.986   5.148  -5.251  0.00  0.00     0.039 A 
ENDROOT
BRANCH   4   7
ATOM      7  O   UNL d   1      -1.501   2.679  -2.626  0.00  0.00    -0.526 OA
ATOM      8  H5  UNL d   1      -1.932   2.615  -1.758  0.00  0.00     0.418 HD
ENDBRANCH   4   7
TORSDOF 1
ENDMDL
