MODEL 1
REMARK minimizedAffinity -0.68004936
REMARK minimizedRMSD -1
REMARK  1 active torsions:
REMARK  status: ('A' for Active; 'I' for Inactive)
REMARK    1  A    between atoms: C3_4  and  O_7 
ROOT
ATOM      1  C   UNL d   1      -2.947   0.986  -3.566  0.00  0.00    -0.033 A 
ATOM      2  C1  UNL d   1      -3.095   2.298  -4.018  0.00  0.00     0.039 A 
ATOM      3  C2  UNL d   1      -3.151   3.351  -3.104  0.00  0.00    -0.080 A 
ATOM      4  C3  UNL d   1      -3.057   3.079  -1.742  0.00  0.00     0.150 A 
ATOM      5  C4  UNL d   1      -2.905   1.774  -1.284  0.00  0.00    -0.007 A 
ATOM      6  C5  UNL d   1      -2.850   0.724  -2.199  0.00  0.00     0.039 A 
ENDROOT
BRANCH   4   7
ATOM      7  O   UNL d   1      -3.111   4.074  -0.811  0.00  0.00    -0.526 OA
ATOM      8  H5  UNL d   1      -3.246   4.919  -1.271  0.00  0.00     0.418 HD
ENDBRANCH   4   7
TORSDOF 1
ENDMDL
