MODEL 1
REMARK minimizedAffinity -4.06706858
REMARK minimizedRMSD -1
REMARK  1 active torsions:
REMARK  status: ('A' for Active; 'I' for Inactive)
REMARK    1  A    between atoms: C3_4  and  O_7 
ROOT
ATOM      1  C   UNL d   1      -3.182   3.310  -1.294  0.00  0.00    -0.033 A 
ATOM      2  C1  UNL d   1      -2.581   2.549  -2.299  0.00  0.00     0.039 A 
ATOM      3  C2  UNL d   1      -2.324   3.117  -3.548  0.00  0.00    -0.080 A 
ATOM      4  C3  UNL d   1      -2.669   4.446  -3.779  0.00  0.00     0.150 A 
ATOM      5  C4  UNL d   1      -3.264   5.211  -2.781  0.00  0.00    -0.007 A 
ATOM      6  C5  UNL d   1      -3.522   4.642  -1.535  0.00  0.00     0.039 A 
ENDROOT
BRANCH   4   7
ATOM      7  O   UNL d   1      -2.442   5.043  -4.983  0.00  0.00    -0.526 OA
ATOM      8  H5  UNL d   1      -2.053   4.385  -5.583  0.00  0.00     0.418 HD
ENDBRANCH   4   7
TORSDOF 1
ENDMDL
