MODEL 1
REMARK minimizedAffinity -2.02124572
REMARK minimizedRMSD -1
REMARK  1 active torsions:
REMARK  status: ('A' for Active; 'I' for Inactive)
REMARK    1  A    between atoms: C3_4  and  O_7 
ROOT
ATOM      1  C   UNL d   1      -2.815  -0.322   1.933  0.00  0.00    -0.033 A 
ATOM      2  C1  UNL d   1      -1.959  -0.113   3.017  0.00  0.00     0.039 A 
ATOM      3  C2  UNL d   1      -0.636  -0.555   2.959  0.00  0.00    -0.080 A 
ATOM      4  C3  UNL d   1      -0.181  -1.202   1.814  0.00  0.00     0.150 A 
ATOM      5  C4  UNL d   1      -1.027  -1.411   0.729  0.00  0.00    -0.007 A 
ATOM      6  C5  UNL d   1      -2.348  -0.970   0.789  0.00  0.00     0.039 A 
ENDROOT
BRANCH   4   7
ATOM      7  O   UNL d   1       1.101  -1.656   1.713  0.00  0.00    -0.526 OA
ATOM      8  H5  UNL d   1       1.560  -1.467   2.548  0.00  0.00     0.418 HD
ENDBRANCH   4   7
TORSDOF 1
ENDMDL
