MODEL 1
REMARK minimizedAffinity 1.00547087
REMARK minimizedRMSD -1
REMARK  1 active torsions:
REMARK  status: ('A' for Active; 'I' for Inactive)
REMARK    1  A    between atoms: C3_4  and  O_7 
ROOT
ATOM      1  C   UNL d   1       4.141  -5.180   5.045  0.00  0.00    -0.033 A 
ATOM      2  C1  UNL d   1       5.120  -4.881   5.995  0.00  0.00     0.039 A 
ATOM      3  C2  UNL d   1       5.731  -3.626   6.000  0.00  0.00    -0.080 A 
ATOM      4  C3  UNL d   1       5.355  -2.680   5.050  0.00  0.00     0.150 A 
ATOM      5  C4  UNL d   1       4.379  -2.969   4.103  0.00  0.00    -0.007 A 
ATOM      6  C5  UNL d   1       3.769  -4.223   4.100  0.00  0.00     0.039 A 
ENDROOT
BRANCH   4   7
ATOM      7  O   UNL d   1       5.928  -1.443   5.012  0.00  0.00    -0.526 OA
ATOM      8  H5  UNL d   1       6.605  -1.396   5.707  0.00  0.00     0.418 HD
ENDBRANCH   4   7
TORSDOF 1
ENDMDL
