MODEL 1
REMARK minimizedAffinity 2.8974483
REMARK minimizedRMSD -1
REMARK  1 active torsions:
REMARK  status: ('A' for Active; 'I' for Inactive)
REMARK    1  A    between atoms: C3_4  and  O_7 
ROOT
ATOM      1  C   UNL d   1      -3.319   0.057  -3.628  0.00  0.00    -0.033 A 
ATOM      2  C1  UNL d   1      -2.611   0.774  -2.662  0.00  0.00     0.039 A 
ATOM      3  C2  UNL d   1      -2.701   2.166  -2.618  0.00  0.00    -0.080 A 
ATOM      4  C3  UNL d   1      -3.502   2.829  -3.544  0.00  0.00     0.150 A 
ATOM      5  C4  UNL d   1      -4.213   2.121  -4.507  0.00  0.00    -0.007 A 
ATOM      6  C5  UNL d   1      -4.121   0.730  -4.550  0.00  0.00     0.039 A 
ENDROOT
BRANCH   4   7
ATOM      7  O   UNL d   1      -3.617   4.187  -3.544  0.00  0.00    -0.526 OA
ATOM      8  H5  UNL d   1      -3.048   4.544  -2.842  0.00  0.00     0.418 HD
ENDBRANCH   4   7
TORSDOF 1
ENDMDL
