MODEL 1
REMARK minimizedAffinity -4.37898493
REMARK minimizedRMSD -1
REMARK  1 active torsions:
REMARK  status: ('A' for Active; 'I' for Inactive)
REMARK    1  A    between atoms: C3_4  and  O_7 
ROOT
ATOM      1  C   UNL d   1      -1.762   1.701  -1.887  0.00  0.00    -0.033 A 
ATOM      2  C1  UNL d   1      -2.755   1.423  -2.828  0.00  0.00     0.039 A 
ATOM      3  C2  UNL d   1      -3.177   2.415  -3.715  0.00  0.00    -0.080 A 
ATOM      4  C3  UNL d   1      -2.597   3.679  -3.652  0.00  0.00     0.150 A 
ATOM      5  C4  UNL d   1      -1.604   3.962  -2.719  0.00  0.00    -0.007 A 
ATOM      6  C5  UNL d   1      -1.186   2.971  -1.833  0.00  0.00     0.039 A 
ENDROOT
BRANCH   4   7
ATOM      7  O   UNL d   1      -2.978   4.681  -4.494  0.00  0.00    -0.526 OA
ATOM      8  H5  UNL d   1      -3.692   4.349  -5.064  0.00  0.00     0.418 HD
ENDBRANCH   4   7
TORSDOF 1
ENDMDL
