MODEL 1
REMARK minimizedAffinity -2.99827051
REMARK minimizedRMSD -1
REMARK  1 active torsions:
REMARK  status: ('A' for Active; 'I' for Inactive)
REMARK    1  A    between atoms: C3_4  and  O_7 
ROOT
ATOM      1  C   UNL d   1      -3.789   2.858  -3.305  0.00  0.00    -0.033 A 
ATOM      2  C1  UNL d   1      -2.850   1.871  -2.999  0.00  0.00     0.039 A 
ATOM      3  C2  UNL d   1      -1.497   2.199  -2.899  0.00  0.00    -0.080 A 
ATOM      4  C3  UNL d   1      -1.096   3.516  -3.107  0.00  0.00     0.150 A 
ATOM      5  C4  UNL d   1      -2.026   4.505  -3.408  0.00  0.00    -0.007 A 
ATOM      6  C5  UNL d   1      -3.377   4.175  -3.508  0.00  0.00     0.039 A 
ENDROOT
BRANCH   4   7
ATOM      7  O   UNL d   1       0.214   3.883  -3.025  0.00  0.00    -0.526 OA
ATOM      8  H5  UNL d   1       0.745   3.091  -2.838  0.00  0.00     0.418 HD
ENDBRANCH   4   7
TORSDOF 1
ENDMDL
