MODEL 1
REMARK minimizedAffinity 10.8090315
REMARK minimizedRMSD -1
REMARK  0 active torsions:
REMARK  status: ('A' for Active; 'I' for Inactive)
ROOT
ATOM      1  C4' PXY d   1       2.020   3.837   2.806  0.00  0.00     0.077 C 
ATOM      2  C1' PXY d   1       2.449  -0.807  -0.610  0.00  0.00     0.077 C 
ATOM      3  C1  PXY d   1       2.347   0.417   0.280  0.00  0.00    -0.082 A 
ATOM      4  C2  PXY d   1       1.764   0.317   1.463  0.00  0.00     0.003 A 
ATOM      5  C3  PXY d   1       1.634   1.421   2.267  0.00  0.00     0.003 A 
ATOM      6  C4  PXY d   1       2.154   2.626   1.878  0.00  0.00    -0.082 A 
ATOM      7  C5  PXY d   1       2.759   2.733   0.676  0.00  0.00     0.003 A 
ATOM      8  C6  PXY d   1       2.844   1.611  -0.142  0.00  0.00     0.003 A 
ENDROOT
TORSDOF 0
ENDMDL
