MODEL 1
REMARK minimizedAffinity 8.58203602
REMARK minimizedRMSD -1
REMARK  0 active torsions:
REMARK  status: ('A' for Active; 'I' for Inactive)
ROOT
ATOM      1  C4' PXY d   1       0.243  -1.058   3.016  0.00  0.00     0.077 C 
ATOM      2  C1' PXY d   1       0.549  -6.000   6.000  0.00  0.00     0.077 C 
ATOM      3  C1  PXY d   1       0.461  -4.710   5.209  0.00  0.00    -0.082 A 
ATOM      4  C2  PXY d   1       1.413  -3.799   5.334  0.00  0.00     0.003 A 
ATOM      5  C3  PXY d   1       1.333  -2.613   4.650  0.00  0.00     0.003 A 
ATOM      6  C4  PXY d   1       0.296  -2.379   3.788  0.00  0.00    -0.082 A 
ATOM      7  C5  PXY d   1      -0.674  -3.308   3.646  0.00  0.00     0.003 A 
ATOM      8  C6  PXY d   1      -0.596  -4.488   4.381  0.00  0.00     0.003 A 
ENDROOT
TORSDOF 0
ENDMDL
