MODEL 1
REMARK minimizedAffinity -1.00195503
REMARK minimizedRMSD -1
REMARK  0 active torsions:
REMARK  status: ('A' for Active; 'I' for Inactive)
ROOT
ATOM      1  C4' PXY d   1      -5.579   5.481   6.000  0.00  0.00     0.077 C 
ATOM      2  C1' PXY d   1      -4.155   5.255   0.402  0.00  0.00     0.077 C 
ATOM      3  C1  PXY d   1      -4.516   5.316   1.873  0.00  0.00    -0.082 A 
ATOM      4  C2  PXY d   1      -5.640   4.759   2.294  0.00  0.00     0.003 A 
ATOM      5  C3  PXY d   1      -5.997   4.833   3.616  0.00  0.00     0.003 A 
ATOM      6  C4  PXY d   1      -5.170   5.436   4.525  0.00  0.00    -0.082 A 
ATOM      7  C5  PXY d   1      -4.016   5.996   4.105  0.00  0.00     0.003 A 
ATOM      8  C6  PXY d   1      -3.691   5.947   2.753  0.00  0.00     0.003 A 
ENDROOT
TORSDOF 0
ENDMDL
