MODEL 1
REMARK minimizedAffinity -1.56969213
REMARK minimizedRMSD -1
REMARK  0 active torsions:
REMARK  status: ('A' for Active; 'I' for Inactive)
ROOT
ATOM      1  C4' PXY d   1      -5.999   5.999   5.875  0.00  0.00     0.077 C 
ATOM      2  C1' PXY d   1      -3.181   4.867   0.956  0.00  0.00     0.077 C 
ATOM      3  C1  PXY d   1      -3.909   5.164   2.252  0.00  0.00    -0.082 A 
ATOM      4  C2  PXY d   1      -5.195   4.871   2.362  0.00  0.00     0.003 A 
ATOM      5  C3  PXY d   1      -5.876   5.162   3.516  0.00  0.00     0.003 A 
ATOM      6  C4  PXY d   1      -5.222   5.709   4.588  0.00  0.00    -0.082 A 
ATOM      7  C5  PXY d   1      -3.908   6.000   4.487  0.00  0.00     0.003 A 
ATOM      8  C6  PXY d   1      -3.244   5.735   3.293  0.00  0.00     0.003 A 
ENDROOT
TORSDOF 0
ENDMDL
