MODEL 1
REMARK minimizedAffinity -3.11100507
REMARK minimizedRMSD -1
REMARK  0 active torsions:
REMARK  status: ('A' for Active; 'I' for Inactive)
ROOT
ATOM      1  C4' PXY d   1      -5.999   5.972   6.000  0.00  0.00     0.077 C 
ATOM      2  C1' PXY d   1      -2.559   5.671   1.363  0.00  0.00     0.077 C 
ATOM      3  C1  PXY d   1      -3.471   5.754   2.572  0.00  0.00    -0.082 A 
ATOM      4  C2  PXY d   1      -2.947   5.885   3.779  0.00  0.00     0.003 A 
ATOM      5  C3  PXY d   1      -3.755   5.930   4.886  0.00  0.00     0.003 A 
ATOM      6  C4  PXY d   1      -5.117   5.893   4.750  0.00  0.00    -0.082 A 
ATOM      7  C5  PXY d   1      -5.661   5.770   3.521  0.00  0.00     0.003 A 
ATOM      8  C6  PXY d   1      -4.821   5.685   2.414  0.00  0.00     0.003 A 
ENDROOT
TORSDOF 0
ENDMDL
