MODEL 1
REMARK minimizedAffinity -1.99099529
REMARK minimizedRMSD -1
REMARK  0 active torsions:
REMARK  status: ('A' for Active; 'I' for Inactive)
ROOT
ATOM      1  C4' PXY d   1      -5.108   5.989   6.000  0.00  0.00     0.077 C 
ATOM      2  C1' PXY d   1      -4.377   5.895   0.267  0.00  0.00     0.077 C 
ATOM      3  C1  PXY d   1      -4.556   5.915   1.772  0.00  0.00    -0.082 A 
ATOM      4  C2  PXY d   1      -5.775   5.872   2.286  0.00  0.00     0.003 A 
ATOM      5  C3  PXY d   1      -5.957   5.921   3.644  0.00  0.00     0.003 A 
ATOM      6  C4  PXY d   1      -4.879   5.962   4.486  0.00  0.00    -0.082 A 
ATOM      7  C5  PXY d   1      -3.632   5.995   3.970  0.00  0.00     0.003 A 
ATOM      8  C6  PXY d   1      -3.470   5.985   2.588  0.00  0.00     0.003 A 
ENDROOT
TORSDOF 0
ENDMDL
