MODEL 1
REMARK minimizedAffinity 4.74302578
REMARK minimizedRMSD -1
REMARK  0 active torsions:
REMARK  status: ('A' for Active; 'I' for Inactive)
ROOT
ATOM      1  C4' PXY d   1       2.945   2.616   0.422  0.00  0.00     0.077 C 
ATOM      2  C1' PXY d   1       2.636  -2.967  -1.044  0.00  0.00     0.077 C 
ATOM      3  C1  PXY d   1       2.704  -1.502  -0.661  0.00  0.00    -0.082 A 
ATOM      4  C2  PXY d   1       3.811  -0.816  -0.893  0.00  0.00     0.003 A 
ATOM      5  C3  PXY d   1       3.901   0.502  -0.523  0.00  0.00     0.003 A 
ATOM      6  C4  PXY d   1       2.828   1.137   0.042  0.00  0.00    -0.082 A 
ATOM      7  C5  PXY d   1       1.691   0.447   0.273  0.00  0.00     0.003 A 
ATOM      8  C6  PXY d   1       1.634  -0.901  -0.072  0.00  0.00     0.003 A 
ENDROOT
TORSDOF 0
ENDMDL
