MODEL 1
REMARK minimizedAffinity 5.85927868
REMARK minimizedRMSD -1
REMARK  0 active torsions:
REMARK  status: ('A' for Active; 'I' for Inactive)
ROOT
ATOM      1  C4' PXY d   1      -6.000   5.667  -0.346  0.00  0.00     0.077 C 
ATOM      2  C1' PXY d   1      -2.722   6.000   4.404  0.00  0.00     0.077 C 
ATOM      3  C1  PXY d   1      -3.591   5.906   3.165  0.00  0.00    -0.082 A 
ATOM      4  C2  PXY d   1      -3.034   5.995   1.968  0.00  0.00     0.003 A 
ATOM      5  C3  PXY d   1      -3.809   5.944   0.837  0.00  0.00     0.003 A 
ATOM      6  C4  PXY d   1      -5.161   5.747   0.932  0.00  0.00    -0.082 A 
ATOM      7  C5  PXY d   1      -5.734   5.644   2.150  0.00  0.00     0.003 A 
ATOM      8  C6  PXY d   1      -4.936   5.740   3.286  0.00  0.00     0.003 A 
ENDROOT
TORSDOF 0
ENDMDL
