MODEL 1
REMARK minimizedAffinity 9.74074173
REMARK minimizedRMSD -1
REMARK  0 active torsions:
REMARK  status: ('A' for Active; 'I' for Inactive)
ROOT
ATOM      1  C4' PXY d   1       4.321   4.371  -0.144  0.00  0.00     0.077 C 
ATOM      2  C1' PXY d   1       2.184  -0.998   0.003  0.00  0.00     0.077 C 
ATOM      3  C1  PXY d   1       2.732   0.415  -0.034  0.00  0.00    -0.082 A 
ATOM      4  C2  PXY d   1       3.910   0.645  -0.592  0.00  0.00     0.003 A 
ATOM      5  C3  PXY d   1       4.435   1.911  -0.606  0.00  0.00     0.003 A 
ATOM      6  C4  PXY d   1       3.724   2.962  -0.092  0.00  0.00    -0.082 A 
ATOM      7  C5  PXY d   1       2.517   2.737   0.469  0.00  0.00     0.003 A 
ATOM      8  C6  PXY d   1       2.020   1.438   0.511  0.00  0.00     0.003 A 
ENDROOT
TORSDOF 0
ENDMDL
