MODEL 1
REMARK minimizedAffinity -3.46414232
REMARK minimizedRMSD -1
REMARK  0 active torsions:
REMARK  status: ('A' for Active; 'I' for Inactive)
ROOT
ATOM      1  C4' PXY d   1      -4.425   5.976   6.000  0.00  0.00     0.077 C 
ATOM      2  C1' PXY d   1      -4.452   5.946   0.220  0.00  0.00     0.077 C 
ATOM      3  C1  PXY d   1      -4.432   5.949   1.735  0.00  0.00    -0.082 A 
ATOM      4  C2  PXY d   1      -5.574   5.911   2.404  0.00  0.00     0.003 A 
ATOM      5  C3  PXY d   1      -5.576   5.945   3.775  0.00  0.00     0.003 A 
ATOM      6  C4  PXY d   1      -4.396   5.965   4.469  0.00  0.00    -0.082 A 
ATOM      7  C5  PXY d   1      -3.227   5.994   3.794  0.00  0.00     0.003 A 
ATOM      8  C6  PXY d   1      -3.248   6.000   2.403  0.00  0.00     0.003 A 
ENDROOT
TORSDOF 0
ENDMDL
