MODEL 1
REMARK minimizedAffinity -1.08562124
REMARK minimizedRMSD -1
REMARK  0 active torsions:
REMARK  status: ('A' for Active; 'I' for Inactive)
ROOT
ATOM      1  C4' PXY d   1      -4.368   5.997   5.753  0.00  0.00     0.077 C 
ATOM      2  C1' PXY d   1      -5.167   5.977   0.028  0.00  0.00     0.077 C 
ATOM      3  C1  PXY d   1      -4.946   5.977   1.527  0.00  0.00    -0.082 A 
ATOM      4  C2  PXY d   1      -5.988   5.964   2.342  0.00  0.00     0.003 A 
ATOM      5  C3  PXY d   1      -5.806   5.996   3.701  0.00  0.00     0.003 A 
ATOM      6  C4  PXY d   1      -4.544   5.988   4.232  0.00  0.00    -0.082 A 
ATOM      7  C5  PXY d   1      -3.476   5.990   3.407  0.00  0.00     0.003 A 
ATOM      8  C6  PXY d   1      -3.682   5.999   2.030  0.00  0.00     0.003 A 
ENDROOT
TORSDOF 0
ENDMDL
