MODEL 1
REMARK minimizedAffinity -0.704210579
REMARK minimizedRMSD -1
REMARK  0 active torsions:
REMARK  status: ('A' for Active; 'I' for Inactive)
ROOT
ATOM      1  C   UNL d   1      -3.400   3.614  -5.985  0.00  0.00     0.172 C 
ATOM      2  N   UNL d   1      -3.666   2.199  -5.873  0.00  0.00    -0.070 N 
ATOM      3  C1  UNL d   1      -4.889   1.634  -5.627  0.00  0.00    -0.004 A 
ATOM      4  C2  UNL d   1      -4.722   0.266  -5.595  0.00  0.00    -0.047 A 
ATOM      5  C3  UNL d   1      -3.352   0.000  -5.829  0.00  0.00    -0.047 A 
ATOM      6  C4  UNL d   1      -2.721   1.214  -5.998  0.00  0.00    -0.004 A 
ENDROOT
TORSDOF 0
ENDMDL
