MODEL 1
REMARK minimizedAffinity -1.86775482
REMARK minimizedRMSD -1
REMARK  0 active torsions:
REMARK  status: ('A' for Active; 'I' for Inactive)
ROOT
ATOM      1  C   UNL d   1      -3.015   0.577  -5.958  0.00  0.00     0.172 C 
ATOM      2  N   UNL d   1      -3.512   1.933  -5.975  0.00  0.00    -0.070 N 
ATOM      3  C1  UNL d   1      -4.831   2.299  -5.986  0.00  0.00    -0.004 A 
ATOM      4  C2  UNL d   1      -4.886   3.676  -6.000  0.00  0.00    -0.047 A 
ATOM      5  C3  UNL d   1      -3.554   4.154  -5.999  0.00  0.00    -0.047 A 
ATOM      6  C4  UNL d   1      -2.723   3.053  -5.983  0.00  0.00    -0.004 A 
ENDROOT
TORSDOF 0
ENDMDL
