MODEL 1
REMARK minimizedAffinity 2.26794434
REMARK minimizedRMSD -1
REMARK  0 active torsions:
REMARK  status: ('A' for Active; 'I' for Inactive)
ROOT
ATOM      1  C   UNL d   1      -2.238  -6.000  -5.997  0.00  0.00     0.172 C 
ATOM      2  N   UNL d   1      -3.441  -5.202  -5.998  0.00  0.00    -0.070 N 
ATOM      3  C1  UNL d   1      -4.722  -5.688  -5.998  0.00  0.00    -0.004 A 
ATOM      4  C2  UNL d   1      -5.582  -4.611  -5.999  0.00  0.00    -0.047 A 
ATOM      5  C3  UNL d   1      -4.791  -3.437  -5.999  0.00  0.00    -0.047 A 
ATOM      6  C4  UNL d   1      -3.470  -3.832  -5.999  0.00  0.00    -0.004 A 
ENDROOT
TORSDOF 0
ENDMDL
