MODEL 1
REMARK minimizedAffinity -2.0601759
REMARK minimizedRMSD -1
REMARK  0 active torsions:
REMARK  status: ('A' for Active; 'I' for Inactive)
ROOT
ATOM      1  C   UNL d   1      -3.008   5.644  -5.999  0.00  0.00     0.172 C 
ATOM      2  N   UNL d   1      -3.833   4.459  -5.993  0.00  0.00    -0.070 N 
ATOM      3  C1  UNL d   1      -3.377   3.168  -5.980  0.00  0.00    -0.004 A 
ATOM      4  C2  UNL d   1      -4.472   2.333  -5.977  0.00  0.00    -0.047 A 
ATOM      5  C3  UNL d   1      -5.628   3.150  -5.989  0.00  0.00    -0.047 A 
ATOM      6  C4  UNL d   1      -5.203   4.462  -5.999  0.00  0.00    -0.004 A 
ENDROOT
TORSDOF 0
ENDMDL
