MODEL 1
REMARK minimizedAffinity -2.99220467
REMARK minimizedRMSD -1
REMARK  0 active torsions:
REMARK  status: ('A' for Active; 'I' for Inactive)
ROOT
ATOM      1  C   UNL d   1      -3.024   3.771  -6.000  0.00  0.00     0.172 C 
ATOM      2  N   UNL d   1      -3.691   2.490  -6.000  0.00  0.00    -0.070 N 
ATOM      3  C1  UNL d   1      -3.072   1.269  -6.000  0.00  0.00    -0.004 A 
ATOM      4  C2  UNL d   1      -4.052   0.300  -5.999  0.00  0.00    -0.047 A 
ATOM      5  C3  UNL d   1      -5.303   0.962  -6.000  0.00  0.00    -0.047 A 
ATOM      6  C4  UNL d   1      -5.050   2.317  -6.000  0.00  0.00    -0.004 A 
ENDROOT
TORSDOF 0
ENDMDL
