MODEL 1
REMARK minimizedAffinity -2.61422849
REMARK minimizedRMSD -1
REMARK  0 active torsions:
REMARK  status: ('A' for Active; 'I' for Inactive)
ROOT
ATOM      1  C   UNL d   1      -4.167   3.464  -5.555  0.00  0.00     0.172 C 
ATOM      2  N   UNL d   1      -4.604   2.088  -5.575  0.00  0.00    -0.070 N 
ATOM      3  C1  UNL d   1      -3.831   1.009  -5.914  0.00  0.00    -0.004 A 
ATOM      4  C2  UNL d   1      -4.613  -0.120  -5.807  0.00  0.00    -0.047 A 
ATOM      5  C3  UNL d   1      -5.901   0.294  -5.390  0.00  0.00    -0.047 A 
ATOM      6  C4  UNL d   1      -5.867   1.665  -5.254  0.00  0.00    -0.004 A 
ENDROOT
TORSDOF 0
ENDMDL
