MODEL 1
REMARK minimizedAffinity -2.47380686
REMARK minimizedRMSD -1
REMARK  0 active torsions:
REMARK  status: ('A' for Active; 'I' for Inactive)
ROOT
ATOM      1  C   UNL d   1      -5.279  -2.601  -6.000  0.00  0.00     0.172 C 
ATOM      2  N   UNL d   1      -3.945  -3.143  -5.893  0.00  0.00    -0.070 N 
ATOM      3  C1  UNL d   1      -2.804  -2.418  -5.672  0.00  0.00    -0.004 A 
ATOM      4  C2  UNL d   1      -1.745  -3.299  -5.636  0.00  0.00    -0.047 A 
ATOM      5  C3  UNL d   1      -2.267  -4.598  -5.844  0.00  0.00    -0.047 A 
ATOM      6  C4  UNL d   1      -3.631  -4.472  -6.000  0.00  0.00    -0.004 A 
ENDROOT
TORSDOF 0
ENDMDL
