MODEL 1
REMARK minimizedAffinity -2.67612791
REMARK minimizedRMSD -1
REMARK  0 active torsions:
REMARK  status: ('A' for Active; 'I' for Inactive)
ROOT
ATOM      1  C   UNL d   1      -5.887  -0.914  -5.961  0.00  0.00     0.172 C 
ATOM      2  N   UNL d   1      -5.255   0.384  -5.977  0.00  0.00    -0.070 N 
ATOM      3  C1  UNL d   1      -5.906   1.589  -5.985  0.00  0.00    -0.004 A 
ATOM      4  C2  UNL d   1      -4.952   2.584  -5.998  0.00  0.00    -0.047 A 
ATOM      5  C3  UNL d   1      -3.684   1.955  -5.999  0.00  0.00    -0.047 A 
ATOM      6  C4  UNL d   1      -3.901   0.594  -5.985  0.00  0.00    -0.004 A 
ENDROOT
TORSDOF 0
ENDMDL
