MODEL 1
REMARK minimizedAffinity -1.7843852
REMARK minimizedRMSD -1
REMARK  0 active torsions:
REMARK  status: ('A' for Active; 'I' for Inactive)
ROOT
ATOM      1  C   UNL d   1      -2.631   0.744  -5.982  0.00  0.00     0.172 C 
ATOM      2  N   UNL d   1      -3.581   1.831  -5.988  0.00  0.00    -0.070 N 
ATOM      3  C1  UNL d   1      -3.269   3.164  -5.994  0.00  0.00    -0.004 A 
ATOM      4  C2  UNL d   1      -4.450   3.874  -6.000  0.00  0.00    -0.047 A 
ATOM      5  C3  UNL d   1      -5.509   2.935  -5.996  0.00  0.00    -0.047 A 
ATOM      6  C4  UNL d   1      -4.942   1.678  -5.989  0.00  0.00    -0.004 A 
ENDROOT
TORSDOF 0
ENDMDL
