MODEL 1
REMARK minimizedAffinity -2.70890474
REMARK minimizedRMSD -1
REMARK  0 active torsions:
REMARK  status: ('A' for Active; 'I' for Inactive)
ROOT
ATOM      1  C   UNL d   1      -3.632   4.286  -5.995  0.00  0.00     0.172 C 
ATOM      2  N   UNL d   1      -3.943   2.876  -5.967  0.00  0.00    -0.070 N 
ATOM      3  C1  UNL d   1      -5.201   2.337  -5.929  0.00  0.00    -0.004 A 
ATOM      4  C2  UNL d   1      -5.072   0.965  -5.913  0.00  0.00    -0.047 A 
ATOM      5  C3  UNL d   1      -3.688   0.670  -5.940  0.00  0.00    -0.047 A 
ATOM      6  C4  UNL d   1      -3.012   1.871  -5.973  0.00  0.00    -0.004 A 
ENDROOT
TORSDOF 0
ENDMDL
