MODEL 1
REMARK minimizedAffinity -2.82253885
REMARK minimizedRMSD -1
REMARK  0 active torsions:
REMARK  status: ('A' for Active; 'I' for Inactive)
ROOT
ATOM      1  C   UNL d   1      -4.120  -0.761  -6.000  0.00  0.00     0.172 C 
ATOM      2  N   UNL d   1      -4.452   0.641  -5.891  0.00  0.00    -0.070 N 
ATOM      3  C1  UNL d   1      -3.567   1.681  -5.990  0.00  0.00    -0.004 A 
ATOM      4  C2  UNL d   1      -4.274   2.853  -5.831  0.00  0.00    -0.047 A 
ATOM      5  C3  UNL d   1      -5.631   2.505  -5.630  0.00  0.00    -0.047 A 
ATOM      6  C4  UNL d   1      -5.713   1.129  -5.671  0.00  0.00    -0.004 A 
ENDROOT
TORSDOF 0
ENDMDL
