MODEL 1
REMARK minimizedAffinity -2.6200242
REMARK minimizedRMSD -1
REMARK  0 active torsions:
REMARK  status: ('A' for Active; 'I' for Inactive)
ROOT
ATOM      1  C   UNL d   1      -5.616   0.239  -5.937  0.00  0.00     0.172 C 
ATOM      2  N   UNL d   1      -4.791   1.392  -5.660  0.00  0.00    -0.070 N 
ATOM      3  C1  UNL d   1      -5.242   2.675  -5.496  0.00  0.00    -0.004 A 
ATOM      4  C2  UNL d   1      -4.149   3.477  -5.247  0.00  0.00    -0.047 A 
ATOM      5  C3  UNL d   1      -3.002   2.648  -5.263  0.00  0.00    -0.047 A 
ATOM      6  C4  UNL d   1      -3.429   1.362  -5.521  0.00  0.00    -0.004 A 
ENDROOT
TORSDOF 0
ENDMDL
