MODEL 1
REMARK minimizedAffinity -1.27561927
REMARK minimizedRMSD -1
REMARK  0 active torsions:
REMARK  status: ('A' for Active; 'I' for Inactive)
ROOT
ATOM      1  C   UNL d   1      -3.754  -0.175  -5.979  0.00  0.00     0.172 C 
ATOM      2  N   UNL d   1      -3.747   1.269  -5.984  0.00  0.00    -0.070 N 
ATOM      3  C1  UNL d   1      -2.631   2.061  -5.974  0.00  0.00    -0.004 A 
ATOM      4  C2  UNL d   1      -3.046   3.376  -5.984  0.00  0.00    -0.047 A 
ATOM      5  C3  UNL d   1      -4.461   3.372  -6.000  0.00  0.00    -0.047 A 
ATOM      6  C4  UNL d   1      -4.869   2.055  -6.000  0.00  0.00    -0.004 A 
ENDROOT
TORSDOF 0
ENDMDL
