MODEL 1
REMARK minimizedAffinity 0.2615484
REMARK minimizedRMSD -1
REMARK  1 active torsions:
REMARK  status: ('A' for Active; 'I' for Inactive)
REMARK    1  A    between atoms: N_2  and  C1_3 
ROOT
ATOM      1  C1  UNL d   1       2.192  -1.997   3.565  0.00  0.00     0.143 A 
ATOM      2  C2  UNL d   1       1.236  -3.018   3.555  0.00  0.00    -0.057 A 
ATOM      3  C3  UNL d   1       1.552  -4.313   3.984  0.00  0.00     0.033 A 
ATOM      4  C4  UNL d   1       2.842  -4.617   4.405  0.00  0.00    -0.042 A 
ATOM      5  C5  UNL d   1       3.815  -3.624   4.400  0.00  0.00     0.033 A 
ATOM      6  C6  UNL d   1       3.492  -2.331   3.976  0.00  0.00    -0.057 A 
ENDROOT
BRANCH   1   7
ATOM      7  N   UNL d   1       1.966  -0.715   3.058  0.00  0.00    -0.732 N 
ATOM      8  C   UNL d   1       2.939  -0.082   2.194  0.00  0.00     0.284 C 
ATOM      9  H3  UNL d   1       1.000  -0.577   2.768  0.00  0.00     0.395 HD
ENDBRANCH   1   7
TORSDOF 1
ENDMDL
