MODEL 1
REMARK minimizedAffinity 7.97448254
REMARK minimizedRMSD -1
REMARK  1 active torsions:
REMARK  status: ('A' for Active; 'I' for Inactive)
REMARK    1  A    between atoms: N_2  and  C1_3 
ROOT
ATOM      1  C1  UNL d   1       2.030  -0.063   1.895  0.00  0.00     0.143 A 
ATOM      2  C2  UNL d   1       2.194   1.031   2.751  0.00  0.00    -0.057 A 
ATOM      3  C3  UNL d   1       2.839   2.198   2.322  0.00  0.00     0.033 A 
ATOM      4  C4  UNL d   1       3.359   2.279   1.034  0.00  0.00    -0.042 A 
ATOM      5  C5  UNL d   1       3.229   1.194   0.174  0.00  0.00     0.033 A 
ATOM      6  C6  UNL d   1       2.578   0.034   0.606  0.00  0.00    -0.057 A 
ENDROOT
BRANCH   1   7
ATOM      7  N   UNL d   1       1.485  -1.287   2.293  0.00  0.00    -0.732 N 
ATOM      8  C   UNL d   1       1.839  -1.871   3.569  0.00  0.00     0.284 C 
ATOM      9  H3  UNL d   1       0.498  -1.367   2.059  0.00  0.00     0.395 HD
ENDBRANCH   1   7
TORSDOF 1
ENDMDL
