MODEL 1
REMARK minimizedAffinity -4.1192832
REMARK minimizedRMSD -1
REMARK  1 active torsions:
REMARK  status: ('A' for Active; 'I' for Inactive)
REMARK    1  A    between atoms: N_2  and  C1_3 
ROOT
ATOM      1  C1  UNL d   1       0.483  -2.671   1.573  0.00  0.00     0.143 A 
ATOM      2  C2  UNL d   1       1.000  -2.433   2.851  0.00  0.00    -0.057 A 
ATOM      3  C3  UNL d   1       1.862  -3.347   3.468  0.00  0.00     0.033 A 
ATOM      4  C4  UNL d   1       2.201  -4.534   2.826  0.00  0.00    -0.042 A 
ATOM      5  C5  UNL d   1       1.680  -4.803   1.566  0.00  0.00     0.033 A 
ATOM      6  C6  UNL d   1       0.824  -3.883   0.953  0.00  0.00    -0.057 A 
ENDROOT
BRANCH   1   7
ATOM      7  N   UNL d   1      -0.457  -1.847   0.948  0.00  0.00    -0.732 N 
ATOM      8  C   UNL d   1      -1.367  -2.385  -0.039  0.00  0.00     0.284 C 
ATOM      9  H3  UNL d   1      -0.885  -1.188   1.594  0.00  0.00     0.395 HD
ENDBRANCH   1   7
TORSDOF 1
ENDMDL
