MODEL 1
REMARK minimizedAffinity 3.55723619
REMARK minimizedRMSD -1
REMARK  1 active torsions:
REMARK  status: ('A' for Active; 'I' for Inactive)
REMARK    1  A    between atoms: N_2  and  C1_3 
ROOT
ATOM      1  C1  UNL d   1       1.119  -2.280   2.013  0.00  0.00     0.143 A 
ATOM      2  C2  UNL d   1       1.694  -1.815   3.200  0.00  0.00    -0.057 A 
ATOM      3  C3  UNL d   1       2.465  -2.656   4.012  0.00  0.00     0.033 A 
ATOM      4  C4  UNL d   1       2.650  -3.990   3.664  0.00  0.00    -0.042 A 
ATOM      5  C5  UNL d   1       2.067  -4.480   2.501  0.00  0.00     0.033 A 
ATOM      6  C6  UNL d   1       1.304  -3.633   1.691  0.00  0.00    -0.057 A 
ENDROOT
BRANCH   1   7
ATOM      7  N   UNL d   1       0.262  -1.519   1.214  0.00  0.00    -0.732 N 
ATOM      8  C   UNL d   1      -0.973  -2.084   0.712  0.00  0.00     0.284 C 
ATOM      9  H3  UNL d   1       0.178  -0.559   1.539  0.00  0.00     0.395 HD
ENDBRANCH   1   7
TORSDOF 1
ENDMDL
