MODEL 1
REMARK minimizedAffinity 4.84698343
REMARK minimizedRMSD -1
REMARK  1 active torsions:
REMARK  status: ('A' for Active; 'I' for Inactive)
REMARK    1  A    between atoms: N_2  and  C1_3 
ROOT
ATOM      1  C1  UNL d   1       3.622  -2.041   4.488  0.00  0.00     0.143 A 
ATOM      2  C2  UNL d   1       2.410  -2.200   5.169  0.00  0.00    -0.057 A 
ATOM      3  C3  UNL d   1       1.196  -1.808   4.591  0.00  0.00     0.033 A 
ATOM      4  C4  UNL d   1       1.177  -1.222   3.330  0.00  0.00    -0.042 A 
ATOM      5  C5  UNL d   1       2.372  -1.032   2.645  0.00  0.00     0.033 A 
ATOM      6  C6  UNL d   1       3.580  -1.431   3.225  0.00  0.00    -0.057 A 
ENDROOT
BRANCH   1   7
ATOM      7  N   UNL d   1       4.871  -2.320   5.049  0.00  0.00    -0.732 N 
ATOM      8  C   UNL d   1       5.996  -2.667   4.207  0.00  0.00     0.284 C 
ATOM      9  H3  UNL d   1       5.103  -1.691   5.814  0.00  0.00     0.395 HD
ENDBRANCH   1   7
TORSDOF 1
ENDMDL
