MODEL 1
REMARK minimizedAffinity 5.38716602
REMARK minimizedRMSD -1
REMARK  1 active torsions:
REMARK  status: ('A' for Active; 'I' for Inactive)
REMARK    1  A    between atoms: N_2  and  C1_3 
ROOT
ATOM      1  C1  UNL d   1       2.387   0.000   1.374  0.00  0.00     0.143 A 
ATOM      2  C2  UNL d   1       1.064  -0.450   1.309  0.00  0.00    -0.057 A 
ATOM      3  C3  UNL d   1       0.636  -1.556   2.052  0.00  0.00     0.033 A 
ATOM      4  C4  UNL d   1       1.534  -2.252   2.854  0.00  0.00    -0.042 A 
ATOM      5  C5  UNL d   1       2.860  -1.838   2.915  0.00  0.00     0.033 A 
ATOM      6  C6  UNL d   1       3.280  -0.728   2.175  0.00  0.00    -0.057 A 
ENDROOT
BRANCH   1   7
ATOM      7  N   UNL d   1       2.896   1.034   0.584  0.00  0.00    -0.732 N 
ATOM      8  C   UNL d   1       2.487   2.404   0.808  0.00  0.00     0.284 C 
ATOM      9  H3  UNL d   1       3.889   0.922   0.392  0.00  0.00     0.395 HD
ENDBRANCH   1   7
TORSDOF 1
ENDMDL
