MODEL 1
REMARK minimizedAffinity 14.1117144
REMARK minimizedRMSD -1
REMARK  1 active torsions:
REMARK  status: ('A' for Active; 'I' for Inactive)
REMARK    1  A    between atoms: C1_2  and  C2_3 
ROOT
ATOM      1  C2  UNL d   1       2.483   1.191   0.467  0.00  0.00    -0.073 A 
ATOM      2  C3  UNL d   1       3.662   0.571   0.895  0.00  0.00    -0.002 A 
ATOM      3  C4  UNL d   1       3.838   0.244   2.241  0.00  0.00     0.004 A 
ATOM      4  C5  UNL d   1       2.835   0.526   3.168  0.00  0.00    -0.004 A 
ATOM      5  C6  UNL d   1       1.645   1.134   2.757  0.00  0.00    -0.075 A 
ATOM      6  C7  UNL d   1       0.557   1.446   3.743  0.00  0.00     0.076 C 
ATOM      7  C8  UNL d   1       1.477   1.463   1.405  0.00  0.00     0.001 A 
ENDROOT
BRANCH   1   8
ATOM      8  C1  UNL d   1       2.287   1.541  -0.986  0.00  0.00     0.053 C 
ATOM      9  C   UNL d   1       3.575   2.019  -1.636  0.00  0.00     0.018 C 
ENDBRANCH   1   8
TORSDOF 1
ENDMDL
