MODEL 1
REMARK minimizedAffinity 9.33592606
REMARK minimizedRMSD -1
REMARK  1 active torsions:
REMARK  status: ('A' for Active; 'I' for Inactive)
REMARK    1  A    between atoms: C1_2  and  C2_3 
ROOT
ATOM      1  C2  UNL d   1       4.039   0.334  -0.006  0.00  0.00    -0.073 A 
ATOM      2  C3  UNL d   1       4.914  -0.435   0.769  0.00  0.00    -0.002 A 
ATOM      3  C4  UNL d   1       4.550  -0.837   2.054  0.00  0.00     0.004 A 
ATOM      4  C5  UNL d   1       3.306  -0.480   2.575  0.00  0.00    -0.004 A 
ATOM      5  C6  UNL d   1       2.413   0.278   1.812  0.00  0.00    -0.075 A 
ATOM      6  C7  UNL d   1       1.072   0.672   2.358  0.00  0.00     0.076 C 
ATOM      7  C8  UNL d   1       2.787   0.680   0.522  0.00  0.00     0.001 A 
ENDROOT
BRANCH   1   8
ATOM      8  C1  UNL d   1       4.426   0.764  -1.398  0.00  0.00     0.053 C 
ATOM      9  C   UNL d   1       3.702   2.032  -1.824  0.00  0.00     0.018 C 
ENDBRANCH   1   8
TORSDOF 1
ENDMDL
