MODEL 1
REMARK minimizedAffinity 13.5738525
REMARK minimizedRMSD -1
REMARK  1 active torsions:
REMARK  status: ('A' for Active; 'I' for Inactive)
REMARK    1  A    between atoms: C1_2  and  C2_3 
ROOT
ATOM      1  C2  UNL d   1      -1.163  -4.108  -3.764  0.00  0.00    -0.073 A 
ATOM      2  C3  UNL d   1      -1.696  -2.815  -3.823  0.00  0.00    -0.002 A 
ATOM      3  C4  UNL d   1      -2.974  -2.556  -3.325  0.00  0.00     0.004 A 
ATOM      4  C5  UNL d   1      -3.728  -3.584  -2.758  0.00  0.00    -0.004 A 
ATOM      5  C6  UNL d   1      -3.208  -4.879  -2.679  0.00  0.00    -0.075 A 
ATOM      6  C7  UNL d   1      -4.007  -5.996  -2.074  0.00  0.00     0.076 C 
ATOM      7  C8  UNL d   1      -1.925  -5.132  -3.183  0.00  0.00     0.001 A 
ENDROOT
BRANCH   1   8
ATOM      8  C1  UNL d   1       0.219  -4.391  -4.294  0.00  0.00     0.053 C 
ATOM      9  C   UNL d   1       0.428  -5.869  -4.580  0.00  0.00     0.018 C 
ENDBRANCH   1   8
TORSDOF 1
ENDMDL
