MODEL 1
REMARK minimizedAffinity 14.9495649
REMARK minimizedRMSD -1
REMARK  1 active torsions:
REMARK  status: ('A' for Active; 'I' for Inactive)
REMARK    1  A    between atoms: C1_2  and  C2_3 
ROOT
ATOM      1  C2  UNL d   1      -3.806  -4.702  -2.435  0.00  0.00    -0.073 A 
ATOM      2  C3  UNL d   1      -4.057  -3.328  -2.525  0.00  0.00    -0.002 A 
ATOM      3  C4  UNL d   1      -3.082  -2.464  -3.024  0.00  0.00     0.004 A 
ATOM      4  C5  UNL d   1      -1.850  -2.964  -3.444  0.00  0.00    -0.004 A 
ATOM      5  C6  UNL d   1      -1.584  -4.335  -3.373  0.00  0.00    -0.075 A 
ATOM      6  C7  UNL d   1      -0.262  -4.889  -3.819  0.00  0.00     0.076 C 
ATOM      7  C8  UNL d   1      -2.567  -5.196  -2.868  0.00  0.00     0.001 A 
ENDROOT
BRANCH   1   8
ATOM      8  C1  UNL d   1      -4.858  -5.640  -1.902  0.00  0.00     0.053 C 
ATOM      9  C   UNL d   1      -5.998  -5.836  -2.889  0.00  0.00     0.018 C 
ENDBRANCH   1   8
TORSDOF 1
ENDMDL
