MODEL 1
REMARK minimizedAffinity 14.0519323
REMARK minimizedRMSD -1
REMARK  1 active torsions:
REMARK  status: ('A' for Active; 'I' for Inactive)
REMARK    1  A    between atoms: C1_2  and  C2_3 
ROOT
ATOM      1  C2  UNL d   1       0.544   0.126   1.731  0.00  0.00    -0.073 A 
ATOM      2  C3  UNL d   1       0.432  -0.194   3.088  0.00  0.00    -0.002 A 
ATOM      3  C4  UNL d   1      -0.495  -1.145   3.515  0.00  0.00     0.004 A 
ATOM      4  C5  UNL d   1      -1.315  -1.791   2.589  0.00  0.00    -0.004 A 
ATOM      5  C6  UNL d   1      -1.209  -1.494   1.226  0.00  0.00    -0.075 A 
ATOM      6  C7  UNL d   1      -2.085  -2.178   0.217  0.00  0.00     0.076 C 
ATOM      7  C8  UNL d   1      -0.277  -0.535   0.806  0.00  0.00     0.001 A 
ENDROOT
BRANCH   1   8
ATOM      8  C1  UNL d   1       1.549   1.147   1.265  0.00  0.00     0.053 C 
ATOM      9  C   UNL d   1       2.862   0.506   0.844  0.00  0.00     0.018 C 
ENDBRANCH   1   8
TORSDOF 1
ENDMDL
