MODEL 1
REMARK minimizedAffinity 23.2991257
REMARK minimizedRMSD -1
REMARK  1 active torsions:
REMARK  status: ('A' for Active; 'I' for Inactive)
REMARK    1  A    between atoms: C1_2  and  C2_3 
ROOT
ATOM      1  C2  UNL d   1      -3.273  -3.358  -2.043  0.00  0.00    -0.073 A 
ATOM      2  C3  UNL d   1      -3.547  -4.676  -1.661  0.00  0.00    -0.002 A 
ATOM      3  C4  UNL d   1      -4.615  -5.369  -2.234  0.00  0.00     0.004 A 
ATOM      4  C5  UNL d   1      -5.414  -4.754  -3.198  0.00  0.00    -0.004 A 
ATOM      5  C6  UNL d   1      -5.149  -3.442  -3.602  0.00  0.00    -0.075 A 
ATOM      6  C7  UNL d   1      -6.000  -2.766  -4.636  0.00  0.00     0.076 C 
ATOM      7  C8  UNL d   1      -4.076  -2.752  -3.020  0.00  0.00     0.001 A 
ENDROOT
BRANCH   1   8
ATOM      8  C1  UNL d   1      -2.117  -2.609  -1.433  0.00  0.00     0.053 C 
ATOM      9  C   UNL d   1      -2.214  -2.549   0.083  0.00  0.00     0.018 C 
ENDBRANCH   1   8
TORSDOF 1
ENDMDL
