MODEL 1
REMARK minimizedAffinity 15.3045053
REMARK minimizedRMSD -1
REMARK  1 active torsions:
REMARK  status: ('A' for Active; 'I' for Inactive)
REMARK    1  A    between atoms: C1_2  and  C2_3 
ROOT
ATOM      1  C2  UNL d   1      -4.550   2.959   3.798  0.00  0.00    -0.073 A 
ATOM      2  C3  UNL d   1      -4.931   3.221   2.477  0.00  0.00    -0.002 A 
ATOM      3  C4  UNL d   1      -5.655   4.374   2.168  0.00  0.00     0.004 A 
ATOM      4  C5  UNL d   1      -5.999   5.277   3.173  0.00  0.00    -0.004 A 
ATOM      5  C6  UNL d   1      -5.617   5.039   4.498  0.00  0.00    -0.075 A 
ATOM      6  C7  UNL d   1      -5.981   6.000   5.591  0.00  0.00     0.076 C 
ATOM      7  C8  UNL d   1      -4.893   3.878   4.800  0.00  0.00     0.001 A 
ENDROOT
BRANCH   1   8
ATOM      8  C1  UNL d   1      -3.763   1.719   4.136  0.00  0.00     0.053 C 
ATOM      9  C   UNL d   1      -4.526   0.449   3.795  0.00  0.00     0.018 C 
ENDBRANCH   1   8
TORSDOF 1
ENDMDL
