MODEL 1
REMARK minimizedAffinity 16.2984524
REMARK minimizedRMSD -1
REMARK  1 active torsions:
REMARK  status: ('A' for Active; 'I' for Inactive)
REMARK    1  A    between atoms: C1_2  and  C2_3 
ROOT
ATOM      1  C2  UNL d   1       3.270   1.928  -1.216  0.00  0.00    -0.073 A 
ATOM      2  C3  UNL d   1       3.973   0.719  -1.250  0.00  0.00    -0.002 A 
ATOM      3  C4  UNL d   1       3.754  -0.251  -0.271  0.00  0.00     0.004 A 
ATOM      4  C5  UNL d   1       2.826  -0.026   0.745  0.00  0.00    -0.004 A 
ATOM      5  C6  UNL d   1       2.104   1.171   0.789  0.00  0.00    -0.075 A 
ATOM      6  C7  UNL d   1       1.103   1.429   1.877  0.00  0.00     0.076 C 
ATOM      7  C8  UNL d   1       2.332   2.142  -0.196  0.00  0.00     0.001 A 
ENDROOT
BRANCH   1   8
ATOM      8  C1  UNL d   1       3.498   2.976  -2.275  0.00  0.00     0.053 C 
ATOM      9  C   UNL d   1       2.214   3.343  -3.001  0.00  0.00     0.018 C 
ENDBRANCH   1   8
TORSDOF 1
ENDMDL
