MODEL 1
REMARK minimizedAffinity 17.5987282
REMARK minimizedRMSD -1
REMARK  1 active torsions:
REMARK  status: ('A' for Active; 'I' for Inactive)
REMARK    1  A    between atoms: C1_2  and  C2_3 
ROOT
ATOM      1  C2  UNL d   1       3.192   1.251   1.069  0.00  0.00    -0.073 A 
ATOM      2  C3  UNL d   1       3.561   0.094   1.765  0.00  0.00    -0.002 A 
ATOM      3  C4  UNL d   1       4.640  -0.676   1.330  0.00  0.00     0.004 A 
ATOM      4  C5  UNL d   1       5.365  -0.295   0.201  0.00  0.00    -0.004 A 
ATOM      5  C6  UNL d   1       5.019   0.864  -0.501  0.00  0.00    -0.075 A 
ATOM      6  C7  UNL d   1       5.787   1.287  -1.719  0.00  0.00     0.076 C 
ATOM      7  C8  UNL d   1       3.932   1.631  -0.060  0.00  0.00     0.001 A 
ENDROOT
BRANCH   1   8
ATOM      8  C1  UNL d   1       2.031   2.089   1.538  0.00  0.00     0.053 C 
ATOM      9  C   UNL d   1       1.268   1.423   2.672  0.00  0.00     0.018 C 
ENDBRANCH   1   8
TORSDOF 1
ENDMDL
