MODEL 1
REMARK minimizedAffinity 17.6576023
REMARK minimizedRMSD -1
REMARK  1 active torsions:
REMARK  status: ('A' for Active; 'I' for Inactive)
REMARK    1  A    between atoms: C1_2  and  C2_3 
ROOT
ATOM      1  C2  UNL d   1      -1.055  -4.915  -3.310  0.00  0.00    -0.073 A 
ATOM      2  C3  UNL d   1      -1.869  -6.000  -2.965  0.00  0.00    -0.002 A 
ATOM      3  C4  UNL d   1      -3.007  -5.805  -2.181  0.00  0.00     0.004 A 
ATOM      4  C5  UNL d   1      -3.347  -4.526  -1.742  0.00  0.00    -0.004 A 
ATOM      5  C6  UNL d   1      -2.552  -3.428  -2.087  0.00  0.00    -0.075 A 
ATOM      6  C7  UNL d   1      -2.902  -2.045  -1.620  0.00  0.00     0.076 C 
ATOM      7  C8  UNL d   1      -1.409  -3.632  -2.871  0.00  0.00     0.001 A 
ENDROOT
BRANCH   1   8
ATOM      8  C1  UNL d   1       0.172  -5.120  -4.161  0.00  0.00     0.053 C 
ATOM      9  C   UNL d   1       1.295  -4.167  -3.781  0.00  0.00     0.018 C 
ENDBRANCH   1   8
TORSDOF 1
ENDMDL
