MODEL 1
REMARK minimizedAffinity -3.13706088
REMARK minimizedRMSD -1
REMARK  0 active torsions:
REMARK  status: ('A' for Active; 'I' for Inactive)
ROOT
ATOM      1  C   UNL d   1       0.391  -0.056  -1.610  0.00  0.00     0.078 C 
ATOM      2  C1  UNL d   1      -0.099   0.276  -0.232  0.00  0.00    -0.077 A 
ATOM      3  C2  UNL d   1      -1.274  -0.294   0.273  0.00  0.00    -0.001 A 
ATOM      4  C3  UNL d   1      -1.722   0.031   1.554  0.00  0.00     0.003 A 
ATOM      5  C4  UNL d   1      -1.003   0.929   2.340  0.00  0.00    -0.005 A 
ATOM      6  C5  UNL d   1       0.166   1.504   1.845  0.00  0.00     0.003 A 
ATOM      7  C6  UNL d   1       0.616   1.180   0.565  0.00  0.00    -0.001 A 
ENDROOT
TORSDOF 0
ENDMDL
