MODEL 1
REMARK minimizedAffinity -4.94887733
REMARK minimizedRMSD -1
REMARK  0 active torsions:
REMARK  status: ('A' for Active; 'I' for Inactive)
ROOT
ATOM      1  C   UNL d   1       0.733   1.532  -4.158  0.00  0.00     0.078 C 
ATOM      2  C1  UNL d   1       0.114   0.169  -4.068  0.00  0.00    -0.077 A 
ATOM      3  C2  UNL d   1       0.780  -0.885  -3.429  0.00  0.00    -0.001 A 
ATOM      4  C3  UNL d   1       0.195  -2.151  -3.361  0.00  0.00     0.003 A 
ATOM      5  C4  UNL d   1      -1.056  -2.375  -3.930  0.00  0.00    -0.005 A 
ATOM      6  C5  UNL d   1      -1.725  -1.333  -4.570  0.00  0.00     0.003 A 
ATOM      7  C6  UNL d   1      -1.143  -0.067  -4.639  0.00  0.00    -0.001 A 
ENDROOT
TORSDOF 0
ENDMDL
