MODEL 1
REMARK minimizedAffinity -4.09143305
REMARK minimizedRMSD -1
REMARK  0 active torsions:
REMARK  status: ('A' for Active; 'I' for Inactive)
ROOT
ATOM      1  C   UNL d   1       0.334  -0.159  -1.629  0.00  0.00     0.078 C 
ATOM      2  C1  UNL d   1      -0.238   0.212  -0.293  0.00  0.00    -0.077 A 
ATOM      3  C2  UNL d   1      -1.622   0.313  -0.104  0.00  0.00    -0.001 A 
ATOM      4  C3  UNL d   1      -2.140   0.668   1.142  0.00  0.00     0.003 A 
ATOM      5  C4  UNL d   1      -1.282   0.927   2.209  0.00  0.00    -0.005 A 
ATOM      6  C5  UNL d   1       0.096   0.831   2.030  0.00  0.00     0.003 A 
ATOM      7  C6  UNL d   1       0.616   0.476   0.785  0.00  0.00    -0.001 A 
ENDROOT
TORSDOF 0
ENDMDL
