MODEL 1
REMARK minimizedAffinity -5.09038687
REMARK minimizedRMSD -1
REMARK  0 active torsions:
REMARK  status: ('A' for Active; 'I' for Inactive)
ROOT
ATOM      1  C   UNL d   1      -0.747   1.484   3.010  0.00  0.00     0.078 C 
ATOM      2  C1  UNL d   1      -0.166   0.789   1.815  0.00  0.00    -0.077 A 
ATOM      3  C2  UNL d   1       1.103   0.201   1.869  0.00  0.00    -0.001 A 
ATOM      4  C3  UNL d   1       1.635  -0.434   0.745  0.00  0.00     0.003 A 
ATOM      5  C4  UNL d   1       0.904  -0.486  -0.440  0.00  0.00    -0.005 A 
ATOM      6  C5  UNL d   1      -0.359   0.098  -0.504  0.00  0.00     0.003 A 
ATOM      7  C6  UNL d   1      -0.892   0.734   0.619  0.00  0.00    -0.001 A 
ENDROOT
TORSDOF 0
ENDMDL
