MODEL 1
REMARK minimizedAffinity -2.02404451
REMARK minimizedRMSD -1
REMARK  0 active torsions:
REMARK  status: ('A' for Active; 'I' for Inactive)
ROOT
ATOM      1  C   UNL d   1      -1.576  -0.672   3.314  0.00  0.00     0.078 C 
ATOM      2  C1  UNL d   1      -0.708   0.076   2.346  0.00  0.00    -0.077 A 
ATOM      3  C2  UNL d   1      -0.010   1.224   2.741  0.00  0.00    -0.001 A 
ATOM      4  C3  UNL d   1       0.786   1.915   1.827  0.00  0.00     0.003 A 
ATOM      5  C4  UNL d   1       0.891   1.468   0.511  0.00  0.00    -0.005 A 
ATOM      6  C5  UNL d   1       0.198   0.328   0.109  0.00  0.00     0.003 A 
ATOM      7  C6  UNL d   1      -0.599  -0.365   1.021  0.00  0.00    -0.001 A 
ENDROOT
TORSDOF 0
ENDMDL
