MODEL 1
REMARK minimizedAffinity -2.28014612
REMARK minimizedRMSD -1
REMARK  0 active torsions:
REMARK  status: ('A' for Active; 'I' for Inactive)
ROOT
ATOM      1  C   UNL d   1      -3.383   0.873  -0.329  0.00  0.00     0.078 C 
ATOM      2  C1  UNL d   1      -2.097   0.653   0.411  0.00  0.00    -0.077 A 
ATOM      3  C2  UNL d   1      -2.051   0.708   1.809  0.00  0.00    -0.001 A 
ATOM      4  C3  UNL d   1      -0.845   0.512   2.484  0.00  0.00     0.003 A 
ATOM      5  C4  UNL d   1       0.324   0.260   1.769  0.00  0.00    -0.005 A 
ATOM      6  C5  UNL d   1       0.288   0.206   0.377  0.00  0.00     0.003 A 
ATOM      7  C6  UNL d   1      -0.916   0.402  -0.300  0.00  0.00    -0.001 A 
ENDROOT
TORSDOF 0
ENDMDL
