MODEL 1
REMARK minimizedAffinity -4.42383099
REMARK minimizedRMSD -1
REMARK  0 active torsions:
REMARK  status: ('A' for Active; 'I' for Inactive)
ROOT
ATOM      1  C   UNL d   1       0.436  -0.362  -1.121  0.00  0.00     0.078 C 
ATOM      2  C1  UNL d   1      -0.041  -0.223   0.294  0.00  0.00    -0.077 A 
ATOM      3  C2  UNL d   1       0.747  -0.656   1.367  0.00  0.00    -0.001 A 
ATOM      4  C3  UNL d   1       0.286  -0.529   2.678  0.00  0.00     0.003 A 
ATOM      5  C4  UNL d   1      -0.966   0.030   2.929  0.00  0.00    -0.005 A 
ATOM      6  C5  UNL d   1      -1.758   0.462   1.868  0.00  0.00     0.003 A 
ATOM      7  C6  UNL d   1      -1.299   0.336   0.556  0.00  0.00    -0.001 A 
ENDROOT
TORSDOF 0
ENDMDL
