MODEL 1
REMARK minimizedAffinity -4.92670107
REMARK minimizedRMSD -1
REMARK  0 active torsions:
REMARK  status: ('A' for Active; 'I' for Inactive)
ROOT
ATOM      1  C   UNL d   1       0.391  -0.670  -0.654  0.00  0.00     0.078 C 
ATOM      2  C1  UNL d   1      -0.229   0.171   0.422  0.00  0.00    -0.077 A 
ATOM      3  C2  UNL d   1      -1.428  -0.211   1.035  0.00  0.00    -0.001 A 
ATOM      4  C3  UNL d   1      -1.998   0.586   2.029  0.00  0.00     0.003 A 
ATOM      5  C4  UNL d   1      -1.377   1.772   2.417  0.00  0.00    -0.005 A 
ATOM      6  C5  UNL d   1      -0.185   2.162   1.811  0.00  0.00     0.003 A 
ATOM      7  C6  UNL d   1       0.387   1.365   0.817  0.00  0.00    -0.001 A 
ENDROOT
TORSDOF 0
ENDMDL
