MODEL 1
REMARK minimizedAffinity -5.22463751
REMARK minimizedRMSD -1
REMARK  0 active torsions:
REMARK  status: ('A' for Active; 'I' for Inactive)
ROOT
ATOM      1  C   UNL d   1       0.744  -1.515  -0.567  0.00  0.00     0.078 C 
ATOM      2  C1  UNL d   1       0.080  -0.532   0.350  0.00  0.00    -0.077 A 
ATOM      3  C2  UNL d   1      -1.305  -0.333   0.314  0.00  0.00    -0.001 A 
ATOM      4  C3  UNL d   1      -1.909   0.593   1.166  0.00  0.00     0.003 A 
ATOM      5  C4  UNL d   1      -1.134   1.329   2.061  0.00  0.00    -0.005 A 
ATOM      6  C5  UNL d   1       0.246   1.140   2.103  0.00  0.00     0.003 A 
ATOM      7  C6  UNL d   1       0.851   0.214   1.251  0.00  0.00    -0.001 A 
ENDROOT
TORSDOF 0
ENDMDL
