MODEL 1
REMARK minimizedAffinity -5.52003479
REMARK minimizedRMSD -1
REMARK  0 active torsions:
REMARK  status: ('A' for Active; 'I' for Inactive)
ROOT
ATOM      1  C   UNL d   1       0.161  -0.055  -1.070  0.00  0.00     0.078 C 
ATOM      2  C1  UNL d   1      -0.173   0.397   0.320  0.00  0.00    -0.077 A 
ATOM      3  C2  UNL d   1       0.691   1.238   1.032  0.00  0.00    -0.001 A 
ATOM      4  C3  UNL d   1       0.372   1.643   2.329  0.00  0.00     0.003 A 
ATOM      5  C4  UNL d   1      -0.811   1.212   2.926  0.00  0.00    -0.005 A 
ATOM      6  C5  UNL d   1      -1.677   0.374   2.225  0.00  0.00     0.003 A 
ATOM      7  C6  UNL d   1      -1.359  -0.032   0.928  0.00  0.00    -0.001 A 
ENDROOT
TORSDOF 0
ENDMDL
