MODEL 1
REMARK minimizedAffinity 8.23082733
REMARK minimizedRMSD -1
REMARK  0 active torsions:
REMARK  status: ('A' for Active; 'I' for Inactive)
ROOT
ATOM      1  O1  BZF d   1       0.541   2.056  -2.522  0.00  0.00    -0.204 OA
ATOM      2  C2  BZF d   1       0.445   0.678  -2.540  0.00  0.00     0.174 A 
ATOM      3  C3  BZF d   1       0.138   0.204  -1.315  0.00  0.00    -0.012 A 
ATOM      4  C3A BZF d   1      -0.055   1.364  -0.500  0.00  0.00    -0.107 A 
ATOM      5  C4  BZF d   1      -0.393   1.545   0.810  0.00  0.00     0.055 A 
ATOM      6  C5  BZF d   1      -0.427   2.806   1.316  0.00  0.00    -0.016 A 
ATOM      7  C6  BZF d   1      -0.123   3.906   0.542  0.00  0.00     0.022 A 
ATOM      8  C7  BZF d   1       0.213   3.778  -0.765  0.00  0.00     0.029 A 
ATOM      9  C7A BZF d   1       0.216   2.507  -1.287  0.00  0.00     0.058 A 
ENDROOT
TORSDOF 0
ENDMDL
