MODEL 1
REMARK minimizedAffinity 4.19716263
REMARK minimizedRMSD -1
REMARK  0 active torsions:
REMARK  status: ('A' for Active; 'I' for Inactive)
ROOT
ATOM      1  O1  BZF d   1      -0.222   1.112   0.228  0.00  0.00    -0.204 OA
ATOM      2  C2  BZF d   1      -1.113   1.012   1.279  0.00  0.00     0.174 A 
ATOM      3  C3  BZF d   1      -1.607   2.224   1.604  0.00  0.00    -0.012 A 
ATOM      4  C3A BZF d   1      -1.056   3.126   0.640  0.00  0.00    -0.107 A 
ATOM      5  C4  BZF d   1      -1.187   4.469   0.428  0.00  0.00     0.055 A 
ATOM      6  C5  BZF d   1      -0.456   5.056  -0.556  0.00  0.00    -0.016 A 
ATOM      7  C6  BZF d   1       0.417   4.334  -1.342  0.00  0.00     0.022 A 
ATOM      8  C7  BZF d   1       0.576   2.998  -1.173  0.00  0.00     0.029 A 
ATOM      9  C7A BZF d   1      -0.185   2.396  -0.201  0.00  0.00     0.058 A 
ENDROOT
TORSDOF 0
ENDMDL
