MODEL 1
REMARK minimizedAffinity 5.53063774
REMARK minimizedRMSD -1
REMARK  0 active torsions:
REMARK  status: ('A' for Active; 'I' for Inactive)
ROOT
ATOM      1  O1  BZF d   1      -2.015   1.316   3.272  0.00  0.00    -0.204 OA
ATOM      2  C2  BZF d   1      -3.216   1.202   2.599  0.00  0.00     0.174 A 
ATOM      3  C3  BZF d   1      -3.280   2.084   1.582  0.00  0.00    -0.012 A 
ATOM      4  C3A BZF d   1      -2.003   2.731   1.564  0.00  0.00    -0.107 A 
ATOM      5  C4  BZF d   1      -1.450   3.695   0.771  0.00  0.00     0.055 A 
ATOM      6  C5  BZF d   1      -0.207   4.159   1.064  0.00  0.00    -0.016 A 
ATOM      7  C6  BZF d   1       0.508   3.686   2.145  0.00  0.00     0.022 A 
ATOM      8  C7  BZF d   1       0.003   2.726   2.958  0.00  0.00     0.029 A 
ATOM      9  C7A BZF d   1      -1.239   2.231   2.644  0.00  0.00     0.058 A 
ENDROOT
TORSDOF 0
ENDMDL
