MODEL 1
REMARK minimizedAffinity 8.41246986
REMARK minimizedRMSD -1
REMARK  0 active torsions:
REMARK  status: ('A' for Active; 'I' for Inactive)
ROOT
ATOM      1  O1  BZF d   1      -1.546   4.059   0.492  0.00  0.00    -0.204 OA
ATOM      2  C2  BZF d   1      -2.168   3.087   1.252  0.00  0.00     0.174 A 
ATOM      3  C3  BZF d   1      -1.670   1.866   0.967  0.00  0.00    -0.012 A 
ATOM      4  C3A BZF d   1      -0.611   2.100   0.034  0.00  0.00    -0.107 A 
ATOM      5  C4  BZF d   1       0.272   1.281  -0.609  0.00  0.00     0.055 A 
ATOM      6  C5  BZF d   1       1.133   1.817  -1.513  0.00  0.00    -0.016 A 
ATOM      7  C6  BZF d   1       1.135   3.166  -1.803  0.00  0.00     0.022 A 
ATOM      8  C7  BZF d   1       0.280   4.019  -1.188  0.00  0.00     0.029 A 
ATOM      9  C7A BZF d   1      -0.569   3.485  -0.249  0.00  0.00     0.058 A 
ENDROOT
TORSDOF 0
ENDMDL
