MODEL 1
REMARK minimizedAffinity 2.0550015
REMARK minimizedRMSD -1
REMARK  0 active torsions:
REMARK  status: ('A' for Active; 'I' for Inactive)
ROOT
ATOM      1  O1  BZF d   1       0.520   1.908   0.179  0.00  0.00    -0.204 OA
ATOM      2  C2  BZF d   1       0.314   2.855  -0.805  0.00  0.00     0.174 A 
ATOM      3  C3  BZF d   1      -0.913   3.403  -0.693  0.00  0.00    -0.012 A 
ATOM      4  C3A BZF d   1      -1.476   2.825   0.489  0.00  0.00    -0.107 A 
ATOM      5  C4  BZF d   1      -2.669   2.984   1.135  0.00  0.00     0.055 A 
ATOM      6  C5  BZF d   1      -2.938   2.216   2.223  0.00  0.00    -0.016 A 
ATOM      7  C6  BZF d   1      -2.041   1.277   2.689  0.00  0.00     0.022 A 
ATOM      8  C7  BZF d   1      -0.843   1.087   2.084  0.00  0.00     0.029 A 
ATOM      9  C7A BZF d   1      -0.555   1.885   1.004  0.00  0.00     0.058 A 
ENDROOT
TORSDOF 0
ENDMDL
