MODEL 1
REMARK minimizedAffinity 4.73522282
REMARK minimizedRMSD -1
REMARK  0 active torsions:
REMARK  status: ('A' for Active; 'I' for Inactive)
ROOT
ATOM      1  O1  BZF d   1      -2.548   1.875   2.218  0.00  0.00    -0.204 OA
ATOM      2  C2  BZF d   1      -2.068   0.650   2.642  0.00  0.00     0.174 A 
ATOM      3  C3  BZF d   1      -1.024   0.257   1.883  0.00  0.00    -0.012 A 
ATOM      4  C3A BZF d   1      -0.782   1.344   0.984  0.00  0.00    -0.107 A 
ATOM      5  C4  BZF d   1       0.136   1.558  -0.004  0.00  0.00     0.055 A 
ATOM      6  C5  BZF d   1       0.056   2.694  -0.745  0.00  0.00    -0.016 A 
ATOM      7  C6  BZF d   1      -0.931   3.634  -0.529  0.00  0.00     0.022 A 
ATOM      8  C7  BZF d   1      -1.861   3.468   0.444  0.00  0.00     0.029 A 
ATOM      9  C7A BZF d   1      -1.762   2.336   1.216  0.00  0.00     0.058 A 
ENDROOT
TORSDOF 0
ENDMDL
