MODEL 1
REMARK minimizedAffinity 3.71346951
REMARK minimizedRMSD -1
REMARK  0 active torsions:
REMARK  status: ('A' for Active; 'I' for Inactive)
ROOT
ATOM      1  O1  BZF d   1      -2.402  -3.408   3.339  0.00  0.00    -0.204 OA
ATOM      2  C2  BZF d   1      -1.589  -3.022   4.388  0.00  0.00     0.174 A 
ATOM      3  C3  BZF d   1      -2.321  -2.762   5.490  0.00  0.00    -0.012 A 
ATOM      4  C3A BZF d   1      -3.668  -3.088   5.133  0.00  0.00    -0.107 A 
ATOM      5  C4  BZF d   1      -4.853  -3.056   5.812  0.00  0.00     0.055 A 
ATOM      6  C5  BZF d   1      -6.000  -3.369   5.153  0.00  0.00    -0.016 A 
ATOM      7  C6  BZF d   1      -5.999  -3.713   3.817  0.00  0.00     0.022 A 
ATOM      8  C7  BZF d   1      -4.847  -3.764   3.104  0.00  0.00     0.029 A 
ATOM      9  C7A BZF d   1      -3.683  -3.480   3.775  0.00  0.00     0.058 A 
ENDROOT
TORSDOF 0
ENDMDL
