MODEL 1
REMARK minimizedAffinity 6.2650094
REMARK minimizedRMSD -1
REMARK  0 active torsions:
REMARK  status: ('A' for Active; 'I' for Inactive)
ROOT
ATOM      1  O1  BZF d   1      -2.617   1.882   1.773  0.00  0.00    -0.204 OA
ATOM      2  C2  BZF d   1      -1.921   2.837   1.057  0.00  0.00     0.174 A 
ATOM      3  C3  BZF d   1      -0.625   2.489   0.929  0.00  0.00    -0.012 A 
ATOM      4  C3A BZF d   1      -0.522   1.194   1.528  0.00  0.00    -0.107 A 
ATOM      5  C4  BZF d   1       0.512   0.317   1.697  0.00  0.00     0.055 A 
ATOM      6  C5  BZF d   1       0.296  -0.832   2.389  0.00  0.00    -0.016 A 
ATOM      7  C6  BZF d   1      -0.937  -1.135   2.928  0.00  0.00     0.022 A 
ATOM      8  C7  BZF d   1      -1.994  -0.299   2.782  0.00  0.00     0.029 A 
ATOM      9  C7A BZF d   1      -1.787   0.849   2.056  0.00  0.00     0.058 A 
ENDROOT
TORSDOF 0
ENDMDL
