MODEL 1
REMARK minimizedAffinity 2.24612236
REMARK minimizedRMSD -1
REMARK  0 active torsions:
REMARK  status: ('A' for Active; 'I' for Inactive)
ROOT
ATOM      1  O1  BZF d   1      -2.301   1.006   2.329  0.00  0.00    -0.204 OA
ATOM      2  C2  BZF d   1      -1.558   1.945   1.639  0.00  0.00     0.174 A 
ATOM      3  C3  BZF d   1      -0.310   1.490   1.406  0.00  0.00    -0.012 A 
ATOM      4  C3A BZF d   1      -0.299   0.149   1.905  0.00  0.00    -0.107 A 
ATOM      5  C4  BZF d   1       0.653  -0.829   1.947  0.00  0.00     0.055 A 
ATOM      6  C5  BZF d   1       0.367  -2.004   2.568  0.00  0.00    -0.016 A 
ATOM      7  C6  BZF d   1      -0.858  -2.231   3.162  0.00  0.00     0.022 A 
ATOM      8  C7  BZF d   1      -1.836  -1.293   3.141  0.00  0.00     0.029 A 
ATOM      9  C7A BZF d   1      -1.560  -0.118   2.485  0.00  0.00     0.058 A 
ENDROOT
TORSDOF 0
ENDMDL
