MODEL 1
REMARK minimizedAffinity 10.655654
REMARK minimizedRMSD -1
REMARK  0 active torsions:
REMARK  status: ('A' for Active; 'I' for Inactive)
ROOT
ATOM      1  O1  BZF d   1       0.761   0.898  -1.133  0.00  0.00    -0.204 OA
ATOM      2  C2  BZF d   1       0.259   1.881  -0.301  0.00  0.00     0.174 A 
ATOM      3  C3  BZF d   1      -1.089   1.865  -0.302  0.00  0.00    -0.012 A 
ATOM      4  C3A BZF d   1      -1.452   0.748  -1.119  0.00  0.00    -0.107 A 
ATOM      5  C4  BZF d   1      -2.649   0.206  -1.490  0.00  0.00     0.055 A 
ATOM      6  C5  BZF d   1      -2.660  -0.841  -2.356  0.00  0.00    -0.016 A 
ATOM      7  C6  BZF d   1      -1.494  -1.367  -2.875  0.00  0.00     0.022 A 
ATOM      8  C7  BZF d   1      -0.283  -0.866  -2.532  0.00  0.00     0.029 A 
ATOM      9  C7A BZF d   1      -0.267   0.171  -1.631  0.00  0.00     0.058 A 
ENDROOT
TORSDOF 0
ENDMDL
