MODEL 1
REMARK minimizedAffinity 6.6552763
REMARK minimizedRMSD -1
REMARK  0 active torsions:
REMARK  status: ('A' for Active; 'I' for Inactive)
ROOT
ATOM      1  O1  BZF d   1       0.931   1.393  -1.811  0.00  0.00    -0.204 OA
ATOM      2  C2  BZF d   1       0.936   0.036  -1.553  0.00  0.00     0.174 A 
ATOM      3  C3  BZF d   1       0.210  -0.244  -0.451  0.00  0.00    -0.012 A 
ATOM      4  C3A BZF d   1      -0.355   1.006  -0.045  0.00  0.00    -0.107 A 
ATOM      5  C4  BZF d   1      -1.184   1.375   0.976  0.00  0.00     0.055 A 
ATOM      6  C5  BZF d   1      -1.489   2.689   1.138  0.00  0.00    -0.016 A 
ATOM      7  C6  BZF d   1      -0.979   3.661   0.302  0.00  0.00     0.022 A 
ATOM      8  C7  BZF d   1      -0.157   3.344  -0.728  0.00  0.00     0.029 A 
ATOM      9  C7A BZF d   1       0.127   2.013  -0.914  0.00  0.00     0.058 A 
ENDROOT
TORSDOF 0
ENDMDL
