MODEL 1
REMARK minimizedAffinity 4.15471506
REMARK minimizedRMSD -1
REMARK  0 active torsions:
REMARK  status: ('A' for Active; 'I' for Inactive)
ROOT
ATOM      1  O1  BZF d   1      -1.420   3.463  -3.014  0.00  0.00    -0.204 OA
ATOM      2  C2  BZF d   1      -2.587   3.367  -3.748  0.00  0.00     0.174 A 
ATOM      3  C3  BZF d   1      -2.894   2.076  -3.990  0.00  0.00    -0.012 A 
ATOM      4  C3A BZF d   1      -1.905   1.316  -3.290  0.00  0.00    -0.107 A 
ATOM      5  C4  BZF d   1      -1.686  -0.023  -3.135  0.00  0.00     0.055 A 
ATOM      6  C5  BZF d   1      -0.589  -0.438  -2.450  0.00  0.00    -0.016 A 
ATOM      7  C6  BZF d   1       0.312   0.457  -1.911  0.00  0.00     0.022 A 
ATOM      8  C7  BZF d   1       0.134   1.795  -2.034  0.00  0.00     0.029 A 
ATOM      9  C7A BZF d   1      -0.991   2.218  -2.698  0.00  0.00     0.058 A 
ENDROOT
TORSDOF 0
ENDMDL
