MODEL 1
REMARK minimizedAffinity 6.67737198
REMARK minimizedRMSD -1
REMARK  0 active torsions:
REMARK  status: ('A' for Active; 'I' for Inactive)
ROOT
ATOM      1  O1  BZF d   1       0.991   2.219  -2.660  0.00  0.00    -0.204 OA
ATOM      2  C2  BZF d   1       0.458   2.875  -1.567  0.00  0.00     0.174 A 
ATOM      3  C3  BZF d   1      -0.694   2.294  -1.176  0.00  0.00    -0.012 A 
ATOM      4  C3A BZF d   1      -0.846   1.151  -2.023  0.00  0.00    -0.107 A 
ATOM      5  C4  BZF d   1      -1.788   0.166  -2.111  0.00  0.00     0.055 A 
ATOM      6  C5  BZF d   1      -1.682  -0.764  -3.097  0.00  0.00    -0.016 A 
ATOM      7  C6  BZF d   1      -0.651  -0.735  -4.013  0.00  0.00     0.022 A 
ATOM      8  C7  BZF d   1       0.310   0.219  -3.963  0.00  0.00     0.029 A 
ATOM      9  C7A BZF d   1       0.223   1.141  -2.948  0.00  0.00     0.058 A 
ENDROOT
TORSDOF 0
ENDMDL
