MODEL 1
REMARK minimizedAffinity 5.91663694
REMARK minimizedRMSD -1
REMARK  0 active torsions:
REMARK  status: ('A' for Active; 'I' for Inactive)
ROOT
ATOM      1  O1  BZF d   1       0.745   1.888  -3.272  0.00  0.00    -0.204 OA
ATOM      2  C2  BZF d   1       0.609   0.598  -2.798  0.00  0.00     0.174 A 
ATOM      3  C3  BZF d   1       0.247   0.601  -1.499  0.00  0.00    -0.012 A 
ATOM      4  C3A BZF d   1       0.062   1.979  -1.163  0.00  0.00    -0.107 A 
ATOM      5  C4  BZF d   1      -0.315   2.624  -0.020  0.00  0.00     0.055 A 
ATOM      6  C5  BZF d   1      -0.328   3.983  -0.002  0.00  0.00    -0.016 A 
ATOM      7  C6  BZF d   1       0.034   4.727  -1.106  0.00  0.00     0.022 A 
ATOM      8  C7  BZF d   1       0.410   4.132  -2.264  0.00  0.00     0.029 A 
ATOM      9  C7A BZF d   1       0.393   2.759  -2.295  0.00  0.00     0.058 A 
ENDROOT
TORSDOF 0
ENDMDL
