MODEL 1
REMARK minimizedAffinity 7.95155001
REMARK minimizedRMSD -1
REMARK  0 active torsions:
REMARK  status: ('A' for Active; 'I' for Inactive)
ROOT
ATOM      1  O1  BZF d   1      -1.557   3.173   1.838  0.00  0.00    -0.204 OA
ATOM      2  C2  BZF d   1      -1.629   1.856   2.248  0.00  0.00     0.174 A 
ATOM      3  C3  BZF d   1      -1.121   1.033   1.308  0.00  0.00    -0.012 A 
ATOM      4  C3A BZF d   1      -0.622   1.897   0.282  0.00  0.00    -0.107 A 
ATOM      5  C4  BZF d   1       0.011   1.674  -0.907  0.00  0.00     0.055 A 
ATOM      6  C5  BZF d   1       0.301   2.732  -1.710  0.00  0.00    -0.016 A 
ATOM      7  C6  BZF d   1      -0.032   4.023  -1.357  0.00  0.00     0.022 A 
ATOM      8  C7  BZF d   1      -0.657   4.294  -0.185  0.00  0.00     0.029 A 
ATOM      9  C7A BZF d   1      -0.921   3.231   0.643  0.00  0.00     0.058 A 
ENDROOT
TORSDOF 0
ENDMDL
