MODEL 1
REMARK minimizedAffinity 3.72188401
REMARK minimizedRMSD -1
REMARK  0 active torsions:
REMARK  status: ('A' for Active; 'I' for Inactive)
ROOT
ATOM      1  O1  BZF d   1       0.492   1.926   3.051  0.00  0.00    -0.204 OA
ATOM      2  C2  BZF d   1      -0.441   2.930   3.221  0.00  0.00     0.174 A 
ATOM      3  C3  BZF d   1      -1.087   3.184   2.065  0.00  0.00    -0.012 A 
ATOM      4  C3A BZF d   1      -0.588   2.218   1.135  0.00  0.00    -0.107 A 
ATOM      5  C4  BZF d   1      -0.857   1.950  -0.177  0.00  0.00     0.055 A 
ATOM      6  C5  BZF d   1      -0.143   0.987  -0.815  0.00  0.00    -0.016 A 
ATOM      7  C6  BZF d   1       0.851   0.276  -0.174  0.00  0.00     0.022 A 
ATOM      8  C7  BZF d   1       1.151   0.502   1.128  0.00  0.00     0.029 A 
ATOM      9  C7A BZF d   1       0.408   1.452   1.784  0.00  0.00     0.058 A 
ENDROOT
TORSDOF 0
ENDMDL
