MODEL 1
REMARK minimizedAffinity 8.80457211
REMARK minimizedRMSD -1
REMARK  0 active torsions:
REMARK  status: ('A' for Active; 'I' for Inactive)
ROOT
ATOM      1  O1  BZF d   1       0.896   0.000   0.892  0.00  0.00    -0.204 OA
ATOM      2  C2  BZF d   1       2.080  -0.385   1.489  0.00  0.00     0.174 A 
ATOM      3  C3  BZF d   1       2.214   0.190   2.702  0.00  0.00    -0.012 A 
ATOM      4  C3A BZF d   1       0.996   0.912   2.912  0.00  0.00    -0.107 A 
ATOM      5  C4  BZF d   1       0.523   1.675   3.941  0.00  0.00     0.055 A 
ATOM      6  C5  BZF d   1      -0.675   2.301   3.802  0.00  0.00    -0.016 A 
ATOM      7  C6  BZF d   1      -1.423   2.189   2.648  0.00  0.00     0.022 A 
ATOM      8  C7  BZF d   1      -0.997   1.439   1.603  0.00  0.00     0.029 A 
ATOM      9  C7A BZF d   1       0.198   0.779   1.753  0.00  0.00     0.058 A 
ENDROOT
TORSDOF 0
ENDMDL
