MODEL 1
REMARK minimizedAffinity 5.9049015
REMARK minimizedRMSD -1
REMARK  0 active torsions:
REMARK  status: ('A' for Active; 'I' for Inactive)
ROOT
ATOM      1  O1  BZF d   1       0.933   2.377  -2.561  0.00  0.00    -0.204 OA
ATOM      2  C2  BZF d   1       0.866   0.998  -2.535  0.00  0.00     0.174 A 
ATOM      3  C3  BZF d   1       0.435   0.561  -1.335  0.00  0.00    -0.012 A 
ATOM      4  C3A BZF d   1       0.130   1.745  -0.591  0.00  0.00    -0.107 A 
ATOM      5  C4  BZF d   1      -0.356   1.965   0.666  0.00  0.00     0.055 A 
ATOM      6  C5  BZF d   1      -0.470   3.243   1.115  0.00  0.00    -0.016 A 
ATOM      7  C6  BZF d   1      -0.104   4.322   0.338  0.00  0.00     0.022 A 
ATOM      8  C7  BZF d   1       0.378   4.153  -0.918  0.00  0.00     0.029 A 
ATOM      9  C7A BZF d   1       0.463   2.865  -1.387  0.00  0.00     0.058 A 
ENDROOT
TORSDOF 0
ENDMDL
