MODEL 1
REMARK minimizedAffinity 3.16546917
REMARK minimizedRMSD -1
REMARK  1 active torsions:
REMARK  status: ('A' for Active; 'I' for Inactive)
REMARK    1  A    between atoms: C1_2  and  C2_3 
ROOT
ATOM      1  C2  UNL d   1       2.968  -3.943  -5.577  0.00  0.00    -0.077 A 
ATOM      2  C3  UNL d   1       2.811  -5.271  -5.998  0.00  0.00     0.002 A 
ATOM      3  C4  UNL d   1       1.671  -5.994  -5.645  0.00  0.00     0.002 A 
ATOM      4  C5  UNL d   1       0.677  -5.397  -4.872  0.00  0.00    -0.004 A 
ATOM      5  C6  UNL d   1       0.825  -4.077  -4.446  0.00  0.00     0.002 A 
ATOM      6  C7  UNL d   1       1.965  -3.353  -4.798  0.00  0.00     0.002 A 
ENDROOT
BRANCH   1   7
ATOM      7  C1  UNL d   1       4.175  -3.146  -5.998  0.00  0.00     0.055 C 
ATOM      8  C   UNL d   1       5.433  -4.002  -5.996  0.00  0.00     0.019 C 
ENDBRANCH   1   7
TORSDOF 1
ENDMDL
