MODEL 1
REMARK minimizedAffinity 0.201368168
REMARK minimizedRMSD -1
REMARK  1 active torsions:
REMARK  status: ('A' for Active; 'I' for Inactive)
REMARK    1  A    between atoms: C1_2  and  C2_3 
ROOT
ATOM      1  C2  UNL d   1       2.144  -4.951  -5.251  0.00  0.00    -0.077 A 
ATOM      2  C3  UNL d   1       1.904  -4.115  -4.151  0.00  0.00     0.002 A 
ATOM      3  C4  UNL d   1       0.713  -4.221  -3.429  0.00  0.00     0.002 A 
ATOM      4  C5  UNL d   1      -0.244  -5.165  -3.796  0.00  0.00    -0.004 A 
ATOM      5  C6  UNL d   1      -0.015  -6.000  -4.890  0.00  0.00     0.002 A 
ATOM      6  C7  UNL d   1       1.173  -5.894  -5.613  0.00  0.00     0.002 A 
ENDROOT
BRANCH   1   7
ATOM      7  C1  UNL d   1       3.448  -4.871  -6.000  0.00  0.00     0.055 C 
ATOM      8  C   UNL d   1       4.001  -3.453  -6.000  0.00  0.00     0.019 C 
ENDBRANCH   1   7
TORSDOF 1
ENDMDL
