MODEL 1
REMARK minimizedAffinity 16.662756
REMARK minimizedRMSD -1
REMARK  1 active torsions:
REMARK  status: ('A' for Active; 'I' for Inactive)
REMARK    1  A    between atoms: C1_2  and  C2_3 
ROOT
ATOM      1  C2  UNL d   1       1.560   1.412   0.017  0.00  0.00    -0.077 A 
ATOM      2  C3  UNL d   1       2.869   1.418   0.521  0.00  0.00     0.002 A 
ATOM      3  C4  UNL d   1       3.304   0.396   1.367  0.00  0.00     0.002 A 
ATOM      4  C5  UNL d   1       2.440  -0.641   1.711  0.00  0.00    -0.004 A 
ATOM      5  C6  UNL d   1       1.137  -0.655   1.217  0.00  0.00     0.002 A 
ATOM      6  C7  UNL d   1       0.699   0.367   0.373  0.00  0.00     0.002 A 
ENDROOT
BRANCH   1   7
ATOM      7  C1  UNL d   1       1.104   2.487  -0.934  0.00  0.00     0.055 C 
ATOM      8  C   UNL d   1       1.050   3.846  -0.249  0.00  0.00     0.019 C 
ENDBRANCH   1   7
TORSDOF 1
ENDMDL
