MODEL 1
REMARK minimizedAffinity 17.1728935
REMARK minimizedRMSD -1
REMARK  1 active torsions:
REMARK  status: ('A' for Active; 'I' for Inactive)
REMARK    1  A    between atoms: C1_2  and  C2_3 
ROOT
ATOM      1  C2  UNL d   1       0.771  -4.049  -2.912  0.00  0.00    -0.077 A 
ATOM      2  C3  UNL d   1      -0.457  -3.436  -2.625  0.00  0.00     0.002 A 
ATOM      3  C4  UNL d   1      -0.740  -2.995  -1.331  0.00  0.00     0.002 A 
ATOM      4  C5  UNL d   1       0.200  -3.159  -0.316  0.00  0.00    -0.004 A 
ATOM      5  C6  UNL d   1       1.422  -3.770  -0.591  0.00  0.00     0.002 A 
ATOM      6  C7  UNL d   1       1.707  -4.212  -1.883  0.00  0.00     0.002 A 
ENDROOT
BRANCH   1   7
ATOM      7  C1  UNL d   1       1.098  -4.481  -4.318  0.00  0.00     0.055 C 
ATOM      8  C   UNL d   1       1.102  -5.998  -4.444  0.00  0.00     0.019 C 
ENDBRANCH   1   7
TORSDOF 1
ENDMDL
