MODEL 1
REMARK minimizedAffinity 17.8797226
REMARK minimizedRMSD -1
REMARK  1 active torsions:
REMARK  status: ('A' for Active; 'I' for Inactive)
REMARK    1  A    between atoms: C1_2  and  C2_3 
ROOT
ATOM      1  C2  UNL d   1       4.000   0.125  -0.049  0.00  0.00    -0.077 A 
ATOM      2  C3  UNL d   1       4.329   1.067  -1.034  0.00  0.00     0.002 A 
ATOM      3  C4  UNL d   1       4.828   0.652  -2.270  0.00  0.00     0.002 A 
ATOM      4  C5  UNL d   1       5.000  -0.706  -2.533  0.00  0.00    -0.004 A 
ATOM      5  C6  UNL d   1       4.677  -1.650  -1.560  0.00  0.00     0.002 A 
ATOM      6  C7  UNL d   1       4.179  -1.237  -0.324  0.00  0.00     0.002 A 
ENDROOT
BRANCH   1   7
ATOM      7  C1  UNL d   1       3.414   0.568   1.266  0.00  0.00     0.055 C 
ATOM      8  C   UNL d   1       2.237  -0.307   1.671  0.00  0.00     0.019 C 
ENDBRANCH   1   7
TORSDOF 1
ENDMDL
