MODEL 1
REMARK minimizedAffinity 11.8384314
REMARK minimizedRMSD -1
REMARK  1 active torsions:
REMARK  status: ('A' for Active; 'I' for Inactive)
REMARK    1  A    between atoms: C1_2  and  C2_3 
ROOT
ATOM      1  C2  UNL d   1      -1.881   3.759  -3.520  0.00  0.00    -0.077 A 
ATOM      2  C3  UNL d   1      -1.516   4.884  -2.767  0.00  0.00     0.002 A 
ATOM      3  C4  UNL d   1      -0.950   5.998  -3.390  0.00  0.00     0.002 A 
ATOM      4  C5  UNL d   1      -0.748   6.000  -4.769  0.00  0.00    -0.004 A 
ATOM      5  C6  UNL d   1      -1.105   4.885  -5.526  0.00  0.00     0.002 A 
ATOM      6  C7  UNL d   1      -1.670   3.770  -4.905  0.00  0.00     0.002 A 
ENDROOT
BRANCH   1   7
ATOM      7  C1  UNL d   1      -2.537   2.576  -2.857  0.00  0.00     0.055 C 
ATOM      8  C   UNL d   1      -3.774   2.995  -2.077  0.00  0.00     0.019 C 
ENDBRANCH   1   7
TORSDOF 1
ENDMDL
