MODEL 1
REMARK minimizedAffinity 14.1111765
REMARK minimizedRMSD -1
REMARK  1 active torsions:
REMARK  status: ('A' for Active; 'I' for Inactive)
REMARK    1  A    between atoms: C1_2  and  C2_3 
ROOT
ATOM      1  C2  UNL d   1       0.913  -2.564   1.474  0.00  0.00    -0.077 A 
ATOM      2  C3  UNL d   1      -0.399  -3.056   1.424  0.00  0.00     0.002 A 
ATOM      3  C4  UNL d   1      -0.639  -4.431   1.446  0.00  0.00     0.002 A 
ATOM      4  C5  UNL d   1       0.428  -5.325   1.524  0.00  0.00    -0.004 A 
ATOM      5  C6  UNL d   1       1.736  -4.845   1.572  0.00  0.00     0.002 A 
ATOM      6  C7  UNL d   1       1.977  -3.471   1.548  0.00  0.00     0.002 A 
ENDROOT
BRANCH   1   7
ATOM      7  C1  UNL d   1       1.171  -1.080   1.499  0.00  0.00     0.055 C 
ATOM      8  C   UNL d   1       2.662  -0.778   1.519  0.00  0.00     0.019 C 
ENDBRANCH   1   7
TORSDOF 1
ENDMDL
