MODEL 1
REMARK minimizedAffinity 8.01196671
REMARK minimizedRMSD -1
REMARK  1 active torsions:
REMARK  status: ('A' for Active; 'I' for Inactive)
REMARK    1  A    between atoms: C1_2  and  C2_3 
ROOT
ATOM      1  C2  UNL d   1      -3.815  -2.686   3.863  0.00  0.00    -0.077 A 
ATOM      2  C3  UNL d   1      -5.168  -2.317   3.870  0.00  0.00     0.002 A 
ATOM      3  C4  UNL d   1      -5.994  -2.684   4.933  0.00  0.00     0.002 A 
ATOM      4  C5  UNL d   1      -5.477  -3.419   5.998  0.00  0.00    -0.004 A 
ATOM      5  C6  UNL d   1      -4.134  -3.793   5.999  0.00  0.00     0.002 A 
ATOM      6  C7  UNL d   1      -3.307  -3.427   4.937  0.00  0.00     0.002 A 
ENDROOT
BRANCH   1   7
ATOM      7  C1  UNL d   1      -2.910  -2.248   2.740  0.00  0.00     0.055 C 
ATOM      8  C   UNL d   1      -3.167  -3.055   1.476  0.00  0.00     0.019 C 
ENDBRANCH   1   7
TORSDOF 1
ENDMDL
