MODEL 1
REMARK minimizedAffinity 7.11732483
REMARK minimizedRMSD -1
REMARK  1 active torsions:
REMARK  status: ('A' for Active; 'I' for Inactive)
REMARK    1  A    between atoms: C1_2  and  C2_3 
ROOT
ATOM      1  C2  UNL d   1       2.360  -4.042  -4.946  0.00  0.00    -0.077 A 
ATOM      2  C3  UNL d   1       1.481  -4.121  -3.856  0.00  0.00     0.002 A 
ATOM      3  C4  UNL d   1       0.481  -5.095  -3.825  0.00  0.00     0.002 A 
ATOM      4  C5  UNL d   1       0.353  -5.999  -4.877  0.00  0.00    -0.004 A 
ATOM      5  C6  UNL d   1       1.221  -5.927  -5.966  0.00  0.00     0.002 A 
ATOM      6  C7  UNL d   1       2.220  -4.954  -6.000  0.00  0.00     0.002 A 
ENDROOT
BRANCH   1   7
ATOM      7  C1  UNL d   1       3.470  -3.025  -4.959  0.00  0.00     0.055 C 
ATOM      8  C   UNL d   1       4.527  -3.372  -5.997  0.00  0.00     0.019 C 
ENDBRANCH   1   7
TORSDOF 1
ENDMDL
