MODEL 1
REMARK minimizedAffinity 7.27563858
REMARK minimizedRMSD -1
REMARK  1 active torsions:
REMARK  status: ('A' for Active; 'I' for Inactive)
REMARK    1  A    between atoms: C1_2  and  C2_3 
ROOT
ATOM      1  C2  UNL d   1       2.995  -3.754  -5.232  0.00  0.00    -0.077 A 
ATOM      2  C3  UNL d   1       1.811  -3.756  -4.482  0.00  0.00     0.002 A 
ATOM      3  C4  UNL d   1       0.970  -4.871  -4.493  0.00  0.00     0.002 A 
ATOM      4  C5  UNL d   1       1.306  -5.992  -5.249  0.00  0.00    -0.004 A 
ATOM      5  C6  UNL d   1       2.481  -5.999  -6.000  0.00  0.00     0.002 A 
ATOM      6  C7  UNL d   1       3.323  -4.885  -5.990  0.00  0.00     0.002 A 
ENDROOT
BRANCH   1   7
ATOM      7  C1  UNL d   1       3.928  -2.572  -5.182  0.00  0.00     0.055 C 
ATOM      8  C   UNL d   1       3.739  -1.772  -3.901  0.00  0.00     0.019 C 
ENDBRANCH   1   7
TORSDOF 1
ENDMDL
