MODEL 1
REMARK minimizedAffinity 11.2734594
REMARK minimizedRMSD -1
REMARK  1 active torsions:
REMARK  status: ('A' for Active; 'I' for Inactive)
REMARK    1  A    between atoms: C1_2  and  C2_3 
ROOT
ATOM      1  C2  UNL d   1       0.796  -4.843  -3.125  0.00  0.00    -0.077 A 
ATOM      2  C3  UNL d   1       1.502  -3.698  -3.521  0.00  0.00     0.002 A 
ATOM      3  C4  UNL d   1       2.263  -3.707  -4.692  0.00  0.00     0.002 A 
ATOM      4  C5  UNL d   1       2.320  -4.856  -5.479  0.00  0.00    -0.004 A 
ATOM      5  C6  UNL d   1       1.623  -6.000  -5.093  0.00  0.00     0.002 A 
ATOM      6  C7  UNL d   1       0.864  -5.993  -3.922  0.00  0.00     0.002 A 
ENDROOT
BRANCH   1   7
ATOM      7  C1  UNL d   1      -0.064  -4.820  -1.889  0.00  0.00     0.055 C 
ATOM      8  C   UNL d   1      -0.820  -3.505  -1.764  0.00  0.00     0.019 C 
ENDBRANCH   1   7
TORSDOF 1
ENDMDL
