MODEL 1
REMARK minimizedAffinity 8.04064751
REMARK minimizedRMSD -1
REMARK  1 active torsions:
REMARK  status: ('A' for Active; 'I' for Inactive)
REMARK    1  A    between atoms: C1_2  and  C2_3 
ROOT
ATOM      1  C2  UNL d   1      -4.387  -4.103   1.473  0.00  0.00    -0.077 A 
ATOM      2  C3  UNL d   1      -3.899  -4.113   0.159  0.00  0.00     0.002 A 
ATOM      3  C4  UNL d   1      -4.359  -5.059  -0.758  0.00  0.00     0.002 A 
ATOM      4  C5  UNL d   1      -5.313  -6.000  -0.373  0.00  0.00    -0.004 A 
ATOM      5  C6  UNL d   1      -5.803  -5.999   0.932  0.00  0.00     0.002 A 
ATOM      6  C7  UNL d   1      -5.343  -5.055   1.851  0.00  0.00     0.002 A 
ENDROOT
BRANCH   1   7
ATOM      7  C1  UNL d   1      -3.928  -3.053   2.450  0.00  0.00     0.055 C 
ATOM      8  C   UNL d   1      -4.834  -2.999   3.672  0.00  0.00     0.019 C 
ENDBRANCH   1   7
TORSDOF 1
ENDMDL
