MODEL 1
REMARK minimizedAffinity 15.4481039
REMARK minimizedRMSD -1
REMARK  1 active torsions:
REMARK  status: ('A' for Active; 'I' for Inactive)
REMARK    1  A    between atoms: C1_2  and  C2_3 
ROOT
ATOM      1  C2  UNL d   1      -2.799   4.786  -2.868  0.00  0.00    -0.077 A 
ATOM      2  C3  UNL d   1      -2.527   5.988  -3.536  0.00  0.00     0.002 A 
ATOM      3  C4  UNL d   1      -2.334   5.999  -4.919  0.00  0.00     0.002 A 
ATOM      4  C5  UNL d   1      -2.414   4.813  -5.645  0.00  0.00    -0.004 A 
ATOM      5  C6  UNL d   1      -2.681   3.612  -4.990  0.00  0.00     0.002 A 
ATOM      6  C7  UNL d   1      -2.873   3.598  -3.608  0.00  0.00     0.002 A 
ENDROOT
BRANCH   1   7
ATOM      7  C1  UNL d   1      -3.056   4.778  -1.384  0.00  0.00     0.055 C 
ATOM      8  C   UNL d   1      -4.437   4.223  -1.065  0.00  0.00     0.019 C 
ENDBRANCH   1   7
TORSDOF 1
ENDMDL
