MODEL 1
REMARK minimizedAffinity 0.538100779
REMARK minimizedRMSD -1
REMARK  0 active torsions:
REMARK  status: ('A' for Active; 'I' for Inactive)
ROOT
ATOM      1  C   UNL d   1      -1.129  -3.023  -3.928  0.00  0.00     0.020 A 
ATOM      2  C1  UNL d   1      -0.892  -4.059  -3.027  0.00  0.00     0.020 A 
ATOM      3  C2  UNL d   1      -0.124  -3.828  -1.883  0.00  0.00     0.034 A 
ATOM      4  C3  UNL d   1       0.410  -2.558  -1.639  0.00  0.00     0.017 A 
ATOM      5  C4  UNL d   1       0.172  -1.518  -2.545  0.00  0.00     0.017 A 
ATOM      6  C5  UNL d   1      -0.598  -1.755  -3.688  0.00  0.00     0.034 A 
ATOM      7 Cl   UNL d   1       0.797   0.076  -2.311  0.00  0.00    -0.070 Cl
ATOM      8 Cl1  UNL d   1       1.350  -2.344  -0.205  0.00  0.00    -0.070 Cl
ENDROOT
TORSDOF 0
ENDMDL
