MODEL 1
REMARK minimizedAffinity 4.34644556
REMARK minimizedRMSD -1
REMARK  0 active torsions:
REMARK  status: ('A' for Active; 'I' for Inactive)
ROOT
ATOM      1  C   UNL d   1       0.176  -0.895  -3.481  0.00  0.00     0.020 A 
ATOM      2  C1  UNL d   1      -0.803  -1.860  -3.251  0.00  0.00     0.020 A 
ATOM      3  C2  UNL d   1      -2.092  -1.472  -2.878  0.00  0.00     0.034 A 
ATOM      4  C3  UNL d   1      -2.405  -0.115  -2.735  0.00  0.00     0.017 A 
ATOM      5  C4  UNL d   1      -1.421   0.853  -2.967  0.00  0.00     0.017 A 
ATOM      6  C5  UNL d   1      -0.132   0.458  -3.340  0.00  0.00     0.034 A 
ATOM      7 Cl   UNL d   1      -1.732   2.546  -2.810  0.00  0.00    -0.070 Cl
ATOM      8 Cl1  UNL d   1      -4.019   0.293  -2.272  0.00  0.00    -0.070 Cl
ENDROOT
TORSDOF 0
ENDMDL
