MODEL 1
REMARK minimizedAffinity 3.37502217
REMARK minimizedRMSD -1
REMARK  0 active torsions:
REMARK  status: ('A' for Active; 'I' for Inactive)
ROOT
ATOM      1  C   UNL d   1       0.737  -1.957  -2.579  0.00  0.00     0.020 A 
ATOM      2  C1  UNL d   1       0.229  -0.740  -3.032  0.00  0.00     0.020 A 
ATOM      3  C2  UNL d   1       0.294   0.391  -2.215  0.00  0.00     0.034 A 
ATOM      4  C3  UNL d   1       0.867   0.308  -0.941  0.00  0.00     0.017 A 
ATOM      5  C4  UNL d   1       1.376  -0.914  -0.487  0.00  0.00     0.017 A 
ATOM      6  C5  UNL d   1       1.309  -2.043  -1.309  0.00  0.00     0.034 A 
ATOM      7 Cl   UNL d   1       2.099  -1.095   1.072  0.00  0.00    -0.070 Cl
ATOM      8 Cl1  UNL d   1       0.914   1.746   0.015  0.00  0.00    -0.070 Cl
ENDROOT
TORSDOF 0
ENDMDL
