MODEL 1
REMARK minimizedAffinity 8.49917412
REMARK minimizedRMSD -1
REMARK  0 active torsions:
REMARK  status: ('A' for Active; 'I' for Inactive)
ROOT
ATOM      1  C   UNL d   1      -1.475   2.676  -1.472  0.00  0.00     0.020 A 
ATOM      2  C1  UNL d   1      -0.618   2.694  -0.372  0.00  0.00     0.020 A 
ATOM      3  C2  UNL d   1       0.518   1.882  -0.358  0.00  0.00     0.034 A 
ATOM      4  C3  UNL d   1       0.800   1.048  -1.446  0.00  0.00     0.017 A 
ATOM      5  C4  UNL d   1      -0.060   1.030  -2.550  0.00  0.00     0.017 A 
ATOM      6  C5  UNL d   1      -1.196   1.846  -2.559  0.00  0.00     0.034 A 
ATOM      7 Cl   UNL d   1       0.222   0.028  -3.929  0.00  0.00    -0.070 Cl
ATOM      8 Cl1  UNL d   1       2.223   0.071  -1.361  0.00  0.00    -0.070 Cl
ENDROOT
TORSDOF 0
ENDMDL
