MODEL 1
REMARK minimizedAffinity 13.0612059
REMARK minimizedRMSD -1
REMARK  0 active torsions:
REMARK  status: ('A' for Active; 'I' for Inactive)
ROOT
ATOM      1  C   UNL d   1      -6.000   4.130  -5.219  0.00  0.00     0.020 A 
ATOM      2  C1  UNL d   1      -4.869   4.944  -5.229  0.00  0.00     0.020 A 
ATOM      3  C2  UNL d   1      -3.736   4.575  -4.500  0.00  0.00     0.034 A 
ATOM      4  C3  UNL d   1      -3.732   3.388  -3.758  0.00  0.00     0.017 A 
ATOM      5  C4  UNL d   1      -4.869   2.571  -3.749  0.00  0.00     0.017 A 
ATOM      6  C5  UNL d   1      -6.000   2.945  -4.481  0.00  0.00     0.034 A 
ATOM      7 Cl   UNL d   1      -4.939   1.092  -2.858  0.00  0.00    -0.070 Cl
ATOM      8 Cl1  UNL d   1      -2.297   2.994  -2.881  0.00  0.00    -0.070 Cl
ENDROOT
TORSDOF 0
ENDMDL
