MODEL 1
REMARK minimizedAffinity -2.124933
REMARK minimizedRMSD -1
REMARK  0 active torsions:
REMARK  status: ('A' for Active; 'I' for Inactive)
ROOT
ATOM      1  C1  DEN d   1      -3.083  -1.085  -3.382  0.00  0.00     0.130 A 
ATOM      2  C2  DEN d   1      -2.372  -0.564  -2.218  0.00  0.00    -0.031 A 
ATOM      3  C3  DEN d   1      -3.026   0.696  -1.811  0.00  0.00     0.027 A 
ATOM      4  C4  DEN d   1      -5.061   1.882  -2.862  0.00  0.00     0.027 A 
ATOM      5  C5  DEN d   1      -5.993   1.825  -3.875  0.00  0.00    -0.003 A 
ATOM      6  C6  DEN d   1      -6.000   0.822  -4.807  0.00  0.00     0.001 A 
ATOM      7  C7  DEN d   1      -5.083  -0.192  -4.718  0.00  0.00     0.017 A 
ATOM      8  C8  DEN d   1      -4.135  -0.139  -3.705  0.00  0.00    -0.094 A 
ATOM      9  C9  DEN d   1      -4.153   0.878  -2.765  0.00  0.00    -0.072 A 
ENDROOT
TORSDOF 0
ENDMDL
