MODEL 1
REMARK minimizedAffinity 10.1219368
REMARK minimizedRMSD -1
REMARK  0 active torsions:
REMARK  status: ('A' for Active; 'I' for Inactive)
ROOT
ATOM      1  C1  DEN d   1       2.149  -2.445  -0.719  0.00  0.00     0.130 A 
ATOM      2  C2  DEN d   1       1.339  -1.821   0.323  0.00  0.00    -0.031 A 
ATOM      3  C3  DEN d   1       1.681  -2.459   1.610  0.00  0.00     0.027 A 
ATOM      4  C4  DEN d   1       3.382  -4.338   2.088  0.00  0.00     0.027 A 
ATOM      5  C5  DEN d   1       4.300  -5.193   1.518  0.00  0.00    -0.003 A 
ATOM      6  C6  DEN d   1       4.538  -5.215   0.169  0.00  0.00     0.001 A 
ATOM      7  C7  DEN d   1       3.883  -4.334  -0.650  0.00  0.00     0.017 A 
ATOM      8  C8  DEN d   1       2.951  -3.474  -0.084  0.00  0.00    -0.094 A 
ATOM      9  C9  DEN d   1       2.733  -3.459   1.283  0.00  0.00    -0.072 A 
ENDROOT
TORSDOF 0
ENDMDL
