MODEL 1
REMARK minimizedAffinity 12.539875
REMARK minimizedRMSD -1
REMARK  0 active torsions:
REMARK  status: ('A' for Active; 'I' for Inactive)
ROOT
ATOM      1  C1  DEN d   1       1.691  -0.502   3.329  0.00  0.00     0.130 A 
ATOM      2  C2  DEN d   1       2.664  -1.170   4.190  0.00  0.00    -0.031 A 
ATOM      3  C3  DEN d   1       3.225  -2.313   3.442  0.00  0.00     0.027 A 
ATOM      4  C4  DEN d   1       2.689  -3.106   1.047  0.00  0.00     0.027 A 
ATOM      5  C5  DEN d   1       1.921  -2.863  -0.071  0.00  0.00    -0.003 A 
ATOM      6  C6  DEN d   1       1.005  -1.846  -0.120  0.00  0.00     0.001 A 
ATOM      7  C7  DEN d   1       0.867  -1.004   0.952  0.00  0.00     0.017 A 
ATOM      8  C8  DEN d   1       1.633  -1.247   2.085  0.00  0.00    -0.094 A 
ATOM      9  C9  DEN d   1       2.562  -2.274   2.111  0.00  0.00    -0.072 A 
ENDROOT
TORSDOF 0
ENDMDL
