MODEL 1
REMARK minimizedAffinity 11.050663
REMARK minimizedRMSD -1
REMARK  0 active torsions:
REMARK  status: ('A' for Active; 'I' for Inactive)
ROOT
ATOM      1  C1  DEN d   1      -2.917   1.071  -2.348  0.00  0.00     0.130 A 
ATOM      2  C2  DEN d   1      -2.161   2.297  -2.585  0.00  0.00    -0.031 A 
ATOM      3  C3  DEN d   1      -2.843   3.056  -3.652  0.00  0.00     0.027 A 
ATOM      4  C4  DEN d   1      -4.989   2.456  -4.951  0.00  0.00     0.027 A 
ATOM      5  C5  DEN d   1      -5.978   1.511  -5.109  0.00  0.00    -0.003 A 
ATOM      6  C6  DEN d   1      -5.997   0.346  -4.389  0.00  0.00     0.001 A 
ATOM      7  C7  DEN d   1      -5.033   0.117  -3.443  0.00  0.00     0.017 A 
ATOM      8  C8  DEN d   1      -4.028   1.063  -3.283  0.00  0.00    -0.094 A 
ATOM      9  C9  DEN d   1      -4.033   2.239  -4.012  0.00  0.00    -0.072 A 
ENDROOT
TORSDOF 0
ENDMDL
