MODEL 1
REMARK minimizedAffinity 3.45916462
REMARK minimizedRMSD -1
REMARK  0 active torsions:
REMARK  status: ('A' for Active; 'I' for Inactive)
ROOT
ATOM      1  C1  DEN d   1       2.276   5.249   3.485  0.00  0.00     0.130 A 
ATOM      2  C2  DEN d   1       1.425   5.353   4.667  0.00  0.00    -0.031 A 
ATOM      3  C3  DEN d   1       2.287   5.664   5.825  0.00  0.00     0.027 A 
ATOM      4  C4  DEN d   1       4.844   5.998   5.900  0.00  0.00     0.027 A 
ATOM      5  C5  DEN d   1       5.998   5.997   5.149  0.00  0.00    -0.003 A 
ATOM      6  C6  DEN d   1       5.997   5.715   3.809  0.00  0.00     0.001 A 
ATOM      7  C7  DEN d   1       4.812   5.467   3.168  0.00  0.00     0.017 A 
ATOM      8  C8  DEN d   1       3.645   5.459   3.920  0.00  0.00    -0.094 A 
ATOM      9  C9  DEN d   1       3.665   5.759   5.271  0.00  0.00    -0.072 A 
ENDROOT
TORSDOF 0
ENDMDL
