MODEL 1
REMARK minimizedAffinity 14.7679749
REMARK minimizedRMSD -1
REMARK  0 active torsions:
REMARK  status: ('A' for Active; 'I' for Inactive)
ROOT
ATOM      1  C4' PXY d   1      -1.695  -2.271  -1.949  0.00  0.00     0.077 C 
ATOM      2  C1' PXY d   1      -6.000  -6.000  -2.937  0.00  0.00     0.077 C 
ATOM      3  C1  PXY d   1      -4.873  -5.016  -2.690  0.00  0.00    -0.082 A 
ATOM      4  C2  PXY d   1      -3.904  -5.331  -1.846  0.00  0.00     0.003 A 
ATOM      5  C3  PXY d   1      -2.894  -4.441  -1.586  0.00  0.00     0.003 A 
ATOM      6  C4  PXY d   1      -2.847  -3.237  -2.237  0.00  0.00    -0.082 A 
ATOM      7  C5  PXY d   1      -3.827  -2.913  -3.108  0.00  0.00     0.003 A 
ATOM      8  C6  PXY d   1      -4.865  -3.814  -3.326  0.00  0.00     0.003 A 
ENDROOT
TORSDOF 0
ENDMDL
