MODEL 1
REMARK minimizedAffinity 9.11147499
REMARK minimizedRMSD -1
REMARK  0 active torsions:
REMARK  status: ('A' for Active; 'I' for Inactive)
ROOT
ATOM      1  C4' PXY d   1      -0.724  -2.176  -5.967  0.00  0.00     0.077 C 
ATOM      2  C1' PXY d   1      -2.701  -2.688  -0.559  0.00  0.00     0.077 C 
ATOM      3  C1  PXY d   1      -2.174  -2.564  -1.975  0.00  0.00    -0.082 A 
ATOM      4  C2  PXY d   1      -2.278  -1.409  -2.612  0.00  0.00     0.003 A 
ATOM      5  C3  PXY d   1      -1.836  -1.288  -3.905  0.00  0.00     0.003 A 
ATOM      6  C4  PXY d   1      -1.233  -2.345  -4.532  0.00  0.00    -0.082 A 
ATOM      7  C5  PXY d   1      -1.114  -3.524  -3.885  0.00  0.00     0.003 A 
ATOM      8  C6  PXY d   1      -1.606  -3.638  -2.588  0.00  0.00     0.003 A 
ENDROOT
TORSDOF 0
ENDMDL
