MODEL 1
REMARK minimizedAffinity 5.13988209
REMARK minimizedRMSD -1
REMARK  0 active torsions:
REMARK  status: ('A' for Active; 'I' for Inactive)
ROOT
ATOM      1  C4' PXY d   1       4.343   2.250  -2.242  0.00  0.00     0.077 C 
ATOM      2  C1' PXY d   1       2.055   5.999  -6.000  0.00  0.00     0.077 C 
ATOM      3  C1  PXY d   1       2.647   5.007  -5.019  0.00  0.00    -0.082 A 
ATOM      4  C2  PXY d   1       3.175   5.442  -3.886  0.00  0.00     0.003 A 
ATOM      5  C3  PXY d   1       3.744   4.561  -3.003  0.00  0.00     0.003 A 
ATOM      6  C4  PXY d   1       3.725   3.216  -3.257  0.00  0.00    -0.082 A 
ATOM      7  C5  PXY d   1       3.179   2.763  -4.406  0.00  0.00     0.003 A 
ATOM      8  C6  PXY d   1       2.644   3.677  -5.309  0.00  0.00     0.003 A 
ENDROOT
TORSDOF 0
ENDMDL
