MODEL 1
REMARK minimizedAffinity 8.10392857
REMARK minimizedRMSD -1
REMARK  0 active torsions:
REMARK  status: ('A' for Active; 'I' for Inactive)
ROOT
ATOM      1  C4' PXY d   1       4.882   1.125  -2.163  0.00  0.00     0.077 C 
ATOM      2  C1' PXY d   1       2.243   4.551  -6.000  0.00  0.00     0.077 C 
ATOM      3  C1  PXY d   1       2.933   3.642  -5.002  0.00  0.00    -0.082 A 
ATOM      4  C2  PXY d   1       2.989   3.993  -3.727  0.00  0.00     0.003 A 
ATOM      5  C3  PXY d   1       3.637   3.199  -2.817  0.00  0.00     0.003 A 
ATOM      6  C4  PXY d   1       4.187   2.007  -3.205  0.00  0.00    -0.082 A 
ATOM      7  C5  PXY d   1       4.125   1.636  -4.501  0.00  0.00     0.003 A 
ATOM      8  C6  PXY d   1       3.499   2.476  -5.417  0.00  0.00     0.003 A 
ENDROOT
TORSDOF 0
ENDMDL
