MODEL 1
REMARK minimizedAffinity 14.6195421
REMARK minimizedRMSD -1
REMARK  0 active torsions:
REMARK  status: ('A' for Active; 'I' for Inactive)
ROOT
ATOM      1  C4' PXY d   1      -0.548  -4.863  -3.512  0.00  0.00     0.077 C 
ATOM      2  C1' PXY d   1      -5.988  -3.916  -1.802  0.00  0.00     0.077 C 
ATOM      3  C1  PXY d   1      -4.561  -4.153  -2.257  0.00  0.00    -0.082 A 
ATOM      4  C2  PXY d   1      -4.107  -5.391  -2.368  0.00  0.00     0.003 A 
ATOM      5  C3  PXY d   1      -2.810  -5.622  -2.747  0.00  0.00     0.003 A 
ATOM      6  C4  PXY d   1      -1.985  -4.577  -3.066  0.00  0.00    -0.082 A 
ATOM      7  C5  PXY d   1      -2.444  -3.312  -2.965  0.00  0.00     0.003 A 
ATOM      8  C6  PXY d   1      -3.751  -3.097  -2.539  0.00  0.00     0.003 A 
ENDROOT
TORSDOF 0
ENDMDL
