MODEL 1
REMARK minimizedAffinity 12.7288637
REMARK minimizedRMSD -1
REMARK  0 active torsions:
REMARK  status: ('A' for Active; 'I' for Inactive)
ROOT
ATOM      1  C4' PXY d   1      -1.137  -3.440  -3.885  0.00  0.00     0.077 C 
ATOM      2  C1' PXY d   1      -5.998  -5.974  -2.052  0.00  0.00     0.077 C 
ATOM      3  C1  PXY d   1      -4.730  -5.300  -2.539  0.00  0.00    -0.082 A 
ATOM      4  C2  PXY d   1      -3.610  -5.998  -2.623  0.00  0.00     0.003 A 
ATOM      5  C3  PXY d   1      -2.447  -5.397  -3.031  0.00  0.00     0.003 A 
ATOM      6  C4  PXY d   1      -2.443  -4.081  -3.408  0.00  0.00    -0.082 A 
ATOM      7  C5  PXY d   1      -3.584  -3.365  -3.335  0.00  0.00     0.003 A 
ATOM      8  C6  PXY d   1      -4.745  -3.983  -2.879  0.00  0.00     0.003 A 
ENDROOT
TORSDOF 0
ENDMDL
