MODEL 1
REMARK minimizedAffinity 11.8368607
REMARK minimizedRMSD -1
REMARK  0 active torsions:
REMARK  status: ('A' for Active; 'I' for Inactive)
ROOT
ATOM      1  C4' PXY d   1       0.285  -5.546  -3.573  0.00  0.00     0.077 C 
ATOM      2  C1' PXY d   1      -5.005  -3.467  -2.523  0.00  0.00     0.077 C 
ATOM      3  C1  PXY d   1      -3.619  -4.021  -2.789  0.00  0.00    -0.082 A 
ATOM      4  C2  PXY d   1      -2.704  -3.250  -3.354  0.00  0.00     0.003 A 
ATOM      5  C3  PXY d   1      -1.456  -3.745  -3.631  0.00  0.00     0.003 A 
ATOM      6  C4  PXY d   1      -1.124  -5.026  -3.278  0.00  0.00    -0.082 A 
ATOM      7  C5  PXY d   1      -2.049  -5.815  -2.692  0.00  0.00     0.003 A 
ATOM      8  C6  PXY d   1      -3.323  -5.307  -2.457  0.00  0.00     0.003 A 
ENDROOT
TORSDOF 0
ENDMDL
