MODEL 1
REMARK minimizedAffinity 11.3079948
REMARK minimizedRMSD -1
REMARK  0 active torsions:
REMARK  status: ('A' for Active; 'I' for Inactive)
ROOT
ATOM      1  C4' PXY d   1      -1.475  -2.594   1.153  0.00  0.00     0.077 C 
ATOM      2  C1' PXY d   1      -1.425  -3.048  -4.609  0.00  0.00     0.077 C 
ATOM      3  C1  PXY d   1      -1.428  -2.937  -3.098  0.00  0.00    -0.082 A 
ATOM      4  C2  PXY d   1      -2.540  -2.591  -2.469  0.00  0.00     0.003 A 
ATOM      5  C3  PXY d   1      -2.552  -2.455  -1.105  0.00  0.00     0.003 A 
ATOM      6  C4  PXY d   1      -1.429  -2.727  -0.372  0.00  0.00    -0.082 A 
ATOM      7  C5  PXY d   1      -0.293  -3.091  -1.004  0.00  0.00     0.003 A 
ATOM      8  C6  PXY d   1      -0.291  -3.184  -2.393  0.00  0.00     0.003 A 
ENDROOT
TORSDOF 0
ENDMDL
