MODEL 1
REMARK minimizedAffinity 10.835988
REMARK minimizedRMSD -1
REMARK  0 active torsions:
REMARK  status: ('A' for Active; 'I' for Inactive)
ROOT
ATOM      1  C4' PXY d   1      -5.598  -5.978   1.774  0.00  0.00     0.077 C 
ATOM      2  C1' PXY d   1      -0.016  -5.989   0.272  0.00  0.00     0.077 C 
ATOM      3  C1  PXY d   1      -1.483  -5.981   0.654  0.00  0.00    -0.082 A 
ATOM      4  C2  PXY d   1      -1.826  -5.975   1.932  0.00  0.00     0.003 A 
ATOM      5  C3  PXY d   1      -3.147  -6.000   2.296  0.00  0.00     0.003 A 
ATOM      6  C4  PXY d   1      -4.129  -5.977   1.341  0.00  0.00    -0.082 A 
ATOM      7  C5  PXY d   1      -3.787  -5.972   0.035  0.00  0.00     0.003 A 
ATOM      8  C6  PXY d   1      -2.440  -5.989  -0.313  0.00  0.00     0.003 A 
ENDROOT
TORSDOF 0
ENDMDL
