MODEL 1
REMARK minimizedAffinity 11.6329679
REMARK minimizedRMSD -1
REMARK  0 active torsions:
REMARK  status: ('A' for Active; 'I' for Inactive)
ROOT
ATOM      1  C4' PXY d   1      -0.965  -2.308  -2.838  0.00  0.00     0.077 C 
ATOM      2  C1' PXY d   1      -5.673  -5.650  -3.135  0.00  0.00     0.077 C 
ATOM      3  C1  PXY d   1      -4.433  -4.781  -3.067  0.00  0.00    -0.082 A 
ATOM      4  C2  PXY d   1      -4.141  -4.145  -1.944  0.00  0.00     0.003 A 
ATOM      5  C3  PXY d   1      -3.041  -3.329  -1.874  0.00  0.00     0.003 A 
ATOM      6  C4  PXY d   1      -2.202  -3.205  -2.949  0.00  0.00    -0.082 A 
ATOM      7  C5  PXY d   1      -2.487  -3.858  -4.095  0.00  0.00     0.003 A 
ATOM      8  C6  PXY d   1      -3.631  -4.649  -4.158  0.00  0.00     0.003 A 
ENDROOT
TORSDOF 0
ENDMDL
