MODEL 1
REMARK minimizedAffinity 13.8609009
REMARK minimizedRMSD -1
REMARK  0 active torsions:
REMARK  status: ('A' for Active; 'I' for Inactive)
ROOT
ATOM      1  C4' PXY d   1      -6.000  -5.954  -2.317  0.00  0.00     0.077 C 
ATOM      2  C1' PXY d   1      -1.361  -2.690  -3.432  0.00  0.00     0.077 C 
ATOM      3  C1  PXY d   1      -2.570  -3.556  -3.141  0.00  0.00    -0.082 A 
ATOM      4  C2  PXY d   1      -3.784  -3.093  -3.394  0.00  0.00     0.003 A 
ATOM      5  C3  PXY d   1      -4.889  -3.852  -3.107  0.00  0.00     0.003 A 
ATOM      6  C4  PXY d   1      -4.750  -5.117  -2.604  0.00  0.00    -0.082 A 
ATOM      7  C5  PXY d   1      -3.515  -5.601  -2.353  0.00  0.00     0.003 A 
ATOM      8  C6  PXY d   1      -2.407  -4.800  -2.613  0.00  0.00     0.003 A 
ENDROOT
TORSDOF 0
ENDMDL
