MODEL 1
REMARK minimizedAffinity 3.91615939
REMARK minimizedRMSD -1
REMARK  0 active torsions:
REMARK  status: ('A' for Active; 'I' for Inactive)
ROOT
ATOM      1  C4' PXY d   1       1.090  -5.359  -3.756  0.00  0.00     0.077 C 
ATOM      2  C1' PXY d   1      -4.466  -4.141  -2.724  0.00  0.00     0.077 C 
ATOM      3  C1  PXY d   1      -3.007  -4.448  -2.999  0.00  0.00    -0.082 A 
ATOM      4  C2  PXY d   1      -2.628  -5.701  -3.192  0.00  0.00     0.003 A 
ATOM      5  C3  PXY d   1      -1.308  -6.000  -3.410  0.00  0.00     0.003 A 
ATOM      6  C4  PXY d   1      -0.374  -5.001  -3.484  0.00  0.00    -0.082 A 
ATOM      7  C5  PXY d   1      -0.755  -3.719  -3.299  0.00  0.00     0.003 A 
ATOM      8  C6  PXY d   1      -2.093  -3.441  -3.038  0.00  0.00     0.003 A 
ENDROOT
TORSDOF 0
ENDMDL
