MODEL 1
REMARK minimizedAffinity 9.37210369
REMARK minimizedRMSD -1
REMARK  0 active torsions:
REMARK  status: ('A' for Active; 'I' for Inactive)
ROOT
ATOM      1  C4' PXY d   1       0.318  -5.116  -3.688  0.00  0.00     0.077 C 
ATOM      2  C1' PXY d   1      -5.133  -3.901  -2.198  0.00  0.00     0.077 C 
ATOM      3  C1  PXY d   1      -3.704  -4.230  -2.581  0.00  0.00    -0.082 A 
ATOM      4  C2  PXY d   1      -2.898  -3.265  -2.992  0.00  0.00     0.003 A 
ATOM      5  C3  PXY d   1      -1.612  -3.550  -3.373  0.00  0.00     0.003 A 
ATOM      6  C4  PXY d   1      -1.130  -4.828  -3.282  0.00  0.00    -0.082 A 
ATOM      7  C5  PXY d   1      -1.943  -5.817  -2.854  0.00  0.00     0.003 A 
ATOM      8  C6  PXY d   1      -3.258  -5.514  -2.511  0.00  0.00     0.003 A 
ENDROOT
TORSDOF 0
ENDMDL
