MODEL 1
REMARK minimizedAffinity 6.09515953
REMARK minimizedRMSD -1
REMARK  0 active torsions:
REMARK  status: ('A' for Active; 'I' for Inactive)
ROOT
ATOM      1  C4' PXY d   1      -3.830  -6.000  -0.363  0.00  0.00     0.077 C 
ATOM      2  C1' PXY d   1      -0.759  -3.217   3.667  0.00  0.00     0.077 C 
ATOM      3  C1  PXY d   1      -1.556  -3.958   2.611  0.00  0.00    -0.082 A 
ATOM      4  C2  PXY d   1      -2.250  -3.273   1.716  0.00  0.00     0.003 A 
ATOM      5  C3  PXY d   1      -3.002  -3.927   0.774  0.00  0.00     0.003 A 
ATOM      6  C4  PXY d   1      -3.002  -5.295   0.715  0.00  0.00    -0.082 A 
ATOM      7  C5  PXY d   1      -2.289  -6.000   1.618  0.00  0.00     0.003 A 
ATOM      8  C6  PXY d   1      -1.565  -5.318   2.592  0.00  0.00     0.003 A 
ENDROOT
TORSDOF 0
ENDMDL
