MODEL 1
REMARK minimizedAffinity 7.81180382
REMARK minimizedRMSD -1
REMARK  0 active torsions:
REMARK  status: ('A' for Active; 'I' for Inactive)
ROOT
ATOM      1  C4' PXY d   1      -1.878  -2.805  -2.902  0.00  0.00     0.077 C 
ATOM      2  C1' PXY d   1      -0.925  -2.088   2.754  0.00  0.00     0.077 C 
ATOM      3  C1  PXY d   1      -1.185  -2.285   1.274  0.00  0.00    -0.082 A 
ATOM      4  C2  PXY d   1      -0.217  -2.049   0.403  0.00  0.00     0.003 A 
ATOM      5  C3  PXY d   1      -0.444  -2.191  -0.942  0.00  0.00     0.003 A 
ATOM      6  C4  PXY d   1      -1.658  -2.629  -1.397  0.00  0.00    -0.082 A 
ATOM      7  C5  PXY d   1      -2.648  -2.882  -0.514  0.00  0.00     0.003 A 
ATOM      8  C6  PXY d   1      -2.410  -2.692   0.844  0.00  0.00     0.003 A 
ENDROOT
TORSDOF 0
ENDMDL
