MODEL 1
REMARK minimizedAffinity 0.492808998
REMARK minimizedRMSD -1
REMARK  0 active torsions:
REMARK  status: ('A' for Active; 'I' for Inactive)
ROOT
ATOM      1  C4' PXY d   1      -1.174  -2.561  -2.765  0.00  0.00     0.077 C 
ATOM      2  C1' PXY d   1      -6.000  -5.658  -3.497  0.00  0.00     0.077 C 
ATOM      3  C1  PXY d   1      -4.727  -4.857  -3.308  0.00  0.00    -0.082 A 
ATOM      4  C2  PXY d   1      -4.747  -3.764  -2.562  0.00  0.00     0.003 A 
ATOM      5  C3  PXY d   1      -3.613  -3.010  -2.406  0.00  0.00     0.003 A 
ATOM      6  C4  PXY d   1      -2.433  -3.406  -2.976  0.00  0.00    -0.082 A 
ATOM      7  C5  PXY d   1      -2.402  -4.526  -3.730  0.00  0.00     0.003 A 
ATOM      8  C6  PXY d   1      -3.574  -5.255  -3.910  0.00  0.00     0.003 A 
ENDROOT
TORSDOF 0
ENDMDL
