MODEL 1
REMARK minimizedAffinity 11.1844406
REMARK minimizedRMSD -1
REMARK  0 active torsions:
REMARK  status: ('A' for Active; 'I' for Inactive)
ROOT
ATOM      1  C4' PXY d   1       0.241  -2.388   1.478  0.00  0.00     0.077 C 
ATOM      2  C1' PXY d   1      -4.275  -5.996   1.384  0.00  0.00     0.077 C 
ATOM      3  C1  PXY d   1      -3.087  -5.055   1.420  0.00  0.00    -0.082 A 
ATOM      4  C2  PXY d   1      -3.130  -3.921   0.739  0.00  0.00     0.003 A 
ATOM      5  C3  PXY d   1      -2.052  -3.073   0.735  0.00  0.00     0.003 A 
ATOM      6  C4  PXY d   1      -0.939  -3.364   1.478  0.00  0.00    -0.082 A 
ATOM      7  C5  PXY d   1      -0.892  -4.514   2.183  0.00  0.00     0.003 A 
ATOM      8  C6  PXY d   1      -1.980  -5.381   2.141  0.00  0.00     0.003 A 
ENDROOT
TORSDOF 0
ENDMDL
