MODEL 1
REMARK minimizedAffinity 18.5628529
REMARK minimizedRMSD -1
REMARK  0 active torsions:
REMARK  status: ('A' for Active; 'I' for Inactive)
ROOT
ATOM      1  C4' PXY d   1       1.974   1.612   0.984  0.00  0.00     0.077 C 
ATOM      2  C1' PXY d   1      -1.621   5.151  -1.839  0.00  0.00     0.077 C 
ATOM      3  C1  PXY d   1      -0.681   4.213  -1.107  0.00  0.00    -0.082 A 
ATOM      4  C2  PXY d   1      -0.368   4.455   0.156  0.00  0.00     0.003 A 
ATOM      5  C3  PXY d   1       0.505   3.636   0.823  0.00  0.00     0.003 A 
ATOM      6  C4  PXY d   1       1.022   2.527   0.208  0.00  0.00    -0.082 A 
ATOM      7  C5  PXY d   1       0.699   2.267  -1.076  0.00  0.00     0.003 A 
ATOM      8  C6  PXY d   1      -0.157   3.134  -1.749  0.00  0.00     0.003 A 
ENDROOT
TORSDOF 0
ENDMDL
