MODEL 1
REMARK minimizedAffinity 14.7945862
REMARK minimizedRMSD -1
REMARK  0 active torsions:
REMARK  status: ('A' for Active; 'I' for Inactive)
ROOT
ATOM      1  C4' PXY d   1      -4.112  -5.997   0.266  0.00  0.00     0.077 C 
ATOM      2  C1' PXY d   1      -5.704  -4.161  -4.980  0.00  0.00     0.077 C 
ATOM      3  C1  PXY d   1      -5.274  -4.639  -3.607  0.00  0.00    -0.082 A 
ATOM      4  C2  PXY d   1      -5.998  -5.548  -2.974  0.00  0.00     0.003 A 
ATOM      5  C3  PXY d   1      -5.641  -5.968  -1.719  0.00  0.00     0.003 A 
ATOM      6  C4  PXY d   1      -4.503  -5.492  -1.126  0.00  0.00    -0.082 A 
ATOM      7  C5  PXY d   1      -3.753  -4.572  -1.769  0.00  0.00     0.003 A 
ATOM      8  C6  PXY d   1      -4.155  -4.128  -3.026  0.00  0.00     0.003 A 
ENDROOT
TORSDOF 0
ENDMDL
