MODEL 1
REMARK minimizedAffinity 8.97826576
REMARK minimizedRMSD -1
REMARK  0 active torsions:
REMARK  status: ('A' for Active; 'I' for Inactive)
ROOT
ATOM      1  C4' PXY d   1      -3.635  -5.999   0.838  0.00  0.00     0.077 C 
ATOM      2  C1' PXY d   1      -5.980  -2.985  -3.502  0.00  0.00     0.077 C 
ATOM      3  C1  PXY d   1      -5.377  -3.781  -2.361  0.00  0.00    -0.082 A 
ATOM      4  C2  PXY d   1      -4.259  -3.361  -1.790  0.00  0.00     0.003 A 
ATOM      5  C3  PXY d   1      -3.683  -4.085  -0.779  0.00  0.00     0.003 A 
ATOM      6  C4  PXY d   1      -4.285  -5.223  -0.311  0.00  0.00    -0.082 A 
ATOM      7  C5  PXY d   1      -5.431  -5.652  -0.881  0.00  0.00     0.003 A 
ATOM      8  C6  PXY d   1      -5.978  -4.924  -1.934  0.00  0.00     0.003 A 
ENDROOT
TORSDOF 0
ENDMDL
