MODEL 1
REMARK minimizedAffinity -2.14208746
REMARK minimizedRMSD -1
REMARK  0 active torsions:
REMARK  status: ('A' for Active; 'I' for Inactive)
ROOT
ATOM      1  C   UNL d   1       1.890  -2.382  -1.964  0.00  0.00     0.077 C 
ATOM      2  C1  UNL d   1       1.680  -1.168  -1.110  0.00  0.00    -0.074 A 
ATOM      3  C2  UNL d   1       1.696   0.115  -1.668  0.00  0.00    -0.005 A 
ATOM      4  C3  UNL d   1       1.490   1.235  -0.862  0.00  0.00     0.006 A 
ATOM      5  C4  UNL d   1       1.266   1.084   0.507  0.00  0.00    -0.005 A 
ATOM      6  C5  UNL d   1       1.246  -0.191   1.082  0.00  0.00    -0.074 A 
ATOM      7  C6  UNL d   1       0.997  -0.371   2.550  0.00  0.00     0.077 C 
ATOM      8  C7  UNL d   1       1.447  -1.311   0.265  0.00  0.00    -0.001 A 
ENDROOT
TORSDOF 0
ENDMDL
