MODEL 1
REMARK minimizedAffinity 0.904200017
REMARK minimizedRMSD -1
REMARK  0 active torsions:
REMARK  status: ('A' for Active; 'I' for Inactive)
ROOT
ATOM      1  C   UNL d   1       1.173   2.051   1.271  0.00  0.00     0.077 C 
ATOM      2  C1  UNL d   1       1.335   0.679   0.689  0.00  0.00    -0.074 A 
ATOM      3  C2  UNL d   1       0.461  -0.357   1.035  0.00  0.00    -0.005 A 
ATOM      4  C3  UNL d   1       0.619  -1.626   0.478  0.00  0.00     0.006 A 
ATOM      5  C4  UNL d   1       1.651  -1.872  -0.428  0.00  0.00    -0.005 A 
ATOM      6  C5  UNL d   1       2.535  -0.849  -0.786  0.00  0.00    -0.074 A 
ATOM      7  C6  UNL d   1       3.643  -1.094  -1.766  0.00  0.00     0.077 C 
ATOM      8  C7  UNL d   1       2.365   0.426  -0.228  0.00  0.00    -0.001 A 
ENDROOT
TORSDOF 0
ENDMDL
