MODEL 1
REMARK minimizedAffinity -1.81447148
REMARK minimizedRMSD -1
REMARK  0 active torsions:
REMARK  status: ('A' for Active; 'I' for Inactive)
ROOT
ATOM      1  C   UNL d   1      -5.208   2.303  -1.127  0.00  0.00     0.077 C 
ATOM      2  C1  UNL d   1      -4.850   2.775  -2.504  0.00  0.00    -0.074 A 
ATOM      3  C2  UNL d   1      -5.842   3.027  -3.458  0.00  0.00    -0.005 A 
ATOM      4  C3  UNL d   1      -5.495   3.476  -4.732  0.00  0.00     0.006 A 
ATOM      5  C4  UNL d   1      -4.155   3.677  -5.065  0.00  0.00    -0.005 A 
ATOM      6  C5  UNL d   1      -3.149   3.431  -4.125  0.00  0.00    -0.074 A 
ATOM      7  C6  UNL d   1      -1.705   3.651  -4.464  0.00  0.00     0.077 C 
ATOM      8  C7  UNL d   1      -3.507   2.987  -2.844  0.00  0.00    -0.001 A 
ENDROOT
TORSDOF 0
ENDMDL
