MODEL 1
REMARK minimizedAffinity 3.42110515
REMARK minimizedRMSD -1
REMARK  0 active torsions:
REMARK  status: ('A' for Active; 'I' for Inactive)
ROOT
ATOM      1  C   UNL d   1       0.283  -1.987   0.797  0.00  0.00     0.077 C 
ATOM      2  C1  UNL d   1       1.224  -0.926   0.310  0.00  0.00    -0.074 A 
ATOM      3  C2  UNL d   1       0.985   0.426   0.579  0.00  0.00    -0.005 A 
ATOM      4  C3  UNL d   1       1.874   1.401   0.127  0.00  0.00     0.006 A 
ATOM      5  C4  UNL d   1       3.010   1.035  -0.596  0.00  0.00    -0.005 A 
ATOM      6  C5  UNL d   1       3.266  -0.311  -0.874  0.00  0.00    -0.074 A 
ATOM      7  C6  UNL d   1       4.487  -0.722  -1.642  0.00  0.00     0.077 C 
ATOM      8  C7  UNL d   1       2.371  -1.286  -0.411  0.00  0.00    -0.001 A 
ENDROOT
TORSDOF 0
ENDMDL
