MODEL 1
REMARK minimizedAffinity 1.92206216
REMARK minimizedRMSD -1
REMARK  0 active torsions:
REMARK  status: ('A' for Active; 'I' for Inactive)
ROOT
ATOM      1  C   UNL d   1      -0.335  -0.975   1.787  0.00  0.00     0.077 C 
ATOM      2  C1  UNL d   1       0.850  -0.801   0.884  0.00  0.00    -0.074 A 
ATOM      3  C2  UNL d   1       1.383  -1.885   0.180  0.00  0.00    -0.005 A 
ATOM      4  C3  UNL d   1       2.479  -1.706  -0.663  0.00  0.00     0.006 A 
ATOM      5  C4  UNL d   1       3.052  -0.442  -0.811  0.00  0.00    -0.005 A 
ATOM      6  C5  UNL d   1       2.533   0.654  -0.116  0.00  0.00    -0.074 A 
ATOM      7  C6  UNL d   1       3.131   2.021  -0.271  0.00  0.00     0.077 C 
ATOM      8  C7  UNL d   1       1.427   0.467   0.725  0.00  0.00    -0.001 A 
ENDROOT
TORSDOF 0
ENDMDL
