MODEL 1
REMARK minimizedAffinity 2.06023407
REMARK minimizedRMSD -1
REMARK  0 active torsions:
REMARK  status: ('A' for Active; 'I' for Inactive)
ROOT
ATOM      1  C   UNL d   1       3.403   1.481  -1.867  0.00  0.00     0.077 C 
ATOM      2  C1  UNL d   1       2.782   0.441  -0.983  0.00  0.00    -0.074 A 
ATOM      3  C2  UNL d   1       2.738  -0.901  -1.375  0.00  0.00    -0.005 A 
ATOM      4  C3  UNL d   1       2.166  -1.860  -0.538  0.00  0.00     0.006 A 
ATOM      5  C4  UNL d   1       1.634  -1.486   0.697  0.00  0.00    -0.005 A 
ATOM      6  C5  UNL d   1       1.671  -0.150   1.106  0.00  0.00    -0.074 A 
ATOM      7  C6  UNL d   1       1.112   0.267   2.434  0.00  0.00     0.077 C 
ATOM      8  C7  UNL d   1       2.253   0.806   0.262  0.00  0.00    -0.001 A 
ENDROOT
TORSDOF 0
ENDMDL
