MODEL 1
REMARK minimizedAffinity 4.3081398
REMARK minimizedRMSD -1
REMARK  0 active torsions:
REMARK  status: ('A' for Active; 'I' for Inactive)
ROOT
ATOM      1  C   UNL d   1       1.407  -1.633   0.809  0.00  0.00     0.077 C 
ATOM      2  C1  UNL d   1       0.151  -1.239   1.528  0.00  0.00    -0.074 A 
ATOM      3  C2  UNL d   1       0.081  -0.043   2.250  0.00  0.00    -0.005 A 
ATOM      4  C3  UNL d   1      -1.097   0.314   2.906  0.00  0.00     0.006 A 
ATOM      5  C4  UNL d   1      -2.215  -0.519   2.846  0.00  0.00    -0.005 A 
ATOM      6  C5  UNL d   1      -2.164  -1.717   2.128  0.00  0.00    -0.074 A 
ATOM      7  C6  UNL d   1      -3.360  -2.619   2.046  0.00  0.00     0.077 C 
ATOM      8  C7  UNL d   1      -0.979  -2.067   1.466  0.00  0.00    -0.001 A 
ENDROOT
TORSDOF 0
ENDMDL
