MODEL 1
REMARK minimizedAffinity 1.14035988
REMARK minimizedRMSD -1
REMARK  0 active torsions:
REMARK  status: ('A' for Active; 'I' for Inactive)
ROOT
ATOM      1  C   UNL d   1       3.188  -1.511  -1.158  0.00  0.00     0.077 C 
ATOM      2  C1  UNL d   1       2.145  -0.892  -0.276  0.00  0.00    -0.074 A 
ATOM      3  C2  UNL d   1       2.178   0.473   0.028  0.00  0.00    -0.005 A 
ATOM      4  C3  UNL d   1       1.196   1.036   0.842  0.00  0.00     0.006 A 
ATOM      5  C4  UNL d   1       0.172   0.242   1.361  0.00  0.00    -0.005 A 
ATOM      6  C5  UNL d   1       0.122  -1.124   1.067  0.00  0.00    -0.074 A 
ATOM      7  C6  UNL d   1      -0.977  -1.990   1.608  0.00  0.00     0.077 C 
ATOM      8  C7  UNL d   1       1.109  -1.682   0.243  0.00  0.00    -0.001 A 
ENDROOT
TORSDOF 0
ENDMDL
