MODEL 1
REMARK minimizedAffinity -3.58115983
REMARK minimizedRMSD -1
REMARK  0 active torsions:
REMARK  status: ('A' for Active; 'I' for Inactive)
ROOT
ATOM      1  C   UNL d   1      -0.236  -2.029   1.103  0.00  0.00     0.077 C 
ATOM      2  C1  UNL d   1       0.710  -1.056   0.464  0.00  0.00    -0.074 A 
ATOM      3  C2  UNL d   1       0.581   0.319   0.680  0.00  0.00    -0.005 A 
ATOM      4  C3  UNL d   1       1.474   1.211   0.087  0.00  0.00     0.006 A 
ATOM      5  C4  UNL d   1       2.503   0.737  -0.728  0.00  0.00    -0.005 A 
ATOM      6  C5  UNL d   1       2.648  -0.635  -0.956  0.00  0.00    -0.074 A 
ATOM      7  C6  UNL d   1       3.754  -1.162  -1.821  0.00  0.00     0.077 C 
ATOM      8  C7  UNL d   1       1.750  -1.525  -0.350  0.00  0.00    -0.001 A 
ENDROOT
TORSDOF 0
ENDMDL
