MODEL 1
REMARK minimizedAffinity 1.13650906
REMARK minimizedRMSD -1
REMARK  0 active torsions:
REMARK  status: ('A' for Active; 'I' for Inactive)
ROOT
ATOM      1  C   UNL d   1       1.497   2.085   0.991  0.00  0.00     0.077 C 
ATOM      2  C1  UNL d   1       1.422   0.667   0.506  0.00  0.00    -0.074 A 
ATOM      3  C2  UNL d   1       0.408  -0.190   0.945  0.00  0.00    -0.005 A 
ATOM      4  C3  UNL d   1       0.345  -1.503   0.478  0.00  0.00     0.006 A 
ATOM      5  C4  UNL d   1       1.294  -1.970  -0.433  0.00  0.00    -0.005 A 
ATOM      6  C5  UNL d   1       2.314  -1.127  -0.884  0.00  0.00    -0.074 A 
ATOM      7  C6  UNL d   1       3.336  -1.611  -1.870  0.00  0.00     0.077 C 
ATOM      8  C7  UNL d   1       2.366   0.192  -0.415  0.00  0.00    -0.001 A 
ENDROOT
TORSDOF 0
ENDMDL
