MODEL 1
REMARK minimizedAffinity 2.1294651
REMARK minimizedRMSD -1
REMARK  0 active torsions:
REMARK  status: ('A' for Active; 'I' for Inactive)
ROOT
ATOM      1  C   UNL d   1       2.614  -1.908  -1.401  0.00  0.00     0.077 C 
ATOM      2  C1  UNL d   1       2.037  -0.916  -0.435  0.00  0.00    -0.074 A 
ATOM      3  C2  UNL d   1       2.321   0.448  -0.550  0.00  0.00    -0.005 A 
ATOM      4  C3  UNL d   1       1.769   1.360   0.351  0.00  0.00     0.006 A 
ATOM      5  C4  UNL d   1       0.929   0.916   1.373  0.00  0.00    -0.005 A 
ATOM      6  C5  UNL d   1       0.633  -0.444   1.503  0.00  0.00    -0.074 A 
ATOM      7  C6  UNL d   1      -0.275  -0.936   2.590  0.00  0.00     0.077 C 
ATOM      8  C7  UNL d   1       1.186  -1.353   0.590  0.00  0.00    -0.001 A 
ENDROOT
TORSDOF 0
ENDMDL
