MODEL 1
REMARK minimizedAffinity 2.88532233
REMARK minimizedRMSD -1
REMARK  0 active torsions:
REMARK  status: ('A' for Active; 'I' for Inactive)
ROOT
ATOM      1  C   UNL d   1      -1.212   4.812  -2.655  0.00  0.00     0.077 C 
ATOM      2  C1  UNL d   1      -0.778   3.696  -3.559  0.00  0.00    -0.074 A 
ATOM      3  C2  UNL d   1      -1.586   2.571  -3.750  0.00  0.00    -0.005 A 
ATOM      4  C3  UNL d   1      -1.174   1.545  -4.601  0.00  0.00     0.006 A 
ATOM      5  C4  UNL d   1       0.048   1.635  -5.269  0.00  0.00    -0.005 A 
ATOM      6  C5  UNL d   1       0.869   2.753  -5.091  0.00  0.00    -0.074 A 
ATOM      7  C6  UNL d   1       2.181   2.870  -5.808  0.00  0.00     0.077 C 
ATOM      8  C7  UNL d   1       0.444   3.783  -4.239  0.00  0.00    -0.001 A 
ENDROOT
TORSDOF 0
ENDMDL
