MODEL 1
REMARK minimizedAffinity -0.787585735
REMARK minimizedRMSD -1
REMARK  0 active torsions:
REMARK  status: ('A' for Active; 'I' for Inactive)
ROOT
ATOM      1  C   UNL d   1       3.581   1.758  -2.051  0.00  0.00     0.077 C 
ATOM      2  C1  UNL d   1       2.979   0.584  -1.338  0.00  0.00    -0.074 A 
ATOM      3  C2  UNL d   1       3.292  -0.725  -1.716  0.00  0.00    -0.005 A 
ATOM      4  C3  UNL d   1       2.731  -1.807  -1.037  0.00  0.00     0.006 A 
ATOM      5  C4  UNL d   1       1.852  -1.590   0.026  0.00  0.00    -0.005 A 
ATOM      6  C5  UNL d   1       1.528  -0.288   0.419  0.00  0.00    -0.074 A 
ATOM      7  C6  UNL d   1       0.594  -0.037   1.565  0.00  0.00     0.077 C 
ATOM      8  C7  UNL d   1       2.102   0.794  -0.264  0.00  0.00    -0.001 A 
ENDROOT
TORSDOF 0
ENDMDL
