MODEL 1
REMARK minimizedAffinity 8.06417465
REMARK minimizedRMSD -1
REMARK  0 active torsions:
REMARK  status: ('A' for Active; 'I' for Inactive)
ROOT
ATOM      1  C   UNL d   1       2.221   1.730   0.748  0.00  0.00     0.077 C 
ATOM      2  C1  UNL d   1       1.906   0.277   0.551  0.00  0.00    -0.074 A 
ATOM      3  C2  UNL d   1       0.803  -0.311   1.179  0.00  0.00    -0.005 A 
ATOM      4  C3  UNL d   1       0.517  -1.661   0.979  0.00  0.00     0.006 A 
ATOM      5  C4  UNL d   1       1.330  -2.437   0.151  0.00  0.00    -0.005 A 
ATOM      6  C5  UNL d   1       2.436  -1.866  -0.486  0.00  0.00    -0.074 A 
ATOM      7  C6  UNL d   1       3.314  -2.683  -1.387  0.00  0.00     0.077 C 
ATOM      8  C7  UNL d   1       2.713  -0.507  -0.286  0.00  0.00    -0.001 A 
ENDROOT
TORSDOF 0
ENDMDL
