MODEL 1
REMARK minimizedAffinity 1.00330043
REMARK minimizedRMSD -1
REMARK  0 active torsions:
REMARK  status: ('A' for Active; 'I' for Inactive)
ROOT
ATOM      1  C   UNL d   1       3.354  -1.744  -1.869  0.00  0.00     0.077 C 
ATOM      2  C1  UNL d   1       2.308  -1.240  -0.920  0.00  0.00    -0.074 A 
ATOM      3  C2  UNL d   1       1.321  -2.094  -0.419  0.00  0.00    -0.005 A 
ATOM      4  C3  UNL d   1       0.360  -1.614   0.471  0.00  0.00     0.006 A 
ATOM      5  C4  UNL d   1       0.376  -0.276   0.867  0.00  0.00    -0.005 A 
ATOM      6  C5  UNL d   1       1.356   0.593   0.377  0.00  0.00    -0.074 A 
ATOM      7  C6  UNL d   1       1.394   2.032   0.801  0.00  0.00     0.077 C 
ATOM      8  C7  UNL d   1       2.323   0.101  -0.511  0.00  0.00    -0.001 A 
ENDROOT
TORSDOF 0
ENDMDL
