MODEL 1
REMARK minimizedAffinity 0.477996677
REMARK minimizedRMSD -1
REMARK  0 active torsions:
REMARK  status: ('A' for Active; 'I' for Inactive)
ROOT
ATOM      1  C1  DEN d   1       2.686   2.008   1.778  0.00  0.00     0.130 A 
ATOM      2  C2  DEN d   1       2.347   1.717   0.388  0.00  0.00    -0.031 A 
ATOM      3  C3  DEN d   1       1.902   0.311   0.312  0.00  0.00     0.027 A 
ATOM      4  C4  DEN d   1       1.701  -1.432   2.202  0.00  0.00     0.027 A 
ATOM      5  C5  DEN d   1       1.886  -1.654   3.549  0.00  0.00    -0.003 A 
ATOM      6  C6  DEN d   1       2.379  -0.690   4.387  0.00  0.00     0.001 A 
ATOM      7  C7  DEN d   1       2.662   0.557   3.894  0.00  0.00     0.017 A 
ATOM      8  C8  DEN d   1       2.484   0.786   2.536  0.00  0.00    -0.094 A 
ATOM      9  C9  DEN d   1       1.973  -0.198   1.708  0.00  0.00    -0.072 A 
ENDROOT
TORSDOF 0
ENDMDL
