MODEL 1
REMARK minimizedAffinity -4.90197039
REMARK minimizedRMSD -1
REMARK  0 active torsions:
REMARK  status: ('A' for Active; 'I' for Inactive)
ROOT
ATOM      1  C1  DEN d   1      -0.790  -1.332   0.848  0.00  0.00     0.130 A 
ATOM      2  C2  DEN d   1      -0.487  -2.645   1.410  0.00  0.00    -0.031 A 
ATOM      3  C3  DEN d   1       0.938  -2.658   1.797  0.00  0.00     0.027 A 
ATOM      4  C4  DEN d   1       2.694  -0.780   1.585  0.00  0.00     0.027 A 
ATOM      5  C5  DEN d   1       2.910   0.511   1.158  0.00  0.00    -0.003 A 
ATOM      6  C6  DEN d   1       1.925   1.261   0.571  0.00  0.00     0.001 A 
ATOM      7  C7  DEN d   1       0.665   0.740   0.436  0.00  0.00     0.017 A 
ATOM      8  C8  DEN d   1       0.441  -0.564   0.858  0.00  0.00    -0.094 A 
ATOM      9  C9  DEN d   1       1.447  -1.301   1.460  0.00  0.00    -0.072 A 
ENDROOT
TORSDOF 0
ENDMDL
