MODEL 1
REMARK minimizedAffinity -2.44352841
REMARK minimizedRMSD -1
REMARK  0 active torsions:
REMARK  status: ('A' for Active; 'I' for Inactive)
ROOT
ATOM      1  C1  DEN d   1       2.177  -1.650   0.669  0.00  0.00     0.130 A 
ATOM      2  C2  DEN d   1       2.815  -0.915   1.758  0.00  0.00    -0.031 A 
ATOM      3  C3  DEN d   1       2.005   0.289   2.032  0.00  0.00     0.027 A 
ATOM      4  C4  DEN d   1      -0.166   1.080   0.885  0.00  0.00     0.027 A 
ATOM      5  C5  DEN d   1      -1.083   0.793  -0.101  0.00  0.00    -0.003 A 
ATOM      6  C6  DEN d   1      -0.960  -0.302  -0.916  0.00  0.00     0.001 A 
ATOM      7  C7  DEN d   1       0.079  -1.174  -0.729  0.00  0.00     0.017 A 
ATOM      8  C8  DEN d   1       1.012  -0.887   0.259  0.00  0.00    -0.094 A 
ATOM      9  C9  DEN d   1       0.864   0.217   1.080  0.00  0.00    -0.072 A 
ENDROOT
TORSDOF 0
ENDMDL
