MODEL 1
REMARK minimizedAffinity 9.95931911
REMARK minimizedRMSD -1
REMARK  0 active torsions:
REMARK  status: ('A' for Active; 'I' for Inactive)
ROOT
ATOM      1  C1  DEN d   1       0.771   1.739   0.230  0.00  0.00     0.130 A 
ATOM      2  C2  DEN d   1       0.547   0.373  -0.234  0.00  0.00    -0.031 A 
ATOM      3  C3  DEN d   1       1.191  -0.547   0.725  0.00  0.00     0.027 A 
ATOM      4  C4  DEN d   1       2.501   0.008   2.876  0.00  0.00     0.027 A 
ATOM      5  C5  DEN d   1       2.964   1.029   3.676  0.00  0.00    -0.003 A 
ATOM      6  C6  DEN d   1       2.760   2.348   3.369  0.00  0.00     0.001 A 
ATOM      7  C7  DEN d   1       2.035   2.681   2.255  0.00  0.00     0.017 A 
ATOM      8  C8  DEN d   1       1.571   1.657   1.439  0.00  0.00    -0.094 A 
ATOM      9  C9  DEN d   1       1.778   0.330   1.774  0.00  0.00    -0.072 A 
ENDROOT
TORSDOF 0
ENDMDL
