MODEL 1
REMARK minimizedAffinity 8.00879002
REMARK minimizedRMSD -1
REMARK  0 active torsions:
REMARK  status: ('A' for Active; 'I' for Inactive)
ROOT
ATOM      1  C1  DEN d   1       2.596   1.014   2.475  0.00  0.00     0.130 A 
ATOM      2  C2  DEN d   1       2.202   1.771   1.290  0.00  0.00    -0.031 A 
ATOM      3  C3  DEN d   1       1.190   0.983   0.559  0.00  0.00     0.027 A 
ATOM      4  C4  DEN d   1       0.196  -1.324   1.147  0.00  0.00     0.027 A 
ATOM      5  C5  DEN d   1       0.229  -2.363   2.050  0.00  0.00    -0.003 A 
ATOM      6  C6  DEN d   1       1.070  -2.365   3.131  0.00  0.00     0.001 A 
ATOM      7  C7  DEN d   1       1.882  -1.286   3.361  0.00  0.00     0.017 A 
ATOM      8  C8  DEN d   1       1.860  -0.238   2.450  0.00  0.00    -0.094 A 
ATOM      9  C9  DEN d   1       0.993  -0.249   1.371  0.00  0.00    -0.072 A 
ENDROOT
TORSDOF 0
ENDMDL
