MODEL 1
REMARK minimizedAffinity 13.4886818
REMARK minimizedRMSD -1
REMARK  0 active torsions:
REMARK  status: ('A' for Active; 'I' for Inactive)
ROOT
ATOM      1  C1  DEN d   1      -5.982   1.754  -0.790  0.00  0.00     0.130 A 
ATOM      2  C2  DEN d   1      -5.966   1.737   0.671  0.00  0.00    -0.031 A 
ATOM      3  C3  DEN d   1      -5.960   3.135   1.144  0.00  0.00     0.027 A 
ATOM      4  C4  DEN d   1      -5.980   5.315  -0.235  0.00  0.00     0.027 A 
ATOM      5  C5  DEN d   1      -5.982   5.837  -1.510  0.00  0.00    -0.003 A 
ATOM      6  C6  DEN d   1      -5.951   5.042  -2.624  0.00  0.00     0.001 A 
ATOM      7  C7  DEN d   1      -5.961   3.679  -2.486  0.00  0.00     0.017 A 
ATOM      8  C8  DEN d   1      -5.951   3.145  -1.204  0.00  0.00    -0.094 A 
ATOM      9  C9  DEN d   1      -5.995   3.966  -0.090  0.00  0.00    -0.072 A 
ENDROOT
TORSDOF 0
ENDMDL
