MODEL 1
REMARK minimizedAffinity 4.838624
REMARK minimizedRMSD -1
REMARK  0 active torsions:
REMARK  status: ('A' for Active; 'I' for Inactive)
ROOT
ATOM      1  C1  DEN d   1       2.993   0.836   3.209  0.00  0.00     0.130 A 
ATOM      2  C2  DEN d   1       2.604  -0.376   3.924  0.00  0.00    -0.031 A 
ATOM      3  C3  DEN d   1       1.508  -1.018   3.171  0.00  0.00     0.027 A 
ATOM      4  C4  DEN d   1       0.385  -0.260   0.976  0.00  0.00     0.027 A 
ATOM      5  C5  DEN d   1       0.368   0.714   0.003  0.00  0.00    -0.003 A 
ATOM      6  C6  DEN d   1       1.194   1.806   0.047  0.00  0.00     0.001 A 
ATOM      7  C7  DEN d   1       2.105   1.927   1.063  0.00  0.00     0.017 A 
ATOM      8  C8  DEN d   1       2.123   0.953   2.053  0.00  0.00    -0.094 A 
ATOM      9  C9  DEN d   1       1.288  -0.150   1.983  0.00  0.00    -0.072 A 
ENDROOT
TORSDOF 0
ENDMDL
