MODEL 1
REMARK minimizedAffinity 4.05279493
REMARK minimizedRMSD -1
REMARK  0 active torsions:
REMARK  status: ('A' for Active; 'I' for Inactive)
ROOT
ATOM      1  C1  DEN d   1       2.399   1.387   1.479  0.00  0.00     0.130 A 
ATOM      2  C2  DEN d   1       2.662   0.290   2.407  0.00  0.00    -0.031 A 
ATOM      3  C3  DEN d   1       1.590  -0.712   2.246  0.00  0.00     0.027 A 
ATOM      4  C4  DEN d   1      -0.440  -0.675   0.655  0.00  0.00     0.027 A 
ATOM      5  C5  DEN d   1      -1.094   0.054  -0.314  0.00  0.00    -0.003 A 
ATOM      6  C6  DEN d   1      -0.652   1.283  -0.725  0.00  0.00     0.001 A 
ATOM      7  C7  DEN d   1       0.502   1.801  -0.198  0.00  0.00     0.017 A 
ATOM      8  C8  DEN d   1       1.162   1.076   0.785  0.00  0.00    -0.094 A 
ATOM      9  C9  DEN d   1       0.706  -0.171   1.179  0.00  0.00    -0.072 A 
ENDROOT
TORSDOF 0
ENDMDL
