MODEL 1
REMARK minimizedAffinity 12.8307304
REMARK minimizedRMSD -1
REMARK  0 active torsions:
REMARK  status: ('A' for Active; 'I' for Inactive)
ROOT
ATOM      1  C1  DEN d   1      -2.358  -2.370  -1.774  0.00  0.00     0.130 A 
ATOM      2  C2  DEN d   1      -2.081  -3.213  -2.934  0.00  0.00    -0.031 A 
ATOM      3  C3  DEN d   1      -0.796  -3.903  -2.701  0.00  0.00     0.027 A 
ATOM      4  C4  DEN d   1       0.780  -3.752  -0.665  0.00  0.00     0.027 A 
ATOM      5  C5  DEN d   1       0.975  -3.158   0.562  0.00  0.00    -0.003 A 
ATOM      6  C6  DEN d   1       0.097  -2.242   1.078  0.00  0.00     0.001 A 
ATOM      7  C7  DEN d   1      -1.040  -1.927   0.383  0.00  0.00     0.017 A 
ATOM      8  C8  DEN d   1      -1.240  -2.515  -0.859  0.00  0.00    -0.094 A 
ATOM      9  C9  DEN d   1      -0.347  -3.449  -1.357  0.00  0.00    -0.072 A 
ENDROOT
TORSDOF 0
ENDMDL
