MODEL 1
REMARK minimizedAffinity 1.27158487
REMARK minimizedRMSD -1
REMARK  0 active torsions:
REMARK  status: ('A' for Active; 'I' for Inactive)
ROOT
ATOM      1  C1  DEN d   1       2.908   0.125   3.035  0.00  0.00     0.130 A 
ATOM      2  C2  DEN d   1       2.576  -1.094   3.768  0.00  0.00    -0.031 A 
ATOM      3  C3  DEN d   1       1.384  -1.695   3.136  0.00  0.00     0.027 A 
ATOM      4  C4  DEN d   1       0.031  -0.864   1.103  0.00  0.00     0.027 A 
ATOM      5  C5  DEN d   1      -0.076   0.131   0.157  0.00  0.00    -0.003 A 
ATOM      6  C6  DEN d   1       0.776   1.203   0.125  0.00  0.00     0.001 A 
ATOM      7  C7  DEN d   1       1.802   1.282   1.030  0.00  0.00     0.017 A 
ATOM      8  C8  DEN d   1       1.912   0.286   1.991  0.00  0.00    -0.094 A 
ATOM      9  C9  DEN d   1       1.048  -0.796   1.999  0.00  0.00    -0.072 A 
ENDROOT
TORSDOF 0
ENDMDL
