MODEL 1
REMARK minimizedAffinity -3.89377117
REMARK minimizedRMSD -1
REMARK  0 active torsions:
REMARK  status: ('A' for Active; 'I' for Inactive)
ROOT
ATOM      1  N1  IND d   1      -0.321   3.534  -5.215  0.00  0.00    -0.196 N 
ATOM      2  C2  IND d   1       0.616   4.405  -4.735  0.00  0.00     0.054 A 
ATOM      3  C3  IND d   1       0.683   4.328  -3.387  0.00  0.00    -0.031 A 
ATOM      4  C4  IND d   1      -0.581   2.770  -1.773  0.00  0.00     0.051 A 
ATOM      5  C5  IND d   1      -1.569   1.826  -1.740  0.00  0.00    -0.031 A 
ATOM      6  C6  IND d   1      -2.202   1.392  -2.886  0.00  0.00     0.015 A 
ATOM      7  C7  IND d   1      -1.861   1.880  -4.116  0.00  0.00    -0.016 A 
ATOM      8  C8  IND d   1      -0.864   2.844  -4.153  0.00  0.00    -0.047 A 
ATOM      9  C9  IND d   1      -0.247   3.319  -2.989  0.00  0.00    -0.096 A 
ATOM     10  HN1 IND d   1      -0.536   3.433  -6.042  0.00  0.00     0.298 HD
ENDROOT
TORSDOF 0
ENDMDL
