MODEL 1
REMARK minimizedAffinity -4.41349888
REMARK minimizedRMSD -1
REMARK  0 active torsions:
REMARK  status: ('A' for Active; 'I' for Inactive)
ROOT
ATOM      1  N1  IND d   1      -0.841   3.771  -5.430  0.00  0.00    -0.196 N 
ATOM      2  C2  IND d   1       0.368   4.299  -5.074  0.00  0.00     0.054 A 
ATOM      3  C3  IND d   1       0.620   4.059  -3.767  0.00  0.00    -0.031 A 
ATOM      4  C4  IND d   1      -0.768   2.733  -2.052  0.00  0.00     0.051 A 
ATOM      5  C5  IND d   1      -1.966   2.093  -1.899  0.00  0.00    -0.031 A 
ATOM      6  C6  IND d   1      -2.867   1.975  -2.937  0.00  0.00     0.015 A 
ATOM      7  C7  IND d   1      -2.598   2.484  -4.175  0.00  0.00    -0.016 A 
ATOM      8  C8  IND d   1      -1.385   3.141  -4.332  0.00  0.00    -0.047 A 
ATOM      9  C9  IND d   1      -0.485   3.302  -3.271  0.00  0.00    -0.096 A 
ATOM     10  HN1 IND d   1      -1.202   3.823  -6.209  0.00  0.00     0.298 HD
ENDROOT
TORSDOF 0
ENDMDL
