MODEL 1
REMARK minimizedAffinity 0.786419332
REMARK minimizedRMSD -1
REMARK  0 active torsions:
REMARK  status: ('A' for Active; 'I' for Inactive)
ROOT
ATOM      1  N1  IND d   1      -1.091   0.193   0.871  0.00  0.00    -0.196 N 
ATOM      2  C2  IND d   1      -1.216   1.195  -0.051  0.00  0.00     0.054 A 
ATOM      3  C3  IND d   1      -0.085   1.305  -0.783  0.00  0.00    -0.031 A 
ATOM      4  C4  IND d   1       2.057  -0.121  -0.709  0.00  0.00     0.051 A 
ATOM      5  C5  IND d   1       2.655  -1.130  -0.008  0.00  0.00    -0.031 A 
ATOM      6  C6  IND d   1       2.022  -1.764   1.041  0.00  0.00     0.015 A 
ATOM      7  C7  IND d   1       0.756  -1.419   1.423  0.00  0.00    -0.016 A 
ATOM      8  C8  IND d   1       0.148  -0.390   0.718  0.00  0.00    -0.047 A 
ATOM      9  C9  IND d   1       0.802   0.286  -0.320  0.00  0.00    -0.096 A 
ATOM     10  HN1 IND d   1      -1.685  -0.035   1.449  0.00  0.00     0.298 HD
ENDROOT
TORSDOF 0
ENDMDL
