MODEL 1
REMARK minimizedAffinity -5.15684843
REMARK minimizedRMSD -1
REMARK  0 active torsions:
REMARK  status: ('A' for Active; 'I' for Inactive)
ROOT
ATOM      1  N1  IND d   1      -1.208   0.424   1.995  0.00  0.00    -0.196 N 
ATOM      2  C2  IND d   1      -1.646  -0.328   3.050  0.00  0.00     0.054 A 
ATOM      3  C3  IND d   1      -0.839  -1.397   3.233  0.00  0.00    -0.031 A 
ATOM      4  C4  IND d   1       1.314  -2.053   1.984  0.00  0.00     0.051 A 
ATOM      5  C5  IND d   1       2.094  -1.695   0.920  0.00  0.00    -0.031 A 
ATOM      6  C6  IND d   1       1.809  -0.589   0.146  0.00  0.00     0.015 A 
ATOM      7  C7  IND d   1       0.734   0.211   0.416  0.00  0.00    -0.016 A 
ATOM      8  C8  IND d   1      -0.064  -0.153   1.491  0.00  0.00    -0.047 A 
ATOM      9  C9  IND d   1       0.197  -1.299   2.254  0.00  0.00    -0.096 A 
ATOM     10  HN1 IND d   1      -1.585   1.137   1.697  0.00  0.00     0.298 HD
ENDROOT
TORSDOF 0
ENDMDL
