MODEL 1
REMARK minimizedAffinity -3.48239732
REMARK minimizedRMSD -1
REMARK  0 active torsions:
REMARK  status: ('A' for Active; 'I' for Inactive)
ROOT
ATOM      1  N1  IND d   1       1.305  -2.986   1.142  0.00  0.00    -0.196 N 
ATOM      2  C2  IND d   1       0.223  -3.037   1.977  0.00  0.00     0.054 A 
ATOM      3  C3  IND d   1      -0.521  -1.916   1.851  0.00  0.00    -0.031 A 
ATOM      4  C4  IND d   1      -0.207   0.086   0.263  0.00  0.00     0.051 A 
ATOM      5  C5  IND d   1       0.657   0.603  -0.662  0.00  0.00    -0.031 A 
ATOM      6  C6  IND d   1       1.803  -0.066  -1.042  0.00  0.00     0.015 A 
ATOM      7  C7  IND d   1       2.123  -1.286  -0.518  0.00  0.00    -0.016 A 
ATOM      8  C8  IND d   1       1.251  -1.810   0.426  0.00  0.00    -0.047 A 
ATOM      9  C9  IND d   1       0.109  -1.117   0.848  0.00  0.00    -0.096 A 
ATOM     10  HN1 IND d   1       1.916  -3.588   1.075  0.00  0.00     0.298 HD
ENDROOT
TORSDOF 0
ENDMDL
