MODEL 1
REMARK minimizedAffinity -2.97047353
REMARK minimizedRMSD -1
REMARK  0 active torsions:
REMARK  status: ('A' for Active; 'I' for Inactive)
ROOT
ATOM      1  N1  IND d   1      -1.655   0.488   1.483  0.00  0.00    -0.196 N 
ATOM      2  C2  IND d   1      -0.935   0.934   0.410  0.00  0.00     0.054 A 
ATOM      3  C3  IND d   1       0.095   0.097   0.153  0.00  0.00    -0.031 A 
ATOM      4  C4  IND d   1       0.729  -2.117   1.304  0.00  0.00     0.051 A 
ATOM      5  C5  IND d   1       0.391  -2.919   2.357  0.00  0.00    -0.031 A 
ATOM      6  C6  IND d   1      -0.670  -2.621   3.189  0.00  0.00     0.015 A 
ATOM      7  C7  IND d   1      -1.442  -1.512   2.990  0.00  0.00    -0.016 A 
ATOM      8  C8  IND d   1      -1.097  -0.692   1.925  0.00  0.00    -0.047 A 
ATOM      9  C9  IND d   1       0.004  -0.966   1.103  0.00  0.00    -0.096 A 
ATOM     10  HN1 IND d   1      -2.340   0.878   1.825  0.00  0.00     0.298 HD
ENDROOT
TORSDOF 0
ENDMDL
