MODEL 1
REMARK minimizedAffinity -4.99566889
REMARK minimizedRMSD -1
REMARK  0 active torsions:
REMARK  status: ('A' for Active; 'I' for Inactive)
ROOT
ATOM      1  N1  IND d   1      -1.142  -1.155   2.098  0.00  0.00    -0.196 N 
ATOM      2  C2  IND d   1      -0.807  -2.140   2.986  0.00  0.00     0.054 A 
ATOM      3  C3  IND d   1       0.409  -2.649   2.688  0.00  0.00    -0.031 A 
ATOM      4  C4  IND d   1       2.070  -1.948   0.850  0.00  0.00     0.051 A 
ATOM      5  C5  IND d   1       2.195  -1.120  -0.230  0.00  0.00    -0.031 A 
ATOM      6  C6  IND d   1       1.195  -0.241  -0.595  0.00  0.00     0.015 A 
ATOM      7  C7  IND d   1       0.032  -0.150   0.117  0.00  0.00    -0.016 A 
ATOM      8  C8  IND d   1      -0.101  -0.994   1.210  0.00  0.00    -0.047 A 
ATOM      9  C9  IND d   1       0.892  -1.918   1.559  0.00  0.00    -0.096 A 
ATOM     10  HN1 IND d   1      -1.878  -0.711   2.095  0.00  0.00     0.298 HD
ENDROOT
TORSDOF 0
ENDMDL
