MODEL 1
REMARK minimizedAffinity -4.47878885
REMARK minimizedRMSD -1
REMARK  0 active torsions:
REMARK  status: ('A' for Active; 'I' for Inactive)
ROOT
ATOM      1  N1  IND d   1      -0.793   0.412   0.110  0.00  0.00    -0.196 N 
ATOM      2  C2  IND d   1       0.001   0.910  -0.886  0.00  0.00     0.054 A 
ATOM      3  C3  IND d   1       1.231   0.352  -0.829  0.00  0.00    -0.031 A 
ATOM      4  C4  IND d   1       2.128  -1.474   0.749  0.00  0.00     0.051 A 
ATOM      5  C5  IND d   1       1.785  -2.213   1.846  0.00  0.00    -0.031 A 
ATOM      6  C6  IND d   1       0.538  -2.115   2.430  0.00  0.00     0.015 A 
ATOM      7  C7  IND d   1      -0.419  -1.279   1.930  0.00  0.00    -0.016 A 
ATOM      8  C8  IND d   1      -0.072  -0.521   0.821  0.00  0.00    -0.047 A 
ATOM      9  C9  IND d   1       1.206  -0.585   0.249  0.00  0.00    -0.096 A 
ATOM     10  HN1 IND d   1      -1.606   0.644   0.265  0.00  0.00     0.298 HD
ENDROOT
TORSDOF 0
ENDMDL
