MODEL 1
REMARK minimizedAffinity -4.59017277
REMARK minimizedRMSD -1
REMARK  0 active torsions:
REMARK  status: ('A' for Active; 'I' for Inactive)
ROOT
ATOM      1  N1  IND d   1      -0.831   0.700   0.666  0.00  0.00    -0.196 N 
ATOM      2  C2  IND d   1       0.039   1.283  -0.213  0.00  0.00     0.054 A 
ATOM      3  C3  IND d   1       1.210   0.608  -0.232  0.00  0.00    -0.031 A 
ATOM      4  C4  IND d   1       1.881  -1.540   1.019  0.00  0.00     0.051 A 
ATOM      5  C5  IND d   1       1.434  -2.421   1.963  0.00  0.00    -0.031 A 
ATOM      6  C6  IND d   1       0.182  -2.306   2.533  0.00  0.00     0.015 A 
ATOM      7  C7  IND d   1      -0.677  -1.308   2.169  0.00  0.00    -0.016 A 
ATOM      8  C8  IND d   1      -0.223  -0.407   1.216  0.00  0.00    -0.047 A 
ATOM      9  C9  IND d   1       1.062  -0.494   0.665  0.00  0.00    -0.096 A 
ATOM     10  HN1 IND d   1      -1.625   0.978   0.844  0.00  0.00     0.298 HD
ENDROOT
TORSDOF 0
ENDMDL
