MODEL 1
REMARK minimizedAffinity -6.6723609
REMARK minimizedRMSD -1
REMARK  0 active torsions:
REMARK  status: ('A' for Active; 'I' for Inactive)
ROOT
ATOM      1  N1  IND d   1      -0.540   0.837   0.355  0.00  0.00    -0.196 N 
ATOM      2  C2  IND d   1       0.334   1.200  -0.631  0.00  0.00     0.054 A 
ATOM      3  C3  IND d   1       1.350   0.311  -0.710  0.00  0.00    -0.031 A 
ATOM      4  C4  IND d   1       1.724  -1.866   0.613  0.00  0.00     0.051 A 
ATOM      5  C5  IND d   1       1.214  -2.599   1.647  0.00  0.00    -0.031 A 
ATOM      6  C6  IND d   1       0.068  -2.218   2.315  0.00  0.00     0.015 A 
ATOM      7  C7  IND d   1      -0.619  -1.091   1.965  0.00  0.00    -0.016 A 
ATOM      8  C8  IND d   1      -0.100  -0.340   0.920  0.00  0.00    -0.047 A 
ATOM      9  C9  IND d   1       1.086  -0.699   0.266  0.00  0.00    -0.096 A 
ATOM     10  HN1 IND d   1      -1.246   1.271   0.585  0.00  0.00     0.298 HD
ENDROOT
TORSDOF 0
ENDMDL
