MODEL 1
REMARK minimizedAffinity -5.83868074
REMARK minimizedRMSD -1
REMARK  0 active torsions:
REMARK  status: ('A' for Active; 'I' for Inactive)
ROOT
ATOM      1  N1  IND d   1      -0.997   0.071   0.517  0.00  0.00    -0.196 N 
ATOM      2  C2  IND d   1      -0.185   0.661  -0.411  0.00  0.00     0.054 A 
ATOM      3  C3  IND d   1       1.013   0.034  -0.454  0.00  0.00    -0.031 A 
ATOM      4  C4  IND d   1       1.819  -2.042   0.836  0.00  0.00     0.051 A 
ATOM      5  C5  IND d   1       1.444  -2.910   1.824  0.00  0.00    -0.031 A 
ATOM      6  C6  IND d   1       0.211  -2.828   2.436  0.00  0.00     0.015 A 
ATOM      7  C7  IND d   1      -0.703  -1.878   2.075  0.00  0.00    -0.016 A 
ATOM      8  C8  IND d   1      -0.323  -0.991   1.078  0.00  0.00    -0.047 A 
ATOM      9  C9  IND d   1       0.944  -1.043   0.482  0.00  0.00    -0.096 A 
ATOM     10  HN1 IND d   1      -1.795   0.322   0.717  0.00  0.00     0.298 HD
ENDROOT
TORSDOF 0
ENDMDL
