MODEL 1
REMARK minimizedAffinity -3.75555897
REMARK minimizedRMSD -1
REMARK  0 active torsions:
REMARK  status: ('A' for Active; 'I' for Inactive)
ROOT
ATOM      1  N1  IND d   1      -1.148   0.560   0.186  0.00  0.00    -0.196 N 
ATOM      2  C2  IND d   1      -0.296   0.943  -0.811  0.00  0.00     0.054 A 
ATOM      3  C3  IND d   1       0.827   0.192  -0.786  0.00  0.00    -0.031 A 
ATOM      4  C4  IND d   1       1.435  -1.790   0.742  0.00  0.00     0.051 A 
ATOM      5  C5  IND d   1       0.989  -2.487   1.829  0.00  0.00    -0.031 A 
ATOM      6  C6  IND d   1      -0.217  -2.201   2.435  0.00  0.00     0.015 A 
ATOM      7  C7  IND d   1      -1.032  -1.209   1.967  0.00  0.00    -0.016 A 
ATOM      8  C8  IND d   1      -0.579  -0.494   0.867  0.00  0.00    -0.047 A 
ATOM      9  C9  IND d   1       0.663  -0.752   0.274  0.00  0.00    -0.096 A 
ATOM     10  HN1 IND d   1      -1.911   0.917   0.360  0.00  0.00     0.298 HD
ENDROOT
TORSDOF 0
ENDMDL
