MODEL 1
REMARK minimizedAffinity -5.45659828
REMARK minimizedRMSD -1
REMARK  0 active torsions:
REMARK  status: ('A' for Active; 'I' for Inactive)
ROOT
ATOM      1  N1  IND d   1      -0.774   0.496  -0.007  0.00  0.00    -0.196 N 
ATOM      2  C2  IND d   1       0.054   1.542  -0.302  0.00  0.00     0.054 A 
ATOM      3  C3  IND d   1       1.347   1.170  -0.173  0.00  0.00    -0.031 A 
ATOM      4  C4  IND d   1       2.335  -1.134   0.412  0.00  0.00     0.051 A 
ATOM      5  C5  IND d   1       1.974  -2.394   0.801  0.00  0.00    -0.031 A 
ATOM      6  C6  IND d   1       0.651  -2.763   0.939  0.00  0.00     0.015 A 
ATOM      7  C7  IND d   1      -0.364  -1.886   0.683  0.00  0.00    -0.016 A 
ATOM      8  C8  IND d   1      -0.001  -0.603   0.296  0.00  0.00    -0.047 A 
ATOM      9  C9  IND d   1       1.340  -0.211   0.194  0.00  0.00    -0.096 A 
ATOM     10  HN1 IND d   1      -1.634   0.520  -0.010  0.00  0.00     0.298 HD
ENDROOT
TORSDOF 0
ENDMDL
