MODEL 1
REMARK minimizedAffinity -6.56446028
REMARK minimizedRMSD -1
REMARK  0 active torsions:
REMARK  status: ('A' for Active; 'I' for Inactive)
ROOT
ATOM      1  N1  IND d   1      -0.962   0.250   0.849  0.00  0.00    -0.196 N 
ATOM      2  C2  IND d   1      -0.270   0.710  -0.237  0.00  0.00     0.054 A 
ATOM      3  C3  IND d   1       0.818  -0.061  -0.461  0.00  0.00    -0.031 A 
ATOM      4  C4  IND d   1       1.601  -2.184   0.766  0.00  0.00     0.051 A 
ATOM      5  C5  IND d   1       1.314  -2.971   1.846  0.00  0.00    -0.031 A 
ATOM      6  C6  IND d   1       0.231  -2.721   2.664  0.00  0.00     0.015 A 
ATOM      7  C7  IND d   1      -0.616  -1.676   2.424  0.00  0.00    -0.016 A 
ATOM      8  C8  IND d   1      -0.325  -0.871   1.333  0.00  0.00    -0.047 A 
ATOM      9  C9  IND d   1       0.797  -1.095   0.524  0.00  0.00    -0.096 A 
ATOM     10  HN1 IND d   1      -1.675   0.603   1.175  0.00  0.00     0.298 HD
ENDROOT
TORSDOF 0
ENDMDL
