MODEL 1
REMARK minimizedAffinity -2.20356154
REMARK minimizedRMSD -1
REMARK  0 active torsions:
REMARK  status: ('A' for Active; 'I' for Inactive)
ROOT
ATOM      1  N1  IND d   1      -2.393   0.575   2.032  0.00  0.00    -0.196 N 
ATOM      2  C2  IND d   1      -2.580  -0.638   2.634  0.00  0.00     0.054 A 
ATOM      3  C3  IND d   1      -1.709  -1.547   2.141  0.00  0.00    -0.031 A 
ATOM      4  C4  IND d   1       0.176  -1.237   0.415  0.00  0.00     0.051 A 
ATOM      5  C5  IND d   1       0.712  -0.316  -0.441  0.00  0.00    -0.031 A 
ATOM      6  C6  IND d   1       0.233   0.975  -0.516  0.00  0.00     0.015 A 
ATOM      7  C7  IND d   1      -0.798   1.400   0.274  0.00  0.00    -0.016 A 
ATOM      8  C8  IND d   1      -1.349   0.465   1.140  0.00  0.00    -0.047 A 
ATOM      9  C9  IND d   1      -0.895  -0.859   1.190  0.00  0.00    -0.096 A 
ATOM     10  HN1 IND d   1      -2.850   1.287   2.186  0.00  0.00     0.298 HD
ENDROOT
TORSDOF 0
ENDMDL
