MODEL 1
REMARK minimizedAffinity -4.92367363
REMARK minimizedRMSD -1
REMARK  0 active torsions:
REMARK  status: ('A' for Active; 'I' for Inactive)
ROOT
ATOM      1  N1  IND d   1      -1.055   0.427   0.272  0.00  0.00    -0.196 N 
ATOM      2  C2  IND d   1      -0.474   1.397  -0.497  0.00  0.00     0.054 A 
ATOM      3  C3  IND d   1       0.792   1.047  -0.820  0.00  0.00    -0.031 A 
ATOM      4  C4  IND d   1       2.078  -1.117  -0.279  0.00  0.00     0.051 A 
ATOM      5  C5  IND d   1       1.977  -2.281   0.429  0.00  0.00    -0.031 A 
ATOM      6  C6  IND d   1       0.836  -2.611   1.132  0.00  0.00     0.015 A 
ATOM      7  C7  IND d   1      -0.255  -1.789   1.145  0.00  0.00    -0.016 A 
ATOM      8  C8  IND d   1      -0.154  -0.602   0.433  0.00  0.00    -0.047 A 
ATOM      9  C9  IND d   1       1.017  -0.243  -0.247  0.00  0.00    -0.096 A 
ATOM     10  HN1 IND d   1      -1.849   0.456   0.599  0.00  0.00     0.298 HD
ENDROOT
TORSDOF 0
ENDMDL
