MODEL 1
REMARK minimizedAffinity -3.70023894
REMARK minimizedRMSD -1
REMARK  0 active torsions:
REMARK  status: ('A' for Active; 'I' for Inactive)
ROOT
ATOM      1  C1  BNZ d   1       2.360  -0.450  -1.180  0.00  0.00     0.000 A 
ATOM      2  C2  BNZ d   1       2.440   0.489  -0.187  0.00  0.00     0.000 A 
ATOM      3  C3  BNZ d   1       1.415   0.657   0.702  0.00  0.00     0.000 A 
ATOM      4  C4  BNZ d   1       0.297  -0.086   0.572  0.00  0.00     0.000 A 
ATOM      5  C5  BNZ d   1       0.198  -1.031  -0.430  0.00  0.00     0.000 A 
ATOM      6  C6  BNZ d   1       1.247  -1.224  -1.299  0.00  0.00     0.000 A 
ENDROOT
TORSDOF 0
ENDMDL
