MODEL 1
REMARK minimizedAffinity -4.33021832
REMARK minimizedRMSD -1
REMARK  0 active torsions:
REMARK  status: ('A' for Active; 'I' for Inactive)
ROOT
ATOM      1  C1  BNZ d   1       0.182  -1.540  -0.522  0.00  0.00     0.000 A 
ATOM      2  C2  BNZ d   1      -0.424  -0.410  -0.041  0.00  0.00     0.000 A 
ATOM      3  C3  BNZ d   1       0.262   0.769   0.044  0.00  0.00     0.000 A 
ATOM      4  C4  BNZ d   1       1.562   0.807  -0.313  0.00  0.00     0.000 A 
ATOM      5  C5  BNZ d   1       2.189  -0.326  -0.791  0.00  0.00     0.000 A 
ATOM      6  C6  BNZ d   1       1.485  -1.502  -0.912  0.00  0.00     0.000 A 
ENDROOT
TORSDOF 0
ENDMDL
