MODEL 1
REMARK minimizedAffinity -4.62848711
REMARK minimizedRMSD -1
REMARK  0 active torsions:
REMARK  status: ('A' for Active; 'I' for Inactive)
ROOT
ATOM      1  C1  BNZ d   1       2.579   0.133  -0.275  0.00  0.00     0.000 A 
ATOM      2  C2  BNZ d   1       1.413   0.378   0.400  0.00  0.00     0.000 A 
ATOM      3  C3  BNZ d   1       0.316  -0.417   0.215  0.00  0.00     0.000 A 
ATOM      4  C4  BNZ d   1       0.375  -1.430  -0.673  0.00  0.00     0.000 A 
ATOM      5  C5  BNZ d   1       1.540  -1.685  -1.368  0.00  0.00     0.000 A 
ATOM      6  C6  BNZ d   1       2.654  -0.906  -1.151  0.00  0.00     0.000 A 
ENDROOT
TORSDOF 0
ENDMDL
