MODEL 1
REMARK minimizedAffinity -3.53153872
REMARK minimizedRMSD -1
REMARK  0 active torsions:
REMARK  status: ('A' for Active; 'I' for Inactive)
ROOT
ATOM      1  C1  BNZ d   1      -4.733   4.962   6.000  0.00  0.00     0.000 A 
ATOM      2  C2  BNZ d   1      -3.620   4.170   5.898  0.00  0.00     0.000 A 
ATOM      3  C3  BNZ d   1      -3.052   3.914   4.681  0.00  0.00     0.000 A 
ATOM      4  C4  BNZ d   1      -3.620   4.415   3.566  0.00  0.00     0.000 A 
ATOM      5  C5  BNZ d   1      -4.748   5.208   3.651  0.00  0.00     0.000 A 
ATOM      6  C6  BNZ d   1      -5.294   5.495   4.881  0.00  0.00     0.000 A 
ENDROOT
TORSDOF 0
ENDMDL
