MODEL 1
REMARK minimizedAffinity -4.08407545
REMARK minimizedRMSD -1
REMARK  0 active torsions:
REMARK  status: ('A' for Active; 'I' for Inactive)
ROOT
ATOM      1  C1  BNZ d   1      -0.075   0.611  -0.386  0.00  0.00     0.000 A 
ATOM      2  C2  BNZ d   1       1.153   0.522  -0.986  0.00  0.00     0.000 A 
ATOM      3  C3  BNZ d   1       1.734  -0.694  -1.215  0.00  0.00     0.000 A 
ATOM      4  C4  BNZ d   1       1.106  -1.816  -0.808  0.00  0.00     0.000 A 
ATOM      5  C5  BNZ d   1      -0.128  -1.742  -0.193  0.00  0.00     0.000 A 
ATOM      6  C6  BNZ d   1      -0.728  -0.519   0.001  0.00  0.00     0.000 A 
ENDROOT
TORSDOF 0
ENDMDL
