MODEL 1
REMARK minimizedAffinity -3.93066025
REMARK minimizedRMSD -1
REMARK  0 active torsions:
REMARK  status: ('A' for Active; 'I' for Inactive)
ROOT
ATOM      1  C1  BNZ d   1      -0.114  -1.611   0.003  0.00  0.00     0.000 A 
ATOM      2  C2  BNZ d   1       1.121  -1.498  -0.578  0.00  0.00     0.000 A 
ATOM      3  C3  BNZ d   1       1.702  -0.274  -0.754  0.00  0.00     0.000 A 
ATOM      4  C4  BNZ d   1       1.032   0.837  -0.387  0.00  0.00     0.000 A 
ATOM      5  C5  BNZ d   1      -0.218   0.741   0.192  0.00  0.00     0.000 A 
ATOM      6  C6  BNZ d   1      -0.784  -0.496   0.403  0.00  0.00     0.000 A 
ENDROOT
TORSDOF 0
ENDMDL
