MODEL 1
REMARK minimizedAffinity -3.91026378
REMARK minimizedRMSD -1
REMARK  0 active torsions:
REMARK  status: ('A' for Active; 'I' for Inactive)
ROOT
ATOM      1  C1  BNZ d   1      -0.857  -0.539  -0.064  0.00  0.00     0.000 A 
ATOM      2  C2  BNZ d   1       0.154  -1.447  -0.236  0.00  0.00     0.000 A 
ATOM      3  C3  BNZ d   1       1.378  -1.052  -0.699  0.00  0.00     0.000 A 
ATOM      4  C4  BNZ d   1       1.577   0.241  -1.028  0.00  0.00     0.000 A 
ATOM      5  C5  BNZ d   1       0.564   1.166  -0.870  0.00  0.00     0.000 A 
ATOM      6  C6  BNZ d   1      -0.654   0.772  -0.367  0.00  0.00     0.000 A 
ENDROOT
TORSDOF 0
ENDMDL
