MODEL 1
REMARK minimizedAffinity -4.58486366
REMARK minimizedRMSD -1
REMARK  0 active torsions:
REMARK  status: ('A' for Active; 'I' for Inactive)
ROOT
ATOM      1  C1  BNZ d   1       0.231  -0.230   0.423  0.00  0.00     0.000 A 
ATOM      2  C2  BNZ d   1       1.047   0.846   0.200  0.00  0.00     0.000 A 
ATOM      3  C3  BNZ d   1       2.031   0.794  -0.747  0.00  0.00     0.000 A 
ATOM      4  C4  BNZ d   1       2.223  -0.346  -1.441  0.00  0.00     0.000 A 
ATOM      5  C5  BNZ d   1       1.415  -1.443  -1.222  0.00  0.00     0.000 A 
ATOM      6  C6  BNZ d   1       0.400  -1.374  -0.295  0.00  0.00     0.000 A 
ENDROOT
TORSDOF 0
ENDMDL
