MODEL 1
REMARK minimizedAffinity -3.94114399
REMARK minimizedRMSD -1
REMARK  0 active torsions:
REMARK  status: ('A' for Active; 'I' for Inactive)
ROOT
ATOM      1  C1  BNZ d   1      -0.481   1.852  -1.622  0.00  0.00     0.000 A 
ATOM      2  C2  BNZ d   1       0.796   1.386  -1.457  0.00  0.00     0.000 A 
ATOM      3  C3  BNZ d   1       1.034   0.222  -0.781  0.00  0.00     0.000 A 
ATOM      4  C4  BNZ d   1       0.000  -0.453  -0.237  0.00  0.00     0.000 A 
ATOM      5  C5  BNZ d   1      -1.292   0.009  -0.387  0.00  0.00     0.000 A 
ATOM      6  C6  BNZ d   1      -1.532   1.160  -1.102  0.00  0.00     0.000 A 
ENDROOT
TORSDOF 0
ENDMDL
