MODEL 1
REMARK minimizedAffinity -2.18885112
REMARK minimizedRMSD -1
REMARK  0 active torsions:
REMARK  status: ('A' for Active; 'I' for Inactive)
ROOT
ATOM      1  C1  BNZ d   1      -2.243  -0.263   3.652  0.00  0.00     0.000 A 
ATOM      2  C2  BNZ d   1      -1.895   0.968   4.139  0.00  0.00     0.000 A 
ATOM      3  C3  BNZ d   1      -1.490   1.965   3.296  0.00  0.00     0.000 A 
ATOM      4  C4  BNZ d   1      -1.396   1.719   1.974  0.00  0.00     0.000 A 
ATOM      5  C5  BNZ d   1      -1.735   0.479   1.468  0.00  0.00     0.000 A 
ATOM      6  C6  BNZ d   1      -2.179  -0.510   2.315  0.00  0.00     0.000 A 
ENDROOT
TORSDOF 0
ENDMDL
