MODEL 1
REMARK minimizedAffinity -2.52565861
REMARK minimizedRMSD -1
REMARK  0 active torsions:
REMARK  status: ('A' for Active; 'I' for Inactive)
ROOT
ATOM      1  C1  BNZ d   1       0.714   0.254  -0.588  0.00  0.00     0.000 A 
ATOM      2  C2  BNZ d   1      -0.060  -0.414   0.323  0.00  0.00     0.000 A 
ATOM      3  C3  BNZ d   1      -1.317   0.027   0.631  0.00  0.00     0.000 A 
ATOM      4  C4  BNZ d   1      -1.782   1.155   0.058  0.00  0.00     0.000 A 
ATOM      5  C5  BNZ d   1      -1.010   1.845  -0.855  0.00  0.00     0.000 A 
ATOM      6  C6  BNZ d   1       0.239   1.377  -1.192  0.00  0.00     0.000 A 
ENDROOT
TORSDOF 0
ENDMDL
