MODEL 1
REMARK minimizedAffinity -4.36118603
REMARK minimizedRMSD -1
REMARK  0 active torsions:
REMARK  status: ('A' for Active; 'I' for Inactive)
ROOT
ATOM      1  C1  BNZ d   1      -0.457  -0.381   0.213  0.00  0.00     0.000 A 
ATOM      2  C2  BNZ d   1       0.866  -0.376  -0.140  0.00  0.00     0.000 A 
ATOM      3  C3  BNZ d   1       1.386   0.639  -0.893  0.00  0.00     0.000 A 
ATOM      4  C4  BNZ d   1       0.574   1.626  -1.326  0.00  0.00     0.000 A 
ATOM      5  C5  BNZ d   1      -0.764   1.630  -0.986  0.00  0.00     0.000 A 
ATOM      6  C6  BNZ d   1      -1.275   0.626  -0.195  0.00  0.00     0.000 A 
ENDROOT
TORSDOF 0
ENDMDL
