MODEL 1
REMARK minimizedAffinity 12.1208944
REMARK minimizedRMSD -1
REMARK  0 active torsions:
REMARK  status: ('A' for Active; 'I' for Inactive)
ROOT
ATOM      1  C   UNL d   1       5.494   1.168  -0.877  0.00  0.00     0.020 A 
ATOM      2  C1  UNL d   1       4.665   1.994  -1.635  0.00  0.00     0.020 A 
ATOM      3  C2  UNL d   1       3.284   1.788  -1.631  0.00  0.00     0.034 A 
ATOM      4  C3  UNL d   1       2.728   0.755  -0.868  0.00  0.00     0.017 A 
ATOM      5  C4  UNL d   1       3.561  -0.074  -0.108  0.00  0.00     0.017 A 
ATOM      6  C5  UNL d   1       4.944   0.136  -0.115  0.00  0.00     0.034 A 
ATOM      7 Cl   UNL d   1       2.949  -1.370   0.858  0.00  0.00    -0.070 Cl
ATOM      8 Cl1  UNL d   1       1.012   0.558  -0.910  0.00  0.00    -0.070 Cl
ENDROOT
TORSDOF 0
ENDMDL
