MODEL 1
REMARK minimizedAffinity 10.4075346
REMARK minimizedRMSD -1
REMARK  0 active torsions:
REMARK  status: ('A' for Active; 'I' for Inactive)
ROOT
ATOM      1  C   UNL d   1       1.876   6.000   3.528  0.00  0.00     0.020 A 
ATOM      2  C1  UNL d   1       0.710   5.302   3.216  0.00  0.00     0.020 A 
ATOM      3  C2  UNL d   1       0.742   3.912   3.085  0.00  0.00     0.034 A 
ATOM      4  C3  UNL d   1       1.942   3.215   3.267  0.00  0.00     0.017 A 
ATOM      5  C4  UNL d   1       3.112   3.916   3.581  0.00  0.00     0.017 A 
ATOM      6  C5  UNL d   1       3.075   5.308   3.711  0.00  0.00     0.034 A 
ATOM      7 Cl   UNL d   1       4.630   3.126   3.821  0.00  0.00    -0.070 Cl
ATOM      8 Cl1  UNL d   1       1.908   1.497   3.091  0.00  0.00    -0.070 Cl
ENDROOT
TORSDOF 0
ENDMDL
