MODEL 1
REMARK minimizedAffinity 9.49973679
REMARK minimizedRMSD -1
REMARK  0 active torsions:
REMARK  status: ('A' for Active; 'I' for Inactive)
ROOT
ATOM      1  C   UNL d   1      -5.998   5.883   3.692  0.00  0.00     0.020 A 
ATOM      2  C1  UNL d   1      -4.847   5.997   4.470  0.00  0.00     0.020 A 
ATOM      3  C2  UNL d   1      -3.590   6.000   3.861  0.00  0.00     0.034 A 
ATOM      4  C3  UNL d   1      -3.482   5.888   2.470  0.00  0.00     0.017 A 
ATOM      5  C4  UNL d   1      -4.639   5.773   1.690  0.00  0.00     0.017 A 
ATOM      6  C5  UNL d   1      -5.894   5.771   2.305  0.00  0.00     0.034 A 
ATOM      7 Cl   UNL d   1      -4.585   5.631  -0.032  0.00  0.00    -0.070 Cl
ATOM      8 Cl1  UNL d   1      -1.896   5.898   1.784  0.00  0.00    -0.070 Cl
ENDROOT
TORSDOF 0
ENDMDL
