MODEL 1
REMARK minimizedAffinity 1.74869204
REMARK minimizedRMSD -1
REMARK  0 active torsions:
REMARK  status: ('A' for Active; 'I' for Inactive)
ROOT
ATOM      1  C   UNL d   1      -4.517   6.000   4.358  0.00  0.00     0.020 A 
ATOM      2  C1  UNL d   1      -5.582   5.148   4.647  0.00  0.00     0.020 A 
ATOM      3  C2  UNL d   1      -6.000   4.208   3.702  0.00  0.00     0.034 A 
ATOM      4  C3  UNL d   1      -5.352   4.117   2.465  0.00  0.00     0.017 A 
ATOM      5  C4  UNL d   1      -4.282   4.973   2.177  0.00  0.00     0.017 A 
ATOM      6  C5  UNL d   1      -3.868   5.912   3.126  0.00  0.00     0.034 A 
ATOM      7 Cl   UNL d   1      -3.433   4.920   0.672  0.00  0.00    -0.070 Cl
ATOM      8 Cl1  UNL d   1      -5.920   2.931   1.345  0.00  0.00    -0.070 Cl
ENDROOT
TORSDOF 0
ENDMDL
