MODEL 1
REMARK minimizedAffinity 0.858584464
REMARK minimizedRMSD -1
REMARK  0 active torsions:
REMARK  status: ('A' for Active; 'I' for Inactive)
ROOT
ATOM      1  C   UNL d   1      -4.787   5.980   4.928  0.00  0.00     0.020 A 
ATOM      2  C1  UNL d   1      -5.996   5.987   4.233  0.00  0.00     0.020 A 
ATOM      3  C2  UNL d   1      -5.999   5.950   2.837  0.00  0.00     0.034 A 
ATOM      4  C3  UNL d   1      -4.791   5.907   2.131  0.00  0.00     0.017 A 
ATOM      5  C4  UNL d   1      -3.578   5.900   2.830  0.00  0.00     0.017 A 
ATOM      6  C5  UNL d   1      -3.581   5.937   4.228  0.00  0.00     0.034 A 
ATOM      7 Cl   UNL d   1      -2.048   5.847   2.029  0.00  0.00    -0.070 Cl
ATOM      8 Cl1  UNL d   1      -4.870   5.863   0.406  0.00  0.00    -0.070 Cl
ENDROOT
TORSDOF 0
ENDMDL
