MODEL 1
REMARK minimizedAffinity 4.01501513
REMARK minimizedRMSD -1
REMARK  0 active torsions:
REMARK  status: ('A' for Active; 'I' for Inactive)
ROOT
ATOM      1  C   UNL d   1       0.007  -0.275   4.232  0.00  0.00     0.020 A 
ATOM      2  C1  UNL d   1       1.238  -0.210   4.884  0.00  0.00     0.020 A 
ATOM      3  C2  UNL d   1       1.805  -1.367   5.422  0.00  0.00     0.034 A 
ATOM      4  C3  UNL d   1       1.142  -2.595   5.308  0.00  0.00     0.017 A 
ATOM      5  C4  UNL d   1      -0.093  -2.659   4.653  0.00  0.00     0.017 A 
ATOM      6  C5  UNL d   1      -0.657  -1.497   4.117  0.00  0.00     0.034 A 
ATOM      7 Cl   UNL d   1      -0.971  -4.137   4.472  0.00  0.00    -0.070 Cl
ATOM      8 Cl1  UNL d   1       1.903  -3.986   5.995  0.00  0.00    -0.070 Cl
ENDROOT
TORSDOF 0
ENDMDL
