MODEL 1
REMARK minimizedAffinity 4.69381046
REMARK minimizedRMSD -1
REMARK  0 active torsions:
REMARK  status: ('A' for Active; 'I' for Inactive)
ROOT
ATOM      1  C   UNL d   1      -5.999   5.930   4.044  0.00  0.00     0.020 A 
ATOM      2  C1  UNL d   1      -4.833   5.927   4.808  0.00  0.00     0.020 A 
ATOM      3  C2  UNL d   1      -3.586   5.945   4.179  0.00  0.00     0.034 A 
ATOM      4  C3  UNL d   1      -3.503   5.967   2.782  0.00  0.00     0.017 A 
ATOM      5  C4  UNL d   1      -4.674   5.971   2.016  0.00  0.00     0.017 A 
ATOM      6  C5  UNL d   1      -5.920   5.952   2.651  0.00  0.00     0.034 A 
ATOM      7 Cl   UNL d   1      -4.651   5.997   0.288  0.00  0.00    -0.070 Cl
ATOM      8 Cl1  UNL d   1      -1.928   5.989   2.072  0.00  0.00    -0.070 Cl
ENDROOT
TORSDOF 0
ENDMDL
