MODEL 1
REMARK minimizedAffinity 2.49252772
REMARK minimizedRMSD -1
REMARK  0 active torsions:
REMARK  status: ('A' for Active; 'I' for Inactive)
ROOT
ATOM      1  C   UNL d   1      -0.721  -6.000   5.814  0.00  0.00     0.020 A 
ATOM      2  C1  UNL d   1      -1.687  -5.176   5.237  0.00  0.00     0.020 A 
ATOM      3  C2  UNL d   1      -1.354  -3.878   4.846  0.00  0.00     0.034 A 
ATOM      4  C3  UNL d   1      -0.052  -3.399   5.030  0.00  0.00     0.017 A 
ATOM      5  C4  UNL d   1       0.917  -4.227   5.609  0.00  0.00     0.017 A 
ATOM      6  C5  UNL d   1       0.578  -5.526   6.000  0.00  0.00     0.034 A 
ATOM      7 Cl   UNL d   1       2.545  -3.707   5.869  0.00  0.00    -0.070 Cl
ATOM      8 Cl1  UNL d   1       0.290  -1.784   4.522  0.00  0.00    -0.070 Cl
ENDROOT
TORSDOF 0
ENDMDL
