MODEL 1
REMARK minimizedAffinity 2.47452331
REMARK minimizedRMSD -1
REMARK  0 active torsions:
REMARK  status: ('A' for Active; 'I' for Inactive)
ROOT
ATOM      1  C   UNL d   1      -4.806   5.997   5.045  0.00  0.00     0.020 A 
ATOM      2  C1  UNL d   1      -5.998   5.999   4.320  0.00  0.00     0.020 A 
ATOM      3  C2  UNL d   1      -5.966   5.998   2.924  0.00  0.00     0.034 A 
ATOM      4  C3  UNL d   1      -4.740   5.994   2.248  0.00  0.00     0.017 A 
ATOM      5  C4  UNL d   1      -3.545   5.992   2.976  0.00  0.00     0.017 A 
ATOM      6  C5  UNL d   1      -3.583   5.993   4.374  0.00  0.00     0.034 A 
ATOM      7 Cl   UNL d   1      -1.994   5.987   2.213  0.00  0.00    -0.070 Cl
ATOM      8 Cl1  UNL d   1      -4.776   5.992   0.521  0.00  0.00    -0.070 Cl
ENDROOT
TORSDOF 0
ENDMDL
