MODEL 1
REMARK minimizedAffinity 1.37873399
REMARK minimizedRMSD -1
REMARK  0 active torsions:
REMARK  status: ('A' for Active; 'I' for Inactive)
ROOT
ATOM      1  C   UNL d   1      -2.245   2.123  -3.148  0.00  0.00     0.020 A 
ATOM      2  C1  UNL d   1      -2.207   0.764  -3.458  0.00  0.00     0.020 A 
ATOM      3  C2  UNL d   1      -3.349   0.128  -3.951  0.00  0.00     0.034 A 
ATOM      4  C3  UNL d   1      -4.533   0.851  -4.135  0.00  0.00     0.017 A 
ATOM      5  C4  UNL d   1      -4.570   2.215  -3.824  0.00  0.00     0.017 A 
ATOM      6  C5  UNL d   1      -3.424   2.847  -3.331  0.00  0.00     0.034 A 
ATOM      7 Cl   UNL d   1      -5.995   3.173  -4.024  0.00  0.00    -0.070 Cl
ATOM      8 Cl1  UNL d   1      -5.906   0.001  -4.748  0.00  0.00    -0.070 Cl
ENDROOT
TORSDOF 0
ENDMDL
