MODEL 1
REMARK minimizedAffinity 1.26739037
REMARK minimizedRMSD -1
REMARK  0 active torsions:
REMARK  status: ('A' for Active; 'I' for Inactive)
ROOT
ATOM      1  C   UNL d   1       3.765   1.884  -0.748  0.00  0.00     0.020 A 
ATOM      2  C1  UNL d   1       5.158   1.886  -0.694  0.00  0.00     0.020 A 
ATOM      3  C2  UNL d   1       5.827   0.960   0.109  0.00  0.00     0.034 A 
ATOM      4  C3  UNL d   1       5.103   0.028   0.862  0.00  0.00     0.017 A 
ATOM      5  C4  UNL d   1       3.704   0.027   0.807  0.00  0.00     0.017 A 
ATOM      6  C5  UNL d   1       3.040   0.956   0.001  0.00  0.00     0.034 A 
ATOM      7 Cl   UNL d   1       2.743  -1.092   1.707  0.00  0.00    -0.070 Cl
ATOM      8 Cl1  UNL d   1       5.996  -1.088   1.833  0.00  0.00    -0.070 Cl
ENDROOT
TORSDOF 0
ENDMDL
