MODEL 1
REMARK minimizedAffinity 8.17903137
REMARK minimizedRMSD -1
REMARK  0 active torsions:
REMARK  status: ('A' for Active; 'I' for Inactive)
ROOT
ATOM      1  C1  DEN d   1       0.077   2.364  -0.280  0.00  0.00     0.130 A 
ATOM      2  C2  DEN d   1       0.661   2.039   1.019  0.00  0.00    -0.031 A 
ATOM      3  C3  DEN d   1       1.796   1.123   0.792  0.00  0.00     0.027 A 
ATOM      4  C4  DEN d   1       2.705   0.184  -1.432  0.00  0.00     0.027 A 
ATOM      5  C5  DEN d   1       2.530   0.167  -2.798  0.00  0.00    -0.003 A 
ATOM      6  C6  DEN d   1       1.513   0.848  -3.412  0.00  0.00     0.001 A 
ATOM      7  C7  DEN d   1       0.658   1.612  -2.663  0.00  0.00     0.017 A 
ATOM      8  C8  DEN d   1       0.824   1.629  -1.285  0.00  0.00    -0.094 A 
ATOM      9  C9  DEN d   1       1.866   0.943  -0.683  0.00  0.00    -0.072 A 
ENDROOT
TORSDOF 0
ENDMDL
