MODEL 1
REMARK minimizedAffinity 9.45292854
REMARK minimizedRMSD -1
REMARK  0 active torsions:
REMARK  status: ('A' for Active; 'I' for Inactive)
ROOT
ATOM      1  C1  DEN d   1       4.036   1.193  -1.954  0.00  0.00     0.130 A 
ATOM      2  C2  DEN d   1       3.285   0.283  -2.815  0.00  0.00    -0.031 A 
ATOM      3  C3  DEN d   1       2.047  -0.098  -2.107  0.00  0.00     0.027 A 
ATOM      4  C4  DEN d   1       1.219   0.633   0.224  0.00  0.00     0.027 A 
ATOM      5  C5  DEN d   1       1.520   1.388   1.336  0.00  0.00    -0.003 A 
ATOM      6  C6  DEN d   1       2.687   2.099   1.443  0.00  0.00     0.001 A 
ATOM      7  C7  DEN d   1       3.575   2.104   0.400  0.00  0.00     0.017 A 
ATOM      8  C8  DEN d   1       3.282   1.340  -0.721  0.00  0.00    -0.094 A 
ATOM      9  C9  DEN d   1       2.092   0.638  -0.815  0.00  0.00    -0.072 A 
ENDROOT
TORSDOF 0
ENDMDL
