MODEL 1
REMARK minimizedAffinity 9.60505867
REMARK minimizedRMSD -1
REMARK  0 active torsions:
REMARK  status: ('A' for Active; 'I' for Inactive)
ROOT
ATOM      1  C1  DEN d   1       1.261   0.577   1.098  0.00  0.00     0.130 A 
ATOM      2  C2  DEN d   1       1.802   1.574   2.019  0.00  0.00    -0.031 A 
ATOM      3  C3  DEN d   1       2.975   2.200   1.377  0.00  0.00     0.027 A 
ATOM      4  C4  DEN d   1       3.999   1.729  -0.943  0.00  0.00     0.027 A 
ATOM      5  C5  DEN d   1       3.894   0.961  -2.081  0.00  0.00    -0.003 A 
ATOM      6  C6  DEN d   1       2.933  -0.004  -2.225  0.00  0.00     0.001 A 
ATOM      7  C7  DEN d   1       2.010  -0.196  -1.231  0.00  0.00     0.017 A 
ATOM      8  C8  DEN d   1       2.114   0.569  -0.077  0.00  0.00    -0.094 A 
ATOM      9  C9  DEN d   1       3.085   1.548   0.044  0.00  0.00    -0.072 A 
ENDROOT
TORSDOF 0
ENDMDL
