MODEL 1
REMARK minimizedAffinity 13.2660494
REMARK minimizedRMSD -1
REMARK  0 active torsions:
REMARK  status: ('A' for Active; 'I' for Inactive)
ROOT
ATOM      1  C1  DEN d   1       2.942  -0.088  -1.502  0.00  0.00     0.130 A 
ATOM      2  C2  DEN d   1       2.616   0.375  -2.848  0.00  0.00    -0.031 A 
ATOM      3  C3  DEN d   1       1.482   1.316  -2.745  0.00  0.00     0.027 A 
ATOM      4  C4  DEN d   1       0.210   2.100  -0.643  0.00  0.00     0.027 A 
ATOM      5  C5  DEN d   1       0.117   1.972   0.725  0.00  0.00    -0.003 A 
ATOM      6  C6  DEN d   1       0.930   1.131   1.437  0.00  0.00     0.001 A 
ATOM      7  C7  DEN d   1       1.902   0.417   0.789  0.00  0.00     0.017 A 
ATOM      8  C8  DEN d   1       1.998   0.534  -0.592  0.00  0.00    -0.094 A 
ATOM      9  C9  DEN d   1       1.175   1.400  -1.292  0.00  0.00    -0.072 A 
ENDROOT
TORSDOF 0
ENDMDL
