MODEL 1
REMARK minimizedAffinity 17.0066872
REMARK minimizedRMSD -1
REMARK  0 active torsions:
REMARK  status: ('A' for Active; 'I' for Inactive)
ROOT
ATOM      1  C1  DEN d   1       2.762   3.124   3.313  0.00  0.00     0.130 A 
ATOM      2  C2  DEN d   1       4.159   3.284   2.920  0.00  0.00    -0.031 A 
ATOM      3  C3  DEN d   1       4.319   2.724   1.563  0.00  0.00     0.027 A 
ATOM      4  C4  DEN d   1       2.546   1.633   0.039  0.00  0.00     0.027 A 
ATOM      5  C5  DEN d   1       1.223   1.263  -0.057  0.00  0.00    -0.003 A 
ATOM      6  C6  DEN d   1       0.335   1.454   0.968  0.00  0.00     0.001 A 
ATOM      7  C7  DEN d   1       0.749   2.073   2.118  0.00  0.00     0.017 A 
ATOM      8  C8  DEN d   1       2.083   2.443   2.225  0.00  0.00    -0.094 A 
ATOM      9  C9  DEN d   1       2.963   2.252   1.173  0.00  0.00    -0.072 A 
ENDROOT
TORSDOF 0
ENDMDL
