MODEL 1
REMARK minimizedAffinity 2.50580931
REMARK minimizedRMSD -1
REMARK  0 active torsions:
REMARK  status: ('A' for Active; 'I' for Inactive)
ROOT
ATOM      1  C1  DEN d   1       4.361   2.628   1.723  0.00  0.00     0.130 A 
ATOM      2  C2  DEN d   1       4.370   3.665   2.752  0.00  0.00    -0.031 A 
ATOM      3  C3  DEN d   1       2.991   3.818   3.258  0.00  0.00     0.027 A 
ATOM      4  C4  DEN d   1       0.855   2.553   2.556  0.00  0.00     0.027 A 
ATOM      5  C5  DEN d   1       0.347   1.590   1.713  0.00  0.00    -0.003 A 
ATOM      6  C6  DEN d   1       1.128   0.935   0.798  0.00  0.00     0.001 A 
ATOM      7  C7  DEN d   1       2.470   1.203   0.735  0.00  0.00     0.017 A 
ATOM      8  C8  DEN d   1       2.988   2.178   1.577  0.00  0.00    -0.094 A 
ATOM      9  C9  DEN d   1       2.185   2.820   2.504  0.00  0.00    -0.072 A 
ENDROOT
TORSDOF 0
ENDMDL
