MODEL 1
REMARK minimizedAffinity 8.20397663
REMARK minimizedRMSD -1
REMARK  0 active torsions:
REMARK  status: ('A' for Active; 'I' for Inactive)
ROOT
ATOM      1  C1  DEN d   1       2.105   0.063  -1.367  0.00  0.00     0.130 A 
ATOM      2  C2  DEN d   1       3.165   0.403  -2.313  0.00  0.00    -0.031 A 
ATOM      3  C3  DEN d   1       4.055   1.388  -1.666  0.00  0.00     0.027 A 
ATOM      4  C4  DEN d   1       3.900   2.409   0.697  0.00  0.00     0.027 A 
ATOM      5  C5  DEN d   1       3.167   2.435   1.863  0.00  0.00    -0.003 A 
ATOM      6  C6  DEN d   1       2.019   1.705   2.020  0.00  0.00     0.001 A 
ATOM      7  C7  DEN d   1       1.595   0.882   1.010  0.00  0.00     0.017 A 
ATOM      8  C8  DEN d   1       2.325   0.855  -0.171  0.00  0.00    -0.094 A 
ATOM      9  C9  DEN d   1       3.490   1.592  -0.305  0.00  0.00    -0.072 A 
ENDROOT
TORSDOF 0
ENDMDL
