MODEL 1
REMARK minimizedAffinity 13.9063635
REMARK minimizedRMSD -1
REMARK  0 active torsions:
REMARK  status: ('A' for Active; 'I' for Inactive)
ROOT
ATOM      1  C1  DEN d   1       0.780  -0.344  -1.930  0.00  0.00     0.130 A 
ATOM      2  C2  DEN d   1       2.088  -0.990  -1.992  0.00  0.00    -0.031 A 
ATOM      3  C3  DEN d   1       2.984  -0.131  -2.792  0.00  0.00     0.027 A 
ATOM      4  C4  DEN d   1       2.477   2.126  -3.931  0.00  0.00     0.027 A 
ATOM      5  C5  DEN d   1       1.503   3.070  -4.168  0.00  0.00    -0.003 A 
ATOM      6  C6  DEN d   1       0.221   2.927  -3.708  0.00  0.00     0.001 A 
ATOM      7  C7  DEN d   1      -0.110   1.837  -2.948  0.00  0.00     0.017 A 
ATOM      8  C8  DEN d   1       0.865   0.877  -2.712  0.00  0.00    -0.094 A 
ATOM      9  C9  DEN d   1       2.159   1.045  -3.175  0.00  0.00    -0.072 A 
ENDROOT
TORSDOF 0
ENDMDL
