MODEL 1
REMARK minimizedAffinity 12.8448362
REMARK minimizedRMSD -1
REMARK  0 active torsions:
REMARK  status: ('A' for Active; 'I' for Inactive)
ROOT
ATOM      1  C1  DEN d   1       2.662   2.082   1.000  0.00  0.00     0.130 A 
ATOM      2  C2  DEN d   1       1.770   1.718   2.097  0.00  0.00    -0.031 A 
ATOM      3  C3  DEN d   1       0.948   0.573   1.655  0.00  0.00     0.027 A 
ATOM      4  C4  DEN d   1       0.975  -0.667  -0.606  0.00  0.00     0.027 A 
ATOM      5  C5  DEN d   1       1.554  -0.712  -1.855  0.00  0.00    -0.003 A 
ATOM      6  C6  DEN d   1       2.512   0.185  -2.248  0.00  0.00     0.001 A 
ATOM      7  C7  DEN d   1       2.951   1.138  -1.368  0.00  0.00     0.017 A 
ATOM      8  C8  DEN d   1       2.366   1.195  -0.110  0.00  0.00    -0.094 A 
ATOM      9  C9  DEN d   1       1.408   0.271   0.273  0.00  0.00    -0.072 A 
ENDROOT
TORSDOF 0
ENDMDL
