MODEL 1
REMARK minimizedAffinity 14.9544888
REMARK minimizedRMSD -1
REMARK  0 active torsions:
REMARK  status: ('A' for Active; 'I' for Inactive)
ROOT
ATOM      1  C1  DEN d   1       2.404   0.443   0.601  0.00  0.00     0.130 A 
ATOM      2  C2  DEN d   1       1.330   1.329   1.043  0.00  0.00    -0.031 A 
ATOM      3  C3  DEN d   1       0.588   1.777  -0.152  0.00  0.00     0.027 A 
ATOM      4  C4  DEN d   1       0.991   1.185  -2.630  0.00  0.00     0.027 A 
ATOM      5  C5  DEN d   1       1.792   0.479  -3.499  0.00  0.00    -0.003 A 
ATOM      6  C6  DEN d   1       2.866  -0.256  -3.069  0.00  0.00     0.001 A 
ATOM      7  C7  DEN d   1       3.140  -0.337  -1.730  0.00  0.00     0.017 A 
ATOM      8  C8  DEN d   1       2.341   0.379  -0.848  0.00  0.00    -0.094 A 
ATOM      9  C9  DEN d   1       1.253   1.105  -1.300  0.00  0.00    -0.072 A 
ENDROOT
TORSDOF 0
ENDMDL
