MODEL 1
REMARK minimizedAffinity 9.58020306
REMARK minimizedRMSD -1
REMARK  0 active torsions:
REMARK  status: ('A' for Active; 'I' for Inactive)
ROOT
ATOM      1  C1  DEN d   1       2.587  -0.532  -3.158  0.00  0.00     0.130 A 
ATOM      2  C2  DEN d   1       2.265   0.792  -3.684  0.00  0.00    -0.031 A 
ATOM      3  C3  DEN d   1       1.733   1.608  -2.574  0.00  0.00     0.027 A 
ATOM      4  C4  DEN d   1       1.383   0.954  -0.104  0.00  0.00     0.027 A 
ATOM      5  C5  DEN d   1       1.500  -0.065   0.815  0.00  0.00    -0.003 A 
ATOM      6  C6  DEN d   1       1.952  -1.311   0.470  0.00  0.00     0.001 A 
ATOM      7  C7  DEN d   1       2.346  -1.557  -0.819  0.00  0.00     0.017 A 
ATOM      8  C8  DEN d   1       2.224  -0.537  -1.752  0.00  0.00    -0.094 A 
ATOM      9  C9  DEN d   1       1.777   0.720  -1.381  0.00  0.00    -0.072 A 
ENDROOT
TORSDOF 0
ENDMDL
