MODEL 1
REMARK minimizedAffinity 11.4234028
REMARK minimizedRMSD -1
REMARK  0 active torsions:
REMARK  status: ('A' for Active; 'I' for Inactive)
ROOT
ATOM      1  C1  DEN d   1       2.250   0.431   0.646  0.00  0.00     0.130 A 
ATOM      2  C2  DEN d   1       1.169   1.343   1.006  0.00  0.00    -0.031 A 
ATOM      3  C3  DEN d   1       0.493   1.765  -0.238  0.00  0.00     0.027 A 
ATOM      4  C4  DEN d   1       1.012   1.093  -2.673  0.00  0.00     0.027 A 
ATOM      5  C5  DEN d   1       1.846   0.351  -3.480  0.00  0.00    -0.003 A 
ATOM      6  C6  DEN d   1       2.886  -0.384  -2.975  0.00  0.00     0.001 A 
ATOM      7  C7  DEN d   1       3.091  -0.429  -1.621  0.00  0.00     0.017 A 
ATOM      8  C8  DEN d   1       2.259   0.323  -0.802  0.00  0.00    -0.094 A 
ATOM      9  C9  DEN d   1       1.206   1.050  -1.331  0.00  0.00    -0.072 A 
ENDROOT
TORSDOF 0
ENDMDL
