MODEL 1
REMARK minimizedAffinity 9.7048111
REMARK minimizedRMSD -1
REMARK  0 active torsions:
REMARK  status: ('A' for Active; 'I' for Inactive)
ROOT
ATOM      1  C1  DEN d   1       2.443   1.436  -2.374  0.00  0.00     0.130 A 
ATOM      2  C2  DEN d   1       2.786   0.347  -3.285  0.00  0.00    -0.031 A 
ATOM      3  C3  DEN d   1       2.534  -0.929  -2.586  0.00  0.00     0.027 A 
ATOM      4  C4  DEN d   1       1.645  -1.322  -0.197  0.00  0.00     0.027 A 
ATOM      5  C5  DEN d   1       1.225  -0.705   0.960  0.00  0.00    -0.003 A 
ATOM      6  C6  DEN d   1       1.213   0.658   1.098  0.00  0.00     0.001 A 
ATOM      7  C7  DEN d   1       1.587   1.450   0.044  0.00  0.00     0.017 A 
ATOM      8  C8  DEN d   1       2.019   0.834  -1.123  0.00  0.00    -0.094 A 
ATOM      9  C9  DEN d   1       2.013  -0.545  -1.246  0.00  0.00    -0.072 A 
ENDROOT
TORSDOF 0
ENDMDL
