MODEL 1
REMARK minimizedAffinity 9.10796165
REMARK minimizedRMSD -1
REMARK  0 active torsions:
REMARK  status: ('A' for Active; 'I' for Inactive)
ROOT
ATOM      1  C1  DEN d   1       0.555   2.579  -3.338  0.00  0.00     0.130 A 
ATOM      2  C2  DEN d   1       0.237   2.097  -4.679  0.00  0.00    -0.031 A 
ATOM      3  C3  DEN d   1       0.968   0.832  -4.894  0.00  0.00     0.027 A 
ATOM      4  C4  DEN d   1       2.550  -0.421  -3.288  0.00  0.00     0.027 A 
ATOM      5  C5  DEN d   1       3.137  -0.394  -2.042  0.00  0.00    -0.003 A 
ATOM      6  C6  DEN d   1       2.933   0.634  -1.161  0.00  0.00     0.001 A 
ATOM      7  C7  DEN d   1       2.085   1.657  -1.496  0.00  0.00     0.017 A 
ATOM      8  C8  DEN d   1       1.496   1.640  -2.754  0.00  0.00    -0.094 A 
ATOM      9  C9  DEN d   1       1.705   0.585  -3.625  0.00  0.00    -0.072 A 
ENDROOT
TORSDOF 0
ENDMDL
