MODEL 1
REMARK minimizedAffinity 9.12656307
REMARK minimizedRMSD -1
REMARK  0 active torsions:
REMARK  status: ('A' for Active; 'I' for Inactive)
ROOT
ATOM      1  C1  DEN d   1       1.949   1.578   2.369  0.00  0.00     0.130 A 
ATOM      2  C2  DEN d   1       2.306   1.345   0.972  0.00  0.00    -0.031 A 
ATOM      3  C3  DEN d   1       1.092   1.538   0.153  0.00  0.00     0.027 A 
ATOM      4  C4  DEN d   1      -1.291   2.175   0.907  0.00  0.00     0.027 A 
ATOM      5  C5  DEN d   1      -2.084   2.464   1.995  0.00  0.00    -0.003 A 
ATOM      6  C6  DEN d   1      -1.601   2.445   3.276  0.00  0.00     0.001 A 
ATOM      7  C7  DEN d   1      -0.277   2.175   3.499  0.00  0.00     0.017 A 
ATOM      8  C8  DEN d   1       0.528   1.875   2.407  0.00  0.00    -0.094 A 
ATOM      9  C9  DEN d   1       0.024   1.911   1.118  0.00  0.00    -0.072 A 
ENDROOT
TORSDOF 0
ENDMDL
