MODEL 1
REMARK minimizedAffinity 13.1855879
REMARK minimizedRMSD -1
REMARK  0 active torsions:
REMARK  status: ('A' for Active; 'I' for Inactive)
ROOT
ATOM      1  C1  DEN d   1       3.736   0.832  -1.683  0.00  0.00     0.130 A 
ATOM      2  C2  DEN d   1       2.837   0.007  -2.485  0.00  0.00    -0.031 A 
ATOM      3  C3  DEN d   1       1.617  -0.243  -1.690  0.00  0.00     0.027 A 
ATOM      4  C4  DEN d   1       1.036   0.565   0.689  0.00  0.00     0.027 A 
ATOM      5  C5  DEN d   1       1.491   1.282   1.773  0.00  0.00    -0.003 A 
ATOM      6  C6  DEN d   1       2.730   1.865   1.795  0.00  0.00     0.001 A 
ATOM      7  C7  DEN d   1       3.539   1.781   0.693  0.00  0.00     0.017 A 
ATOM      8  C8  DEN d   1       3.090   1.053  -0.401  0.00  0.00    -0.094 A 
ATOM      9  C9  DEN d   1       1.830   0.481  -0.409  0.00  0.00    -0.072 A 
ENDROOT
TORSDOF 0
ENDMDL
