MODEL 1
REMARK minimizedAffinity 3.20165324
REMARK minimizedRMSD -1
REMARK  0 active torsions:
REMARK  status: ('A' for Active; 'I' for Inactive)
ROOT
ATOM      1  N1  IND d   1       1.830  -0.473   1.201  0.00  0.00    -0.196 N 
ATOM      2  C2  IND d   1       1.618  -0.790  -0.111  0.00  0.00     0.054 A 
ATOM      3  C3  IND d   1       0.536  -0.132  -0.585  0.00  0.00    -0.031 A 
ATOM      4  C4  IND d   1      -0.973   1.592   0.588  0.00  0.00     0.051 A 
ATOM      5  C5  IND d   1      -1.197   2.178   1.802  0.00  0.00    -0.031 A 
ATOM      6  C6  IND d   1      -0.405   1.908   2.900  0.00  0.00     0.015 A 
ATOM      7  C7  IND d   1       0.652   1.045   2.820  0.00  0.00    -0.016 A 
ATOM      8  C8  IND d   1       0.877   0.442   1.591  0.00  0.00    -0.047 A 
ATOM      9  C9  IND d   1       0.051   0.680   0.485  0.00  0.00    -0.096 A 
ATOM     10  HN1 IND d   1       2.454  -0.792   1.700  0.00  0.00     0.298 HD
ENDROOT
TORSDOF 0
ENDMDL
