MODEL 1
REMARK minimizedAffinity 14.1721115
REMARK minimizedRMSD -1
REMARK  0 active torsions:
REMARK  status: ('A' for Active; 'I' for Inactive)
ROOT
ATOM      1  N1  IND d   1       2.094   0.380   1.750  0.00  0.00    -0.196 N 
ATOM      2  C2  IND d   1       2.036   0.936   2.998  0.00  0.00     0.054 A 
ATOM      3  C3  IND d   1       1.016   1.820   3.072  0.00  0.00    -0.031 A 
ATOM      4  C4  IND d   1      -0.747   2.436   1.300  0.00  0.00     0.051 A 
ATOM      5  C5  IND d   1      -1.083   2.218  -0.006  0.00  0.00    -0.031 A 
ATOM      6  C6  IND d   1      -0.364   1.356  -0.809  0.00  0.00     0.015 A 
ATOM      7  C7  IND d   1       0.715   0.669  -0.331  0.00  0.00    -0.016 A 
ATOM      8  C8  IND d   1       1.064   0.894   0.994  0.00  0.00    -0.047 A 
ATOM      9  C9  IND d   1       0.364   1.800   1.801  0.00  0.00    -0.096 A 
ATOM     10  HN1 IND d   1       2.676  -0.193   1.483  0.00  0.00     0.298 HD
ENDROOT
TORSDOF 0
ENDMDL
