MODEL 1
REMARK minimizedAffinity 6.12924385
REMARK minimizedRMSD -1
REMARK  0 active torsions:
REMARK  status: ('A' for Active; 'I' for Inactive)
ROOT
ATOM      1  N1  IND d   1       0.678   3.874  -0.144  0.00  0.00    -0.196 N 
ATOM      2  C2  IND d   1      -0.142   3.631  -1.211  0.00  0.00     0.054 A 
ATOM      3  C3  IND d   1      -1.230   2.932  -0.818  0.00  0.00    -0.031 A 
ATOM      4  C4  IND d   1      -1.919   2.170   1.542  0.00  0.00     0.051 A 
ATOM      5  C5  IND d   1      -1.474   2.128   2.834  0.00  0.00    -0.031 A 
ATOM      6  C6  IND d   1      -0.266   2.680   3.207  0.00  0.00     0.015 A 
ATOM      7  C7  IND d   1       0.541   3.307   2.300  0.00  0.00    -0.016 A 
ATOM      8  C8  IND d   1       0.095   3.345   0.986  0.00  0.00    -0.047 A 
ATOM      9  C9  IND d   1      -1.110   2.749   0.594  0.00  0.00    -0.096 A 
ATOM     10  HN1 IND d   1       1.431   4.289  -0.175  0.00  0.00     0.298 HD
ENDROOT
TORSDOF 0
ENDMDL
