MODEL 1
REMARK minimizedAffinity 8.06003952
REMARK minimizedRMSD -1
REMARK  0 active torsions:
REMARK  status: ('A' for Active; 'I' for Inactive)
ROOT
ATOM      1  N1  IND d   1       1.315  -3.527  -0.492  0.00  0.00    -0.196 N 
ATOM      2  C2  IND d   1       1.371  -4.802  -0.982  0.00  0.00     0.054 A 
ATOM      3  C3  IND d   1       2.641  -5.264  -0.946  0.00  0.00    -0.031 A 
ATOM      4  C4  IND d   1       4.767  -4.137  -0.031  0.00  0.00     0.051 A 
ATOM      5  C5  IND d   1       5.223  -2.957   0.486  0.00  0.00    -0.031 A 
ATOM      6  C6  IND d   1       4.382  -1.885   0.710  0.00  0.00     0.015 A 
ATOM      7  C7  IND d   1       3.046  -1.959   0.435  0.00  0.00    -0.016 A 
ATOM      8  C8  IND d   1       2.580  -3.153  -0.096  0.00  0.00    -0.047 A 
ATOM      9  C9  IND d   1       3.436  -4.229  -0.365  0.00  0.00    -0.096 A 
ATOM     10  HN1 IND d   1       0.608  -3.040  -0.440  0.00  0.00     0.298 HD
ENDROOT
TORSDOF 0
ENDMDL
