MODEL 1
REMARK minimizedAffinity 6.09007025
REMARK minimizedRMSD -1
REMARK  0 active torsions:
REMARK  status: ('A' for Active; 'I' for Inactive)
ROOT
ATOM      1  N1  IND d   1       4.311  -1.161  -0.359  0.00  0.00    -0.196 N 
ATOM      2  C2  IND d   1       5.349  -1.438   0.487  0.00  0.00     0.054 A 
ATOM      3  C3  IND d   1       5.167  -2.640   1.077  0.00  0.00    -0.031 A 
ATOM      4  C4  IND d   1       3.291  -4.368   0.726  0.00  0.00     0.051 A 
ATOM      5  C5  IND d   1       2.101  -4.549   0.079  0.00  0.00    -0.031 A 
ATOM      6  C6  IND d   1       1.577  -3.592  -0.766  0.00  0.00     0.015 A 
ATOM      7  C7  IND d   1       2.233  -2.417  -1.005  0.00  0.00    -0.016 A 
ATOM      8  C8  IND d   1       3.438  -2.227  -0.345  0.00  0.00    -0.047 A 
ATOM      9  C9  IND d   1       3.954  -3.177   0.546  0.00  0.00    -0.096 A 
ATOM     10  HN1 IND d   1       4.219  -0.443  -0.822  0.00  0.00     0.298 HD
ENDROOT
TORSDOF 0
ENDMDL
