MODEL 1
REMARK minimizedAffinity 13.1619015
REMARK minimizedRMSD -1
REMARK  0 active torsions:
REMARK  status: ('A' for Active; 'I' for Inactive)
ROOT
ATOM      1  N1  IND d   1      -2.626   2.973   1.269  0.00  0.00    -0.196 N 
ATOM      2  C2  IND d   1      -1.798   3.743   0.501  0.00  0.00     0.054 A 
ATOM      3  C3  IND d   1      -0.509   3.379   0.688  0.00  0.00    -0.031 A 
ATOM      4  C4  IND d   1       0.461   1.479   2.129  0.00  0.00     0.051 A 
ATOM      5  C5  IND d   1       0.100   0.526   3.039  0.00  0.00    -0.031 A 
ATOM      6  C6  IND d   1      -1.215   0.334   3.411  0.00  0.00     0.015 A 
ATOM      7  C7  IND d   1      -2.223   1.084   2.876  0.00  0.00    -0.016 A 
ATOM      8  C8  IND d   1      -1.860   2.057   1.957  0.00  0.00    -0.047 A 
ATOM      9  C9  IND d   1      -0.523   2.285   1.607  0.00  0.00    -0.096 A 
ATOM     10  HN1 IND d   1      -3.481   3.047   1.314  0.00  0.00     0.298 HD
ENDROOT
TORSDOF 0
ENDMDL
