MODEL 1
REMARK minimizedAffinity 3.67186022
REMARK minimizedRMSD -1
REMARK  0 active torsions:
REMARK  status: ('A' for Active; 'I' for Inactive)
ROOT
ATOM      1  N1  IND d   1      -4.038   1.343   1.912  0.00  0.00    -0.196 N 
ATOM      2  C2  IND d   1      -3.376   0.275   2.452  0.00  0.00     0.054 A 
ATOM      3  C3  IND d   1      -2.047   0.522   2.499  0.00  0.00    -0.031 A 
ATOM      4  C4  IND d   1      -0.754   2.649   1.842  0.00  0.00     0.051 A 
ATOM      5  C5  IND d   1      -0.922   3.877   1.267  0.00  0.00    -0.031 A 
ATOM      6  C6  IND d   1      -2.163   4.334   0.872  0.00  0.00     0.015 A 
ATOM      7  C7  IND d   1      -3.289   3.580   1.049  0.00  0.00    -0.016 A 
ATOM      8  C8  IND d   1      -3.121   2.329   1.626  0.00  0.00    -0.047 A 
ATOM      9  C9  IND d   1      -1.858   1.843   1.990  0.00  0.00    -0.096 A 
ATOM     10  HN1 IND d   1      -4.886   1.390   1.775  0.00  0.00     0.298 HD
ENDROOT
TORSDOF 0
ENDMDL
