MODEL 1
REMARK minimizedAffinity 6.46921492
REMARK minimizedRMSD -1
REMARK  0 active torsions:
REMARK  status: ('A' for Active; 'I' for Inactive)
ROOT
ATOM      1  N1  IND d   1       1.260   2.722  -2.150  0.00  0.00    -0.196 N 
ATOM      2  C2  IND d   1       1.312   1.361  -2.270  0.00  0.00     0.054 A 
ATOM      3  C3  IND d   1       0.639   0.774  -1.255  0.00  0.00    -0.031 A 
ATOM      4  C4  IND d   1      -0.706   1.853   0.657  0.00  0.00     0.051 A 
ATOM      5  C5  IND d   1      -1.014   3.066   1.206  0.00  0.00    -0.031 A 
ATOM      6  C6  IND d   1      -0.572   4.250   0.652  0.00  0.00     0.015 A 
ATOM      7  C7  IND d   1       0.187   4.266  -0.483  0.00  0.00    -0.016 A 
ATOM      8  C8  IND d   1       0.507   3.036  -1.040  0.00  0.00    -0.047 A 
ATOM      9  C9  IND d   1       0.098   1.829  -0.459  0.00  0.00    -0.096 A 
ATOM     10  HN1 IND d   1       1.635   3.287  -2.679  0.00  0.00     0.298 HD
ENDROOT
TORSDOF 0
ENDMDL
