MODEL 1
REMARK minimizedAffinity 12.7380915
REMARK minimizedRMSD -1
REMARK  0 active torsions:
REMARK  status: ('A' for Active; 'I' for Inactive)
ROOT
ATOM      1  N1  IND d   1      -2.539  -1.094  -2.682  0.00  0.00    -0.196 N 
ATOM      2  C2  IND d   1      -3.532  -0.654  -1.852  0.00  0.00     0.054 A 
ATOM      3  C3  IND d   1      -3.117   0.426  -1.153  0.00  0.00    -0.031 A 
ATOM      4  C4  IND d   1      -0.884   1.701  -1.286  0.00  0.00     0.051 A 
ATOM      5  C5  IND d   1       0.349   1.655  -1.872  0.00  0.00    -0.031 A 
ATOM      6  C6  IND d   1       0.689   0.672  -2.779  0.00  0.00     0.015 A 
ATOM      7  C7  IND d   1      -0.200  -0.300  -3.143  0.00  0.00    -0.016 A 
ATOM      8  C8  IND d   1      -1.451  -0.260  -2.545  0.00  0.00    -0.047 A 
ATOM      9  C9  IND d   1      -1.788   0.711  -1.592  0.00  0.00    -0.096 A 
ATOM     10  HN1 IND d   1      -2.586  -1.776  -3.203  0.00  0.00     0.298 HD
ENDROOT
TORSDOF 0
ENDMDL
