MODEL 1
REMARK minimizedAffinity 8.12767601
REMARK minimizedRMSD -1
REMARK  0 active torsions:
REMARK  status: ('A' for Active; 'I' for Inactive)
ROOT
ATOM      1  N1  IND d   1       0.619   2.324  -2.238  0.00  0.00    -0.196 N 
ATOM      2  C2  IND d   1       0.630   0.959  -2.303  0.00  0.00     0.054 A 
ATOM      3  C3  IND d   1       0.082   0.430  -1.186  0.00  0.00    -0.031 A 
ATOM      4  C4  IND d   1      -0.990   1.620   0.830  0.00  0.00     0.051 A 
ATOM      5  C5  IND d   1      -1.203   2.862   1.360  0.00  0.00    -0.031 A 
ATOM      6  C6  IND d   1      -0.814   4.011   0.702  0.00  0.00     0.015 A 
ATOM      7  C7  IND d   1      -0.206   3.962  -0.520  0.00  0.00    -0.016 A 
ATOM      8  C8  IND d   1       0.019   2.702  -1.057  0.00  0.00    -0.047 A 
ATOM      9  C9  IND d   1      -0.335   1.531  -0.375  0.00  0.00    -0.096 A 
ATOM     10  HN1 IND d   1       0.933   2.857  -2.835  0.00  0.00     0.298 HD
ENDROOT
TORSDOF 0
ENDMDL
