MODEL 1
REMARK minimizedAffinity 9.37116623
REMARK minimizedRMSD -1
REMARK  0 active torsions:
REMARK  status: ('A' for Active; 'I' for Inactive)
ROOT
ATOM      1  N1  IND d   1      -3.078   1.505  -2.244  0.00  0.00    -0.196 N 
ATOM      2  C2  IND d   1      -3.803   0.352  -2.361  0.00  0.00     0.054 A 
ATOM      3  C3  IND d   1      -2.990  -0.725  -2.280  0.00  0.00    -0.031 A 
ATOM      4  C4  IND d   1      -0.453  -0.830  -1.855  0.00  0.00     0.051 A 
ATOM      5  C5  IND d   1       0.650  -0.035  -1.719  0.00  0.00    -0.031 A 
ATOM      6  C6  IND d   1       0.565   1.342  -1.749  0.00  0.00     0.015 A 
ATOM      7  C7  IND d   1      -0.634   1.978  -1.905  0.00  0.00    -0.016 A 
ATOM      8  C8  IND d   1      -1.755   1.174  -2.050  0.00  0.00    -0.047 A 
ATOM      9  C9  IND d   1      -1.669  -0.224  -2.064  0.00  0.00    -0.096 A 
ATOM     10  HN1 IND d   1      -3.396   2.304  -2.284  0.00  0.00     0.298 HD
ENDROOT
TORSDOF 0
ENDMDL
