MODEL 1
REMARK minimizedAffinity 12.5296707
REMARK minimizedRMSD -1
REMARK  0 active torsions:
REMARK  status: ('A' for Active; 'I' for Inactive)
ROOT
ATOM      1  N1  IND d   1       0.841   4.849   1.939  0.00  0.00    -0.196 N 
ATOM      2  C2  IND d   1      -0.132   5.717   1.529  0.00  0.00     0.054 A 
ATOM      3  C3  IND d   1      -1.325   5.086   1.456  0.00  0.00    -0.031 A 
ATOM      4  C4  IND d   1      -1.931   2.658   2.062  0.00  0.00     0.051 A 
ATOM      5  C5  IND d   1      -1.372   1.473   2.449  0.00  0.00    -0.031 A 
ATOM      6  C6  IND d   1      -0.019   1.350   2.693  0.00  0.00     0.015 A 
ATOM      7  C7  IND d   1       0.826   2.416   2.570  0.00  0.00    -0.016 A 
ATOM      8  C8  IND d   1       0.263   3.620   2.171  0.00  0.00    -0.047 A 
ATOM      9  C9  IND d   1      -1.102   3.740   1.880  0.00  0.00    -0.096 A 
ATOM     10  HN1 IND d   1       1.674   5.038   2.036  0.00  0.00     0.298 HD
ENDROOT
TORSDOF 0
ENDMDL
