MODEL 1
REMARK minimizedAffinity 4.06727266
REMARK minimizedRMSD -1
REMARK  0 active torsions:
REMARK  status: ('A' for Active; 'I' for Inactive)
ROOT
ATOM      1  N1  IND d   1       0.817   1.879  -1.070  0.00  0.00    -0.196 N 
ATOM      2  C2  IND d   1       0.153   3.044  -0.804  0.00  0.00     0.054 A 
ATOM      3  C3  IND d   1      -1.096   3.001  -1.320  0.00  0.00    -0.031 A 
ATOM      4  C4  IND d   1      -2.293   1.082  -2.550  0.00  0.00     0.051 A 
ATOM      5  C5  IND d   1      -2.081  -0.168  -3.061  0.00  0.00    -0.031 A 
ATOM      6  C6  IND d   1      -0.868  -0.813  -2.929  0.00  0.00     0.015 A 
ATOM      7  C7  IND d   1       0.179  -0.235  -2.269  0.00  0.00    -0.016 A 
ATOM      8  C8  IND d   1      -0.031   1.037  -1.755  0.00  0.00    -0.047 A 
ATOM      9  C9  IND d   1      -1.246   1.714  -1.922  0.00  0.00    -0.096 A 
ATOM     10  HN1 IND d   1       1.629   1.703  -0.848  0.00  0.00     0.298 HD
ENDROOT
TORSDOF 0
ENDMDL
