MODEL 1
REMARK minimizedAffinity 2.37353921
REMARK minimizedRMSD -1
REMARK  0 active torsions:
REMARK  status: ('A' for Active; 'I' for Inactive)
ROOT
ATOM      1  N1  IND d   1       0.157   3.359  -1.802  0.00  0.00    -0.196 N 
ATOM      2  C2  IND d   1       0.264   2.005  -1.648  0.00  0.00     0.054 A 
ATOM      3  C3  IND d   1      -0.567   1.576  -0.672  0.00  0.00    -0.031 A 
ATOM      4  C4  IND d   1      -2.264   2.906   0.734  0.00  0.00     0.051 A 
ATOM      5  C5  IND d   1      -2.697   4.179   0.979  0.00  0.00    -0.031 A 
ATOM      6  C6  IND d   1      -2.192   5.266   0.294  0.00  0.00     0.015 A 
ATOM      7  C7  IND d   1      -1.240   5.117  -0.674  0.00  0.00    -0.016 A 
ATOM      8  C8  IND d   1      -0.793   3.827  -0.921  0.00  0.00    -0.047 A 
ATOM      9  C9  IND d   1      -1.270   2.726  -0.199  0.00  0.00    -0.096 A 
ATOM     10  HN1 IND d   1       0.608   3.839  -2.356  0.00  0.00     0.298 HD
ENDROOT
TORSDOF 0
ENDMDL
