MODEL 1
REMARK minimizedAffinity -4.82502365
REMARK minimizedRMSD -1
REMARK  0 active torsions:
REMARK  status: ('A' for Active; 'I' for Inactive)
ROOT
ATOM      1  C   UNL d   1      -2.272   1.838   1.184  0.00  0.00     0.077 C 
ATOM      2  C1  UNL d   1      -1.217   1.417   0.204  0.00  0.00    -0.074 A 
ATOM      3  C2  UNL d   1      -0.592   2.353  -0.626  0.00  0.00    -0.005 A 
ATOM      4  C3  UNL d   1       0.394   1.948  -1.525  0.00  0.00     0.006 A 
ATOM      5  C4  UNL d   1       0.764   0.605  -1.604  0.00  0.00    -0.005 A 
ATOM      6  C5  UNL d   1       0.151  -0.345  -0.781  0.00  0.00    -0.074 A 
ATOM      7  C6  UNL d   1       0.544  -1.791  -0.846  0.00  0.00     0.077 C 
ATOM      8  C7  UNL d   1      -0.834   0.071   0.125  0.00  0.00    -0.001 A 
ENDROOT
TORSDOF 0
ENDMDL
