MODEL 1
REMARK minimizedAffinity -0.894721389
REMARK minimizedRMSD -1
REMARK  0 active torsions:
REMARK  status: ('A' for Active; 'I' for Inactive)
ROOT
ATOM      1  C   UNL d   1      -1.769   1.949   1.809  0.00  0.00     0.077 C 
ATOM      2  C1  UNL d   1      -0.922   0.735   1.569  0.00  0.00    -0.074 A 
ATOM      3  C2  UNL d   1      -0.638  -0.160   2.606  0.00  0.00    -0.005 A 
ATOM      4  C3  UNL d   1       0.144  -1.290   2.366  0.00  0.00     0.006 A 
ATOM      5  C4  UNL d   1       0.649  -1.536   1.089  0.00  0.00    -0.005 A 
ATOM      6  C5  UNL d   1       0.375  -0.654   0.039  0.00  0.00    -0.074 A 
ATOM      7  C6  UNL d   1       0.901  -0.909  -1.342  0.00  0.00     0.077 C 
ATOM      8  C7  UNL d   1      -0.417   0.476   0.287  0.00  0.00    -0.001 A 
ENDROOT
TORSDOF 0
ENDMDL
