MODEL 1
REMARK minimizedAffinity -3.89904952
REMARK minimizedRMSD -1
REMARK  0 active torsions:
REMARK  status: ('A' for Active; 'I' for Inactive)
ROOT
ATOM      1  C   UNL d   1       1.219  -0.082  -1.490  0.00  0.00     0.077 C 
ATOM      2  C1  UNL d   1       0.365   0.009  -0.261  0.00  0.00    -0.074 A 
ATOM      3  C2  UNL d   1       0.447  -0.959   0.745  0.00  0.00    -0.005 A 
ATOM      4  C3  UNL d   1      -0.346  -0.855   1.888  0.00  0.00     0.006 A 
ATOM      5  C4  UNL d   1      -1.229   0.216   2.035  0.00  0.00    -0.005 A 
ATOM      6  C5  UNL d   1      -1.325   1.194   1.040  0.00  0.00    -0.074 A 
ATOM      7  C6  UNL d   1      -2.261   2.356   1.187  0.00  0.00     0.077 C 
ATOM      8  C7  UNL d   1      -0.519   1.086  -0.102  0.00  0.00    -0.001 A 
ENDROOT
TORSDOF 0
ENDMDL
