MODEL 1
REMARK minimizedAffinity -2.62626529
REMARK minimizedRMSD -1
REMARK  0 active torsions:
REMARK  status: ('A' for Active; 'I' for Inactive)
ROOT
ATOM      1  C   UNL d   1       0.722  -3.375  -1.878  0.00  0.00     0.077 C 
ATOM      2  C1  UNL d   1       0.709  -1.970  -1.355  0.00  0.00    -0.074 A 
ATOM      3  C2  UNL d   1       1.427  -0.957  -1.998  0.00  0.00    -0.005 A 
ATOM      4  C3  UNL d   1       1.398   0.348  -1.505  0.00  0.00     0.006 A 
ATOM      5  C4  UNL d   1       0.651   0.652  -0.366  0.00  0.00    -0.005 A 
ATOM      6  C5  UNL d   1      -0.074  -0.348   0.289  0.00  0.00    -0.074 A 
ATOM      7  C6  UNL d   1      -0.890  -0.036   1.509  0.00  0.00     0.077 C 
ATOM      8  C7  UNL d   1      -0.045  -1.655  -0.216  0.00  0.00    -0.001 A 
ENDROOT
TORSDOF 0
ENDMDL
