MODEL 1
REMARK minimizedAffinity -4.42544746
REMARK minimizedRMSD -1
REMARK  0 active torsions:
REMARK  status: ('A' for Active; 'I' for Inactive)
ROOT
ATOM      1  C   UNL d   1      -2.045   2.077   0.462  0.00  0.00     0.077 C 
ATOM      2  C1  UNL d   1      -1.227   0.821   0.458  0.00  0.00    -0.074 A 
ATOM      3  C2  UNL d   1      -0.659   0.329   1.638  0.00  0.00    -0.005 A 
ATOM      4  C3  UNL d   1       0.093  -0.846   1.620  0.00  0.00     0.006 A 
ATOM      5  C4  UNL d   1       0.283  -1.540   0.425  0.00  0.00    -0.005 A 
ATOM      6  C5  UNL d   1      -0.277  -1.064  -0.764  0.00  0.00    -0.074 A 
ATOM      7  C6  UNL d   1      -0.090  -1.803  -2.056  0.00  0.00     0.077 C 
ATOM      8  C7  UNL d   1      -1.037   0.113  -0.737  0.00  0.00    -0.001 A 
ENDROOT
TORSDOF 0
ENDMDL
