MODEL 1
REMARK minimizedAffinity -2.96463084
REMARK minimizedRMSD -1
REMARK  0 active torsions:
REMARK  status: ('A' for Active; 'I' for Inactive)
ROOT
ATOM      1  C   UNL d   1       0.271   2.887  -1.551  0.00  0.00     0.077 C 
ATOM      2  C1  UNL d   1       0.185   1.611  -0.768  0.00  0.00    -0.074 A 
ATOM      3  C2  UNL d   1      -0.681   1.495   0.325  0.00  0.00    -0.005 A 
ATOM      4  C3  UNL d   1      -0.757   0.299   1.038  0.00  0.00     0.006 A 
ATOM      5  C4  UNL d   1       0.030  -0.792   0.667  0.00  0.00    -0.005 A 
ATOM      6  C5  UNL d   1       0.901  -0.695  -0.423  0.00  0.00    -0.074 A 
ATOM      7  C6  UNL d   1       1.747  -1.861  -0.842  0.00  0.00     0.077 C 
ATOM      8  C7  UNL d   1       0.967   0.508  -1.139  0.00  0.00    -0.001 A 
ENDROOT
TORSDOF 0
ENDMDL
