MODEL 1
REMARK minimizedAffinity -4.57711792
REMARK minimizedRMSD -1
REMARK  0 active torsions:
REMARK  status: ('A' for Active; 'I' for Inactive)
ROOT
ATOM      1  C   UNL d   1      -2.495   1.349   0.623  0.00  0.00     0.077 C 
ATOM      2  C1  UNL d   1      -1.258   0.513   0.477  0.00  0.00    -0.074 A 
ATOM      3  C2  UNL d   1      -0.477   0.184   1.590  0.00  0.00    -0.005 A 
ATOM      4  C3  UNL d   1       0.665  -0.603   1.439  0.00  0.00     0.006 A 
ATOM      5  C4  UNL d   1       1.037  -1.068   0.177  0.00  0.00    -0.005 A 
ATOM      6  C5  UNL d   1       0.268  -0.749  -0.947  0.00  0.00    -0.074 A 
ATOM      7  C6  UNL d   1       0.648  -1.249  -2.309  0.00  0.00     0.077 C 
ATOM      8  C7  UNL d   1      -0.882   0.036  -0.787  0.00  0.00    -0.001 A 
ENDROOT
TORSDOF 0
ENDMDL
