MODEL 1
REMARK minimizedAffinity -3.80213356
REMARK minimizedRMSD -1
REMARK  0 active torsions:
REMARK  status: ('A' for Active; 'I' for Inactive)
ROOT
ATOM      1  C   UNL d   1      -1.924   1.442   1.815  0.00  0.00     0.077 C 
ATOM      2  C1  UNL d   1      -0.916   1.165   0.739  0.00  0.00    -0.074 A 
ATOM      3  C2  UNL d   1      -0.576   2.147  -0.197  0.00  0.00    -0.005 A 
ATOM      4  C3  UNL d   1       0.371   1.878  -1.186  0.00  0.00     0.006 A 
ATOM      5  C4  UNL d   1       0.985   0.626  -1.249  0.00  0.00    -0.005 A 
ATOM      6  C5  UNL d   1       0.658  -0.368  -0.321  0.00  0.00    -0.074 A 
ATOM      7  C6  UNL d   1       1.316  -1.715  -0.369  0.00  0.00     0.077 C 
ATOM      8  C7  UNL d   1      -0.289  -0.087   0.674  0.00  0.00    -0.001 A 
ENDROOT
TORSDOF 0
ENDMDL
