MODEL 1
REMARK minimizedAffinity -4.33083773
REMARK minimizedRMSD -1
REMARK  0 active torsions:
REMARK  status: ('A' for Active; 'I' for Inactive)
ROOT
ATOM      1  C   UNL d   1       1.264  -2.290  -1.013  0.00  0.00     0.077 C 
ATOM      2  C1  UNL d   1       0.908  -0.835  -0.949  0.00  0.00    -0.074 A 
ATOM      3  C2  UNL d   1       1.697   0.127  -1.588  0.00  0.00    -0.005 A 
ATOM      4  C3  UNL d   1       1.348   1.476  -1.528  0.00  0.00     0.006 A 
ATOM      5  C4  UNL d   1       0.208   1.877  -0.830  0.00  0.00    -0.005 A 
ATOM      6  C5  UNL d   1      -0.594   0.929  -0.186  0.00  0.00    -0.074 A 
ATOM      7  C6  UNL d   1      -1.828   1.341   0.560  0.00  0.00     0.077 C 
ATOM      8  C7  UNL d   1      -0.240  -0.425  -0.257  0.00  0.00    -0.001 A 
ENDROOT
TORSDOF 0
ENDMDL
