MODEL 1
REMARK minimizedAffinity -5.267694
REMARK minimizedRMSD -1
REMARK  0 active torsions:
REMARK  status: ('A' for Active; 'I' for Inactive)
ROOT
ATOM      1  C   UNL d   1       0.626  -1.247  -0.286  0.00  0.00     0.077 C 
ATOM      2  C1  UNL d   1      -0.140  -0.088   0.278  0.00  0.00    -0.074 A 
ATOM      3  C2  UNL d   1      -1.111  -0.280   1.267  0.00  0.00    -0.005 A 
ATOM      4  C3  UNL d   1      -1.809   0.809   1.789  0.00  0.00     0.006 A 
ATOM      5  C4  UNL d   1      -1.545   2.099   1.328  0.00  0.00    -0.005 A 
ATOM      6  C5  UNL d   1      -0.578   2.311   0.340  0.00  0.00    -0.074 A 
ATOM      7  C6  UNL d   1      -0.274   3.692  -0.159  0.00  0.00     0.077 C 
ATOM      8  C7  UNL d   1       0.125   1.213  -0.174  0.00  0.00    -0.001 A 
ENDROOT
TORSDOF 0
ENDMDL
