MODEL 1
REMARK minimizedAffinity -4.43740797
REMARK minimizedRMSD -1
REMARK  0 active torsions:
REMARK  status: ('A' for Active; 'I' for Inactive)
ROOT
ATOM      1  C   UNL d   1      -2.305   1.952   1.671  0.00  0.00     0.077 C 
ATOM      2  C1  UNL d   1      -1.200   1.032   1.245  0.00  0.00    -0.074 A 
ATOM      3  C2  UNL d   1      -0.763   0.999  -0.083  0.00  0.00    -0.005 A 
ATOM      4  C3  UNL d   1       0.272   0.145  -0.462  0.00  0.00     0.006 A 
ATOM      5  C4  UNL d   1       0.881  -0.684   0.482  0.00  0.00    -0.005 A 
ATOM      6  C5  UNL d   1       0.458  -0.664   1.815  0.00  0.00    -0.074 A 
ATOM      7  C6  UNL d   1       1.108  -1.541   2.844  0.00  0.00     0.077 C 
ATOM      8  C7  UNL d   1      -0.578   0.202   2.189  0.00  0.00    -0.001 A 
ENDROOT
TORSDOF 0
ENDMDL
