MODEL 1
REMARK minimizedAffinity -3.35818458
REMARK minimizedRMSD -1
REMARK  0 active torsions:
REMARK  status: ('A' for Active; 'I' for Inactive)
ROOT
ATOM      1  C   UNL d   1      -2.460   1.876   1.160  0.00  0.00     0.077 C 
ATOM      2  C1  UNL d   1      -1.247   1.059   0.827  0.00  0.00    -0.074 A 
ATOM      3  C2  UNL d   1      -0.780   0.969  -0.489  0.00  0.00    -0.005 A 
ATOM      4  C3  UNL d   1       0.355   0.213  -0.782  0.00  0.00     0.006 A 
ATOM      5  C4  UNL d   1       1.034  -0.459   0.235  0.00  0.00    -0.005 A 
ATOM      6  C5  UNL d   1       0.583  -0.380   1.556  0.00  0.00    -0.074 A 
ATOM      7  C6  UNL d   1       1.306  -1.088   2.663  0.00  0.00     0.077 C 
ATOM      8  C7  UNL d   1      -0.555   0.387   1.844  0.00  0.00    -0.001 A 
ENDROOT
TORSDOF 0
ENDMDL
