MODEL 1
REMARK minimizedAffinity -3.90346169
REMARK minimizedRMSD -1
REMARK  0 active torsions:
REMARK  status: ('A' for Active; 'I' for Inactive)
ROOT
ATOM      1  C   UNL d   1      -2.504   2.513   1.117  0.00  0.00     0.077 C 
ATOM      2  C1  UNL d   1      -1.428   1.475   0.995  0.00  0.00    -0.074 A 
ATOM      3  C2  UNL d   1      -1.299   0.459   1.947  0.00  0.00    -0.005 A 
ATOM      4  C3  UNL d   1      -0.300  -0.505   1.816  0.00  0.00     0.006 A 
ATOM      5  C4  UNL d   1       0.580  -0.462   0.734  0.00  0.00    -0.005 A 
ATOM      6  C5  UNL d   1       0.465   0.546  -0.229  0.00  0.00    -0.074 A 
ATOM      7  C6  UNL d   1       1.396   0.601  -1.404  0.00  0.00     0.077 C 
ATOM      8  C7  UNL d   1      -0.546   1.507  -0.094  0.00  0.00    -0.001 A 
ENDROOT
TORSDOF 0
ENDMDL
