MODEL 1
REMARK minimizedAffinity -4.59256411
REMARK minimizedRMSD -1
REMARK  0 active torsions:
REMARK  status: ('A' for Active; 'I' for Inactive)
ROOT
ATOM      1  C   UNL d   1      -2.494   2.507   1.109  0.00  0.00     0.077 C 
ATOM      2  C1  UNL d   1      -1.521   1.366   1.065  0.00  0.00    -0.074 A 
ATOM      3  C2  UNL d   1      -1.537   0.369   2.046  0.00  0.00    -0.005 A 
ATOM      4  C3  UNL d   1      -0.632  -0.691   1.987  0.00  0.00     0.006 A 
ATOM      5  C4  UNL d   1       0.296  -0.765   0.947  0.00  0.00    -0.005 A 
ATOM      6  C5  UNL d   1       0.326   0.222  -0.043  0.00  0.00    -0.074 A 
ATOM      7  C6  UNL d   1       1.310   0.152  -1.173  0.00  0.00     0.077 C 
ATOM      8  C7  UNL d   1      -0.591   1.280   0.020  0.00  0.00    -0.001 A 
ENDROOT
TORSDOF 0
ENDMDL
