MODEL 1
REMARK minimizedAffinity -3.54952741
REMARK minimizedRMSD -1
REMARK  0 active torsions:
REMARK  status: ('A' for Active; 'I' for Inactive)
ROOT
ATOM      1  C   UNL d   1       0.856  -1.870  -1.093  0.00  0.00     0.077 C 
ATOM      2  C1  UNL d   1       0.194  -0.771  -0.316  0.00  0.00    -0.074 A 
ATOM      3  C2  UNL d   1       0.009   0.496  -0.879  0.00  0.00    -0.005 A 
ATOM      4  C3  UNL d   1      -0.616   1.506  -0.147  0.00  0.00     0.006 A 
ATOM      5  C4  UNL d   1      -1.061   1.260   1.152  0.00  0.00    -0.005 A 
ATOM      6  C5  UNL d   1      -0.886  -0.001   1.731  0.00  0.00    -0.074 A 
ATOM      7  C6  UNL d   1      -1.367  -0.286   3.123  0.00  0.00     0.077 C 
ATOM      8  C7  UNL d   1      -0.263  -1.013   0.987  0.00  0.00    -0.001 A 
ENDROOT
TORSDOF 0
ENDMDL
