MODEL 1
REMARK minimizedAffinity -4.12492323
REMARK minimizedRMSD -1
REMARK  0 active torsions:
REMARK  status: ('A' for Active; 'I' for Inactive)
ROOT
ATOM      1  C   UNL d   1       1.554   0.566  -1.112  0.00  0.00     0.077 C 
ATOM      2  C1  UNL d   1       0.596   0.478   0.038  0.00  0.00    -0.074 A 
ATOM      3  C2  UNL d   1       0.742  -0.504   1.023  0.00  0.00    -0.005 A 
ATOM      4  C3  UNL d   1      -0.151  -0.568   2.092  0.00  0.00     0.006 A 
ATOM      5  C4  UNL d   1      -1.199   0.349   2.187  0.00  0.00    -0.005 A 
ATOM      6  C5  UNL d   1      -1.361   1.339   1.213  0.00  0.00    -0.074 A 
ATOM      7  C6  UNL d   1      -2.475   2.338   1.306  0.00  0.00     0.077 C 
ATOM      8  C7  UNL d   1      -0.455   1.401   0.145  0.00  0.00    -0.001 A 
ENDROOT
TORSDOF 0
ENDMDL
