MODEL 1
REMARK minimizedAffinity -3.49334192
REMARK minimizedRMSD -1
REMARK  0 active torsions:
REMARK  status: ('A' for Active; 'I' for Inactive)
ROOT
ATOM      1  C   UNL d   1      -2.195   2.303   0.884  0.00  0.00     0.077 C 
ATOM      2  C1  UNL d   1      -1.099   1.833  -0.025  0.00  0.00    -0.074 A 
ATOM      3  C2  UNL d   1      -0.573   2.674  -1.012  0.00  0.00    -0.005 A 
ATOM      4  C3  UNL d   1       0.453   2.226  -1.844  0.00  0.00     0.006 A 
ATOM      5  C4  UNL d   1       0.964   0.936  -1.697  0.00  0.00    -0.005 A 
ATOM      6  C5  UNL d   1       0.452   0.082  -0.716  0.00  0.00    -0.074 A 
ATOM      7  C6  UNL d   1       0.996  -1.305  -0.538  0.00  0.00     0.077 C 
ATOM      8  C7  UNL d   1      -0.575   0.541   0.121  0.00  0.00    -0.001 A 
ENDROOT
TORSDOF 0
ENDMDL
