MODEL 1
REMARK minimizedAffinity -3.98879933
REMARK minimizedRMSD -1
REMARK  2 active torsions:
REMARK  status: ('A' for Active; 'I' for Inactive)
REMARK    1  A    between atoms: C1_2  and  C2_3 
REMARK    2  A    between atoms: C2_3  and  C3_4 
ROOT
ATOM      1  C3  UNL d   1      -0.097  -0.423   0.016  0.00  0.00    -0.075 A 
ATOM      2  C4  UNL d   1       0.771  -0.632   1.097  0.00  0.00     0.002 A 
ATOM      3  C5  UNL d   1       0.384  -0.288   2.393  0.00  0.00     0.002 A 
ATOM      4  C6  UNL d   1      -0.869   0.277   2.622  0.00  0.00    -0.004 A 
ATOM      5  C7  UNL d   1      -1.733   0.504   1.553  0.00  0.00     0.002 A 
ATOM      6  C8  UNL d   1      -1.350   0.157   0.256  0.00  0.00     0.002 A 
ENDROOT
BRANCH   1   7
ATOM      7  C2  UNL d   1       0.305  -0.819  -1.385  0.00  0.00     0.056 C 
BRANCH   7   8
ATOM      8  C1  UNL d   1       0.520   0.367  -2.331  0.00  0.00     0.007 C 
ATOM      9  C   UNL d   1       1.547   0.086  -3.421  0.00  0.00     0.009 C 
ENDBRANCH   7   8
ENDBRANCH   1   7
TORSDOF 2
ENDMDL
