MODEL 1
REMARK minimizedAffinity -4.24838209
REMARK minimizedRMSD -1
REMARK  2 active torsions:
REMARK  status: ('A' for Active; 'I' for Inactive)
REMARK    1  A    between atoms: C1_2  and  C2_3 
REMARK    2  A    between atoms: C2_3  and  C3_4 
ROOT
ATOM      1  C3  UNL d   1      -0.175   0.050  -0.708  0.00  0.00    -0.075 A 
ATOM      2  C4  UNL d   1      -0.169  -0.270   0.658  0.00  0.00     0.002 A 
ATOM      3  C5  UNL d   1      -1.025   0.386   1.542  0.00  0.00     0.002 A 
ATOM      4  C6  UNL d   1      -1.889   1.375   1.077  0.00  0.00    -0.004 A 
ATOM      5  C7  UNL d   1      -1.891   1.713  -0.275  0.00  0.00     0.002 A 
ATOM      6  C8  UNL d   1      -1.038   1.055  -1.163  0.00  0.00     0.002 A 
ENDROOT
BRANCH   1   7
ATOM      7  C2  UNL d   1       0.729  -0.677  -1.675  0.00  0.00     0.056 C 
BRANCH   7   8
ATOM      8  C1  UNL d   1       1.392   0.234  -2.714  0.00  0.00     0.007 C 
ATOM      9  C   UNL d   1       0.851   0.030  -4.123  0.00  0.00     0.009 C 
ENDBRANCH   7   8
ENDBRANCH   1   7
TORSDOF 2
ENDMDL
