MODEL 1
REMARK minimizedAffinity 0.355615437
REMARK minimizedRMSD -1
REMARK  2 active torsions:
REMARK  status: ('A' for Active; 'I' for Inactive)
REMARK    1  A    between atoms: C1_2  and  C2_3 
REMARK    2  A    between atoms: C2_3  and  C3_4 
ROOT
ATOM      1  C3  UNL d   1      -0.163   0.013  -1.015  0.00  0.00    -0.075 A 
ATOM      2  C4  UNL d   1      -0.179  -0.500   0.290  0.00  0.00     0.002 A 
ATOM      3  C5  UNL d   1      -1.199  -0.151   1.176  0.00  0.00     0.002 A 
ATOM      4  C6  UNL d   1      -2.208   0.721   0.773  0.00  0.00    -0.004 A 
ATOM      5  C7  UNL d   1      -2.193   1.249  -0.516  0.00  0.00     0.002 A 
ATOM      6  C8  UNL d   1      -1.176   0.899  -1.406  0.00  0.00     0.002 A 
ENDROOT
BRANCH   1   7
ATOM      7  C2  UNL d   1       0.922  -0.384  -1.988  0.00  0.00     0.056 C 
BRANCH   7   8
ATOM      8  C1  UNL d   1       0.589  -0.076  -3.452  0.00  0.00     0.007 C 
ATOM      9  C   UNL d   1       1.704   0.666  -4.178  0.00  0.00     0.009 C 
ENDBRANCH   7   8
ENDBRANCH   1   7
TORSDOF 2
ENDMDL
