MODEL 1
REMARK minimizedAffinity -2.28140283
REMARK minimizedRMSD -1
REMARK  2 active torsions:
REMARK  status: ('A' for Active; 'I' for Inactive)
REMARK    1  A    between atoms: C1_2  and  C2_3 
REMARK    2  A    between atoms: C2_3  and  C3_4 
ROOT
ATOM      1  C3  UNL d   1      -0.068   0.091  -0.043  0.00  0.00    -0.075 A 
ATOM      2  C4  UNL d   1       0.513  -0.271   1.181  0.00  0.00     0.002 A 
ATOM      3  C5  UNL d   1      -0.149  -0.016   2.383  0.00  0.00     0.002 A 
ATOM      4  C6  UNL d   1      -1.393   0.611   2.377  0.00  0.00    -0.004 A 
ATOM      5  C7  UNL d   1      -1.972   0.990   1.168  0.00  0.00     0.002 A 
ATOM      6  C8  UNL d   1      -1.314   0.733  -0.036  0.00  0.00     0.002 A 
ENDROOT
BRANCH   1   7
ATOM      7  C2  UNL d   1       0.630  -0.208  -1.348  0.00  0.00     0.056 C 
BRANCH   7   8
ATOM      8  C1  UNL d   1      -0.322  -0.427  -2.528  0.00  0.00     0.007 C 
ATOM      9  C   UNL d   1       0.323  -0.151  -3.880  0.00  0.00     0.009 C 
ENDBRANCH   7   8
ENDBRANCH   1   7
TORSDOF 2
ENDMDL
