MODEL 1
REMARK minimizedAffinity -4.900352
REMARK minimizedRMSD -1
REMARK  2 active torsions:
REMARK  status: ('A' for Active; 'I' for Inactive)
REMARK    1  A    between atoms: C1_2  and  C2_3 
REMARK    2  A    between atoms: C2_3  and  C3_4 
ROOT
ATOM      1  C3  UNL d   1      -0.264   0.491  -1.057  0.00  0.00    -0.075 A 
ATOM      2  C4  UNL d   1       0.284   1.095  -2.197  0.00  0.00     0.002 A 
ATOM      3  C5  UNL d   1       0.958   0.330  -3.150  0.00  0.00     0.002 A 
ATOM      4  C6  UNL d   1       1.101  -1.044  -2.969  0.00  0.00    -0.004 A 
ATOM      5  C7  UNL d   1       0.575  -1.653  -1.832  0.00  0.00     0.002 A 
ATOM      6  C8  UNL d   1      -0.104  -0.890  -0.879  0.00  0.00     0.002 A 
ENDROOT
BRANCH   1   7
ATOM      7  C2  UNL d   1      -1.020   1.308  -0.037  0.00  0.00     0.056 C 
BRANCH   7   8
ATOM      8  C1  UNL d   1      -1.977   0.488   0.835  0.00  0.00     0.007 C 
ATOM      9  C   UNL d   1      -1.443   0.233   2.237  0.00  0.00     0.009 C 
ENDBRANCH   7   8
ENDBRANCH   1   7
TORSDOF 2
ENDMDL
