MODEL 1
REMARK minimizedAffinity -1.38794136
REMARK minimizedRMSD -1
REMARK  2 active torsions:
REMARK  status: ('A' for Active; 'I' for Inactive)
REMARK    1  A    between atoms: C1_2  and  C2_3 
REMARK    2  A    between atoms: C2_3  and  C3_4 
ROOT
ATOM      1  C3  UNL d   1      -0.506  -0.262  -0.183  0.00  0.00    -0.075 A 
ATOM      2  C4  UNL d   1      -0.186  -0.384   1.177  0.00  0.00     0.002 A 
ATOM      3  C5  UNL d   1      -1.026   0.152   2.154  0.00  0.00     0.002 A 
ATOM      4  C6  UNL d   1      -2.188   0.825   1.784  0.00  0.00    -0.004 A 
ATOM      5  C7  UNL d   1      -2.508   0.967   0.435  0.00  0.00     0.002 A 
ATOM      6  C8  UNL d   1      -1.671   0.427  -0.544  0.00  0.00     0.002 A 
ENDROOT
BRANCH   1   7
ATOM      7  C2  UNL d   1       0.384  -0.866  -1.243  0.00  0.00     0.056 C 
BRANCH   7   8
ATOM      8  C1  UNL d   1       0.707   0.085  -2.401  0.00  0.00     0.007 C 
ATOM      9  C   UNL d   1       0.249  -0.440  -3.755  0.00  0.00     0.009 C 
ENDBRANCH   7   8
ENDBRANCH   1   7
TORSDOF 2
ENDMDL
