MODEL 1
REMARK minimizedAffinity -4.73677206
REMARK minimizedRMSD -1
REMARK  2 active torsions:
REMARK  status: ('A' for Active; 'I' for Inactive)
REMARK    1  A    between atoms: C1_2  and  C2_3 
REMARK    2  A    between atoms: C2_3  and  C3_4 
ROOT
ATOM      1  C3  UNL d   1       0.465   0.367  -1.255  0.00  0.00    -0.075 A 
ATOM      2  C4  UNL d   1       0.017  -0.856  -0.734  0.00  0.00     0.002 A 
ATOM      3  C5  UNL d   1      -1.068  -0.898   0.142  0.00  0.00     0.002 A 
ATOM      4  C6  UNL d   1      -1.712   0.280   0.514  0.00  0.00    -0.004 A 
ATOM      5  C7  UNL d   1      -1.266   1.502   0.016  0.00  0.00     0.002 A 
ATOM      6  C8  UNL d   1      -0.182   1.546  -0.864  0.00  0.00     0.002 A 
ENDROOT
BRANCH   1   7
ATOM      7  C2  UNL d   1       1.620   0.416  -2.226  0.00  0.00     0.056 C 
BRANCH   7   8
ATOM      8  C1  UNL d   1       1.208   0.707  -3.673  0.00  0.00     0.007 C 
ATOM      9  C   UNL d   1       0.524  -0.473  -4.351  0.00  0.00     0.009 C 
ENDBRANCH   7   8
ENDBRANCH   1   7
TORSDOF 2
ENDMDL
