MODEL 1
REMARK minimizedAffinity -4.3084774
REMARK minimizedRMSD -1
REMARK  2 active torsions:
REMARK  status: ('A' for Active; 'I' for Inactive)
REMARK    1  A    between atoms: C1_2  and  C2_3 
REMARK    2  A    between atoms: C2_3  and  C3_4 
ROOT
ATOM      1  C3  UNL d   1      -0.021  -0.086   1.156  0.00  0.00    -0.075 A 
ATOM      2  C4  UNL d   1      -0.903   0.414   2.126  0.00  0.00     0.002 A 
ATOM      3  C5  UNL d   1      -0.527   0.458   3.469  0.00  0.00     0.002 A 
ATOM      4  C6  UNL d   1       0.727  -0.006   3.860  0.00  0.00    -0.004 A 
ATOM      5  C7  UNL d   1       1.604  -0.520   2.908  0.00  0.00     0.002 A 
ATOM      6  C8  UNL d   1       1.233  -0.561   1.562  0.00  0.00     0.002 A 
ENDROOT
BRANCH   1   7
ATOM      7  C2  UNL d   1      -0.410  -0.109  -0.303  0.00  0.00     0.056 C 
BRANCH   7   8
ATOM      8  C1  UNL d   1       0.380  -1.117  -1.143  0.00  0.00     0.007 C 
ATOM      9  C   UNL d   1       0.689  -0.617  -2.548  0.00  0.00     0.009 C 
ENDBRANCH   7   8
ENDBRANCH   1   7
TORSDOF 2
ENDMDL
