MODEL 1
REMARK minimizedAffinity -4.3119607
REMARK minimizedRMSD -1
REMARK  0 active torsions:
REMARK  status: ('A' for Active; 'I' for Inactive)
ROOT
ATOM      1  C   UNL d   1      -2.204  -0.442  -0.973  0.00  0.00     0.023 A 
ATOM      2  C1  UNL d   1      -1.943  -0.472   0.397  0.00  0.00     0.003 A 
ATOM      3  C2  UNL d   1      -0.766   0.089   0.897  0.00  0.00     0.048 A 
ATOM      4  C3  UNL d   1       0.145   0.678   0.021  0.00  0.00     0.023 A 
ATOM      5  C4  UNL d   1      -0.112   0.711  -1.350  0.00  0.00     0.048 A 
ATOM      6  C5  UNL d   1      -1.290   0.148  -1.846  0.00  0.00     0.003 A 
ATOM      7  I   UNL d   1       1.898   1.513   0.763  0.00  0.00    -0.146 I 
ENDROOT
TORSDOF 0
ENDMDL
