MODEL 1
REMARK minimizedAffinity 0.0114466865
REMARK minimizedRMSD -1
REMARK  0 active torsions:
REMARK  status: ('A' for Active; 'I' for Inactive)
ROOT
ATOM      1  C   UNL d   1      -2.188  -1.017  -1.219  0.00  0.00     0.023 A 
ATOM      2  C1  UNL d   1      -1.388  -0.291  -2.102  0.00  0.00     0.003 A 
ATOM      3  C2  UNL d   1      -0.288   0.423  -1.623  0.00  0.00     0.048 A 
ATOM      4  C3  UNL d   1       0.007   0.406  -0.260  0.00  0.00     0.023 A 
ATOM      5  C4  UNL d   1      -0.790  -0.320   0.627  0.00  0.00     0.048 A 
ATOM      6  C5  UNL d   1      -1.890  -1.031   0.143  0.00  0.00     0.003 A 
ATOM      7  I   UNL d   1       1.645   1.467   0.456  0.00  0.00    -0.146 I 
ENDROOT
TORSDOF 0
ENDMDL
