MODEL 1
REMARK minimizedAffinity -0.888196707
REMARK minimizedRMSD -1
REMARK  0 active torsions:
REMARK  status: ('A' for Active; 'I' for Inactive)
ROOT
ATOM      1  C   UNL d   1       1.507   0.514   0.572  0.00  0.00     0.023 A 
ATOM      2  C1  UNL d   1       0.707   1.376  -0.179  0.00  0.00     0.003 A 
ATOM      3  C2  UNL d   1      -0.600   1.009  -0.507  0.00  0.00     0.048 A 
ATOM      4  C3  UNL d   1      -1.101  -0.220  -0.079  0.00  0.00     0.023 A 
ATOM      5  C4  UNL d   1      -0.304  -1.085   0.673  0.00  0.00     0.048 A 
ATOM      6  C5  UNL d   1       1.002  -0.715   0.997  0.00  0.00     0.003 A 
ATOM      7  I   UNL d   1      -3.046  -0.768  -0.566  0.00  0.00    -0.146 I 
ENDROOT
TORSDOF 0
ENDMDL
