MODEL 1
REMARK minimizedAffinity 1.86470377
REMARK minimizedRMSD -1
REMARK  0 active torsions:
REMARK  status: ('A' for Active; 'I' for Inactive)
ROOT
ATOM      1  C   UNL d   1      -0.177  -0.905  -0.726  0.00  0.00     0.023 A 
ATOM      2  C1  UNL d   1       0.784  -0.220  -1.469  0.00  0.00     0.003 A 
ATOM      3  C2  UNL d   1       1.410   0.908  -0.933  0.00  0.00     0.048 A 
ATOM      4  C3  UNL d   1       1.070   1.344   0.347  0.00  0.00     0.023 A 
ATOM      5  C4  UNL d   1       0.109   0.661   1.095  0.00  0.00     0.048 A 
ATOM      6  C5  UNL d   1      -0.514  -0.466   0.554  0.00  0.00     0.003 A 
ATOM      7  I   UNL d   1       1.999   3.022   1.148  0.00  0.00    -0.146 I 
ENDROOT
TORSDOF 0
ENDMDL
