MODEL 1
REMARK minimizedAffinity -3.11473346
REMARK minimizedRMSD -1
REMARK  0 active torsions:
REMARK  status: ('A' for Active; 'I' for Inactive)
ROOT
ATOM      1  C   UNL d   1      -2.312  -0.701  -1.141  0.00  0.00     0.023 A 
ATOM      2  C1  UNL d   1      -2.272  -0.385   0.217  0.00  0.00     0.003 A 
ATOM      3  C2  UNL d   1      -1.133   0.211   0.764  0.00  0.00     0.048 A 
ATOM      4  C3  UNL d   1      -0.039   0.488  -0.054  0.00  0.00     0.023 A 
ATOM      5  C4  UNL d   1      -0.074   0.174  -1.414  0.00  0.00     0.048 A 
ATOM      6  C5  UNL d   1      -1.215  -0.422  -1.955  0.00  0.00     0.003 A 
ATOM      7  I   UNL d   1       1.657   1.375   0.757  0.00  0.00    -0.146 I 
ENDROOT
TORSDOF 0
ENDMDL
