MODEL 1
REMARK minimizedAffinity -4.39392376
REMARK minimizedRMSD -1
REMARK  0 active torsions:
REMARK  status: ('A' for Active; 'I' for Inactive)
ROOT
ATOM      1  C   UNL d   1      -3.048  -0.531  -0.416  0.00  0.00     0.023 A 
ATOM      2  C1  UNL d   1      -2.170  -0.279  -1.471  0.00  0.00     0.003 A 
ATOM      3  C2  UNL d   1      -0.812  -0.072  -1.217  0.00  0.00     0.048 A 
ATOM      4  C3  UNL d   1      -0.339  -0.119   0.094  0.00  0.00     0.023 A 
ATOM      5  C4  UNL d   1      -1.214  -0.372   1.152  0.00  0.00     0.048 A 
ATOM      6  C5  UNL d   1      -2.570  -0.577   0.894  0.00  0.00     0.003 A 
ATOM      7  I   UNL d   1       1.681   0.188   0.475  0.00  0.00    -0.146 I 
ENDROOT
TORSDOF 0
ENDMDL
