MODEL 1
REMARK minimizedAffinity -2.90608597
REMARK minimizedRMSD -1
REMARK  0 active torsions:
REMARK  status: ('A' for Active; 'I' for Inactive)
ROOT
ATOM      1  C   UNL d   1       1.652  -0.277   0.311  0.00  0.00     0.023 A 
ATOM      2  C1  UNL d   1       0.912  -1.054   1.203  0.00  0.00     0.003 A 
ATOM      3  C2  UNL d   1      -0.474  -1.149   1.064  0.00  0.00     0.048 A 
ATOM      4  C3  UNL d   1      -1.114  -0.465   0.031  0.00  0.00     0.023 A 
ATOM      5  C4  UNL d   1      -0.378   0.312  -0.864  0.00  0.00     0.048 A 
ATOM      6  C5  UNL d   1       1.008   0.405  -0.721  0.00  0.00     0.003 A 
ATOM      7  I   UNL d   1      -3.177  -0.605  -0.177  0.00  0.00    -0.146 I 
ENDROOT
TORSDOF 0
ENDMDL
