MODEL 1
REMARK minimizedAffinity -3.77075863
REMARK minimizedRMSD -1
REMARK  0 active torsions:
REMARK  status: ('A' for Active; 'I' for Inactive)
ROOT
ATOM      1  C   UNL d   1      -3.053  -1.138  -0.558  0.00  0.00     0.023 A 
ATOM      2  C1  UNL d   1      -2.699  -0.913   0.772  0.00  0.00     0.003 A 
ATOM      3  C2  UNL d   1      -1.454  -0.361   1.081  0.00  0.00     0.048 A 
ATOM      4  C3  UNL d   1      -0.569  -0.035   0.054  0.00  0.00     0.023 A 
ATOM      5  C4  UNL d   1      -0.919  -0.257  -1.278  0.00  0.00     0.048 A 
ATOM      6  C5  UNL d   1      -2.165  -0.810  -1.582  0.00  0.00     0.003 A 
ATOM      7  I   UNL d   1       1.285   0.787   0.512  0.00  0.00    -0.146 I 
ENDROOT
TORSDOF 0
ENDMDL
