MODEL 1
REMARK minimizedAffinity -3.43043399
REMARK minimizedRMSD -1
REMARK  0 active torsions:
REMARK  status: ('A' for Active; 'I' for Inactive)
ROOT
ATOM      1  C   UNL d   1      -2.937  -0.951  -0.202  0.00  0.00     0.023 A 
ATOM      2  C1  UNL d   1      -2.083  -1.438   0.788  0.00  0.00     0.003 A 
ATOM      3  C2  UNL d   1      -0.763  -0.988   0.856  0.00  0.00     0.048 A 
ATOM      4  C3  UNL d   1      -0.303  -0.051  -0.068  0.00  0.00     0.023 A 
ATOM      5  C4  UNL d   1      -1.154   0.439  -1.060  0.00  0.00     0.048 A 
ATOM      6  C5  UNL d   1      -2.473  -0.014  -1.125  0.00  0.00     0.003 A 
ATOM      7  I   UNL d   1       1.662   0.620   0.031  0.00  0.00    -0.146 I 
ENDROOT
TORSDOF 0
ENDMDL
