MODEL 1
REMARK minimizedAffinity -0.881007314
REMARK minimizedRMSD -1
REMARK  0 active torsions:
REMARK  status: ('A' for Active; 'I' for Inactive)
ROOT
ATOM      1  C   UNL d   1      -1.043  -1.200   0.348  0.00  0.00     0.023 A 
ATOM      2  C1  UNL d   1      -1.175   0.094  -0.157  0.00  0.00     0.003 A 
ATOM      3  C2  UNL d   1      -0.168   1.036   0.061  0.00  0.00     0.048 A 
ATOM      4  C3  UNL d   1       0.969   0.678   0.784  0.00  0.00     0.023 A 
ATOM      5  C4  UNL d   1       1.107  -0.616   1.289  0.00  0.00     0.048 A 
ATOM      6  C5  UNL d   1       0.097  -1.555   1.070  0.00  0.00     0.003 A 
ATOM      7  I   UNL d   1       2.470   2.079   1.109  0.00  0.00    -0.146 I 
ENDROOT
TORSDOF 0
ENDMDL
