MODEL 1
REMARK minimizedAffinity -0.458232582
REMARK minimizedRMSD -1
REMARK  0 active torsions:
REMARK  status: ('A' for Active; 'I' for Inactive)
ROOT
ATOM      1  C   UNL d   1      -2.253  -2.117   1.548  0.00  0.00     0.023 A 
ATOM      2  C1  UNL d   1      -0.992  -2.399   2.073  0.00  0.00     0.003 A 
ATOM      3  C2  UNL d   1       0.093  -1.575   1.767  0.00  0.00     0.048 A 
ATOM      4  C3  UNL d   1      -0.090  -0.471   0.936  0.00  0.00     0.023 A 
ATOM      5  C4  UNL d   1      -1.350  -0.185   0.408  0.00  0.00     0.048 A 
ATOM      6  C5  UNL d   1      -2.432  -1.011   0.717  0.00  0.00     0.003 A 
ATOM      7  I   UNL d   1       1.524   0.757   0.478  0.00  0.00    -0.146 I 
ENDROOT
TORSDOF 0
ENDMDL
