MODEL 1
REMARK minimizedAffinity -4.78031874
REMARK minimizedRMSD -1
REMARK  0 active torsions:
REMARK  status: ('A' for Active; 'I' for Inactive)
ROOT
ATOM      1  C   UNL d   1      -3.142  -1.249   0.122  0.00  0.00     0.023 A 
ATOM      2  C1  UNL d   1      -2.745  -0.285  -0.804  0.00  0.00     0.003 A 
ATOM      3  C2  UNL d   1      -1.463   0.265  -0.736  0.00  0.00     0.048 A 
ATOM      4  C3  UNL d   1      -0.583  -0.155   0.261  0.00  0.00     0.023 A 
ATOM      5  C4  UNL d   1      -0.976  -1.120   1.190  0.00  0.00     0.048 A 
ATOM      6  C5  UNL d   1      -2.259  -1.666   1.118  0.00  0.00     0.003 A 
ATOM      7  I   UNL d   1       1.325   0.661   0.365  0.00  0.00    -0.146 I 
ENDROOT
TORSDOF 0
ENDMDL
