MODEL 1
REMARK minimizedAffinity -4.38203764
REMARK minimizedRMSD -1
REMARK  0 active torsions:
REMARK  status: ('A' for Active; 'I' for Inactive)
ROOT
ATOM      1  C   UNL d   1       1.517  -0.365   0.758  0.00  0.00     0.023 A 
ATOM      2  C1  UNL d   1       0.705  -1.202   1.523  0.00  0.00     0.003 A 
ATOM      3  C2  UNL d   1      -0.616  -1.437   1.139  0.00  0.00     0.048 A 
ATOM      4  C3  UNL d   1      -1.119  -0.833  -0.013  0.00  0.00     0.023 A 
ATOM      5  C4  UNL d   1      -0.310   0.005  -0.782  0.00  0.00     0.048 A 
ATOM      6  C5  UNL d   1       1.010   0.238  -0.393  0.00  0.00     0.003 A 
ATOM      7  I   UNL d   1      -3.086  -1.182  -0.588  0.00  0.00    -0.146 I 
ENDROOT
TORSDOF 0
ENDMDL
