MODEL 1
REMARK minimizedAffinity 0.340201288
REMARK minimizedRMSD -1
REMARK  0 active torsions:
REMARK  status: ('A' for Active; 'I' for Inactive)
ROOT
ATOM      1  C   UNL d   1      -1.022  -1.603   2.147  0.00  0.00     0.023 A 
ATOM      2  C1  UNL d   1      -1.963  -1.127   1.233  0.00  0.00     0.003 A 
ATOM      3  C2  UNL d   1      -1.543  -0.470   0.075  0.00  0.00     0.048 A 
ATOM      4  C3  UNL d   1      -0.181  -0.292  -0.164  0.00  0.00     0.023 A 
ATOM      5  C4  UNL d   1       0.764  -0.767   0.747  0.00  0.00     0.048 A 
ATOM      6  C5  UNL d   1       0.340  -1.423   1.904  0.00  0.00     0.003 A 
ATOM      7  I   UNL d   1       0.447   0.686  -1.887  0.00  0.00    -0.146 I 
ENDROOT
TORSDOF 0
ENDMDL
