MODEL 1
REMARK minimizedAffinity -1.84067142
REMARK minimizedRMSD -1
REMARK  0 active torsions:
REMARK  status: ('A' for Active; 'I' for Inactive)
ROOT
ATOM      1  C   UNL d   1      -3.100  -0.773  -0.331  0.00  0.00     0.023 A 
ATOM      2  C1  UNL d   1      -2.207  -1.009  -1.376  0.00  0.00     0.003 A 
ATOM      3  C2  UNL d   1      -0.860  -0.668  -1.235  0.00  0.00     0.048 A 
ATOM      4  C3  UNL d   1      -0.413  -0.094  -0.046  0.00  0.00     0.023 A 
ATOM      5  C4  UNL d   1      -1.303   0.143   1.003  0.00  0.00     0.048 A 
ATOM      6  C5  UNL d   1      -2.649  -0.198   0.857  0.00  0.00     0.003 A 
ATOM      7  I   UNL d   1       1.592   0.413   0.166  0.00  0.00    -0.146 I 
ENDROOT
TORSDOF 0
ENDMDL
