MODEL 1
REMARK minimizedAffinity -0.724346578
REMARK minimizedRMSD -1
REMARK  0 active torsions:
REMARK  status: ('A' for Active; 'I' for Inactive)
ROOT
ATOM      1  C   UNL d   1      -2.903  -1.268  -0.390  0.00  0.00     0.023 A 
ATOM      2  C1  UNL d   1      -2.446  -0.879   0.869  0.00  0.00     0.003 A 
ATOM      3  C2  UNL d   1      -1.186  -0.295   1.007  0.00  0.00     0.048 A 
ATOM      4  C3  UNL d   1      -0.386  -0.102  -0.120  0.00  0.00     0.023 A 
ATOM      5  C4  UNL d   1      -0.839  -0.490  -1.382  0.00  0.00     0.048 A 
ATOM      6  C5  UNL d   1      -2.100  -1.074  -1.514  0.00  0.00     0.003 A 
ATOM      7  I   UNL d   1       1.491   0.767   0.082  0.00  0.00    -0.146 I 
ENDROOT
TORSDOF 0
ENDMDL
