MODEL 1
REMARK minimizedAffinity 10.0708752
REMARK minimizedRMSD -1
REMARK  1 active torsions:
REMARK  status: ('A' for Active; 'I' for Inactive)
REMARK    1  A    between atoms: C1_2  and  C2_3 
ROOT
ATOM      1  C2  UNL d   1      -2.386  -0.284   1.998  0.00  0.00    -0.081 A 
ATOM      2  C3  UNL d   1      -2.990  -0.845   0.867  0.00  0.00     0.006 A 
ATOM      3  C4  UNL d   1      -2.582  -0.467  -0.415  0.00  0.00     0.002 A 
ATOM      4  C5  UNL d   1      -1.559   0.471  -0.586  0.00  0.00    -0.080 A 
ATOM      5  C6  UNL d   1      -1.090   0.862  -1.956  0.00  0.00     0.076 C 
ATOM      6  C7  UNL d   1      -0.966   1.044   0.544  0.00  0.00     0.002 A 
ATOM      7  C8  UNL d   1      -1.374   0.668   1.826  0.00  0.00     0.006 A 
ENDROOT
BRANCH   1   8
ATOM      8  C1  UNL d   1      -2.779  -0.737   3.381  0.00  0.00     0.054 C 
ATOM      9  C   UNL d   1      -1.556  -1.096   4.214  0.00  0.00     0.018 C 
ENDBRANCH   1   8
TORSDOF 1
ENDMDL
