MODEL 1
REMARK minimizedAffinity 0.968781769
REMARK minimizedRMSD -1
REMARK  1 active torsions:
REMARK  status: ('A' for Active; 'I' for Inactive)
REMARK    1  A    between atoms: C1_2  and  C2_3 
ROOT
ATOM      1  C2  UNL d   1       0.400  -0.279   2.373  0.00  0.00    -0.081 A 
ATOM      2  C3  UNL d   1       0.286  -1.043   3.541  0.00  0.00     0.006 A 
ATOM      3  C4  UNL d   1      -0.971  -1.381   4.047  0.00  0.00     0.002 A 
ATOM      4  C5  UNL d   1      -2.135  -0.967   3.390  0.00  0.00    -0.080 A 
ATOM      5  C6  UNL d   1      -3.491  -1.348   3.905  0.00  0.00     0.076 C 
ATOM      6  C7  UNL d   1      -2.022  -0.189   2.233  0.00  0.00     0.002 A 
ATOM      7  C8  UNL d   1      -0.765   0.150   1.727  0.00  0.00     0.006 A 
ENDROOT
BRANCH   1   8
ATOM      8  C1  UNL d   1       1.754   0.032   1.789  0.00  0.00     0.054 C 
ATOM      9  C   UNL d   1       1.808  -0.306   0.306  0.00  0.00     0.018 C 
ENDBRANCH   1   8
TORSDOF 1
ENDMDL
