MODEL 1
REMARK minimizedAffinity -0.877938628
REMARK minimizedRMSD -1
REMARK  1 active torsions:
REMARK  status: ('A' for Active; 'I' for Inactive)
REMARK    1  A    between atoms: C1_2  and  C2_3 
ROOT
ATOM      1  C2  UNL d   1      -1.266   0.088   1.693  0.00  0.00    -0.081 A 
ATOM      2  C3  UNL d   1       0.015   0.012   1.135  0.00  0.00     0.006 A 
ATOM      3  C4  UNL d   1       1.109  -0.363   1.919  0.00  0.00     0.002 A 
ATOM      4  C5  UNL d   1       0.937  -0.677   3.272  0.00  0.00    -0.080 A 
ATOM      5  C6  UNL d   1       2.098  -1.110   4.118  0.00  0.00     0.076 C 
ATOM      6  C7  UNL d   1      -0.340  -0.585   3.834  0.00  0.00     0.002 A 
ATOM      7  C8  UNL d   1      -1.434  -0.209   3.051  0.00  0.00     0.006 A 
ENDROOT
BRANCH   1   8
ATOM      8  C1  UNL d   1      -2.458   0.429   0.835  0.00  0.00     0.054 C 
ATOM      9  C   UNL d   1      -2.273  -0.069  -0.591  0.00  0.00     0.018 C 
ENDBRANCH   1   8
TORSDOF 1
ENDMDL
