MODEL 1
REMARK minimizedAffinity 2.82802248
REMARK minimizedRMSD -1
REMARK  1 active torsions:
REMARK  status: ('A' for Active; 'I' for Inactive)
REMARK    1  A    between atoms: C1_2  and  C2_3 
ROOT
ATOM      1  C2  UNL d   1      -1.847  -0.150   2.033  0.00  0.00    -0.081 A 
ATOM      2  C3  UNL d   1      -0.588  -0.316   2.623  0.00  0.00     0.006 A 
ATOM      3  C4  UNL d   1      -0.473  -0.845   3.910  0.00  0.00     0.002 A 
ATOM      4  C5  UNL d   1      -1.613  -1.226   4.626  0.00  0.00    -0.080 A 
ATOM      5  C6  UNL d   1      -1.502  -1.824   5.997  0.00  0.00     0.076 C 
ATOM      6  C7  UNL d   1      -2.872  -1.044   4.043  0.00  0.00     0.002 A 
ATOM      7  C8  UNL d   1      -2.988  -0.514   2.757  0.00  0.00     0.006 A 
ENDROOT
BRANCH   1   8
ATOM      8  C1  UNL d   1      -1.970   0.360   0.620  0.00  0.00     0.054 C 
ATOM      9  C   UNL d   1      -3.008  -0.429  -0.165  0.00  0.00     0.018 C 
ENDBRANCH   1   8
TORSDOF 1
ENDMDL
