MODEL 1
REMARK minimizedAffinity 8.67817783
REMARK minimizedRMSD -1
REMARK  1 active torsions:
REMARK  status: ('A' for Active; 'I' for Inactive)
REMARK    1  A    between atoms: C1_2  and  C2_3 
ROOT
ATOM      1  C2  UNL d   1      -1.357   0.137  -2.324  0.00  0.00    -0.081 A 
ATOM      2  C3  UNL d   1      -2.460   0.951  -2.037  0.00  0.00     0.006 A 
ATOM      3  C4  UNL d   1      -2.965   1.027  -0.736  0.00  0.00     0.002 A 
ATOM      4  C5  UNL d   1      -2.371   0.297   0.299  0.00  0.00    -0.080 A 
ATOM      5  C6  UNL d   1      -2.884   0.393   1.705  0.00  0.00     0.076 C 
ATOM      6  C7  UNL d   1      -1.281  -0.530   0.009  0.00  0.00     0.002 A 
ATOM      7  C8  UNL d   1      -0.776  -0.607  -1.291  0.00  0.00     0.006 A 
ENDROOT
BRANCH   1   8
ATOM      8  C1  UNL d   1      -0.770   0.103  -3.712  0.00  0.00     0.054 C 
ATOM      9  C   UNL d   1       0.594   0.777  -3.753  0.00  0.00     0.018 C 
ENDBRANCH   1   8
TORSDOF 1
ENDMDL
