MODEL 1
REMARK minimizedAffinity 1.80920255
REMARK minimizedRMSD -1
REMARK  1 active torsions:
REMARK  status: ('A' for Active; 'I' for Inactive)
REMARK    1  A    between atoms: C1_2  and  C2_3 
ROOT
ATOM      1  C2  UNL d   1      -1.754  -0.365   2.308  0.00  0.00    -0.081 A 
ATOM      2  C3  UNL d   1      -0.591  -0.747   2.987  0.00  0.00     0.006 A 
ATOM      3  C4  UNL d   1      -0.673  -1.456   4.188  0.00  0.00     0.002 A 
ATOM      4  C5  UNL d   1      -1.918  -1.801   4.725  0.00  0.00    -0.080 A 
ATOM      5  C6  UNL d   1      -2.020  -2.588   5.998  0.00  0.00     0.076 C 
ATOM      6  C7  UNL d   1      -3.080  -1.404   4.056  0.00  0.00     0.002 A 
ATOM      7  C8  UNL d   1      -2.999  -0.695   2.855  0.00  0.00     0.006 A 
ENDROOT
BRANCH   1   8
ATOM      8  C1  UNL d   1      -1.669   0.343   0.980  0.00  0.00     0.054 C 
ATOM      9  C   UNL d   1      -1.926  -0.614  -0.175  0.00  0.00     0.018 C 
ENDBRANCH   1   8
TORSDOF 1
ENDMDL
