MODEL 1
REMARK minimizedAffinity 1.89521074
REMARK minimizedRMSD -1
REMARK  1 active torsions:
REMARK  status: ('A' for Active; 'I' for Inactive)
REMARK    1  A    between atoms: N_2  and  C1_3 
ROOT
ATOM      1  C1  UNL d   1       0.013   1.319  -0.604  0.00  0.00     0.143 A 
ATOM      2  C2  UNL d   1       1.302   0.814  -0.809  0.00  0.00    -0.057 A 
ATOM      3  C3  UNL d   1       2.217   0.710   0.246  0.00  0.00     0.033 A 
ATOM      4  C4  UNL d   1       1.868   1.138   1.523  0.00  0.00    -0.042 A 
ATOM      5  C5  UNL d   1       0.601   1.666   1.744  0.00  0.00     0.033 A 
ATOM      6  C6  UNL d   1      -0.311   1.761   0.688  0.00  0.00    -0.057 A 
ENDROOT
BRANCH   1   7
ATOM      7  N   UNL d   1      -0.908   1.538  -1.631  0.00  0.00    -0.732 N 
ATOM      8  C   UNL d   1      -1.664   0.439  -2.190  0.00  0.00     0.284 C 
ATOM      9  H3  UNL d   1      -1.451   2.388  -1.490  0.00  0.00     0.395 HD
ENDBRANCH   1   7
TORSDOF 1
ENDMDL
