MODEL 1
REMARK minimizedAffinity 12.193182
REMARK minimizedRMSD -1
REMARK  1 active torsions:
REMARK  status: ('A' for Active; 'I' for Inactive)
REMARK    1  A    between atoms: N_2  and  C1_3 
ROOT
ATOM      1  C1  UNL d   1      -5.346   1.523  -3.959  0.00  0.00     0.143 A 
ATOM      2  C2  UNL d   1      -4.156   1.966  -4.545  0.00  0.00    -0.057 A 
ATOM      3  C3  UNL d   1      -3.612   3.216  -4.227  0.00  0.00     0.033 A 
ATOM      4  C4  UNL d   1      -4.266   4.060  -3.336  0.00  0.00    -0.042 A 
ATOM      5  C5  UNL d   1      -5.464   3.651  -2.761  0.00  0.00     0.033 A 
ATOM      6  C6  UNL d   1      -5.999   2.398  -3.077  0.00  0.00    -0.057 A 
ENDROOT
BRANCH   1   7
ATOM      7  N   UNL d   1      -5.989   0.332  -4.308  0.00  0.00    -0.732 N 
ATOM      8  C   UNL d   1      -5.996  -0.127  -5.680  0.00  0.00     0.284 C 
ATOM      9  H3  UNL d   1      -5.839  -0.405  -3.623  0.00  0.00     0.395 HD
ENDBRANCH   1   7
TORSDOF 1
ENDMDL
