MODEL 1
REMARK minimizedAffinity 3.19863939
REMARK minimizedRMSD -1
REMARK  1 active torsions:
REMARK  status: ('A' for Active; 'I' for Inactive)
REMARK    1  A    between atoms: N_2  and  C1_3 
ROOT
ATOM      1  C1  UNL d   1      -0.832  -3.420   5.571  0.00  0.00     0.143 A 
ATOM      2  C2  UNL d   1      -1.645  -4.489   5.962  0.00  0.00    -0.057 A 
ATOM      3  C3  UNL d   1      -1.465  -5.771   5.428  0.00  0.00     0.033 A 
ATOM      4  C4  UNL d   1      -0.484  -6.000   4.469  0.00  0.00    -0.042 A 
ATOM      5  C5  UNL d   1       0.319  -4.946   4.047  0.00  0.00     0.033 A 
ATOM      6  C6  UNL d   1       0.139  -3.670   4.589  0.00  0.00    -0.057 A 
ENDROOT
BRANCH   1   7
ATOM      7  N   UNL d   1      -1.025  -2.101   5.992  0.00  0.00    -0.732 N 
ATOM      8  C   UNL d   1      -0.026  -1.089   5.726  0.00  0.00     0.284 C 
ATOM      9  H3  UNL d   1      -1.983  -1.787   5.855  0.00  0.00     0.395 HD
ENDBRANCH   1   7
TORSDOF 1
ENDMDL
