MODEL 1
REMARK minimizedAffinity 10.0217934
REMARK minimizedRMSD -1
REMARK  1 active torsions:
REMARK  status: ('A' for Active; 'I' for Inactive)
REMARK    1  A    between atoms: N_2  and  C1_3 
ROOT
ATOM      1  C1  UNL d   1      -0.692  -3.614   5.059  0.00  0.00     0.143 A 
ATOM      2  C2  UNL d   1      -1.468  -4.683   5.522  0.00  0.00    -0.057 A 
ATOM      3  C3  UNL d   1      -0.874  -5.858   5.998  0.00  0.00     0.033 A 
ATOM      4  C4  UNL d   1       0.510  -5.997   5.993  0.00  0.00    -0.042 A 
ATOM      5  C5  UNL d   1       1.300  -4.957   5.514  0.00  0.00     0.033 A 
ATOM      6  C6  UNL d   1       0.701  -3.783   5.046  0.00  0.00    -0.057 A 
ENDROOT
BRANCH   1   7
ATOM      7  N   UNL d   1      -1.226  -2.459   4.482  0.00  0.00    -0.732 N 
ATOM      8  C   UNL d   1      -0.838  -1.149   4.961  0.00  0.00     0.284 C 
ATOM      9  H3  UNL d   1      -1.296  -2.528   3.470  0.00  0.00     0.395 HD
ENDBRANCH   1   7
TORSDOF 1
ENDMDL
