MODEL 1
REMARK minimizedAffinity 4.84466505
REMARK minimizedRMSD -1
REMARK  1 active torsions:
REMARK  status: ('A' for Active; 'I' for Inactive)
REMARK    1  A    between atoms: N_2  and  C1_3 
ROOT
ATOM      1  C1  UNL d   1      -5.198   2.649  -4.157  0.00  0.00     0.143 A 
ATOM      2  C2  UNL d   1      -5.642   1.323  -4.158  0.00  0.00    -0.057 A 
ATOM      3  C3  UNL d   1      -4.856   0.294  -4.691  0.00  0.00     0.033 A 
ATOM      4  C4  UNL d   1      -3.619   0.579  -5.260  0.00  0.00    -0.042 A 
ATOM      5  C5  UNL d   1      -3.168   1.894  -5.292  0.00  0.00     0.033 A 
ATOM      6  C6  UNL d   1      -3.955   2.916  -4.753  0.00  0.00    -0.057 A 
ENDROOT
BRANCH   1   7
ATOM      7  N   UNL d   1      -5.975   3.730  -3.732  0.00  0.00    -0.732 N 
ATOM      8  C   UNL d   1      -6.000   4.963  -4.489  0.00  0.00     0.284 C 
ATOM      9  H3  UNL d   1      -6.884   3.439  -3.380  0.00  0.00     0.395 HD
ENDBRANCH   1   7
TORSDOF 1
ENDMDL
