MODEL 1
REMARK minimizedAffinity 3.44365931
REMARK minimizedRMSD -1
REMARK  1 active torsions:
REMARK  status: ('A' for Active; 'I' for Inactive)
REMARK    1  A    between atoms: N_2  and  C1_3 
ROOT
ATOM      1  C1  UNL d   1       2.622  -2.076  -0.434  0.00  0.00     0.143 A 
ATOM      2  C2  UNL d   1       2.113  -2.828   0.630  0.00  0.00    -0.057 A 
ATOM      3  C3  UNL d   1       0.948  -3.591   0.489  0.00  0.00     0.033 A 
ATOM      4  C4  UNL d   1       0.252  -3.592  -0.715  0.00  0.00    -0.042 A 
ATOM      5  C5  UNL d   1       0.724  -2.832  -1.779  0.00  0.00     0.033 A 
ATOM      6  C6  UNL d   1       1.893  -2.077  -1.634  0.00  0.00    -0.057 A 
ENDROOT
BRANCH   1   7
ATOM      7  N   UNL d   1       3.720  -1.220  -0.326  0.00  0.00    -0.732 N 
ATOM      8  C   UNL d   1       3.551   0.213  -0.433  0.00  0.00     0.284 C 
ATOM      9  H3  UNL d   1       4.368  -1.509   0.403  0.00  0.00     0.395 HD
ENDBRANCH   1   7
TORSDOF 1
ENDMDL
