MODEL 1
REMARK minimizedAffinity 4.65687466
REMARK minimizedRMSD -1
REMARK  1 active torsions:
REMARK  status: ('A' for Active; 'I' for Inactive)
REMARK    1  A    between atoms: N_2  and  C1_3 
ROOT
ATOM      1  C1  UNL d   1       4.801   0.888  -0.345  0.00  0.00     0.143 A 
ATOM      2  C2  UNL d   1       5.402   1.439   0.792  0.00  0.00    -0.057 A 
ATOM      3  C3  UNL d   1       5.983   2.712   0.763  0.00  0.00     0.033 A 
ATOM      4  C4  UNL d   1       5.999   3.449  -0.417  0.00  0.00    -0.042 A 
ATOM      5  C5  UNL d   1       5.430   2.911  -1.566  0.00  0.00     0.033 A 
ATOM      6  C6  UNL d   1       4.846   1.642  -1.529  0.00  0.00    -0.057 A 
ENDROOT
BRANCH   1   7
ATOM      7  N   UNL d   1       4.295  -0.412  -0.405  0.00  0.00    -0.732 N 
ATOM      8  C   UNL d   1       2.948  -0.658  -0.874  0.00  0.00     0.284 C 
ATOM      9  H3  UNL d   1       4.982  -1.081  -0.745  0.00  0.00     0.395 HD
ENDBRANCH   1   7
TORSDOF 1
ENDMDL
