MODEL 1
REMARK minimizedAffinity 7.74310684
REMARK minimizedRMSD -1
REMARK  1 active torsions:
REMARK  status: ('A' for Active; 'I' for Inactive)
REMARK    1  A    between atoms: N_2  and  C1_3 
ROOT
ATOM      1  C1  UNL d   1       1.066   3.709   2.464  0.00  0.00     0.143 A 
ATOM      2  C2  UNL d   1      -0.081   4.286   1.909  0.00  0.00    -0.057 A 
ATOM      3  C3  UNL d   1      -1.009   3.516   1.197  0.00  0.00     0.033 A 
ATOM      4  C4  UNL d   1      -0.791   2.157   1.001  0.00  0.00    -0.042 A 
ATOM      5  C5  UNL d   1       0.356   1.567   1.522  0.00  0.00     0.033 A 
ATOM      6  C6  UNL d   1       1.275   2.339   2.238  0.00  0.00    -0.057 A 
ENDROOT
BRANCH   1   7
ATOM      7  N   UNL d   1       2.075   4.438   3.098  0.00  0.00    -0.732 N 
ATOM      8  C   UNL d   1       1.809   5.758   3.627  0.00  0.00     0.284 C 
ATOM      9  H3  UNL d   1       2.654   3.857   3.701  0.00  0.00     0.395 HD
ENDBRANCH   1   7
TORSDOF 1
ENDMDL
