MODEL 1
REMARK minimizedAffinity -2.49186707
REMARK minimizedRMSD -1
REMARK  0 active torsions:
REMARK  status: ('A' for Active; 'I' for Inactive)
ROOT
ATOM      1  C   UNL d   1       5.995   3.392  -4.617  0.00  0.00     0.172 C 
ATOM      2  N   UNL d   1       5.358   4.341  -3.734  0.00  0.00    -0.070 N 
ATOM      3  C1  UNL d   1       5.999   5.299  -2.996  0.00  0.00    -0.004 A 
ATOM      4  C2  UNL d   1       5.044   5.997  -2.289  0.00  0.00    -0.047 A 
ATOM      5  C3  UNL d   1       3.785   5.438  -2.614  0.00  0.00    -0.047 A 
ATOM      6  C4  UNL d   1       4.008   4.415  -3.510  0.00  0.00    -0.004 A 
ENDROOT
TORSDOF 0
ENDMDL
