MODEL 1
REMARK minimizedAffinity -2.96354294
REMARK minimizedRMSD -1
REMARK  0 active torsions:
REMARK  status: ('A' for Active; 'I' for Inactive)
ROOT
ATOM      1  C   UNL d   1       5.999   6.000  -2.237  0.00  0.00     0.172 C 
ATOM      2  N   UNL d   1       5.382   5.098  -3.181  0.00  0.00    -0.070 N 
ATOM      3  C1  UNL d   1       6.000   4.528  -4.262  0.00  0.00    -0.004 A 
ATOM      4  C2  UNL d   1       5.076   3.735  -4.908  0.00  0.00    -0.047 A 
ATOM      5  C3  UNL d   1       3.860   3.833  -4.190  0.00  0.00    -0.047 A 
ATOM      6  C4  UNL d   1       4.077   4.682  -3.126  0.00  0.00    -0.004 A 
ENDROOT
TORSDOF 0
ENDMDL
