MODEL 1
REMARK minimizedAffinity -2.37010956
REMARK minimizedRMSD -1
REMARK  0 active torsions:
REMARK  status: ('A' for Active; 'I' for Inactive)
ROOT
ATOM      1  C   UNL d   1       5.988   5.266  -2.769  0.00  0.00     0.172 C 
ATOM      2  N   UNL d   1       5.513   4.885  -4.079  0.00  0.00    -0.070 N 
ATOM      3  C1  UNL d   1       4.519   5.511  -4.781  0.00  0.00    -0.004 A 
ATOM      4  C2  UNL d   1       4.366   4.848  -5.979  0.00  0.00    -0.047 A 
ATOM      5  C3  UNL d   1       5.300   3.786  -5.998  0.00  0.00    -0.047 A 
ATOM      6  C4  UNL d   1       5.998   3.832  -4.809  0.00  0.00    -0.004 A 
ENDROOT
TORSDOF 0
ENDMDL
