MODEL 1
REMARK minimizedAffinity -1.20178151
REMARK minimizedRMSD -1
REMARK  0 active torsions:
REMARK  status: ('A' for Active; 'I' for Inactive)
ROOT
ATOM      1  C   UNL d   1       5.999   6.000  -1.699  0.00  0.00     0.172 C 
ATOM      2  N   UNL d   1       5.273   5.202  -2.659  0.00  0.00    -0.070 N 
ATOM      3  C1  UNL d   1       3.910   5.097  -2.741  0.00  0.00    -0.004 A 
ATOM      4  C2  UNL d   1       3.614   4.245  -3.783  0.00  0.00    -0.047 A 
ATOM      5  C3  UNL d   1       4.842   3.822  -4.345  0.00  0.00    -0.047 A 
ATOM      6  C4  UNL d   1       5.852   4.429  -3.630  0.00  0.00    -0.004 A 
ENDROOT
TORSDOF 0
ENDMDL
