MODEL 1
REMARK minimizedAffinity -1.78805757
REMARK minimizedRMSD -1
REMARK  0 active torsions:
REMARK  status: ('A' for Active; 'I' for Inactive)
ROOT
ATOM      1  C   UNL d   1       2.656   4.848  -1.913  0.00  0.00     0.172 C 
ATOM      2  N   UNL d   1       3.958   5.148  -2.461  0.00  0.00    -0.070 N 
ATOM      3  C1  UNL d   1       4.452   4.678  -3.649  0.00  0.00    -0.004 A 
ATOM      4  C2  UNL d   1       5.720   5.193  -3.811  0.00  0.00    -0.047 A 
ATOM      5  C3  UNL d   1       5.998   6.000  -2.682  0.00  0.00    -0.047 A 
ATOM      6  C4  UNL d   1       4.890   5.954  -1.863  0.00  0.00    -0.004 A 
ENDROOT
TORSDOF 0
ENDMDL
