MODEL 1
REMARK minimizedAffinity 0.920399845
REMARK minimizedRMSD -1
REMARK  0 active torsions:
REMARK  status: ('A' for Active; 'I' for Inactive)
ROOT
ATOM      1  C   UNL d   1       5.995   5.960  -1.970  0.00  0.00     0.172 C 
ATOM      2  N   UNL d   1       5.068   5.534  -2.992  0.00  0.00    -0.070 N 
ATOM      3  C1  UNL d   1       5.040   5.989  -4.284  0.00  0.00    -0.004 A 
ATOM      4  C2  UNL d   1       4.015   5.340  -4.937  0.00  0.00    -0.047 A 
ATOM      5  C3  UNL d   1       3.406   4.466  -4.007  0.00  0.00    -0.047 A 
ATOM      6  C4  UNL d   1       4.077   4.606  -2.811  0.00  0.00    -0.004 A 
ENDROOT
TORSDOF 0
ENDMDL
