MODEL 1
REMARK minimizedAffinity -3.03820634
REMARK minimizedRMSD -1
REMARK  0 active torsions:
REMARK  status: ('A' for Active; 'I' for Inactive)
ROOT
ATOM      1  C   UNL d   1       6.000   6.000  -1.485  0.00  0.00     0.172 C 
ATOM      2  N   UNL d   1       5.351   5.265  -2.545  0.00  0.00    -0.070 N 
ATOM      3  C1  UNL d   1       4.024   4.928  -2.587  0.00  0.00    -0.004 A 
ATOM      4  C2  UNL d   1       3.801   4.234  -3.756  0.00  0.00    -0.047 A 
ATOM      5  C3  UNL d   1       5.037   4.150  -4.441  0.00  0.00    -0.047 A 
ATOM      6  C4  UNL d   1       5.979   4.797  -3.669  0.00  0.00    -0.004 A 
ENDROOT
TORSDOF 0
ENDMDL
