MODEL 1
REMARK minimizedAffinity -2.66345167
REMARK minimizedRMSD -1
REMARK  0 active torsions:
REMARK  status: ('A' for Active; 'I' for Inactive)
ROOT
ATOM      1  C   UNL d   1       5.838   6.000  -2.118  0.00  0.00     0.172 C 
ATOM      2  N   UNL d   1       5.314   5.062  -3.083  0.00  0.00    -0.070 N 
ATOM      3  C1  UNL d   1       4.067   4.496  -3.050  0.00  0.00    -0.004 A 
ATOM      4  C2  UNL d   1       3.954   3.662  -4.142  0.00  0.00    -0.047 A 
ATOM      5  C3  UNL d   1       5.175   3.729  -4.855  0.00  0.00    -0.047 A 
ATOM      6  C4  UNL d   1       5.998   4.603  -4.177  0.00  0.00    -0.004 A 
ENDROOT
TORSDOF 0
ENDMDL
