MODEL 1
REMARK minimizedAffinity -0.203246742
REMARK minimizedRMSD -1
REMARK  0 active torsions:
REMARK  status: ('A' for Active; 'I' for Inactive)
ROOT
ATOM      1  C   UNL d   1       5.992   5.999  -1.848  0.00  0.00     0.172 C 
ATOM      2  N   UNL d   1       5.363   5.103  -2.789  0.00  0.00    -0.070 N 
ATOM      3  C1  UNL d   1       4.126   4.532  -2.645  0.00  0.00    -0.004 A 
ATOM      4  C2  UNL d   1       3.892   3.746  -3.752  0.00  0.00    -0.047 A 
ATOM      5  C3  UNL d   1       5.027   3.847  -4.591  0.00  0.00    -0.047 A 
ATOM      6  C4  UNL d   1       5.922   4.693  -3.971  0.00  0.00    -0.004 A 
ENDROOT
TORSDOF 0
ENDMDL
