MODEL 1
REMARK minimizedAffinity -3.10234714
REMARK minimizedRMSD -1
REMARK  0 active torsions:
REMARK  status: ('A' for Active; 'I' for Inactive)
ROOT
ATOM      1  C   UNL d   1       5.973   5.986  -1.818  0.00  0.00     0.172 C 
ATOM      2  N   UNL d   1       5.335   4.992  -2.648  0.00  0.00    -0.070 N 
ATOM      3  C1  UNL d   1       3.984   4.829  -2.803  0.00  0.00    -0.004 A 
ATOM      4  C2  UNL d   1       3.782   3.779  -3.672  0.00  0.00    -0.047 A 
ATOM      5  C3  UNL d   1       5.056   3.293  -4.051  0.00  0.00    -0.047 A 
ATOM      6  C4  UNL d   1       5.999   4.061  -3.403  0.00  0.00    -0.004 A 
ENDROOT
TORSDOF 0
ENDMDL
