MODEL 1
REMARK minimizedAffinity -3.19243455
REMARK minimizedRMSD -1
REMARK  0 active torsions:
REMARK  status: ('A' for Active; 'I' for Inactive)
ROOT
ATOM      1  C   UNL d   1       5.999   6.000  -2.165  0.00  0.00     0.172 C 
ATOM      2  N   UNL d   1       5.451   5.265  -3.281  0.00  0.00    -0.070 N 
ATOM      3  C1  UNL d   1       6.000   4.144  -3.846  0.00  0.00    -0.004 A 
ATOM      4  C2  UNL d   1       5.179   3.747  -4.878  0.00  0.00    -0.047 A 
ATOM      5  C3  UNL d   1       4.099   4.660  -4.937  0.00  0.00    -0.047 A 
ATOM      6  C4  UNL d   1       4.293   5.589  -3.937  0.00  0.00    -0.004 A 
ENDROOT
TORSDOF 0
ENDMDL
