MODEL 1
REMARK minimizedAffinity -2.5941062
REMARK minimizedRMSD -1
REMARK  0 active torsions:
REMARK  status: ('A' for Active; 'I' for Inactive)
ROOT
ATOM      1  C   UNL d   1       6.000   5.999  -1.963  0.00  0.00     0.172 C 
ATOM      2  N   UNL d   1       5.365   5.134  -2.930  0.00  0.00    -0.070 N 
ATOM      3  C1  UNL d   1       6.000   4.472  -3.947  0.00  0.00    -0.004 A 
ATOM      4  C2  UNL d   1       5.050   3.756  -4.641  0.00  0.00    -0.047 A 
ATOM      5  C3  UNL d   1       3.801   3.995  -4.021  0.00  0.00    -0.047 A 
ATOM      6  C4  UNL d   1       4.025   4.852  -2.964  0.00  0.00    -0.004 A 
ENDROOT
TORSDOF 0
ENDMDL
