MODEL 1
REMARK minimizedAffinity 1.90903926
REMARK minimizedRMSD -1
REMARK  0 active torsions:
REMARK  status: ('A' for Active; 'I' for Inactive)
ROOT
ATOM      1  C   UNL d   1       2.726   5.907  -3.376  0.00  0.00     0.172 C 
ATOM      2  N   UNL d   1       3.982   5.376  -2.903  0.00  0.00    -0.070 N 
ATOM      3  C1  UNL d   1       4.831   5.996  -2.025  0.00  0.00    -0.004 A 
ATOM      4  C2  UNL d   1       5.914   5.167  -1.828  0.00  0.00    -0.047 A 
ATOM      5  C3  UNL d   1       5.710   4.009  -2.616  0.00  0.00    -0.047 A 
ATOM      6  C4  UNL d   1       4.506   4.165  -3.271  0.00  0.00    -0.004 A 
ENDROOT
TORSDOF 0
ENDMDL
