MODEL 1
REMARK minimizedAffinity 0.680411041
REMARK minimizedRMSD -1
REMARK  0 active torsions:
REMARK  status: ('A' for Active; 'I' for Inactive)
ROOT
ATOM      1  C   UNL d   1       6.000   6.000  -1.303  0.00  0.00     0.172 C 
ATOM      2  N   UNL d   1       4.854   5.744  -2.144  0.00  0.00    -0.070 N 
ATOM      3  C1  UNL d   1       4.788   5.966  -3.493  0.00  0.00    -0.004 A 
ATOM      4  C2  UNL d   1       3.532   5.595  -3.922  0.00  0.00    -0.047 A 
ATOM      5  C3  UNL d   1       2.818   5.135  -2.790  0.00  0.00    -0.047 A 
ATOM      6  C4  UNL d   1       3.660   5.237  -1.703  0.00  0.00    -0.004 A 
ENDROOT
TORSDOF 0
ENDMDL
