MODEL 1
REMARK minimizedAffinity -0.940133095
REMARK minimizedRMSD -1
REMARK  0 active torsions:
REMARK  status: ('A' for Active; 'I' for Inactive)
ROOT
ATOM      1  C   UNL d   1       2.757   5.993  -4.105  0.00  0.00     0.172 C 
ATOM      2  N   UNL d   1       4.070   5.523  -3.733  0.00  0.00    -0.070 N 
ATOM      3  C1  UNL d   1       4.782   5.926  -2.634  0.00  0.00    -0.004 A 
ATOM      4  C2  UNL d   1       5.981   5.247  -2.635  0.00  0.00    -0.047 A 
ATOM      5  C3  UNL d   1       5.991   4.407  -3.774  0.00  0.00    -0.047 A 
ATOM      6  C4  UNL d   1       4.796   4.598  -4.436  0.00  0.00    -0.004 A 
ENDROOT
TORSDOF 0
ENDMDL
