MODEL 1
REMARK minimizedAffinity -3.29485893
REMARK minimizedRMSD -1
REMARK  0 active torsions:
REMARK  status: ('A' for Active; 'I' for Inactive)
ROOT
ATOM      1  C   UNL d   1       4.883   4.847  -5.778  0.00  0.00     0.172 C 
ATOM      2  N   UNL d   1       4.857   5.032  -4.346  0.00  0.00    -0.070 N 
ATOM      3  C1  UNL d   1       5.539   5.997  -3.653  0.00  0.00    -0.004 A 
ATOM      4  C2  UNL d   1       5.251   5.838  -2.315  0.00  0.00    -0.047 A 
ATOM      5  C3  UNL d   1       4.366   4.739  -2.200  0.00  0.00    -0.047 A 
ATOM      6  C4  UNL d   1       4.139   4.259  -3.472  0.00  0.00    -0.004 A 
ENDROOT
TORSDOF 0
ENDMDL
