MODEL 1
REMARK minimizedAffinity 0.823925734
REMARK minimizedRMSD -1
REMARK  0 active torsions:
REMARK  status: ('A' for Active; 'I' for Inactive)
ROOT
ATOM      1  C   UNL d   1       4.744   3.088  -4.515  0.00  0.00     0.172 C 
ATOM      2  N   UNL d   1       4.834   4.243  -3.653  0.00  0.00    -0.070 N 
ATOM      3  C1  UNL d   1       3.781   4.863  -3.035  0.00  0.00    -0.004 A 
ATOM      4  C2  UNL d   1       4.282   5.919  -2.305  0.00  0.00    -0.047 A 
ATOM      5  C3  UNL d   1       5.684   5.936  -2.492  0.00  0.00    -0.047 A 
ATOM      6  C4  UNL d   1       6.000   4.888  -3.331  0.00  0.00    -0.004 A 
ENDROOT
TORSDOF 0
ENDMDL
