MODEL 1
REMARK minimizedAffinity 2.21715498
REMARK minimizedRMSD -1
REMARK  0 active torsions:
REMARK  status: ('A' for Active; 'I' for Inactive)
ROOT
ATOM      1  C   UNL d   1       3.995  -2.324   5.997  0.00  0.00     0.078 C 
ATOM      2  C1  UNL d   1       3.300  -2.090   4.689  0.00  0.00    -0.077 A 
ATOM      3  C2  UNL d   1       3.067  -3.145   3.798  0.00  0.00    -0.001 A 
ATOM      4  C3  UNL d   1       2.428  -2.911   2.579  0.00  0.00     0.003 A 
ATOM      5  C4  UNL d   1       2.017  -1.624   2.240  0.00  0.00    -0.005 A 
ATOM      6  C5  UNL d   1       2.246  -0.568   3.120  0.00  0.00     0.003 A 
ATOM      7  C6  UNL d   1       2.885  -0.799   4.339  0.00  0.00    -0.001 A 
ENDROOT
TORSDOF 0
ENDMDL
