MODEL 1
REMARK minimizedAffinity 6.34303617
REMARK minimizedRMSD -1
REMARK  0 active torsions:
REMARK  status: ('A' for Active; 'I' for Inactive)
ROOT
ATOM      1  C   UNL d   1       5.299  -1.996   1.885  0.00  0.00     0.078 C 
ATOM      2  C1  UNL d   1       3.922  -1.510   2.225  0.00  0.00    -0.077 A 
ATOM      3  C2  UNL d   1       3.291  -0.529   1.451  0.00  0.00    -0.001 A 
ATOM      4  C3  UNL d   1       2.013  -0.079   1.785  0.00  0.00     0.003 A 
ATOM      5  C4  UNL d   1       1.354  -0.604   2.895  0.00  0.00    -0.005 A 
ATOM      6  C5  UNL d   1       1.974  -1.580   3.673  0.00  0.00     0.003 A 
ATOM      7  C6  UNL d   1       3.253  -2.031   3.340  0.00  0.00    -0.001 A 
ENDROOT
TORSDOF 0
ENDMDL
