MODEL 1
REMARK minimizedAffinity 3.9204402
REMARK minimizedRMSD -1
REMARK  0 active torsions:
REMARK  status: ('A' for Active; 'I' for Inactive)
ROOT
ATOM      1  C   UNL d   1       2.781  -4.393   4.852  0.00  0.00     0.078 C 
ATOM      2  C1  UNL d   1       2.842  -3.057   4.175  0.00  0.00    -0.077 A 
ATOM      3  C2  UNL d   1       1.678  -2.317   3.933  0.00  0.00    -0.001 A 
ATOM      4  C3  UNL d   1       1.749  -1.078   3.293  0.00  0.00     0.003 A 
ATOM      5  C4  UNL d   1       2.981  -0.569   2.888  0.00  0.00    -0.005 A 
ATOM      6  C5  UNL d   1       4.145  -1.299   3.122  0.00  0.00     0.003 A 
ATOM      7  C6  UNL d   1       4.076  -2.538   3.762  0.00  0.00    -0.001 A 
ENDROOT
TORSDOF 0
ENDMDL
