MODEL 1
REMARK minimizedAffinity 0.573224723
REMARK minimizedRMSD -1
REMARK  0 active torsions:
REMARK  status: ('A' for Active; 'I' for Inactive)
ROOT
ATOM      1  C   UNL d   1       2.660   0.196   1.858  0.00  0.00     0.078 C 
ATOM      2  C1  UNL d   1       2.482  -1.081   2.623  0.00  0.00    -0.077 A 
ATOM      3  C2  UNL d   1       2.273  -1.070   4.008  0.00  0.00    -0.001 A 
ATOM      4  C3  UNL d   1       2.118  -2.267   4.708  0.00  0.00     0.003 A 
ATOM      5  C4  UNL d   1       2.172  -3.485   4.033  0.00  0.00    -0.005 A 
ATOM      6  C5  UNL d   1       2.381  -3.506   2.656  0.00  0.00     0.003 A 
ATOM      7  C6  UNL d   1       2.536  -2.310   1.953  0.00  0.00    -0.001 A 
ENDROOT
TORSDOF 0
ENDMDL
