MODEL 1
REMARK minimizedAffinity -0.82100904
REMARK minimizedRMSD -1
REMARK  0 active torsions:
REMARK  status: ('A' for Active; 'I' for Inactive)
ROOT
ATOM      1  C   UNL d   1       2.853  -0.449   2.029  0.00  0.00     0.078 C 
ATOM      2  C1  UNL d   1       2.617  -1.581   2.983  0.00  0.00    -0.077 A 
ATOM      3  C2  UNL d   1       2.658  -1.378   4.368  0.00  0.00    -0.001 A 
ATOM      4  C3  UNL d   1       2.445  -2.443   5.245  0.00  0.00     0.003 A 
ATOM      5  C4  UNL d   1       2.192  -3.720   4.747  0.00  0.00    -0.005 A 
ATOM      6  C5  UNL d   1       2.152  -3.932   3.370  0.00  0.00     0.003 A 
ATOM      7  C6  UNL d   1       2.364  -2.868   2.492  0.00  0.00    -0.001 A 
ENDROOT
TORSDOF 0
ENDMDL
