MODEL 1
REMARK minimizedAffinity 1.24096155
REMARK minimizedRMSD -1
REMARK  0 active torsions:
REMARK  status: ('A' for Active; 'I' for Inactive)
ROOT
ATOM      1  C   UNL d   1       3.575  -4.088   4.591  0.00  0.00     0.078 C 
ATOM      2  C1  UNL d   1       3.061  -2.928   3.792  0.00  0.00    -0.077 A 
ATOM      3  C2  UNL d   1       1.715  -2.851   3.416  0.00  0.00    -0.001 A 
ATOM      4  C3  UNL d   1       1.252  -1.770   2.664  0.00  0.00     0.003 A 
ATOM      5  C4  UNL d   1       2.130  -0.758   2.280  0.00  0.00    -0.005 A 
ATOM      6  C5  UNL d   1       3.472  -0.827   2.646  0.00  0.00     0.003 A 
ATOM      7  C6  UNL d   1       3.937  -1.908   3.399  0.00  0.00    -0.001 A 
ENDROOT
TORSDOF 0
ENDMDL
