MODEL 1
REMARK minimizedAffinity 3.73576331
REMARK minimizedRMSD -1
REMARK  0 active torsions:
REMARK  status: ('A' for Active; 'I' for Inactive)
ROOT
ATOM      1  C   UNL d   1       1.880   0.150   2.271  0.00  0.00     0.078 C 
ATOM      2  C1  UNL d   1       2.277  -1.066   3.054  0.00  0.00    -0.077 A 
ATOM      3  C2  UNL d   1       2.227  -1.070   4.453  0.00  0.00    -0.001 A 
ATOM      4  C3  UNL d   1       2.609  -2.205   5.170  0.00  0.00     0.003 A 
ATOM      5  C4  UNL d   1       3.045  -3.344   4.496  0.00  0.00    -0.005 A 
ATOM      6  C5  UNL d   1       3.101  -3.349   3.104  0.00  0.00     0.003 A 
ATOM      7  C6  UNL d   1       2.719  -2.214   2.386  0.00  0.00    -0.001 A 
ENDROOT
TORSDOF 0
ENDMDL
