MODEL 1
REMARK minimizedAffinity 10.3674288
REMARK minimizedRMSD -1
REMARK  0 active torsions:
REMARK  status: ('A' for Active; 'I' for Inactive)
ROOT
ATOM      1  C   UNL d   1      -5.633   3.771   4.496  0.00  0.00     0.078 C 
ATOM      2  C1  UNL d   1      -5.768   3.241   3.100  0.00  0.00    -0.077 A 
ATOM      3  C2  UNL d   1      -5.784   1.864   2.849  0.00  0.00    -0.001 A 
ATOM      4  C3  UNL d   1      -5.901   1.385   1.543  0.00  0.00     0.003 A 
ATOM      5  C4  UNL d   1      -6.000   2.278   0.477  0.00  0.00    -0.005 A 
ATOM      6  C5  UNL d   1      -5.982   3.650   0.717  0.00  0.00     0.003 A 
ATOM      7  C6  UNL d   1      -5.866   4.130   2.022  0.00  0.00    -0.001 A 
ENDROOT
TORSDOF 0
ENDMDL
