MODEL 1
REMARK minimizedAffinity -0.639685333
REMARK minimizedRMSD -1
REMARK  0 active torsions:
REMARK  status: ('A' for Active; 'I' for Inactive)
ROOT
ATOM      1  C   UNL d   1      -0.246  -1.003  -0.030  0.00  0.00    -0.002 A 
ATOM      2  C1  UNL d   1      -0.230  -2.376   0.168  0.00  0.00     0.010 A 
ATOM      3  C2  UNL d   1      -0.175  -3.251  -0.919  0.00  0.00     0.041 A 
ATOM      4  C3  UNL d   1      -0.133  -2.717  -2.222  0.00  0.00    -0.075 A 
ATOM      5  S   UNL d   1      -0.061  -3.595  -3.703  0.00  0.00     0.015 SA
ATOM      6  C4  UNL d   1      -0.048  -2.168  -4.635  0.00  0.00     0.022 A 
ATOM      7  C5  UNL d   1      -0.097  -1.040  -3.851  0.00  0.00     0.026 A 
ATOM      8  C6  UNL d   1      -0.146  -1.337  -2.447  0.00  0.00    -0.082 A 
ATOM      9  C7  UNL d   1      -0.204  -0.477  -1.324  0.00  0.00     0.045 A 
ENDROOT
TORSDOF 0
ENDMDL
