MODEL 1
REMARK minimizedAffinity -2.00923514
REMARK minimizedRMSD -1
REMARK  0 active torsions:
REMARK  status: ('A' for Active; 'I' for Inactive)
ROOT
ATOM      1  C   UNL d   1      -0.064   3.023   0.756  0.00  0.00    -0.002 A 
ATOM      2  C1  UNL d   1       0.546   3.039  -0.490  0.00  0.00     0.010 A 
ATOM      3  C2  UNL d   1       0.670   1.864  -1.235  0.00  0.00     0.041 A 
ATOM      4  C3  UNL d   1       0.163   0.662  -0.702  0.00  0.00    -0.075 A 
ATOM      5  S   UNL d   1       0.201  -0.897  -1.436  0.00  0.00     0.015 SA
ATOM      6  C4  UNL d   1      -0.593  -1.621  -0.113  0.00  0.00     0.022 A 
ATOM      7  C5  UNL d   1      -0.886  -0.710   0.874  0.00  0.00     0.026 A 
ATOM      8  C6  UNL d   1      -0.456   0.622   0.550  0.00  0.00    -0.082 A 
ATOM      9  C7  UNL d   1      -0.565   1.829   1.282  0.00  0.00     0.045 A 
ENDROOT
TORSDOF 0
ENDMDL
