MODEL 1
REMARK minimizedAffinity -1.38768196
REMARK minimizedRMSD -1
REMARK  0 active torsions:
REMARK  status: ('A' for Active; 'I' for Inactive)
ROOT
ATOM      1  C   UNL d   1      -0.204   3.302   0.305  0.00  0.00    -0.002 A 
ATOM      2  C1  UNL d   1       0.904   2.896  -0.425  0.00  0.00     0.010 A 
ATOM      3  C2  UNL d   1       1.127   1.542  -0.683  0.00  0.00     0.041 A 
ATOM      4  C3  UNL d   1       0.208   0.594  -0.192  0.00  0.00    -0.075 A 
ATOM      5  S   UNL d   1       0.276  -1.118  -0.386  0.00  0.00     0.015 SA
ATOM      6  C4  UNL d   1      -1.165  -1.350   0.495  0.00  0.00     0.022 A 
ATOM      7  C5  UNL d   1      -1.698  -0.161   0.933  0.00  0.00     0.026 A 
ATOM      8  C6  UNL d   1      -0.916   0.979   0.545  0.00  0.00    -0.082 A 
ATOM      9  C7  UNL d   1      -1.114   2.359   0.790  0.00  0.00     0.045 A 
ENDROOT
TORSDOF 0
ENDMDL
