MODEL 1
REMARK minimizedAffinity -1.93756783
REMARK minimizedRMSD -1
REMARK  0 active torsions:
REMARK  status: ('A' for Active; 'I' for Inactive)
ROOT
ATOM      1  C   UNL d   1      -0.827   2.665  -0.254  0.00  0.00    -0.002 A 
ATOM      2  C1  UNL d   1       0.508   3.042  -0.248  0.00  0.00     0.010 A 
ATOM      3  C2  UNL d   1       1.507   2.115   0.058  0.00  0.00     0.041 A 
ATOM      4  C3  UNL d   1       1.137   0.790   0.359  0.00  0.00    -0.075 A 
ATOM      5  S   UNL d   1       2.188  -0.516   0.762  0.00  0.00     0.015 SA
ATOM      6  C4  UNL d   1       0.889  -1.606   0.935  0.00  0.00     0.022 A 
ATOM      7  C5  UNL d   1      -0.324  -1.005   0.695  0.00  0.00     0.026 A 
ATOM      8  C6  UNL d   1      -0.201   0.385   0.359  0.00  0.00    -0.082 A 
ATOM      9  C7  UNL d   1      -1.190   1.349   0.045  0.00  0.00     0.045 A 
ENDROOT
TORSDOF 0
ENDMDL
