MODEL 1
REMARK minimizedAffinity -3.70091438
REMARK minimizedRMSD -1
REMARK  0 active torsions:
REMARK  status: ('A' for Active; 'I' for Inactive)
ROOT
ATOM      1  C   UNL d   1      -0.327   3.394   0.361  0.00  0.00    -0.002 A 
ATOM      2  C1  UNL d   1      -1.479   2.649   0.573  0.00  0.00     0.010 A 
ATOM      3  C2  UNL d   1      -1.429   1.254   0.594  0.00  0.00     0.041 A 
ATOM      4  C3  UNL d   1      -0.190   0.613   0.398  0.00  0.00    -0.075 A 
ATOM      5  S   UNL d   1       0.112  -1.084   0.383  0.00  0.00     0.015 SA
ATOM      6  C4  UNL d   1       1.777  -0.861   0.095  0.00  0.00     0.022 A 
ATOM      7  C5  UNL d   1       2.112   0.470   0.009  0.00  0.00     0.026 A 
ATOM      8  C6  UNL d   1       0.984   1.341   0.183  0.00  0.00    -0.082 A 
ATOM      9  C7  UNL d   1       0.900   2.755   0.166  0.00  0.00     0.045 A 
ENDROOT
TORSDOF 0
ENDMDL
