MODEL 1
REMARK minimizedAffinity -3.60838747
REMARK minimizedRMSD -1
REMARK  0 active torsions:
REMARK  status: ('A' for Active; 'I' for Inactive)
ROOT
ATOM      1  C   UNL d   1      -0.500   3.407  -0.139  0.00  0.00    -0.002 A 
ATOM      2  C1  UNL d   1       0.622   2.826  -0.714  0.00  0.00     0.010 A 
ATOM      3  C2  UNL d   1       0.880   1.464  -0.548  0.00  0.00     0.041 A 
ATOM      4  C3  UNL d   1      -0.018   0.688   0.211  0.00  0.00    -0.075 A 
ATOM      5  S   UNL d   1       0.095  -0.999   0.547  0.00  0.00     0.015 SA
ATOM      6  C4  UNL d   1      -1.344  -0.989   1.460  0.00  0.00     0.022 A 
ATOM      7  C5  UNL d   1      -1.910   0.263   1.518  0.00  0.00     0.026 A 
ATOM      8  C6  UNL d   1      -1.155   1.250   0.798  0.00  0.00    -0.082 A 
ATOM      9  C7  UNL d   1      -1.388   2.634   0.612  0.00  0.00     0.045 A 
ENDROOT
TORSDOF 0
ENDMDL
