MODEL 1
REMARK minimizedAffinity -2.05045438
REMARK minimizedRMSD -1
REMARK  0 active torsions:
REMARK  status: ('A' for Active; 'I' for Inactive)
ROOT
ATOM      1  C   UNL d   1      -1.120   2.804   0.423  0.00  0.00    -0.002 A 
ATOM      2  C1  UNL d   1       0.166   3.027  -0.050  0.00  0.00     0.010 A 
ATOM      3  C2  UNL d   1       0.992   1.955  -0.393  0.00  0.00     0.041 A 
ATOM      4  C3  UNL d   1       0.499   0.643  -0.252  0.00  0.00    -0.075 A 
ATOM      5  S   UNL d   1       1.332  -0.824  -0.611  0.00  0.00     0.015 SA
ATOM      6  C4  UNL d   1       0.000  -1.781  -0.146  0.00  0.00     0.022 A 
ATOM      7  C5  UNL d   1      -1.062  -1.016   0.276  0.00  0.00     0.026 A 
ATOM      8  C6  UNL d   1      -0.792   0.393   0.221  0.00  0.00    -0.082 A 
ATOM      9  C7  UNL d   1      -1.605   1.501   0.561  0.00  0.00     0.045 A 
ENDROOT
TORSDOF 0
ENDMDL
