MODEL 1
REMARK minimizedAffinity -1.90369904
REMARK minimizedRMSD -1
REMARK  0 active torsions:
REMARK  status: ('A' for Active; 'I' for Inactive)
ROOT
ATOM      1  C   UNL d   1       0.938   4.353   2.831  0.00  0.00    -0.002 A 
ATOM      2  C1  UNL d   1       1.939   3.581   3.404  0.00  0.00     0.010 A 
ATOM      3  C2  UNL d   1       2.514   2.524   2.696  0.00  0.00     0.041 A 
ATOM      4  C3  UNL d   1       2.062   2.253   1.389  0.00  0.00    -0.075 A 
ATOM      5  S   UNL d   1       2.619   1.010   0.333  0.00  0.00     0.015 SA
ATOM      6  C4  UNL d   1       1.542   1.474  -0.904  0.00  0.00     0.022 A 
ATOM      7  C5  UNL d   1       0.769   2.550  -0.537  0.00  0.00     0.026 A 
ATOM      8  C6  UNL d   1       1.056   3.017   0.791  0.00  0.00    -0.082 A 
ATOM      9  C7  UNL d   1       0.492   4.081   1.535  0.00  0.00     0.045 A 
ENDROOT
TORSDOF 0
ENDMDL
