MODEL 1
REMARK minimizedAffinity -2.13506293
REMARK minimizedRMSD -1
REMARK  0 active torsions:
REMARK  status: ('A' for Active; 'I' for Inactive)
ROOT
ATOM      1  C   UNL d   1       0.013   3.506   0.275  0.00  0.00    -0.002 A 
ATOM      2  C1  UNL d   1      -1.172   2.884   0.643  0.00  0.00     0.010 A 
ATOM      3  C2  UNL d   1      -1.272   1.492   0.648  0.00  0.00     0.041 A 
ATOM      4  C3  UNL d   1      -0.149   0.726   0.275  0.00  0.00    -0.075 A 
ATOM      5  S   UNL d   1      -0.039  -0.993   0.208  0.00  0.00     0.015 SA
ATOM      6  C4  UNL d   1       1.584  -0.943  -0.310  0.00  0.00     0.022 A 
ATOM      7  C5  UNL d   1       2.046   0.345  -0.434  0.00  0.00     0.026 A 
ATOM      8  C6  UNL d   1       1.055   1.329  -0.098  0.00  0.00    -0.082 A 
ATOM      9  C7  UNL d   1       1.125   2.743  -0.094  0.00  0.00     0.045 A 
ENDROOT
TORSDOF 0
ENDMDL
