MODEL 1
REMARK minimizedAffinity 7.87213945
REMARK minimizedRMSD -1
REMARK  1 active torsions:
REMARK  status: ('A' for Active; 'I' for Inactive)
REMARK    1  A    between atoms: C1_2  and  C2_3 
ROOT
ATOM      1  C2  UNL d   1       2.262  -2.969   1.084  0.00  0.00    -0.073 A 
ATOM      2  C3  UNL d   1       2.002  -1.598   0.982  0.00  0.00    -0.002 A 
ATOM      3  C4  UNL d   1       0.798  -1.072   1.453  0.00  0.00     0.004 A 
ATOM      4  C5  UNL d   1      -0.154  -1.909   2.035  0.00  0.00    -0.004 A 
ATOM      5  C6  UNL d   1       0.093  -3.281   2.156  0.00  0.00    -0.075 A 
ATOM      6  C7  UNL d   1      -0.922  -4.195   2.778  0.00  0.00     0.076 C 
ATOM      7  C8  UNL d   1       1.303  -3.801   1.679  0.00  0.00     0.001 A 
ENDROOT
BRANCH   1   8
ATOM      8  C1  UNL d   1       3.563  -3.541   0.582  0.00  0.00     0.053 C 
ATOM      9  C   UNL d   1       4.414  -4.098   1.713  0.00  0.00     0.018 C 
ENDBRANCH   1   8
TORSDOF 1
ENDMDL
