MODEL 1
REMARK minimizedAffinity -2.65620756
REMARK minimizedRMSD -1
REMARK  1 active torsions:
REMARK  status: ('A' for Active; 'I' for Inactive)
REMARK    1  A    between atoms: C1_2  and  C2_3 
ROOT
ATOM      1  C2  UNL d   1       2.288   5.339   5.378  0.00  0.00    -0.073 A 
ATOM      2  C3  UNL d   1       2.350   4.189   4.583  0.00  0.00    -0.002 A 
ATOM      3  C4  UNL d   1       3.584   3.633   4.242  0.00  0.00     0.004 A 
ATOM      4  C5  UNL d   1       4.766   4.216   4.698  0.00  0.00    -0.004 A 
ATOM      5  C6  UNL d   1       4.725   5.359   5.504  0.00  0.00    -0.075 A 
ATOM      6  C7  UNL d   1       5.988   5.999   6.000  0.00  0.00     0.076 C 
ATOM      7  C8  UNL d   1       3.482   5.913   5.839  0.00  0.00     0.001 A 
ENDROOT
BRANCH   1   8
ATOM      8  C1  UNL d   1       0.958   5.940   5.754  0.00  0.00     0.053 C 
ATOM      9  C   UNL d   1      -0.006   5.969   4.579  0.00  0.00     0.018 C 
ENDBRANCH   1   8
TORSDOF 1
ENDMDL
