MODEL 1
REMARK minimizedAffinity 1.79603398
REMARK minimizedRMSD -1
REMARK  1 active torsions:
REMARK  status: ('A' for Active; 'I' for Inactive)
REMARK    1  A    between atoms: C1_2  and  C2_3 
ROOT
ATOM      1  C2  UNL d   1       4.457  -3.723   1.655  0.00  0.00    -0.073 A 
ATOM      2  C3  UNL d   1       3.292  -4.263   1.095  0.00  0.00    -0.002 A 
ATOM      3  C4  UNL d   1       2.176  -3.454   0.876  0.00  0.00     0.004 A 
ATOM      4  C5  UNL d   1       2.215  -2.100   1.205  0.00  0.00    -0.004 A 
ATOM      5  C6  UNL d   1       3.373  -1.540   1.754  0.00  0.00    -0.075 A 
ATOM      6  C7  UNL d   1       3.429  -0.085   2.116  0.00  0.00     0.076 C 
ATOM      7  C8  UNL d   1       4.489  -2.358   1.974  0.00  0.00     0.001 A 
ENDROOT
BRANCH   1   8
ATOM      8  C1  UNL d   1       5.666  -4.591   1.888  0.00  0.00     0.053 C 
ATOM      9  C   UNL d   1       5.470  -6.000   1.352  0.00  0.00     0.018 C 
ENDBRANCH   1   8
TORSDOF 1
ENDMDL
