MODEL 1
REMARK minimizedAffinity -4.61125946
REMARK minimizedRMSD -1
REMARK  1 active torsions:
REMARK  status: ('A' for Active; 'I' for Inactive)
REMARK    1  A    between atoms: C1_2  and  C2_3 
ROOT
ATOM      1  C2  UNL d   1      -1.013   4.846   4.779  0.00  0.00    -0.073 A 
ATOM      2  C3  UNL d   1      -1.805   5.986   4.607  0.00  0.00    -0.002 A 
ATOM      3  C4  UNL d   1      -3.174   5.941   4.877  0.00  0.00     0.004 A 
ATOM      4  C5  UNL d   1      -3.761   4.759   5.328  0.00  0.00    -0.004 A 
ATOM      5  C6  UNL d   1      -2.984   3.612   5.517  0.00  0.00    -0.075 A 
ATOM      6  C7  UNL d   1      -3.601   2.332   6.000  0.00  0.00     0.076 C 
ATOM      7  C8  UNL d   1      -1.611   3.665   5.241  0.00  0.00     0.001 A 
ENDROOT
BRANCH   1   8
ATOM      8  C1  UNL d   1       0.466   4.891   4.494  0.00  0.00     0.053 C 
ATOM      9  C   UNL d   1       1.230   5.651   5.567  0.00  0.00     0.018 C 
ENDBRANCH   1   8
TORSDOF 1
ENDMDL
