MODEL 1
REMARK minimizedAffinity -1.95569801
REMARK minimizedRMSD -1
REMARK  1 active torsions:
REMARK  status: ('A' for Active; 'I' for Inactive)
REMARK    1  A    between atoms: C1_2  and  C2_3 
ROOT
ATOM      1  C2  UNL d   1       0.575   5.312   5.374  0.00  0.00    -0.073 A 
ATOM      2  C3  UNL d   1       0.149   5.996   4.230  0.00  0.00    -0.002 A 
ATOM      3  C4  UNL d   1      -1.091   5.708   3.657  0.00  0.00     0.004 A 
ATOM      4  C5  UNL d   1      -1.919   4.741   4.225  0.00  0.00    -0.004 A 
ATOM      5  C6  UNL d   1      -1.516   4.054   5.375  0.00  0.00    -0.075 A 
ATOM      6  C7  UNL d   1      -2.394   3.009   5.997  0.00  0.00     0.076 C 
ATOM      7  C8  UNL d   1      -0.269   4.347   5.943  0.00  0.00     0.001 A 
ENDROOT
BRANCH   1   8
ATOM      8  C1  UNL d   1       1.910   5.623   6.000  0.00  0.00     0.053 C 
ATOM      9  C   UNL d   1       2.974   5.919   4.955  0.00  0.00     0.018 C 
ENDBRANCH   1   8
TORSDOF 1
ENDMDL
