MODEL 1
REMARK minimizedAffinity 2.09162235
REMARK minimizedRMSD -1
REMARK  1 active torsions:
REMARK  status: ('A' for Active; 'I' for Inactive)
REMARK    1  A    between atoms: C1_2  and  C2_3 
ROOT
ATOM      1  C2  UNL d   1      -0.071   5.377   5.296  0.00  0.00    -0.073 A 
ATOM      2  C3  UNL d   1      -0.471   5.819   4.030  0.00  0.00    -0.002 A 
ATOM      3  C4  UNL d   1      -1.575   5.243   3.399  0.00  0.00     0.004 A 
ATOM      4  C5  UNL d   1      -2.292   4.226   4.028  0.00  0.00    -0.004 A 
ATOM      5  C6  UNL d   1      -1.914   3.778   5.298  0.00  0.00    -0.075 A 
ATOM      6  C7  UNL d   1      -2.674   2.683   5.987  0.00  0.00     0.076 C 
ATOM      7  C8  UNL d   1      -0.804   4.359   5.924  0.00  0.00     0.001 A 
ENDROOT
BRANCH   1   8
ATOM      8  C1  UNL d   1       1.115   6.000   5.985  0.00  0.00     0.053 C 
ATOM      9  C   UNL d   1       2.423   5.659   5.288  0.00  0.00     0.018 C 
ENDBRANCH   1   8
TORSDOF 1
ENDMDL
