MODEL 1
REMARK minimizedAffinity 7.40282869
REMARK minimizedRMSD -1
REMARK  1 active torsions:
REMARK  status: ('A' for Active; 'I' for Inactive)
REMARK    1  A    between atoms: C1_2  and  C2_3 
ROOT
ATOM      1  C2  UNL d   1      -1.146   5.295   5.472  0.00  0.00    -0.073 A 
ATOM      2  C3  UNL d   1      -1.162   4.201   4.599  0.00  0.00    -0.002 A 
ATOM      3  C4  UNL d   1      -2.373   3.687   4.134  0.00  0.00     0.004 A 
ATOM      4  C5  UNL d   1      -3.579   4.265   4.530  0.00  0.00    -0.004 A 
ATOM      5  C6  UNL d   1      -3.584   5.367   5.392  0.00  0.00    -0.075 A 
ATOM      6  C7  UNL d   1      -4.873   5.998   5.829  0.00  0.00     0.076 C 
ATOM      7  C8  UNL d   1      -2.363   5.875   5.857  0.00  0.00     0.001 A 
ENDROOT
BRANCH   1   8
ATOM      8  C1  UNL d   1       0.159   5.857   5.971  0.00  0.00     0.053 C 
ATOM      9  C   UNL d   1       1.295   5.621   4.988  0.00  0.00     0.018 C 
ENDBRANCH   1   8
TORSDOF 1
ENDMDL
