MODEL 1
REMARK minimizedAffinity 7.87723875
REMARK minimizedRMSD -1
REMARK  1 active torsions:
REMARK  status: ('A' for Active; 'I' for Inactive)
REMARK    1  A    between atoms: C1_2  and  C2_3 
ROOT
ATOM      1  C2  UNL d   1      -1.981   4.944   5.308  0.00  0.00    -0.073 A 
ATOM      2  C3  UNL d   1      -1.027   5.709   5.989  0.00  0.00    -0.002 A 
ATOM      3  C4  UNL d   1       0.225   5.944   5.420  0.00  0.00     0.004 A 
ATOM      4  C5  UNL d   1       0.534   5.424   4.163  0.00  0.00    -0.004 A 
ATOM      5  C6  UNL d   1      -0.410   4.667   3.462  0.00  0.00    -0.075 A 
ATOM      6  C7  UNL d   1      -0.092   4.099   2.110  0.00  0.00     0.076 C 
ATOM      7  C8  UNL d   1      -1.664   4.433   4.041  0.00  0.00     0.001 A 
ENDROOT
BRANCH   1   8
ATOM      8  C1  UNL d   1      -3.337   4.692   5.915  0.00  0.00     0.053 C 
ATOM      9  C   UNL d   1      -4.205   5.941   5.908  0.00  0.00     0.018 C 
ENDBRANCH   1   8
TORSDOF 1
ENDMDL
