MODEL 1
REMARK minimizedAffinity -1.81971872
REMARK minimizedRMSD -1
REMARK  1 active torsions:
REMARK  status: ('A' for Active; 'I' for Inactive)
REMARK    1  A    between atoms: C1_2  and  C2_3 
ROOT
ATOM      1  C2  UNL d   1       1.870   5.706   5.144  0.00  0.00    -0.073 A 
ATOM      2  C3  UNL d   1       1.805   5.263   3.818  0.00  0.00    -0.002 A 
ATOM      3  C4  UNL d   1       0.570   5.053   3.205  0.00  0.00     0.004 A 
ATOM      4  C5  UNL d   1      -0.612   5.289   3.908  0.00  0.00    -0.004 A 
ATOM      5  C6  UNL d   1      -0.568   5.743   5.230  0.00  0.00    -0.075 A 
ATOM      6  C7  UNL d   1      -1.830   6.000   6.000  0.00  0.00     0.076 C 
ATOM      7  C8  UNL d   1       0.677   5.950   5.839  0.00  0.00     0.001 A 
ENDROOT
BRANCH   1   8
ATOM      8  C1  UNL d   1       3.202   5.941   5.808  0.00  0.00     0.053 C 
ATOM      9  C   UNL d   1       4.365   5.554   4.908  0.00  0.00     0.018 C 
ENDBRANCH   1   8
TORSDOF 1
ENDMDL
