MODEL 1
REMARK minimizedAffinity -1.01746917
REMARK minimizedRMSD -1
REMARK  0 active torsions:
REMARK  status: ('A' for Active; 'I' for Inactive)
ROOT
ATOM      1  O1  BZF d   1       1.884  -5.983  -4.471  0.00  0.00    -0.204 OA
ATOM      2  C2  BZF d   1       2.195  -5.999  -5.817  0.00  0.00     0.174 A 
ATOM      3  C3  BZF d   1       3.530  -5.945  -6.000  0.00  0.00    -0.012 A 
ATOM      4  C3A BZF d   1       4.092  -5.985  -4.685  0.00  0.00    -0.107 A 
ATOM      5  C4  BZF d   1       5.373  -5.977  -4.211  0.00  0.00     0.055 A 
ATOM      6  C5  BZF d   1       5.580  -5.951  -2.868  0.00  0.00    -0.016 A 
ATOM      7  C6  BZF d   1       4.531  -5.926  -1.972  0.00  0.00     0.022 A 
ATOM      8  C7  BZF d   1       3.244  -5.938  -2.395  0.00  0.00     0.029 A 
ATOM      9  C7A BZF d   1       3.031  -5.998  -3.750  0.00  0.00     0.058 A 
ENDROOT
TORSDOF 0
ENDMDL
