MODEL 1
REMARK minimizedAffinity 6.50056314
REMARK minimizedRMSD -1
REMARK  0 active torsions:
REMARK  status: ('A' for Active; 'I' for Inactive)
ROOT
ATOM      1  O1  BZF d   1       3.134  -5.960   1.246  0.00  0.00    -0.204 OA
ATOM      2  C2  BZF d   1       1.859  -5.957   1.777  0.00  0.00     0.174 A 
ATOM      3  C3  BZF d   1       0.933  -5.914   0.798  0.00  0.00    -0.012 A 
ATOM      4  C3A BZF d   1       1.674  -5.982  -0.424  0.00  0.00    -0.107 A 
ATOM      5  C4  BZF d   1       1.314  -5.997  -1.741  0.00  0.00     0.055 A 
ATOM      6  C5  BZF d   1       2.285  -5.995  -2.692  0.00  0.00    -0.016 A 
ATOM      7  C6  BZF d   1       3.624  -5.974  -2.361  0.00  0.00     0.022 A 
ATOM      8  C7  BZF d   1       4.030  -5.965  -1.068  0.00  0.00     0.029 A 
ATOM      9  C7A BZF d   1       3.052  -6.000  -0.105  0.00  0.00     0.058 A 
ENDROOT
TORSDOF 0
ENDMDL
