MODEL 1
REMARK minimizedAffinity 9.85906887
REMARK minimizedRMSD -1
REMARK  0 active torsions:
REMARK  status: ('A' for Active; 'I' for Inactive)
ROOT
ATOM      1  O1  BZF d   1      -4.802   0.592  -4.538  0.00  0.00    -0.204 OA
ATOM      2  C2  BZF d   1      -5.039   1.913  -4.209  0.00  0.00     0.174 A 
ATOM      3  C3  BZF d   1      -4.313   2.276  -3.132  0.00  0.00    -0.012 A 
ATOM      4  C3A BZF d   1      -3.507   1.136  -2.820  0.00  0.00    -0.107 A 
ATOM      5  C4  BZF d   1      -2.567   0.884  -1.862  0.00  0.00     0.055 A 
ATOM      6  C5  BZF d   1      -2.018  -0.356  -1.785  0.00  0.00    -0.016 A 
ATOM      7  C6  BZF d   1      -2.390  -1.370  -2.644  0.00  0.00     0.022 A 
ATOM      8  C7  BZF d   1      -3.315  -1.167  -3.613  0.00  0.00     0.029 A 
ATOM      9  C7A BZF d   1      -3.847   0.095  -3.715  0.00  0.00     0.058 A 
ENDROOT
TORSDOF 0
ENDMDL
