MODEL 1
REMARK minimizedAffinity -3.7419498
REMARK minimizedRMSD -1
REMARK  0 active torsions:
REMARK  status: ('A' for Active; 'I' for Inactive)
ROOT
ATOM      1  O1  BZF d   1       3.860  -5.963  -3.365  0.00  0.00    -0.204 OA
ATOM      2  C2  BZF d   1       5.230  -5.967  -3.188  0.00  0.00     0.174 A 
ATOM      3  C3  BZF d   1       5.543  -5.926  -1.877  0.00  0.00    -0.012 A 
ATOM      4  C3A BZF d   1       4.290  -5.988  -1.189  0.00  0.00    -0.107 A 
ATOM      5  C4  BZF d   1       3.943  -6.000   0.132  0.00  0.00     0.055 A 
ATOM      6  C5  BZF d   1       2.627  -5.991   0.470  0.00  0.00    -0.016 A 
ATOM      7  C6  BZF d   1       1.632  -5.966  -0.486  0.00  0.00     0.022 A 
ATOM      8  C7  BZF d   1       1.927  -5.958  -1.809  0.00  0.00     0.029 A 
ATOM      9  C7A BZF d   1       3.256  -6.000  -2.153  0.00  0.00     0.058 A 
ENDROOT
TORSDOF 0
ENDMDL
