MODEL 1
REMARK minimizedAffinity 9.67960262
REMARK minimizedRMSD -1
REMARK  0 active torsions:
REMARK  status: ('A' for Active; 'I' for Inactive)
ROOT
ATOM      1  O1  BZF d   1       3.119  -5.968  -1.672  0.00  0.00    -0.204 OA
ATOM      2  C2  BZF d   1       3.586  -4.980  -2.517  0.00  0.00     0.174 A 
ATOM      3  C3  BZF d   1       3.050  -3.784  -2.196  0.00  0.00    -0.012 A 
ATOM      4  C3A BZF d   1       2.266  -4.026  -1.023  0.00  0.00    -0.107 A 
ATOM      5  C4  BZF d   1       1.503  -3.225  -0.223  0.00  0.00     0.055 A 
ATOM      6  C5  BZF d   1       0.807  -3.785   0.801  0.00  0.00    -0.016 A 
ATOM      7  C6  BZF d   1       0.847  -5.141   1.050  0.00  0.00     0.022 A 
ATOM      8  C7  BZF d   1       1.594  -5.976   0.286  0.00  0.00     0.029 A 
ATOM      9  C7A BZF d   1       2.324  -5.408  -0.730  0.00  0.00     0.058 A 
ENDROOT
TORSDOF 0
ENDMDL
