MODEL 1
REMARK minimizedAffinity 2.36116624
REMARK minimizedRMSD -1
REMARK  0 active torsions:
REMARK  status: ('A' for Active; 'I' for Inactive)
ROOT
ATOM      1  O1  BZF d   1       3.922  -5.658  -4.065  0.00  0.00    -0.204 OA
ATOM      2  C2  BZF d   1       5.251  -5.883  -3.762  0.00  0.00     0.174 A 
ATOM      3  C3  BZF d   1       5.425  -6.000  -2.430  0.00  0.00    -0.012 A 
ATOM      4  C3A BZF d   1       4.110  -5.929  -1.871  0.00  0.00    -0.107 A 
ATOM      5  C4  BZF d   1       3.626  -6.000  -0.596  0.00  0.00     0.055 A 
ATOM      6  C5  BZF d   1       2.296  -5.821  -0.383  0.00  0.00    -0.016 A 
ATOM      7  C6  BZF d   1       1.423  -5.566  -1.420  0.00  0.00     0.022 A 
ATOM      8  C7  BZF d   1       1.855  -5.492  -2.702  0.00  0.00     0.029 A 
ATOM      9  C7A BZF d   1       3.193  -5.704  -2.924  0.00  0.00     0.058 A 
ENDROOT
TORSDOF 0
ENDMDL
