MODEL 1
REMARK minimizedAffinity 7.74631739
REMARK minimizedRMSD -1
REMARK  0 active torsions:
REMARK  status: ('A' for Active; 'I' for Inactive)
ROOT
ATOM      1  O1  BZF d   1      -0.005   2.412   1.056  0.00  0.00    -0.204 OA
ATOM      2  C2  BZF d   1       0.835   3.422   0.628  0.00  0.00     0.174 A 
ATOM      3  C3  BZF d   1       1.819   2.928  -0.151  0.00  0.00    -0.012 A 
ATOM      4  C3A BZF d   1       1.526   1.535  -0.289  0.00  0.00    -0.107 A 
ATOM      5  C4  BZF d   1       2.131   0.510  -0.959  0.00  0.00     0.055 A 
ATOM      6  C5  BZF d   1       1.635  -0.748  -0.830  0.00  0.00    -0.016 A 
ATOM      7  C6  BZF d   1       0.540  -1.018  -0.036  0.00  0.00     0.022 A 
ATOM      8  C7  BZF d   1      -0.097  -0.034   0.644  0.00  0.00     0.029 A 
ATOM      9  C7A BZF d   1       0.382   1.244   0.490  0.00  0.00     0.058 A 
ENDROOT
TORSDOF 0
ENDMDL
