MODEL 1
REMARK minimizedAffinity 0.217529759
REMARK minimizedRMSD -1
REMARK  0 active torsions:
REMARK  status: ('A' for Active; 'I' for Inactive)
ROOT
ATOM      1  O1  BZF d   1       5.051  -3.084  -3.928  0.00  0.00    -0.204 OA
ATOM      2  C2  BZF d   1       5.595  -3.762  -5.002  0.00  0.00     0.174 A 
ATOM      3  C3  BZF d   1       5.905  -2.909  -5.999  0.00  0.00    -0.012 A 
ATOM      4  C3A BZF d   1       5.617  -1.606  -5.483  0.00  0.00    -0.107 A 
ATOM      5  C4  BZF d   1       5.733  -0.346  -5.996  0.00  0.00     0.055 A 
ATOM      6  C5  BZF d   1       5.296   0.710  -5.260  0.00  0.00    -0.016 A 
ATOM      7  C6  BZF d   1       4.734   0.542  -4.012  0.00  0.00     0.022 A 
ATOM      8  C7  BZF d   1       4.603  -0.688  -3.458  0.00  0.00     0.029 A 
ATOM      9  C7A BZF d   1       5.074  -1.754  -4.186  0.00  0.00     0.058 A 
ENDROOT
TORSDOF 0
ENDMDL
