MODEL 1
REMARK minimizedAffinity 1.32475519
REMARK minimizedRMSD -1
REMARK  2 active torsions:
REMARK  status: ('A' for Active; 'I' for Inactive)
REMARK    1  A    between atoms: C2'_3  and  C1'_4 
REMARK    2  A    between atoms: C1'_4  and  C1_5 
ROOT
ATOM      1  C1  I4B d   1       5.448  -2.144   3.824  0.00  0.00    -0.075 A 
ATOM      2  C2  I4B d   1       5.053  -3.322   3.241  0.00  0.00     0.003 A 
ATOM      3  C3  I4B d   1       4.558  -4.382   4.038  0.00  0.00     0.002 A 
ATOM      4  C4  I4B d   1       4.524  -4.241   5.411  0.00  0.00    -0.004 A 
ATOM      5  C5  I4B d   1       4.903  -3.038   5.999  0.00  0.00     0.002 A 
ATOM      6  C6  I4B d   1       5.357  -1.978   5.200  0.00  0.00     0.003 A 
ENDROOT
BRANCH   1   7
ATOM      7  C1' I4B d   1       5.996  -1.057   2.955  0.00  0.00     0.060 C 
BRANCH   7   8
ATOM      8  C2' I4B d   1       5.180   0.195   3.204  0.00  0.00    -0.013 C 
ATOM      9  C4' I4B d   1       6.000   1.251   3.898  0.00  0.00     0.013 C 
ATOM     10  C3' I4B d   1       4.672   0.687   1.881  0.00  0.00     0.013 C 
ENDBRANCH   7   8
ENDBRANCH   1   7
TORSDOF 2
ENDMDL
