MODEL 1
REMARK minimizedAffinity 2.39663577
REMARK minimizedRMSD -1
REMARK  2 active torsions:
REMARK  status: ('A' for Active; 'I' for Inactive)
REMARK    1  A    between atoms: C2'_3  and  C1'_4 
REMARK    2  A    between atoms: C1'_4  and  C1_5 
ROOT
ATOM      1  C1  I4B d   1      -0.221   0.222   0.490  0.00  0.00    -0.075 A 
ATOM      2  C2  I4B d   1       0.915   0.326   1.253  0.00  0.00     0.003 A 
ATOM      3  C3  I4B d   1       0.886   1.030   2.481  0.00  0.00     0.002 A 
ATOM      4  C4  I4B d   1      -0.278   1.655   2.880  0.00  0.00    -0.004 A 
ATOM      5  C5  I4B d   1      -1.435   1.529   2.115  0.00  0.00     0.002 A 
ATOM      6  C6  I4B d   1      -1.410   0.798   0.919  0.00  0.00     0.003 A 
ENDROOT
BRANCH   1   7
ATOM      7  C1' I4B d   1      -0.148  -0.502  -0.818  0.00  0.00     0.060 C 
BRANCH   7   8
ATOM      8  C2' I4B d   1      -0.316   0.518  -1.926  0.00  0.00    -0.013 C 
ATOM      9  C4' I4B d   1       0.899   1.400  -2.045  0.00  0.00     0.013 C 
ATOM     10  C3' I4B d   1      -0.573  -0.225  -3.203  0.00  0.00     0.013 C 
ENDBRANCH   7   8
ENDBRANCH   1   7
TORSDOF 2
ENDMDL
