MODEL 1
REMARK minimizedAffinity 3.51604295
REMARK minimizedRMSD -1
REMARK  2 active torsions:
REMARK  status: ('A' for Active; 'I' for Inactive)
REMARK    1  A    between atoms: C2'_3  and  C1'_4 
REMARK    2  A    between atoms: C1'_4  and  C1_5 
ROOT
ATOM      1  C1  I4B d   1       5.829  -2.630   4.392  0.00  0.00    -0.075 A 
ATOM      2  C2  I4B d   1       5.733  -2.014   5.615  0.00  0.00     0.003 A 
ATOM      3  C3  I4B d   1       5.732  -0.601   5.703  0.00  0.00     0.002 A 
ATOM      4  C4  I4B d   1       5.879   0.152   4.555  0.00  0.00    -0.004 A 
ATOM      5  C5  I4B d   1       5.954  -0.475   3.314  0.00  0.00     0.002 A 
ATOM      6  C6  I4B d   1       5.916  -1.874   3.231  0.00  0.00     0.003 A 
ENDROOT
BRANCH   1   7
ATOM      7  C1' I4B d   1       5.860  -4.125   4.339  0.00  0.00     0.060 C 
BRANCH   7   8
ATOM      8  C2' I4B d   1       5.161  -4.651   5.576  0.00  0.00    -0.013 C 
ATOM      9  C4' I4B d   1       3.690  -4.856   5.325  0.00  0.00     0.013 C 
ATOM     10  C3' I4B d   1       5.826  -5.934   5.973  0.00  0.00     0.013 C 
ENDBRANCH   7   8
ENDBRANCH   1   7
TORSDOF 2
ENDMDL
