MODEL 1
REMARK minimizedAffinity 3.13836813
REMARK minimizedRMSD -1
REMARK  2 active torsions:
REMARK  status: ('A' for Active; 'I' for Inactive)
REMARK    1  A    between atoms: C2'_3  and  C1'_4 
REMARK    2  A    between atoms: C1'_4  and  C1_5 
ROOT
ATOM      1  C1  I4B d   1       5.956  -0.132   3.587  0.00  0.00    -0.075 A 
ATOM      2  C2  I4B d   1       5.932  -1.504   3.564  0.00  0.00     0.003 A 
ATOM      3  C3  I4B d   1       5.927  -2.238   4.775  0.00  0.00     0.002 A 
ATOM      4  C4  I4B d   1       5.997  -1.565   5.977  0.00  0.00    -0.004 A 
ATOM      5  C5  I4B d   1       5.997  -0.173   6.000  0.00  0.00     0.002 A 
ATOM      6  C6  I4B d   1       5.964   0.549   4.798  0.00  0.00     0.003 A 
ENDROOT
BRANCH   1   7
ATOM      7  C1' I4B d   1       5.994   0.611   2.289  0.00  0.00     0.060 C 
BRANCH   7   8
ATOM      8  C2' I4B d   1       4.838   1.590   2.278  0.00  0.00    -0.013 C 
ATOM      9  C4' I4B d   1       5.017   2.632   1.204  0.00  0.00     0.013 C 
ATOM     10  C3' I4B d   1       3.573   0.812   2.072  0.00  0.00     0.013 C 
ENDBRANCH   7   8
ENDBRANCH   1   7
TORSDOF 2
ENDMDL
