MODEL 1
REMARK minimizedAffinity 2.82622457
REMARK minimizedRMSD -1
REMARK  2 active torsions:
REMARK  status: ('A' for Active; 'I' for Inactive)
REMARK    1  A    between atoms: C2'_3  and  C1'_4 
REMARK    2  A    between atoms: C1'_4  and  C1_5 
ROOT
ATOM      1  C1  I4B d   1      -0.716   0.599  -0.261  0.00  0.00    -0.075 A 
ATOM      2  C2  I4B d   1      -1.189   1.046  -1.470  0.00  0.00     0.003 A 
ATOM      3  C3  I4B d   1      -2.222   0.341  -2.135  0.00  0.00     0.002 A 
ATOM      4  C4  I4B d   1      -2.714  -0.824  -1.584  0.00  0.00    -0.004 A 
ATOM      5  C5  I4B d   1      -2.249  -1.262  -0.347  0.00  0.00     0.002 A 
ATOM      6  C6  I4B d   1      -1.253  -0.540   0.325  0.00  0.00     0.003 A 
ENDROOT
BRANCH   1   7
ATOM      7  C1' I4B d   1       0.398   1.349   0.398  0.00  0.00     0.060 C 
BRANCH   7   8
ATOM      8  C2' I4B d   1       1.691   0.967  -0.293  0.00  0.00    -0.013 C 
ATOM      9  C4' I4B d   1       2.233   2.112  -1.108  0.00  0.00     0.013 C 
ATOM     10  C3' I4B d   1       2.670   0.541   0.760  0.00  0.00     0.013 C 
ENDBRANCH   7   8
ENDBRANCH   1   7
TORSDOF 2
ENDMDL
