MODEL 1
REMARK minimizedAffinity 8.06916332
REMARK minimizedRMSD -1
REMARK  2 active torsions:
REMARK  status: ('A' for Active; 'I' for Inactive)
REMARK    1  A    between atoms: C2'_3  and  C1'_4 
REMARK    2  A    between atoms: C1'_4  and  C1_5 
ROOT
ATOM      1  C1  I4B d   1      -5.766   0.885   3.523  0.00  0.00    -0.075 A 
ATOM      2  C2  I4B d   1      -5.833   1.004   4.889  0.00  0.00     0.003 A 
ATOM      3  C3  I4B d   1      -5.976   2.279   5.487  0.00  0.00     0.002 A 
ATOM      4  C4  I4B d   1      -5.998   3.405   4.690  0.00  0.00    -0.004 A 
ATOM      5  C5  I4B d   1      -5.953   3.281   3.304  0.00  0.00     0.002 A 
ATOM      6  C6  I4B d   1      -5.849   2.012   2.716  0.00  0.00     0.003 A 
ENDROOT
BRANCH   1   7
ATOM      7  C1' I4B d   1      -5.581  -0.474   2.926  0.00  0.00     0.060 C 
BRANCH   7   8
ATOM      8  C2' I4B d   1      -4.718  -0.327   1.689  0.00  0.00    -0.013 C 
ATOM      9  C4' I4B d   1      -3.255  -0.443   2.028  0.00  0.00     0.013 C 
ATOM     10  C3' I4B d   1      -5.132  -1.383   0.708  0.00  0.00     0.013 C 
ENDBRANCH   7   8
ENDBRANCH   1   7
TORSDOF 2
ENDMDL
