MODEL 1
REMARK minimizedAffinity 8.86052227
REMARK minimizedRMSD -1
REMARK  2 active torsions:
REMARK  status: ('A' for Active; 'I' for Inactive)
REMARK    1  A    between atoms: C2'_3  and  C1'_4 
REMARK    2  A    between atoms: C1'_4  and  C1_5 
ROOT
ATOM      1  C1  I4B d   1       0.512   0.908   0.419  0.00  0.00    -0.075 A 
ATOM      2  C2  I4B d   1       0.827   0.605   1.720  0.00  0.00     0.003 A 
ATOM      3  C3  I4B d   1       2.064   1.022   2.270  0.00  0.00     0.002 A 
ATOM      4  C4  I4B d   1       2.970   1.692   1.473  0.00  0.00    -0.004 A 
ATOM      5  C5  I4B d   1       2.639   2.018   0.161  0.00  0.00     0.002 A 
ATOM      6  C6  I4B d   1       1.397   1.635  -0.366  0.00  0.00     0.003 A 
ENDROOT
BRANCH   1   7
ATOM      7  C1' I4B d   1      -0.789   0.423  -0.139  0.00  0.00     0.060 C 
BRANCH   7   8
ATOM      8  C2' I4B d   1      -0.489  -0.696  -1.116  0.00  0.00    -0.013 C 
ATOM      9  C4' I4B d   1      -1.387  -1.882  -0.879  0.00  0.00     0.013 C 
ATOM     10  C3' I4B d   1      -0.660  -0.156  -2.504  0.00  0.00     0.013 C 
ENDBRANCH   7   8
ENDBRANCH   1   7
TORSDOF 2
ENDMDL
