MODEL 1
REMARK minimizedAffinity 14.2379322
REMARK minimizedRMSD -1
REMARK  2 active torsions:
REMARK  status: ('A' for Active; 'I' for Inactive)
REMARK    1  A    between atoms: C2'_3  and  C1'_4 
REMARK    2  A    between atoms: C1'_4  and  C1_5 
ROOT
ATOM      1  C1  I4B d   1      -3.843   3.329   5.841  0.00  0.00    -0.075 A 
ATOM      2  C2  I4B d   1      -2.491   3.566   5.851  0.00  0.00     0.003 A 
ATOM      3  C3  I4B d   1      -2.000   4.891   5.945  0.00  0.00     0.002 A 
ATOM      4  C4  I4B d   1      -2.890   5.945   5.974  0.00  0.00    -0.004 A 
ATOM      5  C5  I4B d   1      -4.261   5.701   5.986  0.00  0.00     0.002 A 
ATOM      6  C6  I4B d   1      -4.741   4.385   5.931  0.00  0.00     0.003 A 
ENDROOT
BRANCH   1   7
ATOM      7  C1' I4B d   1      -4.327   1.920   5.708  0.00  0.00     0.060 C 
BRANCH   7   8
ATOM      8  C2' I4B d   1      -4.526   1.631   4.234  0.00  0.00    -0.013 C 
ATOM      9  C4' I4B d   1      -3.701   0.451   3.792  0.00  0.00     0.013 C 
ATOM     10  C3' I4B d   1      -5.987   1.386   4.003  0.00  0.00     0.013 C 
ENDBRANCH   7   8
ENDBRANCH   1   7
TORSDOF 2
ENDMDL
