MODEL 1
REMARK minimizedAffinity 13.5215092
REMARK minimizedRMSD -1
REMARK  2 active torsions:
REMARK  status: ('A' for Active; 'I' for Inactive)
REMARK    1  A    between atoms: C2'_3  and  C1'_4 
REMARK    2  A    between atoms: C1'_4  and  C1_5 
ROOT
ATOM      1  C1  I4B d   1       2.523  -2.993  -1.114  0.00  0.00    -0.075 A 
ATOM      2  C2  I4B d   1       3.252  -2.442  -0.089  0.00  0.00     0.003 A 
ATOM      3  C3  I4B d   1       3.089  -2.914   1.236  0.00  0.00     0.002 A 
ATOM      4  C4  I4B d   1       2.157  -3.898   1.497  0.00  0.00    -0.004 A 
ATOM      5  C5  I4B d   1       1.435  -4.471   0.453  0.00  0.00     0.002 A 
ATOM      6  C6  I4B d   1       1.628  -4.025  -0.862  0.00  0.00     0.003 A 
ENDROOT
BRANCH   1   7
ATOM      7  C1' I4B d   1       2.696  -2.447  -2.496  0.00  0.00     0.060 C 
BRANCH   7   8
ATOM      8  C2' I4B d   1       3.247  -1.041  -2.377  0.00  0.00    -0.013 C 
ATOM      9  C4' I4B d   1       4.658  -0.962  -2.897  0.00  0.00     0.013 C 
ATOM     10  C3' I4B d   1       2.338  -0.122  -3.137  0.00  0.00     0.013 C 
ENDBRANCH   7   8
ENDBRANCH   1   7
TORSDOF 2
ENDMDL
