MODEL 1
REMARK minimizedAffinity 8.47345543
REMARK minimizedRMSD -1
REMARK  2 active torsions:
REMARK  status: ('A' for Active; 'I' for Inactive)
REMARK    1  A    between atoms: C2'_3  and  C1'_4 
REMARK    2  A    between atoms: C1'_4  and  C1_5 
ROOT
ATOM      1  C1  I4B d   1       3.176   0.380  -2.741  0.00  0.00    -0.075 A 
ATOM      2  C2  I4B d   1       3.063   0.632  -1.397  0.00  0.00     0.003 A 
ATOM      3  C3  I4B d   1       2.283   1.722  -0.939  0.00  0.00     0.002 A 
ATOM      4  C4  I4B d   1       1.678   2.558  -1.856  0.00  0.00    -0.004 A 
ATOM      5  C5  I4B d   1       1.775   2.287  -3.218  0.00  0.00     0.002 A 
ATOM      6  C6  I4B d   1       2.519   1.184  -3.664  0.00  0.00     0.003 A 
ENDROOT
BRANCH   1   7
ATOM      7  C1' I4B d   1       4.035  -0.759  -3.191  0.00  0.00     0.060 C 
BRANCH   7   8
ATOM      8  C2' I4B d   1       3.250  -2.041  -2.995  0.00  0.00    -0.013 C 
ATOM      9  C4' I4B d   1       2.954  -2.281  -1.538  0.00  0.00     0.013 C 
ATOM     10  C3' I4B d   1       1.986  -1.937  -3.795  0.00  0.00     0.013 C 
ENDBRANCH   7   8
ENDBRANCH   1   7
TORSDOF 2
ENDMDL
