MODEL 1
REMARK minimizedAffinity -0.929546833
REMARK minimizedRMSD -1
REMARK  2 active torsions:
REMARK  status: ('A' for Active; 'I' for Inactive)
REMARK    1  A    between atoms: C2'_3  and  C1'_4 
REMARK    2  A    between atoms: C1'_4  and  C1_5 
ROOT
ATOM      1  C1  I4B d   1       5.342  -3.162   3.939  0.00  0.00    -0.075 A 
ATOM      2  C2  I4B d   1       5.364  -2.469   2.754  0.00  0.00     0.003 A 
ATOM      3  C3  I4B d   1       5.721  -1.099   2.737  0.00  0.00     0.002 A 
ATOM      4  C4  I4B d   1       5.998  -0.453   3.924  0.00  0.00    -0.004 A 
ATOM      5  C5  I4B d   1       5.998  -1.163   5.122  0.00  0.00     0.002 A 
ATOM      6  C6  I4B d   1       5.680  -2.529   5.128  0.00  0.00     0.003 A 
ENDROOT
BRANCH   1   7
ATOM      7  C1' I4B d   1       4.928  -4.599   3.925  0.00  0.00     0.060 C 
BRANCH   7   8
ATOM      8  C2' I4B d   1       4.508  -4.977   5.331  0.00  0.00    -0.013 C 
ATOM      9  C4' I4B d   1       3.118  -5.556   5.348  0.00  0.00     0.013 C 
ATOM     10  C3' I4B d   1       5.509  -5.958   5.866  0.00  0.00     0.013 C 
ENDBRANCH   7   8
ENDBRANCH   1   7
TORSDOF 2
ENDMDL
