MODEL 1
REMARK minimizedAffinity 4.12215042
REMARK minimizedRMSD -1
REMARK  2 active torsions:
REMARK  status: ('A' for Active; 'I' for Inactive)
REMARK    1  A    between atoms: C2'_3  and  C1'_4 
REMARK    2  A    between atoms: C1'_4  and  C1_5 
ROOT
ATOM      1  C1  I4B d   1      -0.309  -1.508   0.256  0.00  0.00    -0.075 A 
ATOM      2  C2  I4B d   1      -0.098  -1.753   1.590  0.00  0.00     0.003 A 
ATOM      3  C3  I4B d   1       0.163  -0.681   2.478  0.00  0.00     0.002 A 
ATOM      4  C4  I4B d   1       0.253   0.604   1.985  0.00  0.00    -0.004 A 
ATOM      5  C5  I4B d   1       0.015   0.853   0.636  0.00  0.00     0.002 A 
ATOM      6  C6  I4B d   1      -0.280  -0.208  -0.232  0.00  0.00     0.003 A 
ENDROOT
BRANCH   1   7
ATOM      7  C1' I4B d   1      -0.549  -2.666  -0.660  0.00  0.00     0.060 C 
BRANCH   7   8
ATOM      8  C2' I4B d   1      -1.987  -3.110  -0.484  0.00  0.00    -0.013 C 
ATOM      9  C4' I4B d   1      -2.843  -2.658  -1.638  0.00  0.00     0.013 C 
ATOM     10  C3' I4B d   1      -1.998  -4.604  -0.355  0.00  0.00     0.013 C 
ENDBRANCH   7   8
ENDBRANCH   1   7
TORSDOF 2
ENDMDL
