MODEL 1
REMARK minimizedAffinity 0.388772458
REMARK minimizedRMSD -1
REMARK  2 active torsions:
REMARK  status: ('A' for Active; 'I' for Inactive)
REMARK    1  A    between atoms: C2'_3  and  C1'_4 
REMARK    2  A    between atoms: C1'_4  and  C1_5 
ROOT
ATOM      1  C1  I4B d   1       2.543   1.451  -3.293  0.00  0.00    -0.075 A 
ATOM      2  C2  I4B d   1       2.943   0.283  -2.694  0.00  0.00     0.003 A 
ATOM      3  C3  I4B d   1       3.838  -0.589  -3.359  0.00  0.00     0.002 A 
ATOM      4  C4  I4B d   1       4.266  -0.281  -4.634  0.00  0.00    -0.004 A 
ATOM      5  C5  I4B d   1       3.877   0.915  -5.231  0.00  0.00     0.002 A 
ATOM      6  C6  I4B d   1       3.020   1.793  -4.551  0.00  0.00     0.003 A 
ENDROOT
BRANCH   1   7
ATOM      7  C1' I4B d   1       1.571   2.333  -2.575  0.00  0.00     0.060 C 
BRANCH   7   8
ATOM      8  C2' I4B d   1       0.260   1.582  -2.454  0.00  0.00    -0.013 C 
ATOM      9  C4' I4B d   1      -0.100   0.901  -3.748  0.00  0.00     0.013 C 
ATOM     10  C3' I4B d   1       0.398   0.588  -1.340  0.00  0.00     0.013 C 
ENDBRANCH   7   8
ENDBRANCH   1   7
TORSDOF 2
ENDMDL
