MODEL 1
REMARK minimizedAffinity 5.8326807
REMARK minimizedRMSD -1
REMARK  2 active torsions:
REMARK  status: ('A' for Active; 'I' for Inactive)
REMARK    1  A    between atoms: C2'_3  and  C1'_4 
REMARK    2  A    between atoms: C1'_4  and  C1_5 
ROOT
ATOM      1  C1  I4B d   1      -3.617   0.732   1.514  0.00  0.00    -0.075 A 
ATOM      2  C2  I4B d   1      -4.119  -0.499   1.855  0.00  0.00     0.003 A 
ATOM      3  C3  I4B d   1      -5.341  -0.600   2.563  0.00  0.00     0.002 A 
ATOM      4  C4  I4B d   1      -5.999   0.549   2.951  0.00  0.00    -0.004 A 
ATOM      5  C5  I4B d   1      -5.501   1.796   2.584  0.00  0.00     0.002 A 
ATOM      6  C6  I4B d   1      -4.309   1.888   1.851  0.00  0.00     0.003 A 
ENDROOT
BRANCH   1   7
ATOM      7  C1' I4B d   1      -2.307   0.803   0.795  0.00  0.00     0.060 C 
BRANCH   7   8
ATOM      8  C2' I4B d   1      -1.269   0.103   1.648  0.00  0.00    -0.013 C 
ATOM      9  C4' I4B d   1      -0.887  -1.229   1.059  0.00  0.00     0.013 C 
ATOM     10  C3' I4B d   1      -0.077   1.007   1.760  0.00  0.00     0.013 C 
ENDBRANCH   7   8
ENDBRANCH   1   7
TORSDOF 2
ENDMDL
