MODEL 1
REMARK minimizedAffinity 10.5308256
REMARK minimizedRMSD -1
REMARK  2 active torsions:
REMARK  status: ('A' for Active; 'I' for Inactive)
REMARK    1  A    between atoms: C2'_3  and  C1'_4 
REMARK    2  A    between atoms: C1'_4  and  C1_5 
ROOT
ATOM      1  C1  I4B d   1      -1.193   1.861   1.859  0.00  0.00    -0.075 A 
ATOM      2  C2  I4B d   1       0.152   1.659   2.047  0.00  0.00     0.003 A 
ATOM      3  C3  I4B d   1       0.858   2.413   3.015  0.00  0.00     0.002 A 
ATOM      4  C4  I4B d   1       0.195   3.388   3.732  0.00  0.00    -0.004 A 
ATOM      5  C5  I4B d   1      -1.173   3.576   3.557  0.00  0.00     0.002 A 
ATOM      6  C6  I4B d   1      -1.874   2.800   2.623  0.00  0.00     0.003 A 
ENDROOT
BRANCH   1   7
ATOM      7  C1' I4B d   1      -1.901   1.070   0.805  0.00  0.00     0.060 C 
BRANCH   7   8
ATOM      8  C2' I4B d   1      -2.293  -0.263   1.407  0.00  0.00    -0.013 C 
ATOM      9  C4' I4B d   1      -3.726  -0.252   1.872  0.00  0.00     0.013 C 
ATOM     10  C3' I4B d   1      -2.069  -1.323   0.370  0.00  0.00     0.013 C 
ENDBRANCH   7   8
ENDBRANCH   1   7
TORSDOF 2
ENDMDL
