MODEL 1
REMARK minimizedAffinity -4.53994846
REMARK minimizedRMSD -1
REMARK  0 active torsions:
REMARK  status: ('A' for Active; 'I' for Inactive)
ROOT
ATOM      1  C1  BNZ d   1       0.898   2.341  -0.569  0.00  0.00     0.000 A 
ATOM      2  C2  BNZ d   1       0.559   1.024  -0.407  0.00  0.00     0.000 A 
ATOM      3  C3  BNZ d   1      -0.564   0.671   0.287  0.00  0.00     0.000 A 
ATOM      4  C4  BNZ d   1      -1.324   1.631   0.852  0.00  0.00     0.000 A 
ATOM      5  C5  BNZ d   1      -0.991   2.962   0.706  0.00  0.00     0.000 A 
ATOM      6  C6  BNZ d   1       0.119   3.317  -0.026  0.00  0.00     0.000 A 
ENDROOT
TORSDOF 0
ENDMDL
