MODEL 1
REMARK minimizedAffinity -4.38208485
REMARK minimizedRMSD -1
REMARK  0 active torsions:
REMARK  status: ('A' for Active; 'I' for Inactive)
ROOT
ATOM      1  C1  BNZ d   1      -1.020   0.938   0.476  0.00  0.00     0.000 A 
ATOM      2  C2  BNZ d   1      -0.919   2.278   0.213  0.00  0.00     0.000 A 
ATOM      3  C3  BNZ d   1       0.086   2.763  -0.576  0.00  0.00     0.000 A 
ATOM      4  C4  BNZ d   1       1.011   1.914  -1.067  0.00  0.00     0.000 A 
ATOM      5  C5  BNZ d   1       0.929   0.561  -0.803  0.00  0.00     0.000 A 
ATOM      6  C6  BNZ d   1      -0.107   0.072  -0.041  0.00  0.00     0.000 A 
ENDROOT
TORSDOF 0
ENDMDL
