MODEL 1
REMARK minimizedAffinity -4.75628471
REMARK minimizedRMSD -1
REMARK  0 active torsions:
REMARK  status: ('A' for Active; 'I' for Inactive)
ROOT
ATOM      1  C1  BNZ d   1      -1.304   0.678   0.842  0.00  0.00     0.000 A 
ATOM      2  C2  BNZ d   1      -1.080   1.971   0.450  0.00  0.00     0.000 A 
ATOM      3  C3  BNZ d   1       0.052   2.309  -0.237  0.00  0.00     0.000 A 
ATOM      4  C4  BNZ d   1       0.977   1.362  -0.496  0.00  0.00     0.000 A 
ATOM      5  C5  BNZ d   1       0.771   0.056  -0.099  0.00  0.00     0.000 A 
ATOM      6  C6  BNZ d   1      -0.388  -0.288   0.558  0.00  0.00     0.000 A 
ENDROOT
TORSDOF 0
ENDMDL
