MODEL 1
REMARK minimizedAffinity -4.31509256
REMARK minimizedRMSD -1
REMARK  0 active torsions:
REMARK  status: ('A' for Active; 'I' for Inactive)
ROOT
ATOM      1  C1  BNZ d   1       0.322   1.500   0.410  0.00  0.00     0.000 A 
ATOM      2  C2  BNZ d   1       0.671   2.802   0.168  0.00  0.00     0.000 A 
ATOM      3  C3  BNZ d   1       1.984   3.178   0.124  0.00  0.00     0.000 A 
ATOM      4  C4  BNZ d   1       2.945   2.262   0.362  0.00  0.00     0.000 A 
ATOM      5  C5  BNZ d   1       2.609   0.947   0.617  0.00  0.00     0.000 A 
ATOM      6  C6  BNZ d   1       1.287   0.564   0.622  0.00  0.00     0.000 A 
ENDROOT
TORSDOF 0
ENDMDL
