MODEL 1
REMARK minimizedAffinity -3.24966407
REMARK minimizedRMSD -1
REMARK  0 active torsions:
REMARK  status: ('A' for Active; 'I' for Inactive)
ROOT
ATOM      1  C1  BNZ d   1      -0.546   2.798   0.252  0.00  0.00     0.000 A 
ATOM      2  C2  BNZ d   1       0.417   1.991  -0.292  0.00  0.00     0.000 A 
ATOM      3  C3  BNZ d   1       0.488   0.666   0.036  0.00  0.00     0.000 A 
ATOM      4  C4  BNZ d   1      -0.377   0.159   0.938  0.00  0.00     0.000 A 
ATOM      5  C5  BNZ d   1      -1.348   0.962   1.503  0.00  0.00     0.000 A 
ATOM      6  C6  BNZ d   1      -1.441   2.286   1.140  0.00  0.00     0.000 A 
ENDROOT
TORSDOF 0
ENDMDL
