MODEL 1
REMARK minimizedAffinity -4.78035545
REMARK minimizedRMSD -1
REMARK  0 active torsions:
REMARK  status: ('A' for Active; 'I' for Inactive)
ROOT
ATOM      1  C1  BNZ d   1      -0.968   2.253   0.482  0.00  0.00     0.000 A 
ATOM      2  C2  BNZ d   1       0.034   2.967  -0.118  0.00  0.00     0.000 A 
ATOM      3  C3  BNZ d   1       1.158   2.342  -0.582  0.00  0.00     0.000 A 
ATOM      4  C4  BNZ d   1       1.296   1.012  -0.409  0.00  0.00     0.000 A 
ATOM      5  C5  BNZ d   1       0.299   0.279   0.203  0.00  0.00     0.000 A 
ATOM      6  C6  BNZ d   1      -0.848   0.906   0.634  0.00  0.00     0.000 A 
ENDROOT
TORSDOF 0
ENDMDL
