MODEL 1
REMARK minimizedAffinity -4.13467884
REMARK minimizedRMSD -1
REMARK  0 active torsions:
REMARK  status: ('A' for Active; 'I' for Inactive)
ROOT
ATOM      1  C1  BNZ d   1      -0.933   2.722   0.759  0.00  0.00     0.000 A 
ATOM      2  C2  BNZ d   1      -0.672   1.423   1.105  0.00  0.00     0.000 A 
ATOM      3  C3  BNZ d   1       0.044   0.608   0.273  0.00  0.00     0.000 A 
ATOM      4  C4  BNZ d   1       0.463   1.081  -0.919  0.00  0.00     0.000 A 
ATOM      5  C5  BNZ d   1       0.200   2.385  -1.285  0.00  0.00     0.000 A 
ATOM      6  C6  BNZ d   1      -0.488   3.214  -0.429  0.00  0.00     0.000 A 
ENDROOT
TORSDOF 0
ENDMDL
