MODEL 1
REMARK minimizedAffinity -4.35346937
REMARK minimizedRMSD -1
REMARK  0 active torsions:
REMARK  status: ('A' for Active; 'I' for Inactive)
ROOT
ATOM      1  C1  BNZ d   1       0.179   2.871  -0.007  0.00  0.00     0.000 A 
ATOM      2  C2  BNZ d   1       0.431   2.355  -1.250  0.00  0.00     0.000 A 
ATOM      3  C3  BNZ d   1       0.050   1.082  -1.570  0.00  0.00     0.000 A 
ATOM      4  C4  BNZ d   1      -0.545   0.313  -0.635  0.00  0.00     0.000 A 
ATOM      5  C5  BNZ d   1      -0.797   0.815   0.626  0.00  0.00     0.000 A 
ATOM      6  C6  BNZ d   1      -0.447   2.110   0.932  0.00  0.00     0.000 A 
ENDROOT
TORSDOF 0
ENDMDL
