MODEL 1
REMARK minimizedAffinity -4.82254028
REMARK minimizedRMSD -1
REMARK  0 active torsions:
REMARK  status: ('A' for Active; 'I' for Inactive)
ROOT
ATOM      1  C1  BNZ d   1      -1.117   0.891   1.087  0.00  0.00     0.000 A 
ATOM      2  C2  BNZ d   1      -0.378  -0.159   0.611  0.00  0.00     0.000 A 
ATOM      3  C3  BNZ d   1       0.697   0.055  -0.207  0.00  0.00     0.000 A 
ATOM      4  C4  BNZ d   1       1.006   1.313  -0.580  0.00  0.00     0.000 A 
ATOM      5  C5  BNZ d   1       0.264   2.382  -0.116  0.00  0.00     0.000 A 
ATOM      6  C6  BNZ d   1      -0.793   2.166   0.738  0.00  0.00     0.000 A 
ENDROOT
TORSDOF 0
ENDMDL
