MODEL 1
REMARK minimizedAffinity -2.82920003
REMARK minimizedRMSD -1
REMARK  0 active torsions:
REMARK  status: ('A' for Active; 'I' for Inactive)
ROOT
ATOM      1  C1  BNZ d   1       1.281   0.445   0.057  0.00  0.00     0.000 A 
ATOM      2  C2  BNZ d   1       0.198   1.277   0.157  0.00  0.00     0.000 A 
ATOM      3  C3  BNZ d   1      -1.018   0.798   0.556  0.00  0.00     0.000 A 
ATOM      4  C4  BNZ d   1      -1.160  -0.518   0.816  0.00  0.00     0.000 A 
ATOM      5  C5  BNZ d   1      -0.080  -1.371   0.711  0.00  0.00     0.000 A 
ATOM      6  C6  BNZ d   1       1.152  -0.879   0.346  0.00  0.00     0.000 A 
ENDROOT
TORSDOF 0
ENDMDL
