MODEL 1
REMARK minimizedAffinity -5.03658628
REMARK minimizedRMSD -1
REMARK  0 active torsions:
REMARK  status: ('A' for Active; 'I' for Inactive)
ROOT
ATOM      1  C1  BNZ d   1       0.536   2.863   0.021  0.00  0.00     0.000 A 
ATOM      2  C2  BNZ d   1       1.291   1.781  -0.344  0.00  0.00     0.000 A 
ATOM      3  C3  BNZ d   1       0.790   0.513  -0.246  0.00  0.00     0.000 A 
ATOM      4  C4  BNZ d   1      -0.449   0.326   0.253  0.00  0.00     0.000 A 
ATOM      5  C5  BNZ d   1      -1.219   1.406   0.633  0.00  0.00     0.000 A 
ATOM      6  C6  BNZ d   1      -0.726   2.684   0.497  0.00  0.00     0.000 A 
ENDROOT
TORSDOF 0
ENDMDL
