MODEL 1
REMARK minimizedAffinity -4.11960649
REMARK minimizedRMSD -1
REMARK  0 active torsions:
REMARK  status: ('A' for Active; 'I' for Inactive)
ROOT
ATOM      1  C1  BNZ d   1       0.065  -0.892   0.088  0.00  0.00     0.000 A 
ATOM      2  C2  BNZ d   1      -0.253   0.172  -0.712  0.00  0.00     0.000 A 
ATOM      3  C3  BNZ d   1       0.638   1.190  -0.910  0.00  0.00     0.000 A 
ATOM      4  C4  BNZ d   1       1.828   1.161  -0.277  0.00  0.00     0.000 A 
ATOM      5  C5  BNZ d   1       2.160   0.099   0.540  0.00  0.00     0.000 A 
ATOM      6  C6  BNZ d   1       1.277  -0.942   0.706  0.00  0.00     0.000 A 
ENDROOT
TORSDOF 0
ENDMDL
