MODEL 1
REMARK minimizedAffinity -4.6204896
REMARK minimizedRMSD -1
REMARK  0 active torsions:
REMARK  status: ('A' for Active; 'I' for Inactive)
ROOT
ATOM      1  C1  BNZ d   1      -0.277   1.032  -1.234  0.00  0.00     0.000 A 
ATOM      2  C2  BNZ d   1       0.063   2.358  -1.249  0.00  0.00     0.000 A 
ATOM      3  C3  BNZ d   1       0.008   3.107  -0.107  0.00  0.00     0.000 A 
ATOM      4  C4  BNZ d   1      -0.424   2.540   1.038  0.00  0.00     0.000 A 
ATOM      5  C5  BNZ d   1      -0.779   1.206   1.067  0.00  0.00     0.000 A 
ATOM      6  C6  BNZ d   1      -0.685   0.446  -0.076  0.00  0.00     0.000 A 
ENDROOT
TORSDOF 0
ENDMDL
