MODEL 1
REMARK minimizedAffinity -4.81979084
REMARK minimizedRMSD -1
REMARK  0 active torsions:
REMARK  status: ('A' for Active; 'I' for Inactive)
ROOT
ATOM      1  C1  BNZ d   1      -1.253   0.877   0.351  0.00  0.00     0.000 A 
ATOM      2  C2  BNZ d   1      -0.356  -0.049  -0.109  0.00  0.00     0.000 A 
ATOM      3  C3  BNZ d   1       0.874   0.335  -0.565  0.00  0.00     0.000 A 
ATOM      4  C4  BNZ d   1       1.190   1.645  -0.599  0.00  0.00     0.000 A 
ATOM      5  C5  BNZ d   1       0.292   2.592  -0.148  0.00  0.00     0.000 A 
ATOM      6  C6  BNZ d   1      -0.931   2.199   0.347  0.00  0.00     0.000 A 
ENDROOT
TORSDOF 0
ENDMDL
