MODEL 1
REMARK minimizedAffinity 2.41932392
REMARK minimizedRMSD -1
REMARK  0 active torsions:
REMARK  status: ('A' for Active; 'I' for Inactive)
ROOT
ATOM      1  C1  DEN d   1       1.109  -0.671  -1.489  0.00  0.00     0.130 A 
ATOM      2  C2  DEN d   1      -0.088  -0.035  -2.031  0.00  0.00    -0.031 A 
ATOM      3  C3  DEN d   1      -0.592   0.923  -1.027  0.00  0.00     0.027 A 
ATOM      4  C4  DEN d   1       0.365   1.485   1.302  0.00  0.00     0.027 A 
ATOM      5  C5  DEN d   1       1.362   1.193   2.206  0.00  0.00    -0.003 A 
ATOM      6  C6  DEN d   1       2.318   0.244   1.958  0.00  0.00     0.001 A 
ATOM      7  C7  DEN d   1       2.322  -0.417   0.758  0.00  0.00     0.017 A 
ATOM      8  C8  DEN d   1       1.316  -0.134  -0.156  0.00  0.00    -0.094 A 
ATOM      9  C9  DEN d   1       0.366   0.838   0.109  0.00  0.00    -0.072 A 
ENDROOT
TORSDOF 0
ENDMDL
