MODEL 1
REMARK minimizedAffinity -2.73236299
REMARK minimizedRMSD -1
REMARK  0 active torsions:
REMARK  status: ('A' for Active; 'I' for Inactive)
ROOT
ATOM      1  C1  DEN d   1       0.275  -0.549  -0.478  0.00  0.00     0.130 A 
ATOM      2  C2  DEN d   1      -1.058  -0.667  -1.063  0.00  0.00    -0.031 A 
ATOM      3  C3  DEN d   1      -2.029  -0.098  -0.107  0.00  0.00     0.027 A 
ATOM      4  C4  DEN d   1      -1.599   0.955   2.208  0.00  0.00     0.027 A 
ATOM      5  C5  DEN d   1      -0.631   1.268   3.137  0.00  0.00    -0.003 A 
ATOM      6  C6  DEN d   1       0.691   0.969   2.942  0.00  0.00     0.001 A 
ATOM      7  C7  DEN d   1       1.089   0.379   1.772  0.00  0.00     0.017 A 
ATOM      8  C8  DEN d   1       0.118   0.053   0.834  0.00  0.00    -0.094 A 
ATOM      9  C9  DEN d   1      -1.213   0.375   1.044  0.00  0.00    -0.072 A 
ENDROOT
TORSDOF 0
ENDMDL
