MODEL 1
REMARK minimizedAffinity -0.189159408
REMARK minimizedRMSD -1
REMARK  0 active torsions:
REMARK  status: ('A' for Active; 'I' for Inactive)
ROOT
ATOM      1  C1  DEN d   1       2.070  -0.143   1.848  0.00  0.00     0.130 A 
ATOM      2  C2  DEN d   1       2.896  -1.045   1.049  0.00  0.00    -0.031 A 
ATOM      3  C3  DEN d   1       2.160  -1.356  -0.193  0.00  0.00     0.027 A 
ATOM      4  C4  DEN d   1      -0.161  -0.530  -0.955  0.00  0.00     0.027 A 
ATOM      5  C5  DEN d   1      -1.248   0.241  -0.607  0.00  0.00    -0.003 A 
ATOM      6  C6  DEN d   1      -1.319   0.906   0.588  0.00  0.00     0.001 A 
ATOM      7  C7  DEN d   1      -0.264   0.848   1.461  0.00  0.00     0.017 A 
ATOM      8  C8  DEN d   1       0.832   0.066   1.120  0.00  0.00    -0.094 A 
ATOM      9  C9  DEN d   1       0.890  -0.588  -0.098  0.00  0.00    -0.072 A 
ENDROOT
TORSDOF 0
ENDMDL
