MODEL 1
REMARK minimizedAffinity 0.657562554
REMARK minimizedRMSD -1
REMARK  0 active torsions:
REMARK  status: ('A' for Active; 'I' for Inactive)
ROOT
ATOM      1  C1  DEN d   1      -0.663  -1.107  -1.223  0.00  0.00     0.130 A 
ATOM      2  C2  DEN d   1      -2.017  -0.905  -1.733  0.00  0.00    -0.031 A 
ATOM      3  C3  DEN d   1      -2.839  -0.350  -0.639  0.00  0.00     0.027 A 
ATOM      4  C4  DEN d   1      -2.150   0.217   1.781  0.00  0.00     0.027 A 
ATOM      5  C5  DEN d   1      -1.110   0.206   2.684  0.00  0.00    -0.003 A 
ATOM      6  C6  DEN d   1       0.133  -0.271   2.360  0.00  0.00     0.001 A 
ATOM      7  C7  DEN d   1       0.380  -0.715   1.088  0.00  0.00     0.017 A 
ATOM      8  C8  DEN d   1      -0.666  -0.714   0.174  0.00  0.00    -0.094 A 
ATOM      9  C9  DEN d   1      -1.912  -0.217   0.517  0.00  0.00    -0.072 A 
ENDROOT
TORSDOF 0
ENDMDL
