MODEL 1
REMARK minimizedAffinity -2.16432476
REMARK minimizedRMSD -1
REMARK  0 active torsions:
REMARK  status: ('A' for Active; 'I' for Inactive)
ROOT
ATOM      1  C1  DEN d   1       1.272   1.149   0.284  0.00  0.00     0.130 A 
ATOM      2  C2  DEN d   1       2.154   0.013   0.534  0.00  0.00    -0.031 A 
ATOM      3  C3  DEN d   1       1.366  -1.224   0.358  0.00  0.00     0.027 A 
ATOM      4  C4  DEN d   1      -1.119  -1.488  -0.278  0.00  0.00     0.027 A 
ATOM      5  C5  DEN d   1      -2.279  -0.809  -0.578  0.00  0.00    -0.003 A 
ATOM      6  C6  DEN d   1      -2.345   0.559  -0.579  0.00  0.00     0.001 A 
ATOM      7  C7  DEN d   1      -1.219   1.293  -0.317  0.00  0.00     0.017 A 
ATOM      8  C8  DEN d   1      -0.047   0.616  -0.007  0.00  0.00    -0.094 A 
ATOM      9  C9  DEN d   1       0.002  -0.768  -0.023  0.00  0.00    -0.072 A 
ENDROOT
TORSDOF 0
ENDMDL
