MODEL 1
REMARK minimizedAffinity 2.73096943
REMARK minimizedRMSD -1
REMARK  0 active torsions:
REMARK  status: ('A' for Active; 'I' for Inactive)
ROOT
ATOM      1  C1  DEN d   1      -0.065   1.657  -0.031  0.00  0.00     0.130 A 
ATOM      2  C2  DEN d   1      -1.378   1.309  -0.567  0.00  0.00    -0.031 A 
ATOM      3  C3  DEN d   1      -1.943   0.233   0.272  0.00  0.00     0.027 A 
ATOM      4  C4  DEN d   1      -0.920  -0.918   2.342  0.00  0.00     0.027 A 
ATOM      5  C5  DEN d   1       0.180  -0.968   3.168  0.00  0.00    -0.003 A 
ATOM      6  C6  DEN d   1       1.281  -0.178   2.969  0.00  0.00     0.001 A 
ATOM      7  C7  DEN d   1       1.287   0.730   1.943  0.00  0.00     0.017 A 
ATOM      8  C8  DEN d   1       0.185   0.782   1.100  0.00  0.00    -0.094 A 
ATOM      9  C9  DEN d   1      -0.924  -0.017   1.327  0.00  0.00    -0.072 A 
ENDROOT
TORSDOF 0
ENDMDL
