MODEL 1
REMARK minimizedAffinity 3.02743864
REMARK minimizedRMSD -1
REMARK  0 active torsions:
REMARK  status: ('A' for Active; 'I' for Inactive)
ROOT
ATOM      1  C1  DEN d   1      -1.455  -1.725   4.562  0.00  0.00     0.130 A 
ATOM      2  C2  DEN d   1      -0.094  -1.850   5.075  0.00  0.00    -0.031 A 
ATOM      3  C3  DEN d   1       0.827  -1.282   4.071  0.00  0.00     0.027 A 
ATOM      4  C4  DEN d   1       0.280  -0.223   1.783  0.00  0.00     0.027 A 
ATOM      5  C5  DEN d   1      -0.734   0.096   0.908  0.00  0.00    -0.003 A 
ATOM      6  C6  DEN d   1      -2.046  -0.199   1.171  0.00  0.00     0.001 A 
ATOM      7  C7  DEN d   1      -2.383  -0.790   2.360  0.00  0.00     0.017 A 
ATOM      8  C8  DEN d   1      -1.365  -1.121   3.245  0.00  0.00    -0.094 A 
ATOM      9  C9  DEN d   1      -0.047  -0.804   2.965  0.00  0.00    -0.072 A 
ENDROOT
TORSDOF 0
ENDMDL
