MODEL 1
REMARK minimizedAffinity 4.13624859
REMARK minimizedRMSD -1
REMARK  0 active torsions:
REMARK  status: ('A' for Active; 'I' for Inactive)
ROOT
ATOM      1  C1  DEN d   1       1.398  -0.775   2.768  0.00  0.00     0.130 A 
ATOM      2  C2  DEN d   1       1.256  -1.251   4.141  0.00  0.00    -0.031 A 
ATOM      3  C3  DEN d   1      -0.157  -1.082   4.538  0.00  0.00     0.027 A 
ATOM      4  C4  DEN d   1      -2.127  -0.141   3.166  0.00  0.00     0.027 A 
ATOM      5  C5  DEN d   1      -2.493   0.401   1.953  0.00  0.00    -0.003 A 
ATOM      6  C6  DEN d   1      -1.589   0.618   0.948  0.00  0.00     0.001 A 
ATOM      7  C7  DEN d   1      -0.280   0.250   1.120  0.00  0.00     0.017 A 
ATOM      8  C8  DEN d   1       0.098  -0.290   2.343  0.00  0.00    -0.094 A 
ATOM      9  C9  DEN d   1      -0.834  -0.513   3.342  0.00  0.00    -0.072 A 
ENDROOT
TORSDOF 0
ENDMDL
