MODEL 1
REMARK minimizedAffinity 6.56222677
REMARK minimizedRMSD -1
REMARK  0 active torsions:
REMARK  status: ('A' for Active; 'I' for Inactive)
ROOT
ATOM      1  C1  DEN d   1       4.565   2.842   4.001  0.00  0.00     0.130 A 
ATOM      2  C2  DEN d   1       5.067   4.134   4.461  0.00  0.00    -0.031 A 
ATOM      3  C3  DEN d   1       4.636   5.162   3.494  0.00  0.00     0.027 A 
ATOM      4  C4  DEN d   1       3.242   4.882   1.342  0.00  0.00     0.027 A 
ATOM      5  C5  DEN d   1       2.598   3.973   0.532  0.00  0.00    -0.003 A 
ATOM      6  C6  DEN d   1       2.593   2.630   0.801  0.00  0.00     0.001 A 
ATOM      7  C7  DEN d   1       3.208   2.163   1.933  0.00  0.00     0.017 A 
ATOM      8  C8  DEN d   1       3.865   3.072   2.750  0.00  0.00    -0.094 A 
ATOM      9  C9  DEN d   1       3.848   4.428   2.468  0.00  0.00    -0.072 A 
ENDROOT
TORSDOF 0
ENDMDL
