MODEL 1
REMARK minimizedAffinity -2.45154333
REMARK minimizedRMSD -1
REMARK  0 active torsions:
REMARK  status: ('A' for Active; 'I' for Inactive)
ROOT
ATOM      1  C   UNL d   1       6.000  -2.980   1.155  0.00  0.00    -0.002 A 
ATOM      2  C1  UNL d   1       5.998  -4.364   1.245  0.00  0.00     0.010 A 
ATOM      3  C2  UNL d   1       5.998  -4.995   2.491  0.00  0.00     0.041 A 
ATOM      4  C3  UNL d   1       5.998  -4.202   3.656  0.00  0.00    -0.075 A 
ATOM      5  S   UNL d   1       5.997  -4.755   5.289  0.00  0.00     0.015 SA
ATOM      6  C4  UNL d   1       5.998  -3.166   5.905  0.00  0.00     0.022 A 
ATOM      7  C5  UNL d   1       5.999  -2.224   4.903  0.00  0.00     0.026 A 
ATOM      8  C6  UNL d   1       5.999  -2.806   3.590  0.00  0.00    -0.082 A 
ATOM      9  C7  UNL d   1       6.000  -2.197   2.312  0.00  0.00     0.045 A 
ENDROOT
TORSDOF 0
ENDMDL
