MODEL 1
REMARK minimizedAffinity -2.77140355
REMARK minimizedRMSD -1
REMARK  0 active torsions:
REMARK  status: ('A' for Active; 'I' for Inactive)
ROOT
ATOM      1  C   UNL d   1       5.521  -2.529   1.901  0.00  0.00    -0.002 A 
ATOM      2  C1  UNL d   1       5.581  -1.678   2.995  0.00  0.00     0.010 A 
ATOM      3  C2  UNL d   1       5.727  -2.190   4.286  0.00  0.00     0.041 A 
ATOM      4  C3  UNL d   1       5.814  -3.586   4.460  0.00  0.00    -0.075 A 
ATOM      5  S   UNL d   1       5.996  -4.439   5.947  0.00  0.00     0.015 SA
ATOM      6  C4  UNL d   1       6.000  -5.953   5.164  0.00  0.00     0.022 A 
ATOM      7  C5  UNL d   1       5.865  -5.829   3.801  0.00  0.00     0.026 A 
ATOM      8  C6  UNL d   1       5.757  -4.463   3.373  0.00  0.00    -0.082 A 
ATOM      9  C7  UNL d   1       5.608  -3.913   2.077  0.00  0.00     0.045 A 
ENDROOT
TORSDOF 0
ENDMDL
