MODEL 1
REMARK minimizedAffinity 0.853845298
REMARK minimizedRMSD -1
REMARK  0 active torsions:
REMARK  status: ('A' for Active; 'I' for Inactive)
ROOT
ATOM      1  C   UNL d   1       5.950  -2.863   1.102  0.00  0.00    -0.002 A 
ATOM      2  C1  UNL d   1       5.680  -1.927   2.090  0.00  0.00     0.010 A 
ATOM      3  C2  UNL d   1       5.452  -2.331   3.407  0.00  0.00     0.041 A 
ATOM      4  C3  UNL d   1       5.503  -3.704   3.718  0.00  0.00    -0.075 A 
ATOM      5  S   UNL d   1       5.259  -4.430   5.262  0.00  0.00     0.015 SA
ATOM      6  C4  UNL d   1       5.508  -6.000   4.646  0.00  0.00     0.022 A 
ATOM      7  C5  UNL d   1       5.772  -5.988   3.297  0.00  0.00     0.026 A 
ATOM      8  C6  UNL d   1       5.774  -4.665   2.740  0.00  0.00    -0.082 A 
ATOM      9  C7  UNL d   1       5.999  -4.224   1.413  0.00  0.00     0.045 A 
ENDROOT
TORSDOF 0
ENDMDL
