MODEL 1
REMARK minimizedAffinity -3.18610859
REMARK minimizedRMSD -1
REMARK  0 active torsions:
REMARK  status: ('A' for Active; 'I' for Inactive)
ROOT
ATOM      1  C   UNL d   1       5.995  -3.969   1.490  0.00  0.00    -0.002 A 
ATOM      2  C1  UNL d   1       5.993  -5.232   2.067  0.00  0.00     0.010 A 
ATOM      3  C2  UNL d   1       5.983  -5.378   3.455  0.00  0.00     0.041 A 
ATOM      4  C3  UNL d   1       5.974  -4.224   4.262  0.00  0.00    -0.075 A 
ATOM      5  S   UNL d   1       5.960  -4.160   5.985  0.00  0.00     0.015 SA
ATOM      6  C4  UNL d   1       5.955  -2.456   5.996  0.00  0.00     0.022 A 
ATOM      7  C5  UNL d   1       5.965  -1.931   4.725  0.00  0.00     0.026 A 
ATOM      8  C6  UNL d   1       5.975  -2.942   3.705  0.00  0.00    -0.082 A 
ATOM      9  C7  UNL d   1       5.986  -2.826   2.294  0.00  0.00     0.045 A 
ENDROOT
TORSDOF 0
ENDMDL
