MODEL 1
REMARK minimizedAffinity -3.43908167
REMARK minimizedRMSD -1
REMARK  0 active torsions:
REMARK  status: ('A' for Active; 'I' for Inactive)
ROOT
ATOM      1  C   UNL d   1       4.160  -3.316   5.981  0.00  0.00    -0.002 A 
ATOM      2  C1  UNL d   1       4.391  -4.685   5.996  0.00  0.00     0.010 A 
ATOM      3  C2  UNL d   1       4.956  -5.322   4.889  0.00  0.00     0.041 A 
ATOM      4  C3  UNL d   1       5.288  -4.553   3.757  0.00  0.00    -0.075 A 
ATOM      5  S   UNL d   1       5.990  -5.117   2.287  0.00  0.00     0.015 SA
ATOM      6  C4  UNL d   1       6.000  -3.556   1.604  0.00  0.00     0.022 A 
ATOM      7  C5  UNL d   1       5.484  -2.614   2.463  0.00  0.00     0.026 A 
ATOM      8  C6  UNL d   1       5.065  -3.173   3.718  0.00  0.00    -0.082 A 
ATOM      9  C7  UNL d   1       4.491  -2.557   4.856  0.00  0.00     0.045 A 
ENDROOT
TORSDOF 0
ENDMDL
