MODEL 1
REMARK minimizedAffinity -3.30061507
REMARK minimizedRMSD -1
REMARK  0 active torsions:
REMARK  status: ('A' for Active; 'I' for Inactive)
ROOT
ATOM      1  C   UNL d   1       6.000  -3.011   1.308  0.00  0.00    -0.002 A 
ATOM      2  C1  UNL d   1       5.983  -4.396   1.402  0.00  0.00     0.010 A 
ATOM      3  C2  UNL d   1       5.787  -5.021   2.635  0.00  0.00     0.041 A 
ATOM      4  C3  UNL d   1       5.605  -4.224   3.782  0.00  0.00    -0.075 A 
ATOM      5  S   UNL d   1       5.348  -4.770   5.397  0.00  0.00     0.015 SA
ATOM      6  C4  UNL d   1       5.254  -3.178   6.000  0.00  0.00     0.022 A 
ATOM      7  C5  UNL d   1       5.413  -2.241   5.007  0.00  0.00     0.026 A 
ATOM      8  C6  UNL d   1       5.617  -2.828   3.712  0.00  0.00    -0.082 A 
ATOM      9  C7  UNL d   1       5.819  -2.224   2.448  0.00  0.00     0.045 A 
ENDROOT
TORSDOF 0
ENDMDL
