MODEL 1
REMARK minimizedAffinity -3.14538097
REMARK minimizedRMSD -1
REMARK  0 active torsions:
REMARK  status: ('A' for Active; 'I' for Inactive)
ROOT
ATOM      1  C   UNL d   1       5.997  -4.402   1.702  0.00  0.00    -0.002 A 
ATOM      2  C1  UNL d   1       5.941  -5.672   2.258  0.00  0.00     0.010 A 
ATOM      3  C2  UNL d   1       5.547  -5.849   3.586  0.00  0.00     0.041 A 
ATOM      4  C3  UNL d   1       5.204  -4.717   4.352  0.00  0.00    -0.075 A 
ATOM      5  S   UNL d   1       4.691  -4.692   5.997  0.00  0.00     0.015 SA
ATOM      6  C4  UNL d   1       4.532  -2.995   6.000  0.00  0.00     0.022 A 
ATOM      7  C5  UNL d   1       4.859  -2.445   4.783  0.00  0.00     0.026 A 
ATOM      8  C6  UNL d   1       5.251  -3.428   3.813  0.00  0.00    -0.082 A 
ATOM      9  C7  UNL d   1       5.656  -3.282   2.464  0.00  0.00     0.045 A 
ENDROOT
TORSDOF 0
ENDMDL
