MODEL 1
REMARK minimizedAffinity -4.13551664
REMARK minimizedRMSD -1
REMARK  0 active torsions:
REMARK  status: ('A' for Active; 'I' for Inactive)
ROOT
ATOM      1  C   UNL d   1       5.985  -3.128   1.481  0.00  0.00    -0.002 A 
ATOM      2  C1  UNL d   1       6.000  -4.515   1.457  0.00  0.00     0.010 A 
ATOM      3  C2  UNL d   1       5.663  -5.248   2.597  0.00  0.00     0.041 A 
ATOM      4  C3  UNL d   1       5.306  -4.557   3.771  0.00  0.00    -0.075 A 
ATOM      5  S   UNL d   1       4.855  -5.245   5.287  0.00  0.00     0.015 SA
ATOM      6  C4  UNL d   1       4.631  -3.713   6.000  0.00  0.00     0.022 A 
ATOM      7  C5  UNL d   1       4.890  -2.691   5.118  0.00  0.00     0.026 A 
ATOM      8  C6  UNL d   1       5.282  -3.160   3.819  0.00  0.00    -0.082 A 
ATOM      9  C7  UNL d   1       5.629  -2.446   2.647  0.00  0.00     0.045 A 
ENDROOT
TORSDOF 0
ENDMDL
