MODEL 1
REMARK minimizedAffinity -3.57048416
REMARK minimizedRMSD -1
REMARK  0 active torsions:
REMARK  status: ('A' for Active; 'I' for Inactive)
ROOT
ATOM      1  C   UNL d   1       5.996  -3.251   1.253  0.00  0.00    -0.002 A 
ATOM      2  C1  UNL d   1       5.993  -4.621   1.473  0.00  0.00     0.010 A 
ATOM      3  C2  UNL d   1       5.992  -5.132   2.772  0.00  0.00     0.041 A 
ATOM      4  C3  UNL d   1       5.993  -4.234   3.857  0.00  0.00    -0.075 A 
ATOM      5  S   UNL d   1       5.992  -4.632   5.535  0.00  0.00     0.015 SA
ATOM      6  C4  UNL d   1       5.995  -2.992   6.000  0.00  0.00     0.022 A 
ATOM      7  C5  UNL d   1       5.997  -2.148   4.914  0.00  0.00     0.026 A 
ATOM      8  C6  UNL d   1       5.996  -2.850   3.662  0.00  0.00    -0.082 A 
ATOM      9  C7  UNL d   1       5.997  -2.364   2.332  0.00  0.00     0.045 A 
ENDROOT
TORSDOF 0
ENDMDL
