MODEL 1
REMARK minimizedAffinity -3.70513654
REMARK minimizedRMSD -1
REMARK  0 active torsions:
REMARK  status: ('A' for Active; 'I' for Inactive)
ROOT
ATOM      1  C   UNL d   1       4.657  -2.981   5.996  0.00  0.00    -0.002 A 
ATOM      2  C1  UNL d   1       4.838  -4.356   5.963  0.00  0.00     0.010 A 
ATOM      3  C2  UNL d   1       5.253  -4.990   4.789  0.00  0.00     0.041 A 
ATOM      4  C3  UNL d   1       5.486  -4.210   3.640  0.00  0.00    -0.075 A 
ATOM      5  S   UNL d   1       5.999  -4.768   2.091  0.00  0.00     0.015 SA
ATOM      6  C4  UNL d   1       5.991  -3.194   1.438  0.00  0.00     0.022 A 
ATOM      7  C5  UNL d   1       5.607  -2.253   2.364  0.00  0.00     0.026 A 
ATOM      8  C6  UNL d   1       5.311  -2.823   3.649  0.00  0.00    -0.082 A 
ATOM      9  C7  UNL d   1       4.889  -2.211   4.853  0.00  0.00     0.045 A 
ENDROOT
TORSDOF 0
ENDMDL
