MODEL 1
REMARK minimizedAffinity -0.986326754
REMARK minimizedRMSD -1
REMARK  0 active torsions:
REMARK  status: ('A' for Active; 'I' for Inactive)
ROOT
ATOM      1  C   UNL d   1       5.990  -1.922   1.151  0.00  0.00    -0.002 A 
ATOM      2  C1  UNL d   1       5.991  -3.276   0.846  0.00  0.00     0.010 A 
ATOM      3  C2  UNL d   1       5.995  -4.233   1.863  0.00  0.00     0.041 A 
ATOM      4  C3  UNL d   1       5.996  -3.802   3.204  0.00  0.00    -0.075 A 
ATOM      5  S   UNL d   1       6.000  -4.794   4.614  0.00  0.00     0.015 SA
ATOM      6  C4  UNL d   1       5.999  -3.444   5.655  0.00  0.00     0.022 A 
ATOM      7  C5  UNL d   1       5.997  -2.258   4.960  0.00  0.00     0.026 A 
ATOM      8  C6  UNL d   1       5.994  -2.444   3.537  0.00  0.00    -0.082 A 
ATOM      9  C7  UNL d   1       5.991  -1.499   2.483  0.00  0.00     0.045 A 
ENDROOT
TORSDOF 0
ENDMDL
