MODEL 1
REMARK minimizedAffinity -1.35049391
REMARK minimizedRMSD -1
REMARK  0 active torsions:
REMARK  status: ('A' for Active; 'I' for Inactive)
ROOT
ATOM      1  C   UNL d   1       6.000  -3.492   1.735  0.00  0.00    -0.002 A 
ATOM      2  C1  UNL d   1       5.642  -2.343   2.426  0.00  0.00     0.010 A 
ATOM      3  C2  UNL d   1       5.215  -2.417   3.753  0.00  0.00     0.041 A 
ATOM      4  C3  UNL d   1       5.155  -3.676   4.381  0.00  0.00    -0.075 A 
ATOM      5  S   UNL d   1       4.663  -4.008   6.000  0.00  0.00     0.015 SA
ATOM      6  C4  UNL d   1       4.917  -5.683   5.813  0.00  0.00     0.022 A 
ATOM      7  C5  UNL d   1       5.366  -5.999   4.552  0.00  0.00     0.026 A 
ATOM      8  C6  UNL d   1       5.511  -4.847   3.707  0.00  0.00    -0.082 A 
ATOM      9  C7  UNL d   1       5.939  -4.740   2.362  0.00  0.00     0.045 A 
ENDROOT
TORSDOF 0
ENDMDL
