MODEL 1
REMARK minimizedAffinity -3.70460939
REMARK minimizedRMSD -1
REMARK  0 active torsions:
REMARK  status: ('A' for Active; 'I' for Inactive)
ROOT
ATOM      1  C   UNL d   1       6.000  -3.330   1.392  0.00  0.00    -0.002 A 
ATOM      2  C1  UNL d   1       6.000  -2.238   2.247  0.00  0.00     0.010 A 
ATOM      3  C2  UNL d   1       5.709  -2.398   3.604  0.00  0.00     0.041 A 
ATOM      4  C3  UNL d   1       5.416  -3.688   4.090  0.00  0.00    -0.075 A 
ATOM      5  S   UNL d   1       5.031  -4.124   5.713  0.00  0.00     0.015 SA
ATOM      6  C4  UNL d   1       4.859  -5.770   5.309  0.00  0.00     0.022 A 
ATOM      7  C5  UNL d   1       5.085  -6.000   3.972  0.00  0.00     0.026 A 
ATOM      8  C6  UNL d   1       5.411  -4.803   3.248  0.00  0.00    -0.082 A 
ATOM      9  C7  UNL d   1       5.709  -4.608   1.878  0.00  0.00     0.045 A 
ENDROOT
TORSDOF 0
ENDMDL
