MODEL 1
REMARK minimizedAffinity 3.49283314
REMARK minimizedRMSD -1
REMARK  1 active torsions:
REMARK  status: ('A' for Active; 'I' for Inactive)
REMARK    1  A    between atoms: C1_2  and  C2_3 
ROOT
ATOM      1  C2  UNL d   1      -0.264  -1.002   1.512  0.00  0.00    -0.077 A 
ATOM      2  C3  UNL d   1       0.697  -1.400   0.572  0.00  0.00     0.002 A 
ATOM      3  C4  UNL d   1       1.449  -2.558   0.777  0.00  0.00     0.002 A 
ATOM      4  C5  UNL d   1       1.245  -3.330   1.919  0.00  0.00    -0.004 A 
ATOM      5  C6  UNL d   1       0.293  -2.942   2.861  0.00  0.00     0.002 A 
ATOM      6  C7  UNL d   1      -0.459  -1.784   2.658  0.00  0.00     0.002 A 
ENDROOT
BRANCH   1   7
ATOM      7  C1  UNL d   1      -1.111   0.219   1.268  0.00  0.00     0.055 C 
ATOM      8  C   UNL d   1      -2.520  -0.160   0.838  0.00  0.00     0.019 C 
ENDBRANCH   1   7
TORSDOF 1
ENDMDL
