MODEL 1
REMARK minimizedAffinity 3.32756615
REMARK minimizedRMSD -1
REMARK  1 active torsions:
REMARK  status: ('A' for Active; 'I' for Inactive)
REMARK    1  A    between atoms: C1_2  and  C2_3 
ROOT
ATOM      1  C2  UNL d   1       3.031  -4.411   3.404  0.00  0.00    -0.077 A 
ATOM      2  C3  UNL d   1       3.122  -5.731   3.866  0.00  0.00     0.002 A 
ATOM      3  C4  UNL d   1       3.579  -5.997   5.158  0.00  0.00     0.002 A 
ATOM      4  C5  UNL d   1       3.945  -4.949   6.000  0.00  0.00    -0.004 A 
ATOM      5  C6  UNL d   1       3.859  -3.632   5.549  0.00  0.00     0.002 A 
ATOM      6  C7  UNL d   1       3.404  -3.364   4.257  0.00  0.00     0.002 A 
ENDROOT
BRANCH   1   7
ATOM      7  C1  UNL d   1       2.492  -4.119   2.028  0.00  0.00     0.055 C 
ATOM      8  C   UNL d   1       1.053  -3.629   2.090  0.00  0.00     0.019 C 
ENDBRANCH   1   7
TORSDOF 1
ENDMDL
