MODEL 1
REMARK minimizedAffinity 4.42963076
REMARK minimizedRMSD -1
REMARK  1 active torsions:
REMARK  status: ('A' for Active; 'I' for Inactive)
REMARK    1  A    between atoms: C1_2  and  C2_3 
ROOT
ATOM      1  C2  UNL d   1       2.894  -4.105   3.479  0.00  0.00    -0.077 A 
ATOM      2  C3  UNL d   1       3.459  -5.332   3.856  0.00  0.00     0.002 A 
ATOM      3  C4  UNL d   1       4.167  -5.445   5.055  0.00  0.00     0.002 A 
ATOM      4  C5  UNL d   1       4.313  -4.337   5.887  0.00  0.00    -0.004 A 
ATOM      5  C6  UNL d   1       3.756  -3.112   5.520  0.00  0.00     0.002 A 
ATOM      6  C7  UNL d   1       3.049  -2.997   4.322  0.00  0.00     0.002 A 
ENDROOT
BRANCH   1   7
ATOM      7  C1  UNL d   1       2.089  -3.994   2.211  0.00  0.00     0.055 C 
ATOM      8  C   UNL d   1       0.808  -3.203   2.437  0.00  0.00     0.019 C 
ENDBRANCH   1   7
TORSDOF 1
ENDMDL
