MODEL 1
REMARK minimizedAffinity 0.178836212
REMARK minimizedRMSD -1
REMARK  1 active torsions:
REMARK  status: ('A' for Active; 'I' for Inactive)
REMARK    1  A    between atoms: C1_2  and  C2_3 
ROOT
ATOM      1  C2  UNL d   1       1.543   0.357  -1.875  0.00  0.00    -0.077 A 
ATOM      2  C3  UNL d   1       0.821   1.554  -1.980  0.00  0.00     0.002 A 
ATOM      3  C4  UNL d   1       1.383   2.665  -2.612  0.00  0.00     0.002 A 
ATOM      4  C5  UNL d   1       2.667   2.588  -3.148  0.00  0.00    -0.004 A 
ATOM      5  C6  UNL d   1       3.394   1.402  -3.048  0.00  0.00     0.002 A 
ATOM      6  C7  UNL d   1       2.834   0.291  -2.415  0.00  0.00     0.002 A 
ENDROOT
BRANCH   1   7
ATOM      7  C1  UNL d   1       0.920  -0.858  -1.237  0.00  0.00     0.055 C 
ATOM      8  C   UNL d   1      -0.207  -0.469  -0.292  0.00  0.00     0.019 C 
ENDBRANCH   1   7
TORSDOF 1
ENDMDL
