MODEL 1
REMARK minimizedAffinity -0.348434418
REMARK minimizedRMSD -1
REMARK  1 active torsions:
REMARK  status: ('A' for Active; 'I' for Inactive)
REMARK    1  A    between atoms: C1_2  and  C2_3 
ROOT
ATOM      1  C2  UNL d   1       1.616   1.741  -0.554  0.00  0.00    -0.081 A 
ATOM      2  C3  UNL d   1       1.643   2.620   0.535  0.00  0.00     0.006 A 
ATOM      3  C4  UNL d   1       1.946   3.971   0.347  0.00  0.00     0.002 A 
ATOM      4  C5  UNL d   1       2.219   4.466  -0.933  0.00  0.00    -0.080 A 
ATOM      5  C6  UNL d   1       2.516   5.920  -1.153  0.00  0.00     0.076 C 
ATOM      6  C7  UNL d   1       2.210   3.584  -2.019  0.00  0.00     0.002 A 
ATOM      7  C8  UNL d   1       1.908   2.233  -1.831  0.00  0.00     0.006 A 
ENDROOT
BRANCH   1   8
ATOM      8  C1  UNL d   1       1.227   0.297  -0.364  0.00  0.00     0.054 C 
ATOM      9  C   UNL d   1       0.887  -0.364  -1.692  0.00  0.00     0.018 C 
ENDBRANCH   1   8
TORSDOF 1
ENDMDL
