MODEL 1
REMARK minimizedAffinity 3.92629457
REMARK minimizedRMSD -1
REMARK  1 active torsions:
REMARK  status: ('A' for Active; 'I' for Inactive)
REMARK    1  A    between atoms: C1_2  and  C2_3 
ROOT
ATOM      1  C2  UNL d   1       1.860   3.048  -1.356  0.00  0.00    -0.081 A 
ATOM      2  C3  UNL d   1       1.887   2.642  -0.016  0.00  0.00     0.006 A 
ATOM      3  C4  UNL d   1       1.565   1.328   0.332  0.00  0.00     0.002 A 
ATOM      4  C5  UNL d   1       1.219   0.397  -0.654  0.00  0.00    -0.080 A 
ATOM      5  C6  UNL d   1       0.901  -1.025  -0.297  0.00  0.00     0.076 C 
ATOM      6  C7  UNL d   1       1.175   0.808  -1.991  0.00  0.00     0.002 A 
ATOM      7  C8  UNL d   1       1.496   2.122  -2.339  0.00  0.00     0.006 A 
ENDROOT
BRANCH   1   8
ATOM      8  C1  UNL d   1       2.270   4.447  -1.740  0.00  0.00     0.054 C 
ATOM      9  C   UNL d   1       2.226   5.385  -0.542  0.00  0.00     0.018 C 
ENDBRANCH   1   8
TORSDOF 1
ENDMDL
