MODEL 1
REMARK minimizedAffinity 6.64056492
REMARK minimizedRMSD -1
REMARK  1 active torsions:
REMARK  status: ('A' for Active; 'I' for Inactive)
REMARK    1  A    between atoms: C1_2  and  C2_3 
ROOT
ATOM      1  C2  UNL d   1      -3.205   2.572   0.833  0.00  0.00    -0.081 A 
ATOM      2  C3  UNL d   1      -2.355   3.252   1.713  0.00  0.00     0.006 A 
ATOM      3  C4  UNL d   1      -2.310   2.904   3.065  0.00  0.00     0.002 A 
ATOM      4  C5  UNL d   1      -3.107   1.866   3.558  0.00  0.00    -0.080 A 
ATOM      5  C6  UNL d   1      -3.046   1.462   5.001  0.00  0.00     0.076 C 
ATOM      6  C7  UNL d   1      -3.969   1.197   2.682  0.00  0.00     0.002 A 
ATOM      7  C8  UNL d   1      -4.016   1.545   1.330  0.00  0.00     0.006 A 
ENDROOT
BRANCH   1   8
ATOM      8  C1  UNL d   1      -3.209   2.901  -0.638  0.00  0.00     0.054 C 
ATOM      9  C   UNL d   1      -2.134   2.122  -1.383  0.00  0.00     0.018 C 
ENDBRANCH   1   8
TORSDOF 1
ENDMDL
