MODEL 1
REMARK minimizedAffinity -0.460522324
REMARK minimizedRMSD -1
REMARK  1 active torsions:
REMARK  status: ('A' for Active; 'I' for Inactive)
REMARK    1  A    between atoms: C1_2  and  C2_3 
ROOT
ATOM      1  C2  UNL d   1       2.163   4.037  -0.485  0.00  0.00    -0.081 A 
ATOM      2  C3  UNL d   1       2.187   3.400  -1.732  0.00  0.00     0.006 A 
ATOM      3  C4  UNL d   1       1.821   2.057  -1.849  0.00  0.00     0.002 A 
ATOM      4  C5  UNL d   1       1.418   1.331  -0.723  0.00  0.00    -0.080 A 
ATOM      5  C6  UNL d   1       0.994  -0.103  -0.839  0.00  0.00     0.076 C 
ATOM      6  C7  UNL d   1       1.411   1.962   0.526  0.00  0.00     0.002 A 
ATOM      7  C8  UNL d   1       1.777   3.304   0.643  0.00  0.00     0.006 A 
ENDROOT
BRANCH   1   8
ATOM      8  C1  UNL d   1       2.494   5.502  -0.366  0.00  0.00     0.054 C 
ATOM      9  C   UNL d   1       3.717   5.862  -1.199  0.00  0.00     0.018 C 
ENDBRANCH   1   8
TORSDOF 1
ENDMDL
