MODEL 1
REMARK minimizedAffinity -0.95044744
REMARK minimizedRMSD -1
REMARK  1 active torsions:
REMARK  status: ('A' for Active; 'I' for Inactive)
REMARK    1  A    between atoms: C1_2  and  C2_3 
ROOT
ATOM      1  C2  UNL d   1       1.708   3.121  -1.256  0.00  0.00    -0.081 A 
ATOM      2  C3  UNL d   1       1.731   2.028  -2.132  0.00  0.00     0.006 A 
ATOM      3  C4  UNL d   1       1.447   0.742  -1.667  0.00  0.00     0.002 A 
ATOM      4  C5  UNL d   1       1.128   0.528  -0.322  0.00  0.00    -0.080 A 
ATOM      5  C6  UNL d   1       0.791  -0.843   0.184  0.00  0.00     0.076 C 
ATOM      6  C7  UNL d   1       1.122   1.617   0.557  0.00  0.00     0.002 A 
ATOM      7  C8  UNL d   1       1.407   2.903   0.093  0.00  0.00     0.006 A 
ENDROOT
BRANCH   1   8
ATOM      8  C1  UNL d   1       1.951   4.518  -1.768  0.00  0.00     0.054 C 
ATOM      9  C   UNL d   1       2.197   5.491  -0.623  0.00  0.00     0.018 C 
ENDBRANCH   1   8
TORSDOF 1
ENDMDL
