MODEL 1
REMARK minimizedAffinity 6.69560671
REMARK minimizedRMSD -1
REMARK  1 active torsions:
REMARK  status: ('A' for Active; 'I' for Inactive)
REMARK    1  A    between atoms: C1_2  and  C2_3 
ROOT
ATOM      1  C2  UNL d   1      -3.086   3.093   1.583  0.00  0.00    -0.081 A 
ATOM      2  C3  UNL d   1      -1.992   3.603   2.292  0.00  0.00     0.006 A 
ATOM      3  C4  UNL d   1      -1.623   3.049   3.521  0.00  0.00     0.002 A 
ATOM      4  C5  UNL d   1      -2.337   1.972   4.056  0.00  0.00    -0.080 A 
ATOM      5  C6  UNL d   1      -1.933   1.349   5.359  0.00  0.00     0.076 C 
ATOM      6  C7  UNL d   1      -3.441   1.473   3.356  0.00  0.00     0.002 A 
ATOM      7  C8  UNL d   1      -3.810   2.027   2.129  0.00  0.00     0.006 A 
ENDROOT
BRANCH   1   8
ATOM      8  C1  UNL d   1      -3.446   3.646   0.228  0.00  0.00     0.054 C 
ATOM      9  C   UNL d   1      -2.970   2.728  -0.889  0.00  0.00     0.018 C 
ENDBRANCH   1   8
TORSDOF 1
ENDMDL
