MODEL 1
REMARK minimizedAffinity -5.00548315
REMARK minimizedRMSD -1
REMARK  1 active torsions:
REMARK  status: ('A' for Active; 'I' for Inactive)
REMARK    1  A    between atoms: C1_2  and  C2_3 
ROOT
ATOM      1  C2  UNL d   1      -0.918   0.958   1.396  0.00  0.00    -0.081 A 
ATOM      2  C3  UNL d   1       0.348   1.449   1.737  0.00  0.00     0.006 A 
ATOM      3  C4  UNL d   1       1.420   1.321   0.851  0.00  0.00     0.002 A 
ATOM      4  C5  UNL d   1       1.243   0.707  -0.394  0.00  0.00    -0.080 A 
ATOM      5  C6  UNL d   1       2.378   0.591  -1.367  0.00  0.00     0.076 C 
ATOM      6  C7  UNL d   1      -0.018   0.202  -0.728  0.00  0.00     0.002 A 
ATOM      7  C8  UNL d   1      -1.090   0.329   0.158  0.00  0.00     0.006 A 
ENDROOT
BRANCH   1   8
ATOM      8  C1  UNL d   1      -2.091   1.152   2.322  0.00  0.00     0.054 C 
ATOM      9  C   UNL d   1      -2.872   2.410   1.970  0.00  0.00     0.018 C 
ENDBRANCH   1   8
TORSDOF 1
ENDMDL
