MODEL 1
REMARK minimizedAffinity 11.5225496
REMARK minimizedRMSD -1
REMARK  1 active torsions:
REMARK  status: ('A' for Active; 'I' for Inactive)
REMARK    1  A    between atoms: C1_2  and  C2_3 
ROOT
ATOM      1  C2  UNL d   1       1.478   1.939  -0.001  0.00  0.00    -0.081 A 
ATOM      2  C3  UNL d   1       2.053   3.020  -0.681  0.00  0.00     0.006 A 
ATOM      3  C4  UNL d   1       1.631   3.351  -1.970  0.00  0.00     0.002 A 
ATOM      4  C5  UNL d   1       0.622   2.612  -2.599  0.00  0.00    -0.080 A 
ATOM      5  C6  UNL d   1       0.139   2.976  -3.971  0.00  0.00     0.076 C 
ATOM      6  C7  UNL d   1       0.060   1.522  -1.927  0.00  0.00     0.002 A 
ATOM      7  C8  UNL d   1       0.482   1.190  -0.637  0.00  0.00     0.006 A 
ENDROOT
BRANCH   1   8
ATOM      8  C1  UNL d   1       1.886   1.620   1.414  0.00  0.00     0.054 C 
ATOM      9  C   UNL d   1       2.853   0.445   1.460  0.00  0.00     0.018 C 
ENDBRANCH   1   8
TORSDOF 1
ENDMDL
