MODEL 1
REMARK minimizedAffinity 1.14484346
REMARK minimizedRMSD -1
REMARK  1 active torsions:
REMARK  status: ('A' for Active; 'I' for Inactive)
REMARK    1  A    between atoms: C1_2  and  C2_3 
ROOT
ATOM      1  C2  UNL d   1      -2.942   2.442   1.715  0.00  0.00    -0.081 A 
ATOM      2  C3  UNL d   1      -1.901   3.034   2.442  0.00  0.00     0.006 A 
ATOM      3  C4  UNL d   1      -1.535   2.529   3.692  0.00  0.00     0.002 A 
ATOM      4  C5  UNL d   1      -2.196   1.421   4.232  0.00  0.00    -0.080 A 
ATOM      5  C6  UNL d   1      -1.791   0.851   5.559  0.00  0.00     0.076 C 
ATOM      6  C7  UNL d   1      -3.246   0.840   3.514  0.00  0.00     0.002 A 
ATOM      7  C8  UNL d   1      -3.614   1.344   2.264  0.00  0.00     0.006 A 
ENDROOT
BRANCH   1   8
ATOM      8  C1  UNL d   1      -3.297   2.943   0.339  0.00  0.00     0.054 C 
ATOM      9  C   UNL d   1      -2.497   2.221  -0.736  0.00  0.00     0.018 C 
ENDBRANCH   1   8
TORSDOF 1
ENDMDL
