MODEL 1
REMARK minimizedAffinity 0.489191204
REMARK minimizedRMSD -1
REMARK  1 active torsions:
REMARK  status: ('A' for Active; 'I' for Inactive)
REMARK    1  A    between atoms: C1_2  and  C2_3 
ROOT
ATOM      1  C2  UNL d   1       0.305  -1.733  -1.317  0.00  0.00    -0.081 A 
ATOM      2  C3  UNL d   1       1.011  -1.866  -0.114  0.00  0.00     0.006 A 
ATOM      3  C4  UNL d   1       1.422  -0.734   0.594  0.00  0.00     0.002 A 
ATOM      4  C5  UNL d   1       1.129   0.548   0.116  0.00  0.00    -0.080 A 
ATOM      5  C6  UNL d   1       1.539   1.770   0.881  0.00  0.00     0.076 C 
ATOM      6  C7  UNL d   1       0.440   0.680  -1.095  0.00  0.00     0.002 A 
ATOM      7  C8  UNL d   1       0.029  -0.451  -1.803  0.00  0.00     0.006 A 
ENDROOT
BRANCH   1   8
ATOM      8  C1  UNL d   1      -0.196  -2.952  -2.050  0.00  0.00     0.054 C 
ATOM      9  C   UNL d   1      -0.795  -3.968  -1.088  0.00  0.00     0.018 C 
ENDBRANCH   1   8
TORSDOF 1
ENDMDL
