MODEL 1
REMARK minimizedAffinity 3.39539075
REMARK minimizedRMSD -1
REMARK  1 active torsions:
REMARK  status: ('A' for Active; 'I' for Inactive)
REMARK    1  A    between atoms: C1_2  and  C2_3 
ROOT
ATOM      1  C2  UNL d   1       0.647  -1.284  -1.624  0.00  0.00    -0.081 A 
ATOM      2  C3  UNL d   1       1.318  -1.396  -0.400  0.00  0.00     0.006 A 
ATOM      3  C4  UNL d   1       1.634  -0.255   0.341  0.00  0.00     0.002 A 
ATOM      4  C5  UNL d   1       1.278   1.015  -0.124  0.00  0.00    -0.080 A 
ATOM      5  C6  UNL d   1       1.585   2.246   0.676  0.00  0.00     0.076 C 
ATOM      6  C7  UNL d   1       0.623   1.129  -1.355  0.00  0.00     0.002 A 
ATOM      7  C8  UNL d   1       0.307  -0.012  -2.097  0.00  0.00     0.006 A 
ENDROOT
BRANCH   1   8
ATOM      8  C1  UNL d   1       0.247  -2.516  -2.394  0.00  0.00     0.054 C 
ATOM      9  C   UNL d   1      -0.651  -3.421  -1.563  0.00  0.00     0.018 C 
ENDBRANCH   1   8
TORSDOF 1
ENDMDL
