MODEL 1
REMARK minimizedAffinity 9.14123821
REMARK minimizedRMSD -1
REMARK  1 active torsions:
REMARK  status: ('A' for Active; 'I' for Inactive)
REMARK    1  A    between atoms: C1_2  and  C2_3 
ROOT
ATOM      1  C2  UNL d   1       1.272   2.481  -1.449  0.00  0.00    -0.081 A 
ATOM      2  C3  UNL d   1       1.534   2.634  -0.082  0.00  0.00     0.006 A 
ATOM      3  C4  UNL d   1       1.543   1.524   0.767  0.00  0.00     0.002 A 
ATOM      4  C5  UNL d   1       1.298   0.243   0.261  0.00  0.00    -0.080 A 
ATOM      5  C6  UNL d   1       1.334  -0.961   1.156  0.00  0.00     0.076 C 
ATOM      6  C7  UNL d   1       1.019   0.092  -1.101  0.00  0.00     0.002 A 
ATOM      7  C8  UNL d   1       1.010   1.201  -1.950  0.00  0.00     0.006 A 
ENDROOT
BRANCH   1   8
ATOM      8  C1  UNL d   1       1.326   3.667  -2.377  0.00  0.00     0.054 C 
ATOM      9  C   UNL d   1       2.259   4.745  -1.844  0.00  0.00     0.018 C 
ENDBRANCH   1   8
TORSDOF 1
ENDMDL
