MODEL 1
REMARK minimizedAffinity -1.32981241
REMARK minimizedRMSD -1
REMARK  1 active torsions:
REMARK  status: ('A' for Active; 'I' for Inactive)
REMARK    1  A    between atoms: C1_2  and  C2_3 
ROOT
ATOM      1  C2  UNL d   1       1.318  -1.389  -0.445  0.00  0.00    -0.081 A 
ATOM      2  C3  UNL d   1       2.265  -0.713   0.334  0.00  0.00     0.006 A 
ATOM      3  C4  UNL d   1       2.448   0.664   0.189  0.00  0.00     0.002 A 
ATOM      4  C5  UNL d   1       1.683   1.389  -0.731  0.00  0.00    -0.080 A 
ATOM      5  C6  UNL d   1       1.848   2.872  -0.875  0.00  0.00     0.076 C 
ATOM      6  C7  UNL d   1       0.749   0.711  -1.522  0.00  0.00     0.002 A 
ATOM      7  C8  UNL d   1       0.566  -0.666  -1.377  0.00  0.00     0.006 A 
ENDROOT
BRANCH   1   8
ATOM      8  C1  UNL d   1       1.072  -2.863  -0.245  0.00  0.00     0.054 C 
ATOM      9  C   UNL d   1      -0.172  -3.323  -0.992  0.00  0.00     0.018 C 
ENDBRANCH   1   8
TORSDOF 1
ENDMDL
