MODEL 1
REMARK minimizedAffinity 3.83346224
REMARK minimizedRMSD -1
REMARK  0 active torsions:
REMARK  status: ('A' for Active; 'I' for Inactive)
ROOT
ATOM      1  C   UNL d   1      -0.008   2.486   0.463  0.00  0.00     0.077 C 
ATOM      2  C1  UNL d   1      -0.031   3.717  -0.394  0.00  0.00    -0.074 A 
ATOM      3  C2  UNL d   1       1.074   4.573  -0.452  0.00  0.00    -0.005 A 
ATOM      4  C3  UNL d   1       1.041   5.709  -1.261  0.00  0.00     0.006 A 
ATOM      5  C4  UNL d   1      -0.093   5.999  -2.020  0.00  0.00    -0.005 A 
ATOM      6  C5  UNL d   1      -1.207   5.154  -1.976  0.00  0.00    -0.074 A 
ATOM      7  C6  UNL d   1      -2.430   5.445  -2.793  0.00  0.00     0.077 C 
ATOM      8  C7  UNL d   1      -1.164   4.011  -1.166  0.00  0.00    -0.001 A 
ENDROOT
TORSDOF 0
ENDMDL
