MODEL 1
REMARK minimizedAffinity 4.62842703
REMARK minimizedRMSD -1
REMARK  0 active torsions:
REMARK  status: ('A' for Active; 'I' for Inactive)
ROOT
ATOM      1  C   UNL d   1      -0.118   2.019   0.523  0.00  0.00     0.077 C 
ATOM      2  C1  UNL d   1      -0.151   3.215  -0.381  0.00  0.00    -0.074 A 
ATOM      3  C2  UNL d   1       0.986   4.009  -0.565  0.00  0.00    -0.005 A 
ATOM      4  C3  UNL d   1       0.942   5.113  -1.416  0.00  0.00     0.006 A 
ATOM      5  C4  UNL d   1      -0.236   5.435  -2.090  0.00  0.00    -0.005 A 
ATOM      6  C5  UNL d   1      -1.383   4.652  -1.919  0.00  0.00    -0.074 A 
ATOM      7  C6  UNL d   1      -2.655   4.978  -2.644  0.00  0.00     0.077 C 
ATOM      8  C7  UNL d   1      -1.329   3.540  -1.068  0.00  0.00    -0.001 A 
ENDROOT
TORSDOF 0
ENDMDL
