MODEL 1
REMARK minimizedAffinity 10.4033709
REMARK minimizedRMSD -1
REMARK  0 active torsions:
REMARK  status: ('A' for Active; 'I' for Inactive)
ROOT
ATOM      1  C   UNL d   1      -0.043   2.235   0.770  0.00  0.00     0.077 C 
ATOM      2  C1  UNL d   1      -0.070   3.232  -0.351  0.00  0.00    -0.074 A 
ATOM      3  C2  UNL d   1       1.089   3.915  -0.733  0.00  0.00    -0.005 A 
ATOM      4  C3  UNL d   1       1.051   4.832  -1.783  0.00  0.00     0.006 A 
ATOM      5  C4  UNL d   1      -0.144   5.074  -2.461  0.00  0.00    -0.005 A 
ATOM      6  C5  UNL d   1      -1.313   4.399  -2.095  0.00  0.00    -0.074 A 
ATOM      7  C6  UNL d   1      -2.604   4.641  -2.820  0.00  0.00     0.077 C 
ATOM      8  C7  UNL d   1      -1.265   3.474  -1.043  0.00  0.00    -0.001 A 
ENDROOT
TORSDOF 0
ENDMDL
