MODEL 1
REMARK minimizedAffinity 14.5470715
REMARK minimizedRMSD -1
REMARK  0 active torsions:
REMARK  status: ('A' for Active; 'I' for Inactive)
ROOT
ATOM      1  C   UNL d   1      -2.633   6.000   0.065  0.00  0.00     0.077 C 
ATOM      2  C1  UNL d   1      -1.387   5.314  -0.411  0.00  0.00    -0.074 A 
ATOM      3  C2  UNL d   1      -0.437   5.999  -1.175  0.00  0.00    -0.005 A 
ATOM      4  C3  UNL d   1       0.722   5.350  -1.603  0.00  0.00     0.006 A 
ATOM      5  C4  UNL d   1       0.941   4.013  -1.273  0.00  0.00    -0.005 A 
ATOM      6  C5  UNL d   1       0.002   3.312  -0.509  0.00  0.00    -0.074 A 
ATOM      7  C6  UNL d   1       0.227   1.876  -0.137  0.00  0.00     0.077 C 
ATOM      8  C7  UNL d   1      -1.156   3.972  -0.077  0.00  0.00    -0.001 A 
ENDROOT
TORSDOF 0
ENDMDL
