MODEL 1
REMARK minimizedAffinity 0.597690642
REMARK minimizedRMSD -1
REMARK  0 active torsions:
REMARK  status: ('A' for Active; 'I' for Inactive)
ROOT
ATOM      1  C   UNL d   1      -4.570  -1.606  -5.999  0.00  0.00     0.077 C 
ATOM      2  C1  UNL d   1      -4.609  -3.106  -5.986  0.00  0.00    -0.074 A 
ATOM      3  C2  UNL d   1      -5.827  -3.793  -5.997  0.00  0.00    -0.005 A 
ATOM      4  C3  UNL d   1      -5.848  -5.187  -5.995  0.00  0.00     0.006 A 
ATOM      5  C4  UNL d   1      -4.653  -5.908  -5.981  0.00  0.00    -0.005 A 
ATOM      6  C5  UNL d   1      -3.426  -5.238  -5.970  0.00  0.00    -0.074 A 
ATOM      7  C6  UNL d   1      -2.132  -5.997  -5.965  0.00  0.00     0.077 C 
ATOM      8  C7  UNL d   1      -3.413  -3.837  -5.980  0.00  0.00    -0.001 A 
ENDROOT
TORSDOF 0
ENDMDL
