MODEL 1
REMARK minimizedAffinity 5.18344879
REMARK minimizedRMSD -1
REMARK  0 active torsions:
REMARK  status: ('A' for Active; 'I' for Inactive)
ROOT
ATOM      1  C   UNL d   1       0.296   3.796  -1.117  0.00  0.00     0.077 C 
ATOM      2  C1  UNL d   1      -0.081   2.874   0.005  0.00  0.00    -0.074 A 
ATOM      3  C2  UNL d   1       0.494   3.011   1.272  0.00  0.00    -0.005 A 
ATOM      4  C3  UNL d   1       0.127   2.152   2.308  0.00  0.00     0.006 A 
ATOM      5  C4  UNL d   1      -0.818   1.149   2.087  0.00  0.00    -0.005 A 
ATOM      6  C5  UNL d   1      -1.404   0.997   0.826  0.00  0.00    -0.074 A 
ATOM      7  C6  UNL d   1      -2.428  -0.070   0.575  0.00  0.00     0.077 C 
ATOM      8  C7  UNL d   1      -1.035   1.869  -0.207  0.00  0.00    -0.001 A 
ENDROOT
TORSDOF 0
ENDMDL
