MODEL 1
REMARK minimizedAffinity 7.45617676
REMARK minimizedRMSD -1
REMARK  0 active torsions:
REMARK  status: ('A' for Active; 'I' for Inactive)
ROOT
ATOM      1  C   UNL d   1      -2.200   5.999   1.460  0.00  0.00     0.077 C 
ATOM      2  C1  UNL d   1      -1.346   4.935   0.837  0.00  0.00    -0.074 A 
ATOM      3  C2  UNL d   1      -1.361   3.624   1.325  0.00  0.00    -0.005 A 
ATOM      4  C3  UNL d   1      -0.568   2.643   0.730  0.00  0.00     0.006 A 
ATOM      5  C4  UNL d   1       0.245   2.961  -0.358  0.00  0.00    -0.005 A 
ATOM      6  C5  UNL d   1       0.272   4.266  -0.861  0.00  0.00    -0.074 A 
ATOM      7  C6  UNL d   1       1.134   4.623  -2.035  0.00  0.00     0.077 C 
ATOM      8  C7  UNL d   1      -0.532   5.245  -0.261  0.00  0.00    -0.001 A 
ENDROOT
TORSDOF 0
ENDMDL
