MODEL 1
REMARK minimizedAffinity 2.97304893
REMARK minimizedRMSD -1
REMARK  0 active torsions:
REMARK  status: ('A' for Active; 'I' for Inactive)
ROOT
ATOM      1  C   UNL d   1       0.377   2.149   0.432  0.00  0.00     0.077 C 
ATOM      2  C1  UNL d   1      -0.139   3.494   0.014  0.00  0.00    -0.074 A 
ATOM      3  C2  UNL d   1       0.377   4.144  -1.112  0.00  0.00    -0.005 A 
ATOM      4  C3  UNL d   1      -0.119   5.390  -1.494  0.00  0.00     0.006 A 
ATOM      5  C4  UNL d   1      -1.134   5.999  -0.755  0.00  0.00    -0.005 A 
ATOM      6  C5  UNL d   1      -1.662   5.364   0.374  0.00  0.00    -0.074 A 
ATOM      7  C6  UNL d   1      -2.760   6.000   1.174  0.00  0.00     0.077 C 
ATOM      8  C7  UNL d   1      -1.164   4.109   0.747  0.00  0.00    -0.001 A 
ENDROOT
TORSDOF 0
ENDMDL
