MODEL 1
REMARK minimizedAffinity 7.68990088
REMARK minimizedRMSD -1
REMARK  0 active torsions:
REMARK  status: ('A' for Active; 'I' for Inactive)
ROOT
ATOM      1  C   UNL d   1       1.781  -6.000  -1.840  0.00  0.00     0.077 C 
ATOM      2  C1  UNL d   1       3.251  -5.725  -1.955  0.00  0.00    -0.074 A 
ATOM      3  C2  UNL d   1       4.007  -5.379  -0.830  0.00  0.00    -0.005 A 
ATOM      4  C3  UNL d   1       5.375  -5.135  -0.950  0.00  0.00     0.006 A 
ATOM      5  C4  UNL d   1       6.000  -5.234  -2.194  0.00  0.00    -0.005 A 
ATOM      6  C5  UNL d   1       5.260  -5.580  -3.330  0.00  0.00    -0.074 A 
ATOM      7  C6  UNL d   1       5.918  -5.700  -4.672  0.00  0.00     0.077 C 
ATOM      8  C7  UNL d   1       3.887  -5.830  -3.199  0.00  0.00    -0.001 A 
ENDROOT
TORSDOF 0
ENDMDL
