MODEL 1
REMARK minimizedAffinity 7.75184011
REMARK minimizedRMSD -1
REMARK  0 active torsions:
REMARK  status: ('A' for Active; 'I' for Inactive)
ROOT
ATOM      1  C   UNL d   1      -4.852  -5.999  -5.994  0.00  0.00     0.077 C 
ATOM      2  C1  UNL d   1      -3.897  -4.902  -5.629  0.00  0.00    -0.074 A 
ATOM      3  C2  UNL d   1      -4.148  -3.577  -5.999  0.00  0.00    -0.005 A 
ATOM      4  C3  UNL d   1      -3.255  -2.566  -5.644  0.00  0.00     0.006 A 
ATOM      5  C4  UNL d   1      -2.104  -2.869  -4.917  0.00  0.00    -0.005 A 
ATOM      6  C5  UNL d   1      -1.836  -4.188  -4.537  0.00  0.00    -0.074 A 
ATOM      7  C6  UNL d   1      -0.608  -4.530  -3.747  0.00  0.00     0.077 C 
ATOM      8  C7  UNL d   1      -2.742  -5.197  -4.892  0.00  0.00    -0.001 A 
ENDROOT
TORSDOF 0
ENDMDL
