MODEL 1
REMARK minimizedAffinity -4.37088871
REMARK minimizedRMSD -1
REMARK  3 active torsions:
REMARK  status: ('A' for Active; 'I' for Inactive)
REMARK    1  A    between atoms: C3'_2  and  C2'_3 
REMARK    2  A    between atoms: C2'_3  and  C1'_4 
REMARK    3  A    between atoms: C1'_4  and  C1_5 
ROOT
ATOM      1  C1  N4B d   1       0.026  -0.231  -0.141  0.00  0.00    -0.075 A 
ATOM      2  C2  N4B d   1       0.448   1.116  -0.115  0.00  0.00     0.002 A 
ATOM      3  C3  N4B d   1       1.194   1.623  -1.151  0.00  0.00     0.002 A 
ATOM      4  C4  N4B d   1       1.544   0.799  -2.210  0.00  0.00    -0.004 A 
ATOM      5  C5  N4B d   1       1.110  -0.494  -2.241  0.00  0.00     0.002 A 
ATOM      6  C6  N4B d   1       0.356  -1.015  -1.208  0.00  0.00     0.002 A 
ENDROOT
BRANCH   1   7
ATOM      7  C1' N4B d   1      -0.718  -0.853   1.009  0.00  0.00     0.057 C 
BRANCH   7   8
ATOM      8  C2' N4B d   1      -1.545   0.221   1.710  0.00  0.00     0.009 C 
BRANCH   8   9
ATOM      9  C3' N4B d   1      -3.031   0.065   1.433  0.00  0.00     0.004 C 
ATOM     10  C4' N4B d   1      -3.720   1.378   1.204  0.00  0.00     0.003 C 
ENDBRANCH   8   9
ENDBRANCH   7   8
ENDBRANCH   1   7
TORSDOF 3
ENDMDL
