MODEL 1
REMARK minimizedAffinity -3.71647978
REMARK minimizedRMSD -1
REMARK  3 active torsions:
REMARK  status: ('A' for Active; 'I' for Inactive)
REMARK    1  A    between atoms: C3'_2  and  C2'_3 
REMARK    2  A    between atoms: C2'_3  and  C1'_4 
REMARK    3  A    between atoms: C1'_4  and  C1_5 
ROOT
ATOM      1  C1  N4B d   1       0.752   0.089  -1.574  0.00  0.00    -0.075 A 
ATOM      2  C2  N4B d   1       0.116  -1.097  -1.145  0.00  0.00     0.002 A 
ATOM      3  C3  N4B d   1      -0.466  -1.152   0.098  0.00  0.00     0.002 A 
ATOM      4  C4  N4B d   1      -0.407  -0.047   0.933  0.00  0.00    -0.004 A 
ATOM      5  C5  N4B d   1       0.188   1.103   0.501  0.00  0.00     0.002 A 
ATOM      6  C6  N4B d   1       0.773   1.174  -0.747  0.00  0.00     0.002 A 
ENDROOT
BRANCH   1   7
ATOM      7  C1' N4B d   1       1.477   0.169  -2.890  0.00  0.00     0.057 C 
BRANCH   7   8
ATOM      8  C2' N4B d   1       2.307  -1.096  -3.083  0.00  0.00     0.009 C 
BRANCH   8   9
ATOM      9  C3' N4B d   1       3.238  -1.350  -1.911  0.00  0.00     0.004 C 
ATOM     10  C4' N4B d   1       3.072  -2.719  -1.322  0.00  0.00     0.003 C 
ENDBRANCH   8   9
ENDBRANCH   7   8
ENDBRANCH   1   7
TORSDOF 3
ENDMDL
