MODEL 1
REMARK minimizedAffinity -4.36657
REMARK minimizedRMSD -1
REMARK  3 active torsions:
REMARK  status: ('A' for Active; 'I' for Inactive)
REMARK    1  A    between atoms: C3'_2  and  C2'_3 
REMARK    2  A    between atoms: C2'_3  and  C1'_4 
REMARK    3  A    between atoms: C1'_4  and  C1_5 
ROOT
ATOM      1  C1  N4B d   1       0.668   0.373  -0.556  0.00  0.00    -0.075 A 
ATOM      2  C2  N4B d   1       1.747   1.113  -1.088  0.00  0.00     0.002 A 
ATOM      3  C3  N4B d   1       2.508   0.585  -2.101  0.00  0.00     0.002 A 
ATOM      4  C4  N4B d   1       2.223  -0.684  -2.584  0.00  0.00    -0.004 A 
ATOM      5  C5  N4B d   1       1.163  -1.381  -2.083  0.00  0.00     0.002 A 
ATOM      6  C6  N4B d   1       0.386  -0.861  -1.067  0.00  0.00     0.002 A 
ENDROOT
BRANCH   1   7
ATOM      7  C1' N4B d   1      -0.140   0.873   0.610  0.00  0.00     0.057 C 
BRANCH   7   8
ATOM      8  C2' N4B d   1      -0.865  -0.303   1.258  0.00  0.00     0.009 C 
BRANCH   8   9
ATOM      9  C3' N4B d   1      -2.027   0.153   2.124  0.00  0.00     0.004 C 
ATOM     10  C4' N4B d   1      -3.331  -0.465   1.719  0.00  0.00     0.003 C 
ENDBRANCH   8   9
ENDBRANCH   7   8
ENDBRANCH   1   7
TORSDOF 3
ENDMDL
