MODEL 1
REMARK minimizedAffinity 3.72457576
REMARK minimizedRMSD -1
REMARK  3 active torsions:
REMARK  status: ('A' for Active; 'I' for Inactive)
REMARK    1  A    between atoms: C3'_2  and  C2'_3 
REMARK    2  A    between atoms: C2'_3  and  C1'_4 
REMARK    3  A    between atoms: C1'_4  and  C1_5 
ROOT
ATOM      1  C1  N4B d   1      -0.024   0.049   3.650  0.00  0.00    -0.075 A 
ATOM      2  C2  N4B d   1      -1.390   0.407   3.609  0.00  0.00     0.002 A 
ATOM      3  C3  N4B d   1      -2.043   0.756   4.765  0.00  0.00     0.002 A 
ATOM      4  C4  N4B d   1      -1.360   0.735   5.972  0.00  0.00    -0.004 A 
ATOM      5  C5  N4B d   1      -0.035   0.412   6.000  0.00  0.00     0.002 A 
ATOM      6  C6  N4B d   1       0.636   0.064   4.845  0.00  0.00     0.002 A 
ENDROOT
BRANCH   1   7
ATOM      7  C1' N4B d   1       0.711  -0.422   2.425  0.00  0.00     0.057 C 
BRANCH   7   8
ATOM      8  C2' N4B d   1       0.023  -1.669   1.877  0.00  0.00     0.009 C 
BRANCH   8   9
ATOM      9  C3' N4B d   1       0.397  -1.934   0.428  0.00  0.00     0.004 C 
ATOM     10  C4' N4B d   1       0.424  -3.395   0.094  0.00  0.00     0.003 C 
ENDBRANCH   8   9
ENDBRANCH   7   8
ENDBRANCH   1   7
TORSDOF 3
ENDMDL
