MODEL 1
REMARK minimizedAffinity -3.36786509
REMARK minimizedRMSD -1
REMARK  3 active torsions:
REMARK  status: ('A' for Active; 'I' for Inactive)
REMARK    1  A    between atoms: C3'_2  and  C2'_3 
REMARK    2  A    between atoms: C2'_3  and  C1'_4 
REMARK    3  A    between atoms: C1'_4  and  C1_5 
ROOT
ATOM      1  C1  N4B d   1       0.444   0.387  -0.142  0.00  0.00    -0.075 A 
ATOM      2  C2  N4B d   1       1.582   1.121  -0.543  0.00  0.00     0.002 A 
ATOM      3  C3  N4B d   1       2.289   0.737  -1.655  0.00  0.00     0.002 A 
ATOM      4  C4  N4B d   1       1.891  -0.384  -2.368  0.00  0.00    -0.004 A 
ATOM      5  C5  N4B d   1       0.776  -1.073  -1.989  0.00  0.00     0.002 A 
ATOM      6  C6  N4B d   1       0.053  -0.695  -0.875  0.00  0.00     0.002 A 
ENDROOT
BRANCH   1   7
ATOM      7  C1' N4B d   1      -0.312   0.718   1.116  0.00  0.00     0.057 C 
BRANCH   7   8
ATOM      8  C2' N4B d   1      -1.665   0.013   1.088  0.00  0.00     0.009 C 
BRANCH   8   9
ATOM      9  C3' N4B d   1      -2.710   0.757   1.901  0.00  0.00     0.004 C 
ATOM     10  C4' N4B d   1      -4.105   0.274   1.635  0.00  0.00     0.003 C 
ENDBRANCH   8   9
ENDBRANCH   7   8
ENDBRANCH   1   7
TORSDOF 3
ENDMDL
