MODEL 1
REMARK minimizedAffinity -1.24989367
REMARK minimizedRMSD -1
REMARK  3 active torsions:
REMARK  status: ('A' for Active; 'I' for Inactive)
REMARK    1  A    between atoms: C3'_2  and  C2'_3 
REMARK    2  A    between atoms: C2'_3  and  C1'_4 
REMARK    3  A    between atoms: C1'_4  and  C1_5 
ROOT
ATOM      1  C1  N4B d   1      -1.601   0.077   1.090  0.00  0.00    -0.075 A 
ATOM      2  C2  N4B d   1      -1.825   0.546   2.403  0.00  0.00     0.002 A 
ATOM      3  C3  N4B d   1      -3.094   0.884   2.805  0.00  0.00     0.002 A 
ATOM      4  C4  N4B d   1      -4.147   0.780   1.909  0.00  0.00    -0.004 A 
ATOM      5  C5  N4B d   1      -3.927   0.303   0.650  0.00  0.00     0.002 A 
ATOM      6  C6  N4B d   1      -2.658  -0.045   0.234  0.00  0.00     0.002 A 
ENDROOT
BRANCH   1   7
ATOM      7  C1' N4B d   1      -0.219  -0.224   0.578  0.00  0.00     0.057 C 
BRANCH   7   8
ATOM      8  C2' N4B d   1       0.097   0.709  -0.588  0.00  0.00     0.009 C 
BRANCH   8   9
ATOM      9  C3' N4B d   1       1.560   1.116  -0.609  0.00  0.00     0.004 C 
ATOM     10  C4' N4B d   1       2.286   0.612  -1.821  0.00  0.00     0.003 C 
ENDBRANCH   8   9
ENDBRANCH   7   8
ENDBRANCH   1   7
TORSDOF 3
ENDMDL
