MODEL 1
REMARK minimizedAffinity -3.10452294
REMARK minimizedRMSD -1
REMARK  1 active torsions:
REMARK  status: ('A' for Active; 'I' for Inactive)
REMARK    1  A    between atoms: C1_2  and  C2_3 
ROOT
ATOM      1  C2  UNL d   1       0.373   0.282  -1.151  0.00  0.00    -0.081 A 
ATOM      2  C3  UNL d   1       1.348   0.823  -0.303  0.00  0.00     0.006 A 
ATOM      3  C4  UNL d   1       1.229   0.697   1.083  0.00  0.00     0.002 A 
ATOM      4  C5  UNL d   1       0.139   0.022   1.644  0.00  0.00    -0.080 A 
ATOM      5  C6  UNL d   1       0.015  -0.147   3.129  0.00  0.00     0.076 C 
ATOM      6  C7  UNL d   1      -0.843  -0.503   0.798  0.00  0.00     0.002 A 
ATOM      7  C8  UNL d   1      -0.725  -0.377  -0.588  0.00  0.00     0.006 A 
ENDROOT
BRANCH   1   8
ATOM      8  C1  UNL d   1       0.532   0.360  -2.648  0.00  0.00     0.054 C 
ATOM      9  C   UNL d   1       0.460  -1.021  -3.284  0.00  0.00     0.018 C 
ENDBRANCH   1   8
TORSDOF 1
ENDMDL
