MODEL 1
REMARK minimizedAffinity -4.47277021
REMARK minimizedRMSD -1
REMARK  1 active torsions:
REMARK  status: ('A' for Active; 'I' for Inactive)
REMARK    1  A    between atoms: C1_2  and  C2_3 
ROOT
ATOM      1  C2  UNL d   1       0.342   0.245  -0.898  0.00  0.00    -0.081 A 
ATOM      2  C3  UNL d   1       1.316   0.421   0.092  0.00  0.00     0.006 A 
ATOM      3  C4  UNL d   1       1.016   0.173   1.433  0.00  0.00     0.002 A 
ATOM      4  C5  UNL d   1      -0.260  -0.263   1.806  0.00  0.00    -0.080 A 
ATOM      5  C6  UNL d   1      -0.587  -0.563   3.239  0.00  0.00     0.076 C 
ATOM      6  C7  UNL d   1      -1.239  -0.422   0.819  0.00  0.00     0.002 A 
ATOM      7  C8  UNL d   1      -0.939  -0.173  -0.522  0.00  0.00     0.006 A 
ENDROOT
BRANCH   1   8
ATOM      8  C1  UNL d   1       0.681   0.450  -2.352  0.00  0.00     0.054 C 
ATOM      9  C   UNL d   1       1.107  -0.855  -3.010  0.00  0.00     0.018 C 
ENDBRANCH   1   8
TORSDOF 1
ENDMDL
