MODEL 1
REMARK minimizedAffinity -2.39547515
REMARK minimizedRMSD -1
REMARK  1 active torsions:
REMARK  status: ('A' for Active; 'I' for Inactive)
REMARK    1  A    between atoms: C1_2  and  C2_3 
ROOT
ATOM      1  C2  UNL d   1       0.135   0.052  -0.830  0.00  0.00    -0.081 A 
ATOM      2  C3  UNL d   1       0.901   0.565   0.224  0.00  0.00     0.006 A 
ATOM      3  C4  UNL d   1       0.477   0.413   1.546  0.00  0.00     0.002 A 
ATOM      4  C5  UNL d   1      -0.714  -0.259   1.837  0.00  0.00    -0.080 A 
ATOM      5  C6  UNL d   1      -1.165  -0.455   3.254  0.00  0.00     0.076 C 
ATOM      6  C7  UNL d   1      -1.488  -0.756   0.783  0.00  0.00     0.002 A 
ATOM      7  C8  UNL d   1      -1.066  -0.604  -0.539  0.00  0.00     0.006 A 
ENDROOT
BRANCH   1   8
ATOM      8  C1  UNL d   1       0.622   0.157  -2.253  0.00  0.00     0.054 C 
ATOM      9  C   UNL d   1       0.973  -1.211  -2.820  0.00  0.00     0.018 C 
ENDBRANCH   1   8
TORSDOF 1
ENDMDL
