MODEL 1
REMARK minimizedAffinity -4.77358913
REMARK minimizedRMSD -1
REMARK  1 active torsions:
REMARK  status: ('A' for Active; 'I' for Inactive)
REMARK    1  A    between atoms: C1_2  and  C2_3 
ROOT
ATOM      1  C2  UNL d   1       0.283   0.197  -1.063  0.00  0.00    -0.081 A 
ATOM      2  C3  UNL d   1       1.302   0.357  -0.116  0.00  0.00     0.006 A 
ATOM      3  C4  UNL d   1       1.035   0.191   1.245  0.00  0.00     0.002 A 
ATOM      4  C5  UNL d   1      -0.251  -0.145   1.681  0.00  0.00    -0.080 A 
ATOM      5  C6  UNL d   1      -0.544  -0.355   3.137  0.00  0.00     0.076 C 
ATOM      6  C7  UNL d   1      -1.273  -0.287   0.736  0.00  0.00     0.002 A 
ATOM      7  C8  UNL d   1      -1.007  -0.121  -0.625  0.00  0.00     0.006 A 
ENDROOT
BRANCH   1   8
ATOM      8  C1  UNL d   1       0.582   0.312  -2.536  0.00  0.00     0.054 C 
ATOM      9  C   UNL d   1       0.547  -1.050  -3.215  0.00  0.00     0.018 C 
ENDBRANCH   1   8
TORSDOF 1
ENDMDL
