MODEL 1
REMARK minimizedAffinity -4.60165548
REMARK minimizedRMSD -1
REMARK  1 active torsions:
REMARK  status: ('A' for Active; 'I' for Inactive)
REMARK    1  A    between atoms: C1_2  and  C2_3 
ROOT
ATOM      1  C2  UNL d   1       0.222  -0.136  -0.786  0.00  0.00    -0.081 A 
ATOM      2  C3  UNL d   1       1.187   0.105   0.200  0.00  0.00     0.006 A 
ATOM      3  C4  UNL d   1       0.888  -0.101   1.549  0.00  0.00     0.002 A 
ATOM      4  C5  UNL d   1      -0.376  -0.560   1.934  0.00  0.00    -0.080 A 
ATOM      5  C6  UNL d   1      -0.700  -0.815   3.376  0.00  0.00     0.076 C 
ATOM      6  C7  UNL d   1      -1.346  -0.785   0.950  0.00  0.00     0.002 A 
ATOM      7  C8  UNL d   1      -1.048  -0.578  -0.398  0.00  0.00     0.006 A 
ENDROOT
BRANCH   1   8
ATOM      8  C1  UNL d   1       0.562   0.024  -2.246  0.00  0.00     0.054 C 
ATOM      9  C   UNL d   1       0.886  -1.317  -2.889  0.00  0.00     0.018 C 
ENDBRANCH   1   8
TORSDOF 1
ENDMDL
