MODEL 1
REMARK minimizedAffinity -5.06194448
REMARK minimizedRMSD -1
REMARK  1 active torsions:
REMARK  status: ('A' for Active; 'I' for Inactive)
REMARK    1  A    between atoms: C1_2  and  C2_3 
ROOT
ATOM      1  C2  UNL d   1       0.112   0.038  -0.188  0.00  0.00    -0.081 A 
ATOM      2  C3  UNL d   1       0.882   0.270   0.958  0.00  0.00     0.006 A 
ATOM      3  C4  UNL d   1       0.432  -0.155   2.211  0.00  0.00     0.002 A 
ATOM      4  C5  UNL d   1      -0.789  -0.825   2.337  0.00  0.00    -0.080 A 
ATOM      5  C6  UNL d   1      -1.269  -1.313   3.672  0.00  0.00     0.076 C 
ATOM      6  C7  UNL d   1      -1.567  -1.041   1.194  0.00  0.00     0.002 A 
ATOM      7  C8  UNL d   1      -1.118  -0.616  -0.058  0.00  0.00     0.006 A 
ENDROOT
BRANCH   1   8
ATOM      8  C1  UNL d   1       0.623   0.437  -1.549  0.00  0.00     0.054 C 
ATOM      9  C   UNL d   1       1.070  -0.778  -2.350  0.00  0.00     0.018 C 
ENDBRANCH   1   8
TORSDOF 1
ENDMDL
