MODEL 1
REMARK minimizedAffinity -2.03638816
REMARK minimizedRMSD -1
REMARK  1 active torsions:
REMARK  status: ('A' for Active; 'I' for Inactive)
REMARK    1  A    between atoms: C1_2  and  C2_3 
ROOT
ATOM      1  C2  UNL d   1       0.458  -0.038  -0.213  0.00  0.00    -0.081 A 
ATOM      2  C3  UNL d   1       1.009   0.644   0.879  0.00  0.00     0.006 A 
ATOM      3  C4  UNL d   1       0.529   0.416   2.171  0.00  0.00     0.002 A 
ATOM      4  C5  UNL d   1      -0.503  -0.502   2.393  0.00  0.00    -0.080 A 
ATOM      5  C6  UNL d   1      -1.007  -0.778   3.779  0.00  0.00     0.076 C 
ATOM      6  C7  UNL d   1      -1.065  -1.170   1.300  0.00  0.00     0.002 A 
ATOM      7  C8  UNL d   1      -0.586  -0.943   0.008  0.00  0.00     0.006 A 
ENDROOT
BRANCH   1   8
ATOM      8  C1  UNL d   1       1.017   0.157  -1.600  0.00  0.00     0.054 C 
ATOM      9  C   UNL d   1       1.282  -1.177  -2.283  0.00  0.00     0.018 C 
ENDBRANCH   1   8
TORSDOF 1
ENDMDL
