MODEL 1
REMARK minimizedAffinity -3.57624292
REMARK minimizedRMSD -1
REMARK  1 active torsions:
REMARK  status: ('A' for Active; 'I' for Inactive)
REMARK    1  A    between atoms: C1_2  and  C2_3 
ROOT
ATOM      1  C2  UNL d   1      -0.033   0.150  -1.013  0.00  0.00    -0.081 A 
ATOM      2  C3  UNL d   1      -1.140  -0.329  -0.302  0.00  0.00     0.006 A 
ATOM      3  C4  UNL d   1      -1.148  -0.311   1.095  0.00  0.00     0.002 A 
ATOM      4  C5  UNL d   1      -0.053   0.195   1.804  0.00  0.00    -0.080 A 
ATOM      5  C6  UNL d   1      -0.061   0.249   3.302  0.00  0.00     0.076 C 
ATOM      6  C7  UNL d   1       1.060   0.658   1.094  0.00  0.00     0.002 A 
ATOM      7  C8  UNL d   1       1.069   0.639  -0.302  0.00  0.00     0.006 A 
ENDROOT
BRANCH   1   8
ATOM      8  C1  UNL d   1      -0.048   0.191  -2.519  0.00  0.00     0.054 C 
ATOM      9  C   UNL d   1       1.354   0.038  -3.091  0.00  0.00     0.018 C 
ENDBRANCH   1   8
TORSDOF 1
ENDMDL
