MODEL 1
REMARK minimizedAffinity -6.68926477
REMARK minimizedRMSD -1
REMARK  1 active torsions:
REMARK  status: ('A' for Active; 'I' for Inactive)
REMARK    1  A    between atoms: C1_2  and  C2_3 
ROOT
ATOM      1  C2  UNL d   1       0.451   0.172  -0.830  0.00  0.00    -0.081 A 
ATOM      2  C3  UNL d   1       1.410  -0.010   0.174  0.00  0.00     0.006 A 
ATOM      3  C4  UNL d   1       1.019  -0.297   1.484  0.00  0.00     0.002 A 
ATOM      4  C5  UNL d   1      -0.337  -0.415   1.810  0.00  0.00    -0.080 A 
ATOM      5  C6  UNL d   1      -0.769  -0.753   3.206  0.00  0.00     0.076 C 
ATOM      6  C7  UNL d   1      -1.295  -0.215   0.811  0.00  0.00     0.002 A 
ATOM      7  C8  UNL d   1      -0.905   0.073  -0.499  0.00  0.00     0.006 A 
ENDROOT
BRANCH   1   8
ATOM      8  C1  UNL d   1       0.872   0.418  -2.256  0.00  0.00     0.054 C 
ATOM      9  C   UNL d   1       0.862  -0.870  -3.066  0.00  0.00     0.018 C 
ENDBRANCH   1   8
TORSDOF 1
ENDMDL
