MODEL 1
REMARK minimizedAffinity -5.00336123
REMARK minimizedRMSD -1
REMARK  1 active torsions:
REMARK  status: ('A' for Active; 'I' for Inactive)
REMARK    1  A    between atoms: C1_2  and  C2_3 
ROOT
ATOM      1  C2  UNL d   1       0.314  -0.479  -0.375  0.00  0.00    -0.081 A 
ATOM      2  C3  UNL d   1       1.061  -0.462   0.809  0.00  0.00     0.006 A 
ATOM      3  C4  UNL d   1       0.426  -0.304   2.044  0.00  0.00     0.002 A 
ATOM      4  C5  UNL d   1      -0.964  -0.169   2.115  0.00  0.00    -0.080 A 
ATOM      5  C6  UNL d   1      -1.661  -0.030   3.436  0.00  0.00     0.076 C 
ATOM      6  C7  UNL d   1      -1.709  -0.169   0.930  0.00  0.00     0.002 A 
ATOM      7  C8  UNL d   1      -1.075  -0.326  -0.304  0.00  0.00     0.006 A 
ENDROOT
BRANCH   1   8
ATOM      8  C1  UNL d   1       0.989  -0.714  -1.703  0.00  0.00     0.054 C 
ATOM      9  C   UNL d   1       0.160  -0.156  -2.851  0.00  0.00     0.018 C 
ENDBRANCH   1   8
TORSDOF 1
ENDMDL
