MODEL 1
REMARK minimizedAffinity -4.05981255
REMARK minimizedRMSD -1
REMARK  1 active torsions:
REMARK  status: ('A' for Active; 'I' for Inactive)
REMARK    1  A    between atoms: C1_2  and  C2_3 
ROOT
ATOM      1  C2  UNL d   1       0.359   0.278  -1.072  0.00  0.00    -0.081 A 
ATOM      2  C3  UNL d   1      -0.950   0.078  -0.618  0.00  0.00     0.006 A 
ATOM      3  C4  UNL d   1      -1.205  -0.127   0.740  0.00  0.00     0.002 A 
ATOM      4  C5  UNL d   1      -0.156  -0.126   1.667  0.00  0.00    -0.080 A 
ATOM      5  C6  UNL d   1      -0.419  -0.314   3.132  0.00  0.00     0.076 C 
ATOM      6  C7  UNL d   1       1.153   0.056   1.211  0.00  0.00     0.002 A 
ATOM      7  C8  UNL d   1       1.409   0.259  -0.147  0.00  0.00     0.006 A 
ENDROOT
BRANCH   1   8
ATOM      8  C1  UNL d   1       0.630   0.562  -2.528  0.00  0.00     0.054 C 
ATOM      9  C   UNL d   1       0.784  -0.725  -3.324  0.00  0.00     0.018 C 
ENDBRANCH   1   8
TORSDOF 1
ENDMDL
