MODEL 1
REMARK minimizedAffinity -5.35242891
REMARK minimizedRMSD -1
REMARK  1 active torsions:
REMARK  status: ('A' for Active; 'I' for Inactive)
REMARK    1  A    between atoms: C1_2  and  C2_3 
ROOT
ATOM      1  C2  UNL d   1      -0.562   2.321   0.774  0.00  0.00    -0.073 A 
ATOM      2  C3  UNL d   1       0.169   2.205   1.962  0.00  0.00    -0.002 A 
ATOM      3  C4  UNL d   1       0.946   1.071   2.204  0.00  0.00     0.004 A 
ATOM      4  C5  UNL d   1       1.006   0.047   1.260  0.00  0.00    -0.004 A 
ATOM      5  C6  UNL d   1       0.291   0.149   0.061  0.00  0.00    -0.075 A 
ATOM      6  C7  UNL d   1       0.343  -0.945  -0.964  0.00  0.00     0.076 C 
ATOM      7  C8  UNL d   1      -0.489   1.289  -0.173  0.00  0.00     0.001 A 
ENDROOT
BRANCH   1   8
ATOM      8  C1  UNL d   1      -1.398   3.546   0.506  0.00  0.00     0.053 C 
ATOM      9  C   UNL d   1      -0.836   4.381  -0.633  0.00  0.00     0.018 C 
ENDBRANCH   1   8
TORSDOF 1
ENDMDL
