MODEL 1
REMARK minimizedAffinity -0.421796858
REMARK minimizedRMSD -1
REMARK  1 active torsions:
REMARK  status: ('A' for Active; 'I' for Inactive)
REMARK    1  A    between atoms: C1_2  and  C2_3 
ROOT
ATOM      1  C2  UNL d   1       0.041   0.602  -0.196  0.00  0.00    -0.073 A 
ATOM      2  C3  UNL d   1      -0.488   1.778   0.347  0.00  0.00    -0.002 A 
ATOM      3  C4  UNL d   1      -0.243   2.112   1.680  0.00  0.00     0.004 A 
ATOM      4  C5  UNL d   1       0.538   1.278   2.480  0.00  0.00    -0.004 A 
ATOM      5  C6  UNL d   1       1.086   0.105   1.952  0.00  0.00    -0.075 A 
ATOM      6  C7  UNL d   1       1.927  -0.804   2.800  0.00  0.00     0.076 C 
ATOM      7  C8  UNL d   1       0.833  -0.225   0.614  0.00  0.00     0.001 A 
ENDROOT
BRANCH   1   8
ATOM      8  C1  UNL d   1      -0.216   0.241  -1.636  0.00  0.00     0.053 C 
ATOM      9  C   UNL d   1      -1.113  -0.980  -1.766  0.00  0.00     0.018 C 
ENDBRANCH   1   8
TORSDOF 1
ENDMDL
