MODEL 1
REMARK minimizedAffinity -0.401762217
REMARK minimizedRMSD -1
REMARK  1 active torsions:
REMARK  status: ('A' for Active; 'I' for Inactive)
REMARK    1  A    between atoms: C1_2  and  C2_3 
ROOT
ATOM      1  C2  UNL d   1       0.357  -0.987  -0.459  0.00  0.00    -0.073 A 
ATOM      2  C3  UNL d   1       0.131  -0.439  -1.726  0.00  0.00    -0.002 A 
ATOM      3  C4  UNL d   1      -0.159   0.919  -1.865  0.00  0.00     0.004 A 
ATOM      4  C5  UNL d   1      -0.219   1.743  -0.741  0.00  0.00    -0.004 A 
ATOM      5  C6  UNL d   1       0.016   1.216   0.533  0.00  0.00    -0.075 A 
ATOM      6  C7  UNL d   1      -0.046   2.088   1.752  0.00  0.00     0.076 C 
ATOM      7  C8  UNL d   1       0.304  -0.149   0.664  0.00  0.00     0.001 A 
ENDROOT
BRANCH   1   8
ATOM      8  C1  UNL d   1       0.677  -2.452  -0.304  0.00  0.00     0.053 C 
ATOM      9  C   UNL d   1      -0.044  -3.305  -1.336  0.00  0.00     0.018 C 
ENDBRANCH   1   8
TORSDOF 1
ENDMDL
