MODEL 1
REMARK minimizedAffinity -3.22632337
REMARK minimizedRMSD -1
REMARK  1 active torsions:
REMARK  status: ('A' for Active; 'I' for Inactive)
REMARK    1  A    between atoms: C1_2  and  C2_3 
ROOT
ATOM      1  C2  UNL d   1      -0.155   2.297   0.316  0.00  0.00    -0.073 A 
ATOM      2  C3  UNL d   1       0.019   2.129   1.694  0.00  0.00    -0.002 A 
ATOM      3  C4  UNL d   1       0.193   0.853   2.232  0.00  0.00     0.004 A 
ATOM      4  C5  UNL d   1       0.201  -0.265   1.398  0.00  0.00    -0.004 A 
ATOM      5  C6  UNL d   1       0.040  -0.117   0.017  0.00  0.00    -0.075 A 
ATOM      6  C7  UNL d   1       0.044  -1.309  -0.894  0.00  0.00     0.076 C 
ATOM      7  C8  UNL d   1      -0.137   1.168  -0.516  0.00  0.00     0.001 A 
ENDROOT
BRANCH   1   8
ATOM      8  C1  UNL d   1      -0.337   3.673  -0.270  0.00  0.00     0.053 C 
ATOM      9  C   UNL d   1      -0.503   3.632  -1.781  0.00  0.00     0.018 C 
ENDBRANCH   1   8
TORSDOF 1
ENDMDL
