MODEL 1
REMARK minimizedAffinity 1.38832581
REMARK minimizedRMSD -1
REMARK  1 active torsions:
REMARK  status: ('A' for Active; 'I' for Inactive)
REMARK    1  A    between atoms: C1_2  and  C2_3 
ROOT
ATOM      1  C2  UNL d   1       0.491  -1.997  -1.009  0.00  0.00    -0.073 A 
ATOM      2  C3  UNL d   1      -0.709  -2.090  -1.723  0.00  0.00    -0.002 A 
ATOM      3  C4  UNL d   1      -1.324  -3.328  -1.908  0.00  0.00     0.004 A 
ATOM      4  C5  UNL d   1      -0.751  -4.484  -1.377  0.00  0.00    -0.004 A 
ATOM      5  C6  UNL d   1       0.442  -4.409  -0.651  0.00  0.00    -0.075 A 
ATOM      6  C7  UNL d   1       1.073  -5.643  -0.074  0.00  0.00     0.076 C 
ATOM      7  C8  UNL d   1       1.055  -3.162  -0.471  0.00  0.00     0.001 A 
ENDROOT
BRANCH   1   8
ATOM      8  C1  UNL d   1       1.156  -0.660  -0.801  0.00  0.00     0.053 C 
ATOM      9  C   UNL d   1       0.531   0.427  -1.660  0.00  0.00     0.018 C 
ENDBRANCH   1   8
TORSDOF 1
ENDMDL
