MODEL 1
REMARK minimizedAffinity 2.44181037
REMARK minimizedRMSD -1
REMARK  0 active torsions:
REMARK  status: ('A' for Active; 'I' for Inactive)
ROOT
ATOM      1  C1  BNZ d   1       2.809   0.176  -0.105  0.00  0.00     0.000 A 
ATOM      2  C2  BNZ d   1       2.159  -1.022   0.035  0.00  0.00     0.000 A 
ATOM      3  C3  BNZ d   1       2.301  -2.008  -0.901  0.00  0.00     0.000 A 
ATOM      4  C4  BNZ d   1       3.058  -1.781  -1.994  0.00  0.00     0.000 A 
ATOM      5  C5  BNZ d   1       3.712  -0.576  -2.153  0.00  0.00     0.000 A 
ATOM      6  C6  BNZ d   1       3.598   0.400  -1.190  0.00  0.00     0.000 A 
ENDROOT
TORSDOF 0
ENDMDL
