MODEL 1
REMARK minimizedAffinity 5.01362753
REMARK minimizedRMSD -1
REMARK  0 active torsions:
REMARK  status: ('A' for Active; 'I' for Inactive)
ROOT
ATOM      1  C1  BNZ d   1       4.455   2.583   5.323  0.00  0.00     0.000 A 
ATOM      2  C2  BNZ d   1       4.105   1.442   5.995  0.00  0.00     0.000 A 
ATOM      3  C3  BNZ d   1       2.821   0.975   5.960  0.00  0.00     0.000 A 
ATOM      4  C4  BNZ d   1       1.881   1.671   5.288  0.00  0.00     0.000 A 
ATOM      5  C5  BNZ d   1       2.216   2.828   4.614  0.00  0.00     0.000 A 
ATOM      6  C6  BNZ d   1       3.518   3.273   4.619  0.00  0.00     0.000 A 
ENDROOT
TORSDOF 0
ENDMDL
