MODEL 1
REMARK minimizedAffinity -0.0586647056
REMARK minimizedRMSD -1
REMARK  0 active torsions:
REMARK  status: ('A' for Active; 'I' for Inactive)
ROOT
ATOM      1  C1  BNZ d   1       2.994   3.891   3.630  0.00  0.00     0.000 A 
ATOM      2  C2  BNZ d   1       2.771   2.542   3.561  0.00  0.00     0.000 A 
ATOM      3  C3  BNZ d   1       2.653   1.793   4.699  0.00  0.00     0.000 A 
ATOM      4  C4  BNZ d   1       2.796   2.387   5.901  0.00  0.00     0.000 A 
ATOM      5  C5  BNZ d   1       3.030   3.744   5.987  0.00  0.00     0.000 A 
ATOM      6  C6  BNZ d   1       3.110   4.502   4.841  0.00  0.00     0.000 A 
ENDROOT
TORSDOF 0
ENDMDL
