MODEL 1
REMARK minimizedAffinity 3.50515413
REMARK minimizedRMSD -1
REMARK  0 active torsions:
REMARK  status: ('A' for Active; 'I' for Inactive)
ROOT
ATOM      1  C1  BNZ d   1      -5.046   0.873  -4.834  0.00  0.00     0.000 A 
ATOM      2  C2  BNZ d   1      -3.794   1.282  -5.212  0.00  0.00     0.000 A 
ATOM      3  C3  BNZ d   1      -2.681   0.800  -4.583  0.00  0.00     0.000 A 
ATOM      4  C4  BNZ d   1      -2.821  -0.058  -3.553  0.00  0.00     0.000 A 
ATOM      5  C5  BNZ d   1      -4.076  -0.473  -3.154  0.00  0.00     0.000 A 
ATOM      6  C6  BNZ d   1      -5.193  -0.015  -3.815  0.00  0.00     0.000 A 
ENDROOT
TORSDOF 0
ENDMDL
