MODEL 1
REMARK minimizedAffinity -3.974298
REMARK minimizedRMSD -1
REMARK  0 active torsions:
REMARK  status: ('A' for Active; 'I' for Inactive)
ROOT
ATOM      1  C1  BNZ d   1       3.745   3.047   3.739  0.00  0.00     0.000 A 
ATOM      2  C2  BNZ d   1       3.686   4.397   3.516  0.00  0.00     0.000 A 
ATOM      3  C3  BNZ d   1       3.286   5.253   4.503  0.00  0.00     0.000 A 
ATOM      4  C4  BNZ d   1       2.909   4.756   5.699  0.00  0.00     0.000 A 
ATOM      5  C5  BNZ d   1       2.954   3.397   5.937  0.00  0.00     0.000 A 
ATOM      6  C6  BNZ d   1       3.394   2.542   4.953  0.00  0.00     0.000 A 
ENDROOT
TORSDOF 0
ENDMDL
