MODEL 1
REMARK minimizedAffinity -1.43588638
REMARK minimizedRMSD -1
REMARK  0 active torsions:
REMARK  status: ('A' for Active; 'I' for Inactive)
ROOT
ATOM      1  C1  BNZ d   1      -3.768   2.637   3.251  0.00  0.00     0.000 A 
ATOM      2  C2  BNZ d   1      -2.929   3.046   4.253  0.00  0.00     0.000 A 
ATOM      3  C3  BNZ d   1      -1.581   3.137   4.044  0.00  0.00     0.000 A 
ATOM      4  C4  BNZ d   1      -1.070   2.781   2.848  0.00  0.00     0.000 A 
ATOM      5  C5  BNZ d   1      -1.902   2.358   1.831  0.00  0.00     0.000 A 
ATOM      6  C6  BNZ d   1      -3.262   2.305   2.032  0.00  0.00     0.000 A 
ENDROOT
TORSDOF 0
ENDMDL
