MODEL 1
REMARK minimizedAffinity 6.57939529
REMARK minimizedRMSD -1
REMARK  1 active torsions:
REMARK  status: ('A' for Active; 'I' for Inactive)
REMARK    1  A    between atoms: C1_2  and  C2_3 
ROOT
ATOM      1  C2  UNL d   1       0.530   2.468   0.003  0.00  0.00    -0.077 A 
ATOM      2  C3  UNL d   1       1.356   1.372   0.289  0.00  0.00     0.002 A 
ATOM      3  C4  UNL d   1       0.828   0.081   0.333  0.00  0.00     0.002 A 
ATOM      4  C5  UNL d   1      -0.528  -0.128   0.087  0.00  0.00    -0.004 A 
ATOM      5  C6  UNL d   1      -1.359   0.955  -0.197  0.00  0.00     0.002 A 
ATOM      6  C7  UNL d   1      -0.832   2.247  -0.240  0.00  0.00     0.002 A 
ENDROOT
BRANCH   1   7
ATOM      7  C1  UNL d   1       1.107   3.855  -0.093  0.00  0.00     0.055 C 
ATOM      8  C   UNL d   1       1.069   4.373  -1.524  0.00  0.00     0.019 C 
ENDBRANCH   1   7
TORSDOF 1
ENDMDL
