MODEL 1
REMARK minimizedAffinity -2.7481637
REMARK minimizedRMSD -1
REMARK  1 active torsions:
REMARK  status: ('A' for Active; 'I' for Inactive)
REMARK    1  A    between atoms: C1_2  and  C2_3 
ROOT
ATOM      1  C2  UNL d   1       3.502  -5.956  -2.383  0.00  0.00    -0.077 A 
ATOM      2  C3  UNL d   1       2.156  -5.981  -2.775  0.00  0.00     0.002 A 
ATOM      3  C4  UNL d   1       1.814  -6.000  -4.129  0.00  0.00     0.002 A 
ATOM      4  C5  UNL d   1       2.813  -5.997  -5.101  0.00  0.00    -0.004 A 
ATOM      5  C6  UNL d   1       4.154  -5.970  -4.721  0.00  0.00     0.002 A 
ATOM      6  C7  UNL d   1       4.497  -5.951  -3.369  0.00  0.00     0.002 A 
ENDROOT
BRANCH   1   7
ATOM      7  C1  UNL d   1       3.873  -5.986  -0.924  0.00  0.00     0.055 C 
ATOM      8  C   UNL d   1       2.635  -6.000  -0.038  0.00  0.00     0.019 C 
ENDBRANCH   1   7
TORSDOF 1
ENDMDL
