MODEL 1
REMARK minimizedAffinity 1.4272145
REMARK minimizedRMSD -1
REMARK  1 active torsions:
REMARK  status: ('A' for Active; 'I' for Inactive)
REMARK    1  A    between atoms: C1_2  and  C2_3 
ROOT
ATOM      1  C2  UNL d   1       3.751  -3.357  -2.533  0.00  0.00    -0.077 A 
ATOM      2  C3  UNL d   1       3.797  -3.632  -1.159  0.00  0.00     0.002 A 
ATOM      3  C4  UNL d   1       3.895  -4.949  -0.705  0.00  0.00     0.002 A 
ATOM      4  C5  UNL d   1       3.952  -6.000  -1.619  0.00  0.00    -0.004 A 
ATOM      5  C6  UNL d   1       3.905  -5.736  -2.987  0.00  0.00     0.002 A 
ATOM      6  C7  UNL d   1       3.805  -4.421  -3.442  0.00  0.00     0.002 A 
ENDROOT
BRANCH   1   7
ATOM      7  C1  UNL d   1       3.694  -1.934  -3.024  0.00  0.00     0.055 C 
ATOM      8  C   UNL d   1       2.375  -1.272  -2.654  0.00  0.00     0.019 C 
ENDBRANCH   1   7
TORSDOF 1
ENDMDL
