MODEL 1
REMARK minimizedAffinity 0.478417844
REMARK minimizedRMSD -1
REMARK  1 active torsions:
REMARK  status: ('A' for Active; 'I' for Inactive)
REMARK    1  A    between atoms: C1_2  and  C2_3 
ROOT
ATOM      1  C2  UNL d   1       4.681  -5.939  -3.266  0.00  0.00    -0.077 A 
ATOM      2  C3  UNL d   1       4.651  -5.909  -1.865  0.00  0.00     0.002 A 
ATOM      3  C4  UNL d   1       3.431  -5.909  -1.185  0.00  0.00     0.002 A 
ATOM      4  C5  UNL d   1       2.234  -5.944  -1.898  0.00  0.00    -0.004 A 
ATOM      5  C6  UNL d   1       2.254  -5.973  -3.292  0.00  0.00     0.002 A 
ATOM      6  C7  UNL d   1       3.472  -5.971  -3.973  0.00  0.00     0.002 A 
ENDROOT
BRANCH   1   7
ATOM      7  C1  UNL d   1       5.996  -5.988  -4.000  0.00  0.00     0.055 C 
ATOM      8  C   UNL d   1       5.793  -5.907  -5.506  0.00  0.00     0.019 C 
ENDBRANCH   1   7
TORSDOF 1
ENDMDL
