MODEL 1
REMARK minimizedAffinity 6.45612431
REMARK minimizedRMSD -1
REMARK  1 active torsions:
REMARK  status: ('A' for Active; 'I' for Inactive)
REMARK    1  A    between atoms: C1_2  and  C2_3 
ROOT
ATOM      1  C2  UNL d   1       1.955  -2.184   2.946  0.00  0.00    -0.077 A 
ATOM      2  C3  UNL d   1       3.179  -2.236   3.628  0.00  0.00     0.002 A 
ATOM      3  C4  UNL d   1       3.549  -3.386   4.328  0.00  0.00     0.002 A 
ATOM      4  C5  UNL d   1       2.704  -4.493   4.349  0.00  0.00    -0.004 A 
ATOM      5  C6  UNL d   1       1.484  -4.451   3.675  0.00  0.00     0.002 A 
ATOM      6  C7  UNL d   1       1.111  -3.302   2.976  0.00  0.00     0.002 A 
ENDROOT
BRANCH   1   7
ATOM      7  C1  UNL d   1       1.576  -0.963   2.149  0.00  0.00     0.055 C 
ATOM      8  C   UNL d   1       2.796  -0.116   1.820  0.00  0.00     0.019 C 
ENDBRANCH   1   7
TORSDOF 1
ENDMDL
