MODEL 1
REMARK minimizedAffinity 14.6244287
REMARK minimizedRMSD -1
REMARK  1 active torsions:
REMARK  status: ('A' for Active; 'I' for Inactive)
REMARK    1  A    between atoms: C1_2  and  C2_3 
ROOT
ATOM      1  C2  UNL d   1       2.272  -4.305   2.661  0.00  0.00    -0.077 A 
ATOM      2  C3  UNL d   1       1.365  -3.292   2.321  0.00  0.00     0.002 A 
ATOM      3  C4  UNL d   1       1.514  -2.006   2.844  0.00  0.00     0.002 A 
ATOM      4  C5  UNL d   1       2.571  -1.721   3.706  0.00  0.00    -0.004 A 
ATOM      5  C6  UNL d   1       3.477  -2.723   4.052  0.00  0.00     0.002 A 
ATOM      6  C7  UNL d   1       3.329  -4.009   3.531  0.00  0.00     0.002 A 
ENDROOT
BRANCH   1   7
ATOM      7  C1  UNL d   1       2.141  -5.680   2.059  0.00  0.00     0.055 C 
ATOM      8  C   UNL d   1       2.974  -5.811   0.792  0.00  0.00     0.019 C 
ENDBRANCH   1   7
TORSDOF 1
ENDMDL
