MODEL 1
REMARK minimizedAffinity 5.39337158
REMARK minimizedRMSD -1
REMARK  1 active torsions:
REMARK  status: ('A' for Active; 'I' for Inactive)
REMARK    1  A    between atoms: C1_2  and  C2_3 
ROOT
ATOM      1  C2  UNL d   1       2.979  -1.820   2.910  0.00  0.00    -0.077 A 
ATOM      2  C3  UNL d   1       1.817  -2.547   2.612  0.00  0.00     0.002 A 
ATOM      3  C4  UNL d   1       0.745  -1.931   1.964  0.00  0.00     0.002 A 
ATOM      4  C5  UNL d   1       0.825  -0.587   1.605  0.00  0.00    -0.004 A 
ATOM      5  C6  UNL d   1       1.976   0.145   1.897  0.00  0.00     0.002 A 
ATOM      6  C7  UNL d   1       3.048  -0.469   2.546  0.00  0.00     0.002 A 
ENDROOT
BRANCH   1   7
ATOM      7  C1  UNL d   1       4.156  -2.496   3.564  0.00  0.00     0.055 C 
ATOM      8  C   UNL d   1       5.463  -2.104   2.892  0.00  0.00     0.019 C 
ENDBRANCH   1   7
TORSDOF 1
ENDMDL
