MODEL 1
REMARK minimizedAffinity -3.80553555
REMARK minimizedRMSD -1
REMARK  0 active torsions:
REMARK  status: ('A' for Active; 'I' for Inactive)
ROOT
ATOM      1  C1  BNZ d   1      -1.566  -1.224  -2.997  0.00  0.00     0.000 A 
ATOM      2  C2  BNZ d   1      -0.452  -0.526  -3.379  0.00  0.00     0.000 A 
ATOM      3  C3  BNZ d   1       0.563  -0.289  -2.494  0.00  0.00     0.000 A 
ATOM      4  C4  BNZ d   1       0.445  -0.714  -1.220  0.00  0.00     0.000 A 
ATOM      5  C5  BNZ d   1      -0.677  -1.411  -0.817  0.00  0.00     0.000 A 
ATOM      6  C6  BNZ d   1      -1.679  -1.682  -1.720  0.00  0.00     0.000 A 
ENDROOT
TORSDOF 0
ENDMDL
