MODEL 1
REMARK minimizedAffinity -4.91127777
REMARK minimizedRMSD -1
REMARK  0 active torsions:
REMARK  status: ('A' for Active; 'I' for Inactive)
ROOT
ATOM      1  C1  BNZ d   1       1.738   1.551   0.027  0.00  0.00     0.000 A 
ATOM      2  C2  BNZ d   1       1.036   0.413  -0.268  0.00  0.00     0.000 A 
ATOM      3  C3  BNZ d   1      -0.096   0.089   0.427  0.00  0.00     0.000 A 
ATOM      4  C4  BNZ d   1      -0.501   0.881   1.440  0.00  0.00     0.000 A 
ATOM      5  C5  BNZ d   1       0.201   2.027   1.756  0.00  0.00     0.000 A 
ATOM      6  C6  BNZ d   1       1.318   2.371   1.029  0.00  0.00     0.000 A 
ENDROOT
TORSDOF 0
ENDMDL
