MODEL 1
REMARK minimizedAffinity -1.86704957
REMARK minimizedRMSD -1
REMARK  0 active torsions:
REMARK  status: ('A' for Active; 'I' for Inactive)
ROOT
ATOM      1  C1  BNZ d   1      -1.596   0.295  -0.926  0.00  0.00     0.000 A 
ATOM      2  C2  BNZ d   1      -0.516   0.370  -0.088  0.00  0.00     0.000 A 
ATOM      3  C3  BNZ d   1       0.479  -0.566  -0.143  0.00  0.00     0.000 A 
ATOM      4  C4  BNZ d   1       0.373  -1.596  -1.007  0.00  0.00     0.000 A 
ATOM      5  C5  BNZ d   1      -0.715  -1.691  -1.852  0.00  0.00     0.000 A 
ATOM      6  C6  BNZ d   1      -1.695  -0.726  -1.820  0.00  0.00     0.000 A 
ENDROOT
TORSDOF 0
ENDMDL
