MODEL 1
REMARK minimizedAffinity -5.08100224
REMARK minimizedRMSD -1
REMARK  0 active torsions:
REMARK  status: ('A' for Active; 'I' for Inactive)
ROOT
ATOM      1  C1  BNZ d   1       1.460   1.573  -0.256  0.00  0.00     0.000 A 
ATOM      2  C2  BNZ d   1       0.940   0.323  -0.463  0.00  0.00     0.000 A 
ATOM      3  C3  BNZ d   1      -0.149  -0.107   0.241  0.00  0.00     0.000 A 
ATOM      4  C4  BNZ d   1      -0.692   0.695   1.179  0.00  0.00     0.000 A 
ATOM      5  C5  BNZ d   1      -0.173   1.954   1.407  0.00  0.00     0.000 A 
ATOM      6  C6  BNZ d   1       0.899   2.400   0.668  0.00  0.00     0.000 A 
ENDROOT
TORSDOF 0
ENDMDL
