MODEL 1
REMARK minimizedAffinity -4.57707405
REMARK minimizedRMSD -1
REMARK  0 active torsions:
REMARK  status: ('A' for Active; 'I' for Inactive)
ROOT
ATOM      1  C1  BNZ d   1       1.655   2.604   1.173  0.00  0.00     0.000 A 
ATOM      2  C2  BNZ d   1       2.055   1.896   0.071  0.00  0.00     0.000 A 
ATOM      3  C3  BNZ d   1       1.219   0.991  -0.521  0.00  0.00     0.000 A 
ATOM      4  C4  BNZ d   1       0.001   0.766   0.012  0.00  0.00     0.000 A 
ATOM      5  C5  BNZ d   1      -0.414   1.466   1.128  0.00  0.00     0.000 A 
ATOM      6  C6  BNZ d   1       0.415   2.404   1.698  0.00  0.00     0.000 A 
ENDROOT
TORSDOF 0
ENDMDL
