MODEL 1
REMARK minimizedAffinity -4.83256102
REMARK minimizedRMSD -1
REMARK  0 active torsions:
REMARK  status: ('A' for Active; 'I' for Inactive)
ROOT
ATOM      1  C1  BNZ d   1       1.484   1.504   0.210  0.00  0.00     0.000 A 
ATOM      2  C2  BNZ d   1       0.400   0.761  -0.173  0.00  0.00     0.000 A 
ATOM      3  C3  BNZ d   1      -0.714   0.690   0.615  0.00  0.00     0.000 A 
ATOM      4  C4  BNZ d   1      -0.728   1.329   1.803  0.00  0.00     0.000 A 
ATOM      5  C5  BNZ d   1       0.361   2.075   2.207  0.00  0.00     0.000 A 
ATOM      6  C6  BNZ d   1       1.466   2.176   1.393  0.00  0.00     0.000 A 
ENDROOT
TORSDOF 0
ENDMDL
