MODEL 1
REMARK minimizedAffinity -4.36880445
REMARK minimizedRMSD -1
REMARK  0 active torsions:
REMARK  status: ('A' for Active; 'I' for Inactive)
ROOT
ATOM      1  C1  BNZ d   1       1.150   1.842   0.940  0.00  0.00     0.000 A 
ATOM      2  C2  BNZ d   1       1.462   0.979  -0.076  0.00  0.00     0.000 A 
ATOM      3  C3  BNZ d   1       0.599  -0.018  -0.438  0.00  0.00     0.000 A 
ATOM      4  C4  BNZ d   1      -0.555  -0.176   0.243  0.00  0.00     0.000 A 
ATOM      5  C5  BNZ d   1      -0.879   0.680   1.276  0.00  0.00     0.000 A 
ATOM      6  C6  BNZ d   1      -0.026   1.707   1.612  0.00  0.00     0.000 A 
ENDROOT
TORSDOF 0
ENDMDL
