MODEL 1
REMARK minimizedAffinity -3.25571179
REMARK minimizedRMSD -1
REMARK  0 active torsions:
REMARK  status: ('A' for Active; 'I' for Inactive)
ROOT
ATOM      1  C1  BNZ d   1      -3.213  -2.209  -2.004  0.00  0.00     0.000 A 
ATOM      2  C2  BNZ d   1      -2.399  -2.113  -0.907  0.00  0.00     0.000 A 
ATOM      3  C3  BNZ d   1      -1.209  -1.443  -0.974  0.00  0.00     0.000 A 
ATOM      4  C4  BNZ d   1      -0.816  -0.906  -2.147  0.00  0.00     0.000 A 
ATOM      5  C5  BNZ d   1      -1.622  -1.002  -3.265  0.00  0.00     0.000 A 
ATOM      6  C6  BNZ d   1      -2.837  -1.643  -3.183  0.00  0.00     0.000 A 
ENDROOT
TORSDOF 0
ENDMDL
