MODEL 1
REMARK minimizedAffinity -4.28541803
REMARK minimizedRMSD -1
REMARK  0 active torsions:
REMARK  status: ('A' for Active; 'I' for Inactive)
ROOT
ATOM      1  C1  BNZ d   1       1.383   1.429  -0.203  0.00  0.00     0.000 A 
ATOM      2  C2  BNZ d   1       0.480   0.469  -0.577  0.00  0.00     0.000 A 
ATOM      3  C3  BNZ d   1      -0.616   0.201   0.194  0.00  0.00     0.000 A 
ATOM      4  C4  BNZ d   1      -0.788   0.863   1.357  0.00  0.00     0.000 A 
ATOM      5  C5  BNZ d   1       0.119   1.827   1.752  0.00  0.00     0.000 A 
ATOM      6  C6  BNZ d   1       1.200   2.122   0.954  0.00  0.00     0.000 A 
ENDROOT
TORSDOF 0
ENDMDL
