MODEL 1
REMARK minimizedAffinity -1.96051705
REMARK minimizedRMSD -1
REMARK  0 active torsions:
REMARK  status: ('A' for Active; 'I' for Inactive)
ROOT
ATOM      1  C1  BNZ d   1      -0.539  -0.465   0.483  0.00  0.00     0.000 A 
ATOM      2  C2  BNZ d   1       0.002   0.708   0.937  0.00  0.00     0.000 A 
ATOM      3  C3  BNZ d   1       1.114   1.240   0.347  0.00  0.00     0.000 A 
ATOM      4  C4  BNZ d   1       1.706   0.580  -0.669  0.00  0.00     0.000 A 
ATOM      5  C5  BNZ d   1       1.177  -0.609  -1.132  0.00  0.00     0.000 A 
ATOM      6  C6  BNZ d   1       0.035  -1.122  -0.561  0.00  0.00     0.000 A 
ENDROOT
TORSDOF 0
ENDMDL
