MODEL 1
REMARK minimizedAffinity -4.9244895
REMARK minimizedRMSD -1
REMARK  0 active torsions:
REMARK  status: ('A' for Active; 'I' for Inactive)
ROOT
ATOM      1  C1  BNZ d   1       2.477   1.901   2.527  0.00  0.00     0.000 A 
ATOM      2  C2  BNZ d   1       3.613   1.441   1.916  0.00  0.00     0.000 A 
ATOM      3  C3  BNZ d   1       3.661   1.277   0.560  0.00  0.00     0.000 A 
ATOM      4  C4  BNZ d   1       2.562   1.533  -0.178  0.00  0.00     0.000 A 
ATOM      5  C5  BNZ d   1       1.406   1.989   0.424  0.00  0.00     0.000 A 
ATOM      6  C6  BNZ d   1       1.374   2.190   1.785  0.00  0.00     0.000 A 
ENDROOT
TORSDOF 0
ENDMDL
