MODEL 1
REMARK minimizedAffinity -1.3779397
REMARK minimizedRMSD -1
REMARK  0 active torsions:
REMARK  status: ('A' for Active; 'I' for Inactive)
ROOT
ATOM      1  C1  BNZ d   1      -3.151   6.000  -3.669  0.00  0.00     0.000 A 
ATOM      2  C2  BNZ d   1      -4.450   6.000  -3.235  0.00  0.00     0.000 A 
ATOM      3  C3  BNZ d   1      -5.486   5.964  -4.126  0.00  0.00     0.000 A 
ATOM      4  C4  BNZ d   1      -5.223   5.969  -5.448  0.00  0.00     0.000 A 
ATOM      5  C5  BNZ d   1      -3.919   5.978  -5.902  0.00  0.00     0.000 A 
ATOM      6  C6  BNZ d   1      -2.879   5.975  -5.002  0.00  0.00     0.000 A 
ENDROOT
TORSDOF 0
ENDMDL
