MODEL 1
REMARK minimizedAffinity -1.67816591
REMARK minimizedRMSD -1
REMARK  0 active torsions:
REMARK  status: ('A' for Active; 'I' for Inactive)
ROOT
ATOM      1  C1  BNZ d   1      -2.989  -2.242  -2.626  0.00  0.00     0.000 A 
ATOM      2  C2  BNZ d   1      -2.298  -2.460  -1.464  0.00  0.00     0.000 A 
ATOM      3  C3  BNZ d   1      -1.084  -1.870  -1.250  0.00  0.00     0.000 A 
ATOM      4  C4  BNZ d   1      -0.545  -1.095  -2.213  0.00  0.00     0.000 A 
ATOM      5  C5  BNZ d   1      -1.225  -0.873  -3.394  0.00  0.00     0.000 A 
ATOM      6  C6  BNZ d   1      -2.464  -1.437  -3.590  0.00  0.00     0.000 A 
ENDROOT
TORSDOF 0
ENDMDL
