MODEL 1
REMARK minimizedAffinity -4.27568007
REMARK minimizedRMSD -1
REMARK  0 active torsions:
REMARK  status: ('A' for Active; 'I' for Inactive)
ROOT
ATOM      1  C1  BNZ d   1       0.576   1.406   0.361  0.00  0.00     0.000 A 
ATOM      2  C2  BNZ d   1       1.535   0.710  -0.324  0.00  0.00     0.000 A 
ATOM      3  C3  BNZ d   1       2.855   1.051  -0.222  0.00  0.00     0.000 A 
ATOM      4  C4  BNZ d   1       3.209   2.112   0.532  0.00  0.00     0.000 A 
ATOM      5  C5  BNZ d   1       2.253   2.830   1.221  0.00  0.00     0.000 A 
ATOM      6  C6  BNZ d   1       0.929   2.460   1.147  0.00  0.00     0.000 A 
ENDROOT
TORSDOF 0
ENDMDL
