MODEL 1
REMARK minimizedAffinity -1.36302245
REMARK minimizedRMSD -1
REMARK  0 active torsions:
REMARK  status: ('A' for Active; 'I' for Inactive)
ROOT
ATOM      1  C1  BNZ d   1       2.312   0.867   4.527  0.00  0.00     0.000 A 
ATOM      2  C2  BNZ d   1       2.325   1.249   3.212  0.00  0.00     0.000 A 
ATOM      3  C3  BNZ d   1       1.163   1.550   2.559  0.00  0.00     0.000 A 
ATOM      4  C4  BNZ d   1      -0.013   1.430   3.208  0.00  0.00     0.000 A 
ATOM      5  C5  BNZ d   1      -0.044   1.037   4.531  0.00  0.00     0.000 A 
ATOM      6  C6  BNZ d   1       1.131   0.772   5.197  0.00  0.00     0.000 A 
ENDROOT
TORSDOF 0
ENDMDL
