MODEL 1
REMARK minimizedAffinity 2.32833648
REMARK minimizedRMSD -1
REMARK  0 active torsions:
REMARK  status: ('A' for Active; 'I' for Inactive)
ROOT
ATOM      1  C1  BNZ d   1      -3.061  -3.521   5.220  0.00  0.00     0.000 A 
ATOM      2  C2  BNZ d   1      -4.302  -3.075   5.590  0.00  0.00     0.000 A 
ATOM      3  C3  BNZ d   1      -4.683  -1.785   5.347  0.00  0.00     0.000 A 
ATOM      4  C4  BNZ d   1      -3.810  -0.933   4.773  0.00  0.00     0.000 A 
ATOM      5  C5  BNZ d   1      -2.552  -1.365   4.403  0.00  0.00     0.000 A 
ATOM      6  C6  BNZ d   1      -2.186  -2.675   4.613  0.00  0.00     0.000 A 
ENDROOT
TORSDOF 0
ENDMDL
