MODEL 1
REMARK minimizedAffinity 29.9666348
REMARK minimizedRMSD -1
REMARK  0 active torsions:
REMARK  status: ('A' for Active; 'I' for Inactive)
ROOT
ATOM      1  C   UNL d   1      -1.057   1.137   0.539  0.00  0.00     0.124 A 
ATOM      2  C1  UNL d   1      -0.851   0.655  -0.746  0.00  0.00     0.062 A 
ATOM      3  C2  UNL d   1       0.417   0.244  -1.145  0.00  0.00     0.162 A 
ATOM      4  C3  UNL d   1       1.491   0.312  -0.257  0.00  0.00    -0.034 A 
ATOM      5  C4  UNL d   1       1.277   0.799   1.034  0.00  0.00     0.162 A 
ATOM      6  C5  UNL d   1       0.007   1.208   1.428  0.00  0.00     0.062 A 
ATOM      7  F   UNL d   1      -0.190   1.674   2.670  0.00  0.00    -0.097 F 
ATOM      8  F1  UNL d   1       2.286   0.878   1.913  0.00  0.00    -0.096 F 
ATOM      9  I   UNL d   1       3.389  -0.302  -0.849  0.00  0.00    -0.060 I 
ATOM     10  F2  UNL d   1       0.587  -0.218  -2.393  0.00  0.00    -0.096 F 
ATOM     11  F3  UNL d   1      -1.877   0.586  -1.607  0.00  0.00    -0.097 F 
ATOM     12  F4  UNL d   1      -2.278   1.533   0.920  0.00  0.00    -0.092 F 
ENDROOT
TORSDOF 0
ENDMDL
