MODEL 1
REMARK minimizedAffinity 17.1704235
REMARK minimizedRMSD -1
REMARK  0 active torsions:
REMARK  status: ('A' for Active; 'I' for Inactive)
ROOT
ATOM      1  C   UNL d   1       2.824  -0.077  -1.026  0.00  0.00     0.124 A 
ATOM      2  C1  UNL d   1       3.917   0.317  -1.785  0.00  0.00     0.062 A 
ATOM      3  C2  UNL d   1       4.825   1.242  -1.278  0.00  0.00     0.162 A 
ATOM      4  C3  UNL d   1       4.644   1.779  -0.003  0.00  0.00    -0.034 A 
ATOM      5  C4  UNL d   1       3.542   1.379   0.754  0.00  0.00     0.162 A 
ATOM      6  C5  UNL d   1       2.637   0.454   0.243  0.00  0.00     0.062 A 
ATOM      7  F   UNL d   1       1.582   0.075   0.978  0.00  0.00    -0.097 F 
ATOM      8  F1  UNL d   1       3.338   1.876   1.983  0.00  0.00    -0.096 F 
ATOM      9  I   UNL d   1       5.999   3.163   0.759  0.00  0.00    -0.060 I 
ATOM     10  F2  UNL d   1       5.872   1.604  -2.033  0.00  0.00    -0.096 F 
ATOM     11  F3  UNL d   1       4.099  -0.194  -3.011  0.00  0.00    -0.097 F 
ATOM     12  F4  UNL d   1       1.952  -0.967  -1.517  0.00  0.00    -0.092 F 
ENDROOT
TORSDOF 0
ENDMDL
