MODEL 1
REMARK minimizedAffinity 28.8691235
REMARK minimizedRMSD -1
REMARK  0 active torsions:
REMARK  status: ('A' for Active; 'I' for Inactive)
ROOT
ATOM      1  C   UNL d   1      -0.643   1.078   1.478  0.00  0.00     0.124 A 
ATOM      2  C1  UNL d   1      -0.185   1.175   0.171  0.00  0.00     0.062 A 
ATOM      3  C2  UNL d   1       0.796   0.303  -0.293  0.00  0.00     0.162 A 
ATOM      4  C3  UNL d   1       1.325  -0.674   0.550  0.00  0.00    -0.034 A 
ATOM      5  C4  UNL d   1       0.860  -0.764   1.864  0.00  0.00     0.162 A 
ATOM      6  C5  UNL d   1      -0.120   0.109   2.323  0.00  0.00     0.062 A 
ATOM      7  F   UNL d   1      -0.562   0.014   3.585  0.00  0.00    -0.097 F 
ATOM      8  F1  UNL d   1       1.347  -1.692   2.701  0.00  0.00    -0.096 F 
ATOM      9  I   UNL d   1       2.792  -1.979  -0.140  0.00  0.00    -0.060 I 
ATOM     10  F2  UNL d   1       1.219   0.419  -1.560  0.00  0.00    -0.096 F 
ATOM     11  F3  UNL d   1      -0.688   2.111  -0.646  0.00  0.00    -0.097 F 
ATOM     12  F4  UNL d   1      -1.587   1.919   1.922  0.00  0.00    -0.092 F 
ENDROOT
TORSDOF 0
ENDMDL
