MODEL 1
REMARK minimizedAffinity 24.9045868
REMARK minimizedRMSD -1
REMARK  0 active torsions:
REMARK  status: ('A' for Active; 'I' for Inactive)
ROOT
ATOM      1  C   UNL d   1       0.367   0.330   0.860  0.00  0.00     0.124 A 
ATOM      2  C1  UNL d   1       1.083   0.810   1.947  0.00  0.00     0.062 A 
ATOM      3  C2  UNL d   1       2.462   0.979   1.857  0.00  0.00     0.162 A 
ATOM      4  C3  UNL d   1       3.133   0.670   0.675  0.00  0.00    -0.034 A 
ATOM      5  C4  UNL d   1       2.406   0.187  -0.415  0.00  0.00     0.162 A 
ATOM      6  C5  UNL d   1       1.028   0.019  -0.320  0.00  0.00     0.062 A 
ATOM      7  F   UNL d   1       0.337  -0.445  -1.371  0.00  0.00    -0.097 F 
ATOM      8  F1  UNL d   1       3.020  -0.121  -1.567  0.00  0.00    -0.096 F 
ATOM      9  I   UNL d   1       5.195   0.922   0.536  0.00  0.00    -0.060 I 
ATOM     10  F2  UNL d   1       3.129   1.445   2.924  0.00  0.00    -0.096 F 
ATOM     11  F3  UNL d   1       0.447   1.110   3.088  0.00  0.00    -0.097 F 
ATOM     12  F4  UNL d   1      -0.960   0.167   0.950  0.00  0.00    -0.092 F 
ENDROOT
TORSDOF 0
ENDMDL
