MODEL 1
REMARK minimizedAffinity 17.5521011
REMARK minimizedRMSD -1
REMARK  0 active torsions:
REMARK  status: ('A' for Active; 'I' for Inactive)
ROOT
ATOM      1  C   UNL d   1      -3.303   1.356  -4.793  0.00  0.00     0.124 A 
ATOM      2  C1  UNL d   1      -4.380   2.144  -4.409  0.00  0.00     0.062 A 
ATOM      3  C2  UNL d   1      -4.960   1.974  -3.156  0.00  0.00     0.162 A 
ATOM      4  C3  UNL d   1      -4.464   1.013  -2.275  0.00  0.00    -0.034 A 
ATOM      5  C4  UNL d   1      -3.382   0.223  -2.668  0.00  0.00     0.162 A 
ATOM      6  C5  UNL d   1      -2.805   0.397  -3.922  0.00  0.00     0.062 A 
ATOM      7  F   UNL d   1      -1.765  -0.365  -4.291  0.00  0.00    -0.097 F 
ATOM      8  F1  UNL d   1      -2.881  -0.711  -1.846  0.00  0.00    -0.096 F 
ATOM      9  I   UNL d   1      -5.330   0.756  -0.400  0.00  0.00    -0.060 I 
ATOM     10  F2  UNL d   1      -5.999   2.750  -2.812  0.00  0.00    -0.096 F 
ATOM     11  F3  UNL d   1      -4.863   3.071  -5.249  0.00  0.00    -0.097 F 
ATOM     12  F4  UNL d   1      -2.747   1.521  -6.000  0.00  0.00    -0.092 F 
ENDROOT
TORSDOF 0
ENDMDL
