MODEL 1
REMARK minimizedAffinity 24.1392937
REMARK minimizedRMSD -1
REMARK  0 active torsions:
REMARK  status: ('A' for Active; 'I' for Inactive)
ROOT
ATOM      1  C   UNL d   1       5.049   1.680  -0.223  0.00  0.00     0.124 A 
ATOM      2  C1  UNL d   1       4.110   0.779  -0.706  0.00  0.00     0.062 A 
ATOM      3  C2  UNL d   1       3.122   0.279   0.137  0.00  0.00     0.162 A 
ATOM      4  C3  UNL d   1       3.067   0.679   1.472  0.00  0.00    -0.034 A 
ATOM      5  C4  UNL d   1       4.015   1.584   1.951  0.00  0.00     0.162 A 
ATOM      6  C5  UNL d   1       5.001   2.081   1.105  0.00  0.00     0.062 A 
ATOM      7  F   UNL d   1       5.908   2.951   1.574  0.00  0.00    -0.097 F 
ATOM      8  F1  UNL d   1       3.991   1.989   3.229  0.00  0.00    -0.096 F 
ATOM      9  I   UNL d   1       1.590  -0.067   2.735  0.00  0.00    -0.060 I 
ATOM     10  F2  UNL d   1       2.227  -0.590  -0.357  0.00  0.00    -0.096 F 
ATOM     11  F3  UNL d   1       4.155   0.389  -1.988  0.00  0.00    -0.097 F 
ATOM     12  F4  UNL d   1       6.000   2.159  -1.035  0.00  0.00    -0.092 F 
ENDROOT
TORSDOF 0
ENDMDL
