MODEL 1
REMARK minimizedAffinity 0.944423854
REMARK minimizedRMSD -1
REMARK  1 active torsions:
REMARK  status: ('A' for Active; 'I' for Inactive)
REMARK    1  A    between atoms: C1_2  and  C2_3 
ROOT
ATOM      1  C2  UNL d   1      -0.492   3.018  -1.699  0.00  0.00    -0.077 A 
ATOM      2  C3  UNL d   1      -0.691   2.082  -0.674  0.00  0.00     0.002 A 
ATOM      3  C4  UNL d   1      -0.277   2.364   0.630  0.00  0.00     0.002 A 
ATOM      4  C5  UNL d   1       0.334   3.581   0.921  0.00  0.00    -0.004 A 
ATOM      5  C6  UNL d   1       0.538   4.518  -0.091  0.00  0.00     0.002 A 
ATOM      6  C7  UNL d   1       0.126   4.238  -1.395  0.00  0.00     0.002 A 
ENDROOT
BRANCH   1   7
ATOM      7  C1  UNL d   1      -0.981   2.736  -3.095  0.00  0.00     0.055 C 
ATOM      8  C   UNL d   1      -2.315   2.004  -3.077  0.00  0.00     0.019 C 
ENDBRANCH   1   7
TORSDOF 1
ENDMDL
