MODEL 1
REMARK minimizedAffinity 4.05435228
REMARK minimizedRMSD -1
REMARK  1 active torsions:
REMARK  status: ('A' for Active; 'I' for Inactive)
REMARK    1  A    between atoms: C1_2  and  C2_3 
ROOT
ATOM      1  C2  UNL d   1      -0.203   2.307   0.641  0.00  0.00    -0.077 A 
ATOM      2  C3  UNL d   1       0.686   2.557   1.696  0.00  0.00     0.002 A 
ATOM      3  C4  UNL d   1       0.273   2.398   3.021  0.00  0.00     0.002 A 
ATOM      4  C5  UNL d   1      -1.027   1.983   3.302  0.00  0.00    -0.004 A 
ATOM      5  C6  UNL d   1      -1.919   1.733   2.259  0.00  0.00     0.002 A 
ATOM      6  C7  UNL d   1      -1.508   1.893   0.935  0.00  0.00     0.002 A 
ENDROOT
BRANCH   1   7
ATOM      7  C1  UNL d   1       0.255   2.431  -0.788  0.00  0.00     0.055 C 
ATOM      8  C   UNL d   1      -0.631   3.387  -1.572  0.00  0.00     0.019 C 
ENDBRANCH   1   7
TORSDOF 1
ENDMDL
