MODEL 1
REMARK minimizedAffinity -2.77258587
REMARK minimizedRMSD -1
REMARK  1 active torsions:
REMARK  status: ('A' for Active; 'I' for Inactive)
REMARK    1  A    between atoms: C1_2  and  C2_3 
ROOT
ATOM      1  C2  UNL d   1      -1.569   2.180  -1.541  0.00  0.00    -0.077 A 
ATOM      2  C3  UNL d   1      -1.079   2.122  -0.229  0.00  0.00     0.002 A 
ATOM      3  C4  UNL d   1      -0.066   2.989   0.186  0.00  0.00     0.002 A 
ATOM      4  C5  UNL d   1       0.462   3.922  -0.703  0.00  0.00    -0.004 A 
ATOM      5  C6  UNL d   1      -0.017   3.986  -2.011  0.00  0.00     0.002 A 
ATOM      6  C7  UNL d   1      -1.028   3.120  -2.428  0.00  0.00     0.002 A 
ENDROOT
BRANCH   1   7
ATOM      7  C1  UNL d   1      -2.696   1.280  -1.976  0.00  0.00     0.055 C 
ATOM      8  C   UNL d   1      -3.364   1.801  -3.240  0.00  0.00     0.019 C 
ENDBRANCH   1   7
TORSDOF 1
ENDMDL
