MODEL 1
REMARK minimizedAffinity 11.0149021
REMARK minimizedRMSD -1
REMARK  1 active torsions:
REMARK  status: ('A' for Active; 'I' for Inactive)
REMARK    1  A    between atoms: C1_2  and  C2_3 
ROOT
ATOM      1  C2  UNL d   1      -0.215   3.451  -1.639  0.00  0.00    -0.077 A 
ATOM      2  C3  UNL d   1      -0.997   2.518  -0.943  0.00  0.00     0.002 A 
ATOM      3  C4  UNL d   1      -0.685   2.179   0.374  0.00  0.00     0.002 A 
ATOM      4  C5  UNL d   1       0.406   2.770   1.009  0.00  0.00    -0.004 A 
ATOM      5  C6  UNL d   1       1.191   3.697   0.324  0.00  0.00     0.002 A 
ATOM      6  C7  UNL d   1       0.881   4.037  -0.993  0.00  0.00     0.002 A 
ENDROOT
BRANCH   1   7
ATOM      7  C1  UNL d   1      -0.579   3.856  -3.044  0.00  0.00     0.055 C 
ATOM      8  C   UNL d   1      -1.765   3.055  -3.561  0.00  0.00     0.019 C 
ENDBRANCH   1   7
TORSDOF 1
ENDMDL
