MODEL 1
REMARK minimizedAffinity 18.8557186
REMARK minimizedRMSD -1
REMARK  1 active torsions:
REMARK  status: ('A' for Active; 'I' for Inactive)
REMARK    1  A    between atoms: C1_2  and  C2_3 
ROOT
ATOM      1  C2  UNL d   1      -3.556   5.245  -0.855  0.00  0.00    -0.077 A 
ATOM      2  C3  UNL d   1      -4.909   5.609  -0.872  0.00  0.00     0.002 A 
ATOM      3  C4  UNL d   1      -5.555   5.983   0.308  0.00  0.00     0.002 A 
ATOM      4  C5  UNL d   1      -4.854   6.000   1.513  0.00  0.00    -0.004 A 
ATOM      5  C6  UNL d   1      -3.508   5.637   1.540  0.00  0.00     0.002 A 
ATOM      6  C7  UNL d   1      -2.862   5.262   0.362  0.00  0.00     0.002 A 
ENDROOT
BRANCH   1   7
ATOM      7  C1  UNL d   1      -2.845   4.889  -2.134  0.00  0.00     0.055 C 
ATOM      8  C   UNL d   1      -1.576   4.094  -1.860  0.00  0.00     0.019 C 
ENDBRANCH   1   7
TORSDOF 1
ENDMDL
