MODEL 1
REMARK minimizedAffinity 10.112318
REMARK minimizedRMSD -1
REMARK  1 active torsions:
REMARK  status: ('A' for Active; 'I' for Inactive)
REMARK    1  A    between atoms: C1_2  and  C2_3 
ROOT
ATOM      1  C2  UNL d   1      -1.370   4.699   0.495  0.00  0.00    -0.077 A 
ATOM      2  C3  UNL d   1      -1.829   3.375   0.500  0.00  0.00     0.002 A 
ATOM      3  C4  UNL d   1      -0.971   2.328   0.158  0.00  0.00     0.002 A 
ATOM      4  C5  UNL d   1       0.352   2.595  -0.188  0.00  0.00    -0.004 A 
ATOM      5  C6  UNL d   1       0.818   3.909  -0.198  0.00  0.00     0.002 A 
ATOM      6  C7  UNL d   1      -0.039   4.956   0.142  0.00  0.00     0.002 A 
ENDROOT
BRANCH   1   7
ATOM      7  C1  UNL d   1      -2.281   5.825   0.912  0.00  0.00     0.055 C 
ATOM      8  C   UNL d   1      -3.734   5.376   0.948  0.00  0.00     0.019 C 
ENDBRANCH   1   7
TORSDOF 1
ENDMDL
