MODEL 1
REMARK minimizedAffinity -2.3313055
REMARK minimizedRMSD -1
REMARK  1 active torsions:
REMARK  status: ('A' for Active; 'I' for Inactive)
REMARK    1  A    between atoms: C1_2  and  C2_3 
ROOT
ATOM      1  C2  UNL d   1      -0.149   2.604   1.472  0.00  0.00    -0.077 A 
ATOM      2  C3  UNL d   1       0.905   3.427   1.054  0.00  0.00     0.002 A 
ATOM      3  C4  UNL d   1       0.962   3.887  -0.263  0.00  0.00     0.002 A 
ATOM      4  C5  UNL d   1      -0.034   3.532  -1.170  0.00  0.00    -0.004 A 
ATOM      5  C6  UNL d   1      -1.086   2.712  -0.764  0.00  0.00     0.002 A 
ATOM      6  C7  UNL d   1      -1.144   2.251   0.551  0.00  0.00     0.002 A 
ENDROOT
BRANCH   1   7
ATOM      7  C1  UNL d   1      -0.239   2.147   2.905  0.00  0.00     0.055 C 
ATOM      8  C   UNL d   1      -1.608   1.558   3.214  0.00  0.00     0.019 C 
ENDBRANCH   1   7
TORSDOF 1
ENDMDL
