MODEL 1
REMARK minimizedAffinity 3.576437
REMARK minimizedRMSD -1
REMARK  1 active torsions:
REMARK  status: ('A' for Active; 'I' for Inactive)
REMARK    1  A    between atoms: C1_2  and  C2_3 
ROOT
ATOM      1  C2  UNL d   1      -5.451  -2.824   0.871  0.00  0.00    -0.077 A 
ATOM      2  C3  UNL d   1      -6.000  -4.102   0.692  0.00  0.00     0.002 A 
ATOM      3  C4  UNL d   1      -5.998  -5.024   1.741  0.00  0.00     0.002 A 
ATOM      4  C5  UNL d   1      -5.454  -4.677   2.975  0.00  0.00    -0.004 A 
ATOM      5  C6  UNL d   1      -4.905  -3.410   3.163  0.00  0.00     0.002 A 
ATOM      6  C7  UNL d   1      -4.904  -2.487   2.116  0.00  0.00     0.002 A 
ENDROOT
BRANCH   1   7
ATOM      7  C1  UNL d   1      -5.496  -1.812  -0.243  0.00  0.00     0.055 C 
ATOM      8  C   UNL d   1      -5.924  -0.444   0.269  0.00  0.00     0.019 C 
ENDBRANCH   1   7
TORSDOF 1
ENDMDL
