MODEL 1
REMARK minimizedAffinity 12.8178759
REMARK minimizedRMSD -1
REMARK  1 active torsions:
REMARK  status: ('A' for Active; 'I' for Inactive)
REMARK    1  A    between atoms: C1_2  and  C2_3 
ROOT
ATOM      1  C2  UNL d   1      -0.277   3.416   0.143  0.00  0.00    -0.077 A 
ATOM      2  C3  UNL d   1      -1.107   4.354   0.775  0.00  0.00     0.002 A 
ATOM      3  C4  UNL d   1      -1.507   5.509   0.101  0.00  0.00     0.002 A 
ATOM      4  C5  UNL d   1      -1.086   5.736  -1.208  0.00  0.00    -0.004 A 
ATOM      5  C6  UNL d   1      -0.259   4.811  -1.843  0.00  0.00     0.002 A 
ATOM      6  C7  UNL d   1       0.143   3.656  -1.171  0.00  0.00     0.002 A 
ENDROOT
BRANCH   1   7
ATOM      7  C1  UNL d   1       0.115   2.145   0.851  0.00  0.00     0.055 C 
ATOM      8  C   UNL d   1      -1.037   1.594   1.679  0.00  0.00     0.019 C 
ENDBRANCH   1   7
TORSDOF 1
ENDMDL
