MODEL 1
REMARK minimizedAffinity -1.5889951
REMARK minimizedRMSD -1
REMARK  1 active torsions:
REMARK  status: ('A' for Active; 'I' for Inactive)
REMARK    1  A    between atoms: C1_2  and  C2_3 
ROOT
ATOM      1  C2  UNL d   1      -0.291   2.621   1.390  0.00  0.00    -0.077 A 
ATOM      2  C3  UNL d   1      -0.646   1.839   0.282  0.00  0.00     0.002 A 
ATOM      3  C4  UNL d   1      -0.494   2.339  -1.013  0.00  0.00     0.002 A 
ATOM      4  C5  UNL d   1       0.016   3.620  -1.212  0.00  0.00    -0.004 A 
ATOM      5  C6  UNL d   1       0.370   4.406  -0.117  0.00  0.00     0.002 A 
ATOM      6  C7  UNL d   1       0.218   3.909   1.179  0.00  0.00     0.002 A 
ENDROOT
BRANCH   1   7
ATOM      7  C1  UNL d   1      -0.408   2.066   2.785  0.00  0.00     0.055 C 
ATOM      8  C   UNL d   1      -1.522   1.033   2.879  0.00  0.00     0.019 C 
ENDBRANCH   1   7
TORSDOF 1
ENDMDL
