MODEL 1
REMARK minimizedAffinity 4.79650116
REMARK minimizedRMSD -1
REMARK  0 active torsions:
REMARK  status: ('A' for Active; 'I' for Inactive)
ROOT
ATOM      1  O1  BZF d   1      -2.427   2.635  -0.671  0.00  0.00    -0.204 OA
ATOM      2  C2  BZF d   1      -3.691   2.135  -0.428  0.00  0.00     0.174 A 
ATOM      3  C3  BZF d   1      -3.629   1.036   0.351  0.00  0.00    -0.012 A 
ATOM      4  C3A BZF d   1      -2.246   0.890   0.687  0.00  0.00    -0.107 A 
ATOM      5  C4  BZF d   1      -1.555  -0.007   1.450  0.00  0.00     0.055 A 
ATOM      6  C5  BZF d   1      -0.201   0.088   1.516  0.00  0.00    -0.016 A 
ATOM      7  C6  BZF d   1       0.494   1.062   0.829  0.00  0.00     0.022 A 
ATOM      8  C7  BZF d   1      -0.149   1.977   0.063  0.00  0.00     0.029 A 
ATOM      9  C7A BZF d   1      -1.520   1.905   0.021  0.00  0.00     0.058 A 
ENDROOT
TORSDOF 0
ENDMDL
