MODEL 1
REMARK minimizedAffinity 10.0518293
REMARK minimizedRMSD -1
REMARK  0 active torsions:
REMARK  status: ('A' for Active; 'I' for Inactive)
ROOT
ATOM      1  O1  BZF d   1       4.715   2.721   0.542  0.00  0.00    -0.204 OA
ATOM      2  C2  BZF d   1       4.912   3.844   1.322  0.00  0.00     0.174 A 
ATOM      3  C3  BZF d   1       3.859   4.049   2.140  0.00  0.00    -0.012 A 
ATOM      4  C3A BZF d   1       2.988   2.935   1.919  0.00  0.00    -0.107 A 
ATOM      5  C4  BZF d   1       1.786   2.563   2.450  0.00  0.00     0.055 A 
ATOM      6  C5  BZF d   1       1.164   1.457   1.965  0.00  0.00    -0.016 A 
ATOM      7  C6  BZF d   1       1.712   0.703   0.947  0.00  0.00     0.022 A 
ATOM      8  C7  BZF d   1       2.904   1.029   0.393  0.00  0.00     0.029 A 
ATOM      9  C7A BZF d   1       3.551   2.128   0.903  0.00  0.00     0.058 A 
ENDROOT
TORSDOF 0
ENDMDL
