MODEL 1
REMARK minimizedAffinity 7.51537561
REMARK minimizedRMSD -1
REMARK  0 active torsions:
REMARK  status: ('A' for Active; 'I' for Inactive)
ROOT
ATOM      1  O1  BZF d   1       1.242   2.632   3.869  0.00  0.00    -0.204 OA
ATOM      2  C2  BZF d   1       2.405   2.914   3.178  0.00  0.00     0.174 A 
ATOM      3  C3  BZF d   1       2.158   3.046   1.859  0.00  0.00    -0.012 A 
ATOM      4  C3A BZF d   1       0.738   2.925   1.728  0.00  0.00    -0.107 A 
ATOM      5  C4  BZF d   1      -0.115   2.984   0.663  0.00  0.00     0.055 A 
ATOM      6  C5  BZF d   1      -1.439   2.752   0.864  0.00  0.00    -0.016 A 
ATOM      7  C6  BZF d   1      -1.943   2.455   2.114  0.00  0.00     0.022 A 
ATOM      8  C7  BZF d   1      -1.136   2.390   3.201  0.00  0.00     0.029 A 
ATOM      9  C7A BZF d   1       0.197   2.656   3.007  0.00  0.00     0.058 A 
ENDROOT
TORSDOF 0
ENDMDL
