MODEL 1
REMARK minimizedAffinity 5.56694508
REMARK minimizedRMSD -1
REMARK  0 active torsions:
REMARK  status: ('A' for Active; 'I' for Inactive)
ROOT
ATOM      1  O1  BZF d   1      -1.492   2.830   0.832  0.00  0.00    -0.204 OA
ATOM      2  C2  BZF d   1      -1.734   2.380  -0.452  0.00  0.00     0.174 A 
ATOM      3  C3  BZF d   1      -0.694   1.653  -0.908  0.00  0.00    -0.012 A 
ATOM      4  C3A BZF d   1       0.218   1.570   0.191  0.00  0.00    -0.107 A 
ATOM      5  C4  BZF d   1       1.431   0.965   0.361  0.00  0.00     0.055 A 
ATOM      6  C5  BZF d   1       2.096   1.138   1.533  0.00  0.00    -0.016 A 
ATOM      7  C6  BZF d   1       1.582   1.911   2.553  0.00  0.00     0.022 A 
ATOM      8  C7  BZF d   1       0.380   2.527   2.433  0.00  0.00     0.029 A 
ATOM      9  C7A BZF d   1      -0.310   2.328   1.262  0.00  0.00     0.058 A 
ENDROOT
TORSDOF 0
ENDMDL
