MODEL 1
REMARK minimizedAffinity -0.861153841
REMARK minimizedRMSD -1
REMARK  0 active torsions:
REMARK  status: ('A' for Active; 'I' for Inactive)
ROOT
ATOM      1  O1  BZF d   1       2.990   2.278   1.975  0.00  0.00    -0.204 OA
ATOM      2  C2  BZF d   1       2.878   3.384   2.794  0.00  0.00     0.174 A 
ATOM      3  C3  BZF d   1       1.588   3.756   2.922  0.00  0.00    -0.012 A 
ATOM      4  C3A BZF d   1       0.839   2.769   2.207  0.00  0.00    -0.107 A 
ATOM      5  C4  BZF d   1      -0.495   2.583   1.983  0.00  0.00     0.055 A 
ATOM      6  C5  BZF d   1      -0.894   1.561   1.182  0.00  0.00    -0.016 A 
ATOM      7  C6  BZF d   1       0.012   0.710   0.585  0.00  0.00     0.022 A 
ATOM      8  C7  BZF d   1       1.346   0.851   0.782  0.00  0.00     0.029 A 
ATOM      9  C7A BZF d   1       1.750   1.863   1.618  0.00  0.00     0.058 A 
ENDROOT
TORSDOF 0
ENDMDL
