MODEL 1
REMARK minimizedAffinity 6.84286737
REMARK minimizedRMSD -1
REMARK  0 active torsions:
REMARK  status: ('A' for Active; 'I' for Inactive)
ROOT
ATOM      1  O1  BZF d   1       5.767   5.846   0.586  0.00  0.00    -0.204 OA
ATOM      2  C2  BZF d   1       6.000   4.864  -0.358  0.00  0.00     0.174 A 
ATOM      3  C3  BZF d   1       5.276   3.759  -0.087  0.00  0.00    -0.012 A 
ATOM      4  C3A BZF d   1       4.475   4.102   1.047  0.00  0.00    -0.107 A 
ATOM      5  C4  BZF d   1       3.538   3.425   1.775  0.00  0.00     0.055 A 
ATOM      6  C5  BZF d   1       2.994   4.020   2.869  0.00  0.00    -0.016 A 
ATOM      7  C6  BZF d   1       3.368   5.287   3.267  0.00  0.00     0.022 A 
ATOM      8  C7  BZF d   1       4.289   6.000   2.575  0.00  0.00     0.029 A 
ATOM      9  C7A BZF d   1       4.816   5.414   1.449  0.00  0.00     0.058 A 
ENDROOT
TORSDOF 0
ENDMDL
