MODEL 1
REMARK minimizedAffinity 7.34328032
REMARK minimizedRMSD -1
REMARK  0 active torsions:
REMARK  status: ('A' for Active; 'I' for Inactive)
ROOT
ATOM      1  O1  BZF d   1      -1.674   2.285   2.446  0.00  0.00    -0.204 OA
ATOM      2  C2  BZF d   1      -1.547   3.028   3.603  0.00  0.00     0.174 A 
ATOM      3  C3  BZF d   1      -0.249   3.166   3.944  0.00  0.00    -0.012 A 
ATOM      4  C3A BZF d   1       0.486   2.543   2.886  0.00  0.00    -0.107 A 
ATOM      5  C4  BZF d   1       1.818   2.369   2.644  0.00  0.00     0.055 A 
ATOM      6  C5  BZF d   1       2.204   1.652   1.556  0.00  0.00    -0.016 A 
ATOM      7  C6  BZF d   1       1.286   1.091   0.694  0.00  0.00     0.022 A 
ATOM      8  C7  BZF d   1      -0.047   1.240   0.889  0.00  0.00     0.029 A 
ATOM      9  C7A BZF d   1      -0.440   1.992   1.970  0.00  0.00     0.058 A 
ENDROOT
TORSDOF 0
ENDMDL
