MODEL 1
REMARK minimizedAffinity 7.46684599
REMARK minimizedRMSD -1
REMARK  0 active torsions:
REMARK  status: ('A' for Active; 'I' for Inactive)
ROOT
ATOM      1  O1  BZF d   1       2.455   1.519   0.816  0.00  0.00    -0.204 OA
ATOM      2  C2  BZF d   1       1.895   0.719  -0.162  0.00  0.00     0.174 A 
ATOM      3  C3  BZF d   1       0.549   0.731  -0.076  0.00  0.00    -0.012 A 
ATOM      4  C3A BZF d   1       0.247   1.664   0.965  0.00  0.00    -0.107 A 
ATOM      5  C4  BZF d   1      -0.921   2.120   1.507  0.00  0.00     0.055 A 
ATOM      6  C5  BZF d   1      -0.870   2.976   2.562  0.00  0.00    -0.016 A 
ATOM      7  C6  BZF d   1       0.329   3.391   3.103  0.00  0.00     0.022 A 
ATOM      8  C7  BZF d   1       1.514   2.969   2.596  0.00  0.00     0.029 A 
ATOM      9  C7A BZF d   1       1.466   2.131   1.509  0.00  0.00     0.058 A 
ENDROOT
TORSDOF 0
ENDMDL
