MODEL 1
REMARK minimizedAffinity 4.80634689
REMARK minimizedRMSD -1
REMARK  0 active torsions:
REMARK  status: ('A' for Active; 'I' for Inactive)
ROOT
ATOM      1  O1  BZF d   1      -1.096   1.995   1.821  0.00  0.00    -0.204 OA
ATOM      2  C2  BZF d   1      -0.843   2.838   2.886  0.00  0.00     0.174 A 
ATOM      3  C3  BZF d   1       0.483   2.949   3.104  0.00  0.00    -0.012 A 
ATOM      4  C3A BZF d   1       1.101   2.198   2.055  0.00  0.00    -0.107 A 
ATOM      5  C4  BZF d   1       2.401   1.943   1.722  0.00  0.00     0.055 A 
ATOM      6  C5  BZF d   1       2.665   1.111   0.681  0.00  0.00    -0.016 A 
ATOM      7  C6  BZF d   1       1.656   0.512  -0.045  0.00  0.00     0.022 A 
ATOM      8  C7  BZF d   1       0.351   0.738   0.245  0.00  0.00     0.029 A 
ATOM      9  C7A BZF d   1       0.081   1.605   1.275  0.00  0.00     0.058 A 
ENDROOT
TORSDOF 0
ENDMDL
