MODEL 1
REMARK minimizedAffinity 3.2939887
REMARK minimizedRMSD -1
REMARK  0 active torsions:
REMARK  status: ('A' for Active; 'I' for Inactive)
ROOT
ATOM      1  O1  BZF d   1      -4.599   3.440  -3.914  0.00  0.00    -0.204 OA
ATOM      2  C2  BZF d   1      -3.765   2.903  -4.877  0.00  0.00     0.174 A 
ATOM      3  C3  BZF d   1      -3.234   1.738  -4.454  0.00  0.00    -0.012 A 
ATOM      4  C3A BZF d   1      -3.841   1.487  -3.183  0.00  0.00    -0.107 A 
ATOM      5  C4  BZF d   1      -3.732   0.474  -2.273  0.00  0.00     0.055 A 
ATOM      6  C5  BZF d   1      -4.406   0.567  -1.097  0.00  0.00    -0.016 A 
ATOM      7  C6  BZF d   1      -5.193   1.659  -0.795  0.00  0.00     0.022 A 
ATOM      8  C7  BZF d   1      -5.337   2.686  -1.668  0.00  0.00     0.029 A 
ATOM      9  C7A BZF d   1      -4.684   2.579  -2.871  0.00  0.00     0.058 A 
ENDROOT
TORSDOF 0
ENDMDL
