MODEL 1
REMARK minimizedAffinity -0.240654886
REMARK minimizedRMSD -1
REMARK  0 active torsions:
REMARK  status: ('A' for Active; 'I' for Inactive)
ROOT
ATOM      1  O1  BZF d   1       0.890   2.620   3.472  0.00  0.00    -0.204 OA
ATOM      2  C2  BZF d   1      -0.403   2.918   3.855  0.00  0.00     0.174 A 
ATOM      3  C3  BZF d   1      -1.275   2.612   2.873  0.00  0.00    -0.012 A 
ATOM      4  C3A BZF d   1      -0.486   2.005   1.845  0.00  0.00    -0.107 A 
ATOM      5  C4  BZF d   1      -0.784   1.474   0.623  0.00  0.00     0.055 A 
ATOM      6  C5  BZF d   1       0.227   1.027  -0.168  0.00  0.00    -0.016 A 
ATOM      7  C6  BZF d   1       1.546   1.100   0.230  0.00  0.00     0.022 A 
ATOM      8  C7  BZF d   1       1.890   1.613   1.436  0.00  0.00     0.029 A 
ATOM      9  C7A BZF d   1       0.868   2.036   2.251  0.00  0.00     0.058 A 
ENDROOT
TORSDOF 0
ENDMDL
