MODEL 1
REMARK minimizedAffinity 1.67192352
REMARK minimizedRMSD -1
REMARK  0 active torsions:
REMARK  status: ('A' for Active; 'I' for Inactive)
ROOT
ATOM      1  O1  BZF d   1       2.425   1.394   1.081  0.00  0.00    -0.204 OA
ATOM      2  C2  BZF d   1       1.739   0.594   0.188  0.00  0.00     0.174 A 
ATOM      3  C3  BZF d   1       0.407   0.723   0.356  0.00  0.00    -0.012 A 
ATOM      4  C3A BZF d   1       0.250   1.732   1.358  0.00  0.00    -0.107 A 
ATOM      5  C4  BZF d   1      -0.839   2.312   1.944  0.00  0.00     0.055 A 
ATOM      6  C5  BZF d   1      -0.649   3.215   2.942  0.00  0.00    -0.016 A 
ATOM      7  C6  BZF d   1       0.613   3.557   3.382  0.00  0.00     0.022 A 
ATOM      8  C7  BZF d   1       1.723   3.011   2.828  0.00  0.00     0.029 A 
ATOM      9  C7A BZF d   1       1.536   2.123   1.797  0.00  0.00     0.058 A 
ENDROOT
TORSDOF 0
ENDMDL
