MODEL 1
REMARK minimizedAffinity 4.624475
REMARK minimizedRMSD -1
REMARK  0 active torsions:
REMARK  status: ('A' for Active; 'I' for Inactive)
ROOT
ATOM      1  O1  BZF d   1       2.718   1.459   1.339  0.00  0.00    -0.204 OA
ATOM      2  C2  BZF d   1       2.323   0.621   0.313  0.00  0.00     0.174 A 
ATOM      3  C3  BZF d   1       0.979   0.593   0.209  0.00  0.00    -0.012 A 
ATOM      4  C3A BZF d   1       0.507   1.539   1.173  0.00  0.00    -0.107 A 
ATOM      5  C4  BZF d   1      -0.737   1.971   1.534  0.00  0.00     0.055 A 
ATOM      6  C5  BZF d   1      -0.859   2.850   2.563  0.00  0.00    -0.016 A 
ATOM      7  C6  BZF d   1       0.240   3.314   3.256  0.00  0.00     0.022 A 
ATOM      8  C7  BZF d   1       1.495   2.918   2.931  0.00  0.00     0.029 A 
ATOM      9  C7A BZF d   1       1.624   2.055   1.870  0.00  0.00     0.058 A 
ENDROOT
TORSDOF 0
ENDMDL
