MODEL 1
REMARK minimizedAffinity 5.41564608
REMARK minimizedRMSD -1
REMARK  0 active torsions:
REMARK  status: ('A' for Active; 'I' for Inactive)
ROOT
ATOM      1  O1  BZF d   1      -1.065   2.047   2.122  0.00  0.00    -0.204 OA
ATOM      2  C2  BZF d   1      -1.020   2.893   3.213  0.00  0.00     0.174 A 
ATOM      3  C3  BZF d   1       0.254   3.218   3.514  0.00  0.00    -0.012 A 
ATOM      4  C3A BZF d   1       1.049   2.607   2.494  0.00  0.00    -0.107 A 
ATOM      5  C4  BZF d   1       2.391   2.581   2.239  0.00  0.00     0.055 A 
ATOM      6  C5  BZF d   1       2.852   1.831   1.204  0.00  0.00    -0.016 A 
ATOM      7  C6  BZF d   1       2.002   1.091   0.408  0.00  0.00     0.022 A 
ATOM      8  C7  BZF d   1       0.663   1.088   0.620  0.00  0.00     0.029 A 
ATOM      9  C7A BZF d   1       0.191   1.872   1.644  0.00  0.00     0.058 A 
ENDROOT
TORSDOF 0
ENDMDL
