MODEL 1
REMARK minimizedAffinity 8.53481007
REMARK minimizedRMSD -1
REMARK  0 active torsions:
REMARK  status: ('A' for Active; 'I' for Inactive)
ROOT
ATOM      1  O1  BZF d   1       2.252   2.223   2.553  0.00  0.00    -0.204 OA
ATOM      2  C2  BZF d   1       2.925   1.425   1.648  0.00  0.00     0.174 A 
ATOM      3  C3  BZF d   1       2.061   0.820   0.808  0.00  0.00    -0.012 A 
ATOM      4  C3A BZF d   1       0.774   1.340   1.154  0.00  0.00    -0.107 A 
ATOM      5  C4  BZF d   1      -0.485   1.133   0.666  0.00  0.00     0.055 A 
ATOM      6  C5  BZF d   1      -1.537   1.740   1.274  0.00  0.00    -0.016 A 
ATOM      7  C6  BZF d   1      -1.369   2.556   2.374  0.00  0.00     0.022 A 
ATOM      8  C7  BZF d   1      -0.139   2.795   2.891  0.00  0.00     0.029 A 
ATOM      9  C7A BZF d   1       0.930   2.209   2.259  0.00  0.00     0.058 A 
ENDROOT
TORSDOF 0
ENDMDL
