MODEL 1
REMARK minimizedAffinity 3.31607962
REMARK minimizedRMSD -1
REMARK  2 active torsions:
REMARK  status: ('A' for Active; 'I' for Inactive)
REMARK    1  A    between atoms: C1_2  and  C2_3 
REMARK    2  A    between atoms: C2_3  and  C3_4 
ROOT
ATOM      1  C3  UNL d   1       2.077   1.822   0.752  0.00  0.00    -0.075 A 
ATOM      2  C4  UNL d   1       0.724   1.658   0.424  0.00  0.00     0.002 A 
ATOM      3  C5  UNL d   1       0.023   0.531   0.855  0.00  0.00     0.002 A 
ATOM      4  C6  UNL d   1       0.667  -0.448   1.608  0.00  0.00    -0.004 A 
ATOM      5  C7  UNL d   1       2.015  -0.303   1.925  0.00  0.00     0.002 A 
ATOM      6  C8  UNL d   1       2.718   0.825   1.500  0.00  0.00     0.002 A 
ENDROOT
BRANCH   1   7
ATOM      7  C2  UNL d   1       2.834   3.054   0.315  0.00  0.00     0.056 C 
BRANCH   7   8
ATOM      8  C1  UNL d   1       2.329   3.663  -0.998  0.00  0.00     0.007 C 
ATOM      9  C   UNL d   1       2.655   5.144  -1.137  0.00  0.00     0.009 C 
ENDBRANCH   7   8
ENDBRANCH   1   7
TORSDOF 2
ENDMDL
