MODEL 1
REMARK minimizedAffinity 11.0565071
REMARK minimizedRMSD -1
REMARK  2 active torsions:
REMARK  status: ('A' for Active; 'I' for Inactive)
REMARK    1  A    between atoms: C1_2  and  C2_3 
REMARK    2  A    between atoms: C2_3  and  C3_4 
ROOT
ATOM      1  C3  UNL d   1       2.724   2.290  -4.698  0.00  0.00    -0.075 A 
ATOM      2  C4  UNL d   1       3.690   2.171  -5.708  0.00  0.00     0.002 A 
ATOM      3  C5  UNL d   1       4.503   1.040  -5.780  0.00  0.00     0.002 A 
ATOM      4  C6  UNL d   1       4.369   0.021  -4.840  0.00  0.00    -0.004 A 
ATOM      5  C7  UNL d   1       3.424   0.136  -3.823  0.00  0.00     0.002 A 
ATOM      6  C8  UNL d   1       2.606   1.265  -3.751  0.00  0.00     0.002 A 
ENDROOT
BRANCH   1   7
ATOM      7  C2  UNL d   1       1.820   3.498  -4.632  0.00  0.00     0.056 C 
BRANCH   7   8
ATOM      8  C1  UNL d   1       1.489   4.105  -6.000  0.00  0.00     0.007 C 
ATOM      9  C   UNL d   1       0.204   4.922  -5.999  0.00  0.00     0.009 C 
ENDBRANCH   7   8
ENDBRANCH   1   7
TORSDOF 2
ENDMDL
