MODEL 1
REMARK minimizedAffinity 3.55320764
REMARK minimizedRMSD -1
REMARK  2 active torsions:
REMARK  status: ('A' for Active; 'I' for Inactive)
REMARK    1  A    between atoms: C1_2  and  C2_3 
REMARK    2  A    between atoms: C2_3  and  C3_4 
ROOT
ATOM      1  C3  UNL d   1      -0.224   0.734   2.157  0.00  0.00    -0.075 A 
ATOM      2  C4  UNL d   1      -0.433  -0.598   2.543  0.00  0.00     0.002 A 
ATOM      3  C5  UNL d   1      -1.602  -0.968   3.208  0.00  0.00     0.002 A 
ATOM      4  C6  UNL d   1      -2.570  -0.012   3.506  0.00  0.00    -0.004 A 
ATOM      5  C7  UNL d   1      -2.366   1.318   3.142  0.00  0.00     0.002 A 
ATOM      6  C8  UNL d   1      -1.199   1.690   2.472  0.00  0.00     0.002 A 
ENDROOT
BRANCH   1   7
ATOM      7  C2  UNL d   1       1.025   1.136   1.410  0.00  0.00     0.056 C 
BRANCH   7   8
ATOM      8  C1  UNL d   1       0.954   0.892  -0.101  0.00  0.00     0.007 C 
ATOM      9  C   UNL d   1       1.733  -0.337  -0.548  0.00  0.00     0.009 C 
ENDBRANCH   7   8
ENDBRANCH   1   7
TORSDOF 2
ENDMDL
