MODEL 1
REMARK minimizedAffinity 8.38369942
REMARK minimizedRMSD -1
REMARK  2 active torsions:
REMARK  status: ('A' for Active; 'I' for Inactive)
REMARK    1  A    between atoms: C1_2  and  C2_3 
REMARK    2  A    between atoms: C2_3  and  C3_4 
ROOT
ATOM      1  C3  UNL d   1      -0.652  -2.156  -4.266  0.00  0.00    -0.075 A 
ATOM      2  C4  UNL d   1      -1.383  -1.433  -3.312  0.00  0.00     0.002 A 
ATOM      3  C5  UNL d   1      -2.685  -1.809  -2.983  0.00  0.00     0.002 A 
ATOM      4  C6  UNL d   1      -3.276  -2.904  -3.610  0.00  0.00    -0.004 A 
ATOM      5  C7  UNL d   1      -2.566  -3.619  -4.571  0.00  0.00     0.002 A 
ATOM      6  C8  UNL d   1      -1.260  -3.248  -4.899  0.00  0.00     0.002 A 
ENDROOT
BRANCH   1   7
ATOM      7  C2  UNL d   1       0.769  -1.771  -4.605  0.00  0.00     0.056 C 
BRANCH   7   8
ATOM      8  C1  UNL d   1       1.617  -1.385  -3.389  0.00  0.00     0.007 C 
ATOM      9  C   UNL d   1       2.882  -0.621  -3.757  0.00  0.00     0.009 C 
ENDBRANCH   7   8
ENDBRANCH   1   7
TORSDOF 2
ENDMDL
