MODEL 1
REMARK minimizedAffinity 6.0752821
REMARK minimizedRMSD -1
REMARK  2 active torsions:
REMARK  status: ('A' for Active; 'I' for Inactive)
REMARK    1  A    between atoms: C1_2  and  C2_3 
REMARK    2  A    between atoms: C2_3  and  C3_4 
ROOT
ATOM      1  C3  UNL d   1      -0.855  -1.485   0.998  0.00  0.00    -0.075 A 
ATOM      2  C4  UNL d   1      -0.040  -0.750   0.124  0.00  0.00     0.002 A 
ATOM      3  C5  UNL d   1       0.330   0.560   0.434  0.00  0.00     0.002 A 
ATOM      4  C6  UNL d   1      -0.118   1.153   1.612  0.00  0.00    -0.004 A 
ATOM      5  C7  UNL d   1      -0.942   0.437   2.479  0.00  0.00     0.002 A 
ATOM      6  C8  UNL d   1      -1.309  -0.874   2.174  0.00  0.00     0.002 A 
ENDROOT
BRANCH   1   7
ATOM      7  C2  UNL d   1      -1.234  -2.912   0.683  0.00  0.00     0.056 C 
BRANCH   7   8
ATOM      8  C1  UNL d   1      -0.193  -3.946   1.126  0.00  0.00     0.007 C 
ATOM      9  C   UNL d   1      -0.695  -5.381   1.033  0.00  0.00     0.009 C 
ENDBRANCH   7   8
ENDBRANCH   1   7
TORSDOF 2
ENDMDL
