MODEL 1
REMARK minimizedAffinity 4.78847122
REMARK minimizedRMSD -1
REMARK  2 active torsions:
REMARK  status: ('A' for Active; 'I' for Inactive)
REMARK    1  A    between atoms: C1_2  and  C2_3 
REMARK    2  A    between atoms: C2_3  and  C3_4 
ROOT
ATOM      1  C3  UNL d   1      -0.066  -2.106  -3.458  0.00  0.00    -0.075 A 
ATOM      2  C4  UNL d   1      -0.746  -1.174  -2.660  0.00  0.00     0.002 A 
ATOM      3  C5  UNL d   1      -2.081  -1.381  -2.310  0.00  0.00     0.002 A 
ATOM      4  C6  UNL d   1      -2.754  -2.515  -2.760  0.00  0.00    -0.004 A 
ATOM      5  C7  UNL d   1      -2.094  -3.439  -3.566  0.00  0.00     0.002 A 
ATOM      6  C8  UNL d   1      -0.757  -3.237  -3.915  0.00  0.00     0.002 A 
ENDROOT
BRANCH   1   7
ATOM      7  C2  UNL d   1       1.386  -1.903  -3.816  0.00  0.00     0.056 C 
BRANCH   7   8
ATOM      8  C1  UNL d   1       2.196  -1.168  -2.743  0.00  0.00     0.007 C 
ATOM      9  C   UNL d   1       3.371  -0.382  -3.311  0.00  0.00     0.009 C 
ENDBRANCH   7   8
ENDBRANCH   1   7
TORSDOF 2
ENDMDL
