MODEL 1
REMARK minimizedAffinity 0.929778099
REMARK minimizedRMSD -1
REMARK  2 active torsions:
REMARK  status: ('A' for Active; 'I' for Inactive)
REMARK    1  A    between atoms: C1_2  and  C2_3 
REMARK    2  A    between atoms: C2_3  and  C3_4 
ROOT
ATOM      1  C3  UNL d   1      -0.094  -1.746  -3.992  0.00  0.00    -0.075 A 
ATOM      2  C4  UNL d   1      -0.947  -0.698  -3.618  0.00  0.00     0.002 A 
ATOM      3  C5  UNL d   1      -2.300  -0.938  -3.376  0.00  0.00     0.002 A 
ATOM      4  C6  UNL d   1      -2.818  -2.224  -3.514  0.00  0.00    -0.004 A 
ATOM      5  C7  UNL d   1      -1.982  -3.270  -3.901  0.00  0.00     0.002 A 
ATOM      6  C8  UNL d   1      -0.628  -3.033  -4.140  0.00  0.00     0.002 A 
ENDROOT
BRANCH   1   7
ATOM      7  C2  UNL d   1       1.377  -1.498  -4.227  0.00  0.00     0.056 C 
BRANCH   7   8
ATOM      8  C1  UNL d   1       2.055  -0.674  -3.127  0.00  0.00     0.007 C 
ATOM      9  C   UNL d   1       3.313   0.040  -3.600  0.00  0.00     0.009 C 
ENDBRANCH   7   8
ENDBRANCH   1   7
TORSDOF 2
ENDMDL
