MODEL 1
REMARK minimizedAffinity 0.987741172
REMARK minimizedRMSD -1
REMARK  2 active torsions:
REMARK  status: ('A' for Active; 'I' for Inactive)
REMARK    1  A    between atoms: C1_2  and  C2_3 
REMARK    2  A    between atoms: C2_3  and  C3_4 
ROOT
ATOM      1  C3  UNL d   1      -1.620  -5.942   2.416  0.00  0.00    -0.075 A 
ATOM      2  C4  UNL d   1      -0.538  -5.965   1.524  0.00  0.00     0.002 A 
ATOM      3  C5  UNL d   1       0.773  -5.995   2.000  0.00  0.00     0.002 A 
ATOM      4  C6  UNL d   1       1.019  -5.993   3.371  0.00  0.00    -0.004 A 
ATOM      5  C7  UNL d   1      -0.048  -5.954   4.267  0.00  0.00     0.002 A 
ATOM      6  C8  UNL d   1      -1.361  -5.928   3.793  0.00  0.00     0.002 A 
ENDROOT
BRANCH   1   7
ATOM      7  C2  UNL d   1      -3.042  -5.939   1.907  0.00  0.00     0.056 C 
BRANCH   7   8
ATOM      8  C1  UNL d   1      -4.101  -5.995   3.013  0.00  0.00     0.007 C 
ATOM      9  C   UNL d   1      -5.518  -5.786   2.498  0.00  0.00     0.009 C 
ENDBRANCH   7   8
ENDBRANCH   1   7
TORSDOF 2
ENDMDL
