MODEL 1
REMARK minimizedAffinity 10.8770685
REMARK minimizedRMSD -1
REMARK  2 active torsions:
REMARK  status: ('A' for Active; 'I' for Inactive)
REMARK    1  A    between atoms: C1_2  and  C2_3 
REMARK    2  A    between atoms: C2_3  and  C3_4 
ROOT
ATOM      1  C3  UNL d   1       0.441   0.084   0.344  0.00  0.00    -0.075 A 
ATOM      2  C4  UNL d   1      -0.192  -1.127   0.658  0.00  0.00     0.002 A 
ATOM      3  C5  UNL d   1      -0.939  -1.253   1.829  0.00  0.00     0.002 A 
ATOM      4  C6  UNL d   1      -1.054  -0.176   2.705  0.00  0.00    -0.004 A 
ATOM      5  C7  UNL d   1      -0.416   1.027   2.411  0.00  0.00     0.002 A 
ATOM      6  C8  UNL d   1       0.328   1.158   1.237  0.00  0.00     0.002 A 
ENDROOT
BRANCH   1   7
ATOM      7  C2  UNL d   1       1.226   0.236  -0.937  0.00  0.00     0.056 C 
BRANCH   7   8
ATOM      8  C1  UNL d   1       2.053  -0.999  -1.312  0.00  0.00     0.007 C 
ATOM      9  C   UNL d   1       2.674  -0.907  -2.699  0.00  0.00     0.009 C 
ENDBRANCH   7   8
ENDBRANCH   1   7
TORSDOF 2
ENDMDL
