MODEL 1
REMARK minimizedAffinity 7.91919708
REMARK minimizedRMSD -1
REMARK  2 active torsions:
REMARK  status: ('A' for Active; 'I' for Inactive)
REMARK    1  A    between atoms: C1_2  and  C2_3 
REMARK    2  A    between atoms: C2_3  and  C3_4 
ROOT
ATOM      1  C3  UNL d   1      -0.748  -5.889   2.743  0.00  0.00    -0.075 A 
ATOM      2  C4  UNL d   1      -0.697  -5.842   4.143  0.00  0.00     0.002 A 
ATOM      3  C5  UNL d   1       0.530  -5.854   4.808  0.00  0.00     0.002 A 
ATOM      4  C6  UNL d   1       1.717  -5.923   4.084  0.00  0.00    -0.004 A 
ATOM      5  C7  UNL d   1       1.678  -5.987   2.693  0.00  0.00     0.002 A 
ATOM      6  C8  UNL d   1       0.452  -5.970   2.024  0.00  0.00     0.002 A 
ENDROOT
BRANCH   1   7
ATOM      7  C2  UNL d   1      -2.071  -5.846   2.016  0.00  0.00     0.056 C 
BRANCH   7   8
ATOM      8  C1  UNL d   1      -1.953  -5.999   0.496  0.00  0.00     0.007 C 
ATOM      9  C   UNL d   1      -2.300  -4.726  -0.265  0.00  0.00     0.009 C 
ENDBRANCH   7   8
ENDBRANCH   1   7
TORSDOF 2
ENDMDL
