MODEL 1
REMARK minimizedAffinity 1.79113317
REMARK minimizedRMSD -1
REMARK  2 active torsions:
REMARK  status: ('A' for Active; 'I' for Inactive)
REMARK    1  A    between atoms: C1_2  and  C2_3 
REMARK    2  A    between atoms: C2_3  and  C3_4 
ROOT
ATOM      1  C3  UNL d   1      -0.861  -1.411  -3.684  0.00  0.00    -0.075 A 
ATOM      2  C4  UNL d   1      -2.137  -1.745  -3.209  0.00  0.00     0.002 A 
ATOM      3  C5  UNL d   1      -2.686  -3.000  -3.477  0.00  0.00     0.002 A 
ATOM      4  C6  UNL d   1      -1.972  -3.930  -4.229  0.00  0.00    -0.004 A 
ATOM      5  C7  UNL d   1      -0.710  -3.602  -4.720  0.00  0.00     0.002 A 
ATOM      6  C8  UNL d   1      -0.157  -2.349  -4.450  0.00  0.00     0.002 A 
ENDROOT
BRANCH   1   7
ATOM      7  C2  UNL d   1      -0.249  -0.065  -3.372  0.00  0.00     0.056 C 
BRANCH   7   8
ATOM      8  C1  UNL d   1      -0.849   0.623  -2.142  0.00  0.00     0.007 C 
ATOM      9  C   UNL d   1       0.113   0.691  -0.963  0.00  0.00     0.009 C 
ENDBRANCH   7   8
ENDBRANCH   1   7
TORSDOF 2
ENDMDL
