MODEL 1
REMARK minimizedAffinity -0.112258673
REMARK minimizedRMSD -1
REMARK  2 active torsions:
REMARK  status: ('A' for Active; 'I' for Inactive)
REMARK    1  A    between atoms: C2'_3  and  C1'_4 
REMARK    2  A    between atoms: C1'_4  and  C1_5 
ROOT
ATOM      1  C1  I4B d   1      -0.422  -1.282  -3.155  0.00  0.00    -0.075 A 
ATOM      2  C2  I4B d   1      -0.602   0.059  -3.382  0.00  0.00     0.003 A 
ATOM      3  C3  I4B d   1      -0.695   0.552  -4.706  0.00  0.00     0.002 A 
ATOM      4  C4  I4B d   1      -0.553  -0.319  -5.767  0.00  0.00    -0.004 A 
ATOM      5  C5  I4B d   1      -0.393  -1.682  -5.535  0.00  0.00     0.002 A 
ATOM      6  C6  I4B d   1      -0.339  -2.169  -4.221  0.00  0.00     0.003 A 
ENDROOT
BRANCH   1   7
ATOM      7  C1' I4B d   1      -0.294  -1.764  -1.745  0.00  0.00     0.060 C 
BRANCH   7   8
ATOM      8  C2' I4B d   1      -1.490  -2.644  -1.442  0.00  0.00    -0.013 C 
ATOM      9  C4' I4B d   1      -1.077  -4.079  -1.250  0.00  0.00     0.013 C 
ATOM     10  C3' I4B d   1      -2.162  -2.105  -0.214  0.00  0.00     0.013 C 
ENDBRANCH   7   8
ENDBRANCH   1   7
TORSDOF 2
ENDMDL
