MODEL 1
REMARK minimizedAffinity 5.01740265
REMARK minimizedRMSD -1
REMARK  2 active torsions:
REMARK  status: ('A' for Active; 'I' for Inactive)
REMARK    1  A    between atoms: C2'_3  and  C1'_4 
REMARK    2  A    between atoms: C1'_4  and  C1_5 
ROOT
ATOM      1  C1  I4B d   1      -0.411  -0.636  -3.219  0.00  0.00    -0.075 A 
ATOM      2  C2  I4B d   1      -0.012  -1.802  -3.824  0.00  0.00     0.003 A 
ATOM      3  C3  I4B d   1       0.071  -1.880  -5.235  0.00  0.00     0.002 A 
ATOM      4  C4  I4B d   1      -0.300  -0.793  -5.999  0.00  0.00    -0.004 A 
ATOM      5  C5  I4B d   1      -0.683   0.395  -5.384  0.00  0.00     0.002 A 
ATOM      6  C6  I4B d   1      -0.726   0.479  -3.985  0.00  0.00     0.003 A 
ENDROOT
BRANCH   1   7
ATOM      7  C1' I4B d   1      -0.518  -0.598  -1.728  0.00  0.00     0.060 C 
BRANCH   7   8
ATOM      8  C2' I4B d   1      -1.126  -1.908  -1.270  0.00  0.00    -0.013 C 
ATOM      9  C4' I4B d   1      -0.061  -2.935  -0.991  0.00  0.00     0.013 C 
ATOM     10  C3' I4B d   1      -1.948  -1.635  -0.046  0.00  0.00     0.013 C 
ENDBRANCH   7   8
ENDBRANCH   1   7
TORSDOF 2
ENDMDL
