MODEL 1
REMARK minimizedAffinity 3.74384952
REMARK minimizedRMSD -1
REMARK  2 active torsions:
REMARK  status: ('A' for Active; 'I' for Inactive)
REMARK    1  A    between atoms: C2'_3  and  C1'_4 
REMARK    2  A    between atoms: C1'_4  and  C1_5 
ROOT
ATOM      1  C1  I4B d   1      -1.265  -0.472  -4.792  0.00  0.00    -0.075 A 
ATOM      2  C2  I4B d   1      -1.237  -0.314  -3.429  0.00  0.00     0.003 A 
ATOM      3  C3  I4B d   1      -0.355  -1.091  -2.639  0.00  0.00     0.002 A 
ATOM      4  C4  I4B d   1       0.439  -2.044  -3.244  0.00  0.00    -0.004 A 
ATOM      5  C5  I4B d   1       0.426  -2.186  -4.629  0.00  0.00     0.002 A 
ATOM      6  C6  I4B d   1      -0.422  -1.387  -5.409  0.00  0.00     0.003 A 
ENDROOT
BRANCH   1   7
ATOM      7  C1' I4B d   1      -2.232   0.342  -5.592  0.00  0.00     0.060 C 
BRANCH   7   8
ATOM      8  C2' I4B d   1      -3.386  -0.558  -5.985  0.00  0.00    -0.013 C 
ATOM      9  C4' I4B d   1      -2.969  -2.005  -5.998  0.00  0.00     0.013 C 
ATOM     10  C3' I4B d   1      -4.505  -0.325  -5.014  0.00  0.00     0.013 C 
ENDBRANCH   7   8
ENDBRANCH   1   7
TORSDOF 2
ENDMDL
