MODEL 1
REMARK minimizedAffinity -1.72988868
REMARK minimizedRMSD -1
REMARK  2 active torsions:
REMARK  status: ('A' for Active; 'I' for Inactive)
REMARK    1  A    between atoms: C2'_3  and  C1'_4 
REMARK    2  A    between atoms: C1'_4  and  C1_5 
ROOT
ATOM      1  C1  I4B d   1      -0.759  -0.349  -4.509  0.00  0.00    -0.075 A 
ATOM      2  C2  I4B d   1      -0.030  -1.224  -5.275  0.00  0.00     0.003 A 
ATOM      3  C3  I4B d   1       0.699  -2.271  -4.661  0.00  0.00     0.002 A 
ATOM      4  C4  I4B d   1       0.711  -2.376  -3.286  0.00  0.00    -0.004 A 
ATOM      5  C5  I4B d   1      -0.048  -1.502  -2.512  0.00  0.00     0.002 A 
ATOM      6  C6  I4B d   1      -0.798  -0.490  -3.128  0.00  0.00     0.003 A 
ENDROOT
BRANCH   1   7
ATOM      7  C1' I4B d   1      -1.491   0.765  -5.188  0.00  0.00     0.060 C 
BRANCH   7   8
ATOM      8  C2' I4B d   1      -2.839   0.237  -5.632  0.00  0.00    -0.013 C 
ATOM      9  C4' I4B d   1      -2.759  -1.222  -5.999  0.00  0.00     0.013 C 
ATOM     10  C3' I4B d   1      -3.815   0.460  -4.515  0.00  0.00     0.013 C 
ENDBRANCH   7   8
ENDBRANCH   1   7
TORSDOF 2
ENDMDL
