MODEL 1
REMARK minimizedAffinity -1.9666611
REMARK minimizedRMSD -1
REMARK  0 active torsions:
REMARK  status: ('A' for Active; 'I' for Inactive)
ROOT
ATOM      1  C   UNL d   1      -2.562   2.216   1.413  0.00  0.00     0.077 C 
ATOM      2  C1  UNL d   1      -1.493   1.241   1.016  0.00  0.00    -0.074 A 
ATOM      3  C2  UNL d   1      -1.424  -0.027   1.600  0.00  0.00    -0.005 A 
ATOM      4  C3  UNL d   1      -0.431  -0.927   1.215  0.00  0.00     0.006 A 
ATOM      5  C4  UNL d   1       0.503  -0.567   0.242  0.00  0.00    -0.005 A 
ATOM      6  C5  UNL d   1       0.450   0.697  -0.354  0.00  0.00    -0.074 A 
ATOM      7  C6  UNL d   1       1.440   1.096  -1.408  0.00  0.00     0.077 C 
ATOM      8  C7  UNL d   1      -0.556   1.592   0.034  0.00  0.00    -0.001 A 
ENDROOT
TORSDOF 0
ENDMDL
