MODEL 1
REMARK minimizedAffinity -4.44578171
REMARK minimizedRMSD -1
REMARK  0 active torsions:
REMARK  status: ('A' for Active; 'I' for Inactive)
ROOT
ATOM      1  C   UNL d   1      -2.249   2.218   1.149  0.00  0.00     0.077 C 
ATOM      2  C1  UNL d   1      -1.285   1.069   1.169  0.00  0.00    -0.074 A 
ATOM      3  C2  UNL d   1      -1.318   0.120   2.196  0.00  0.00    -0.005 A 
ATOM      4  C3  UNL d   1      -0.422  -0.948   2.196  0.00  0.00     0.006 A 
ATOM      5  C4  UNL d   1       0.516  -1.078   1.170  0.00  0.00    -0.005 A 
ATOM      6  C5  UNL d   1       0.563  -0.140   0.134  0.00  0.00    -0.074 A 
ATOM      7  C6  UNL d   1       1.558  -0.271  -0.981  0.00  0.00     0.077 C 
ATOM      8  C7  UNL d   1      -0.346   0.927   0.138  0.00  0.00    -0.001 A 
ENDROOT
TORSDOF 0
ENDMDL
