MODEL 1
REMARK minimizedAffinity -5.71354437
REMARK minimizedRMSD -1
REMARK  0 active torsions:
REMARK  status: ('A' for Active; 'I' for Inactive)
ROOT
ATOM      1  C   UNL d   1      -0.776  -1.716   2.449  0.00  0.00     0.077 C 
ATOM      2  C1  UNL d   1      -0.599  -0.542   1.533  0.00  0.00    -0.074 A 
ATOM      3  C2  UNL d   1       0.257  -0.614   0.429  0.00  0.00    -0.005 A 
ATOM      4  C3  UNL d   1       0.404   0.482  -0.420  0.00  0.00     0.006 A 
ATOM      5  C4  UNL d   1      -0.302   1.661  -0.174  0.00  0.00    -0.005 A 
ATOM      6  C5  UNL d   1      -1.162   1.752   0.924  0.00  0.00    -0.074 A 
ATOM      7  C6  UNL d   1      -1.935   3.008   1.198  0.00  0.00     0.077 C 
ATOM      8  C7  UNL d   1      -1.310   0.643   1.769  0.00  0.00    -0.001 A 
ENDROOT
TORSDOF 0
ENDMDL
