MODEL 1
REMARK minimizedAffinity -3.81999707
REMARK minimizedRMSD -1
REMARK  0 active torsions:
REMARK  status: ('A' for Active; 'I' for Inactive)
ROOT
ATOM      1  C   UNL d   1      -2.316   2.395   0.865  0.00  0.00     0.077 C 
ATOM      2  C1  UNL d   1      -1.203   1.411   0.660  0.00  0.00    -0.074 A 
ATOM      3  C2  UNL d   1      -0.474   1.390  -0.534  0.00  0.00    -0.005 A 
ATOM      4  C3  UNL d   1       0.565   0.476  -0.707  0.00  0.00     0.006 A 
ATOM      5  C4  UNL d   1       0.885  -0.425   0.310  0.00  0.00    -0.005 A 
ATOM      6  C5  UNL d   1       0.167  -0.418   1.510  0.00  0.00    -0.074 A 
ATOM      7  C6  UNL d   1       0.504  -1.373   2.617  0.00  0.00     0.077 C 
ATOM      8  C7  UNL d   1      -0.871   0.509   1.679  0.00  0.00    -0.001 A 
ENDROOT
TORSDOF 0
ENDMDL
