MODEL 1
REMARK minimizedAffinity -2.36304879
REMARK minimizedRMSD -1
REMARK  0 active torsions:
REMARK  status: ('A' for Active; 'I' for Inactive)
ROOT
ATOM      1  C   UNL d   1       1.321  -1.490  -0.049  0.00  0.00     0.077 C 
ATOM      2  C1  UNL d   1       0.627  -0.168  -0.187  0.00  0.00    -0.074 A 
ATOM      3  C2  UNL d   1       1.000   0.739  -1.185  0.00  0.00    -0.005 A 
ATOM      4  C3  UNL d   1       0.339   1.961  -1.307  0.00  0.00     0.006 A 
ATOM      5  C4  UNL d   1      -0.699   2.289  -0.434  0.00  0.00    -0.005 A 
ATOM      6  C5  UNL d   1      -1.086   1.394   0.569  0.00  0.00    -0.074 A 
ATOM      7  C6  UNL d   1      -2.207   1.727   1.509  0.00  0.00     0.077 C 
ATOM      8  C7  UNL d   1      -0.422   0.165   0.681  0.00  0.00    -0.001 A 
ENDROOT
TORSDOF 0
ENDMDL
