MODEL 1
REMARK minimizedAffinity -4.99528742
REMARK minimizedRMSD -1
REMARK  0 active torsions:
REMARK  status: ('A' for Active; 'I' for Inactive)
ROOT
ATOM      1  C   UNL d   1      -2.555   2.218   1.083  0.00  0.00     0.077 C 
ATOM      2  C1  UNL d   1      -1.420   1.238   1.129  0.00  0.00    -0.074 A 
ATOM      3  C2  UNL d   1      -0.996   0.686   2.342  0.00  0.00    -0.005 A 
ATOM      4  C3  UNL d   1       0.055  -0.231   2.368  0.00  0.00     0.006 A 
ATOM      5  C4  UNL d   1       0.690  -0.605   1.184  0.00  0.00    -0.005 A 
ATOM      6  C5  UNL d   1       0.279  -0.065  -0.039  0.00  0.00    -0.074 A 
ATOM      7  C6  UNL d   1       0.945  -0.464  -1.322  0.00  0.00     0.077 C 
ATOM      8  C7  UNL d   1      -0.781   0.851  -0.058  0.00  0.00    -0.001 A 
ENDROOT
TORSDOF 0
ENDMDL
