MODEL 1
REMARK minimizedAffinity -4.14732695
REMARK minimizedRMSD -1
REMARK  0 active torsions:
REMARK  status: ('A' for Active; 'I' for Inactive)
ROOT
ATOM      1  C   UNL d   1       2.638  -5.803   0.157  0.00  0.00     0.077 C 
ATOM      2  C1  UNL d   1       1.884  -4.844  -0.715  0.00  0.00    -0.074 A 
ATOM      3  C2  UNL d   1       1.019  -5.307  -1.712  0.00  0.00    -0.005 A 
ATOM      4  C3  UNL d   1       0.317  -4.403  -2.509  0.00  0.00     0.006 A 
ATOM      5  C4  UNL d   1       0.472  -3.029  -2.318  0.00  0.00    -0.005 A 
ATOM      6  C5  UNL d   1       1.332  -2.548  -1.326  0.00  0.00    -0.074 A 
ATOM      7  C6  UNL d   1       1.503  -1.075  -1.101  0.00  0.00     0.077 C 
ATOM      8  C7  UNL d   1       2.029  -3.463  -0.524  0.00  0.00    -0.001 A 
ENDROOT
TORSDOF 0
ENDMDL
