MODEL 1
REMARK minimizedAffinity -5.08539963
REMARK minimizedRMSD -1
REMARK  0 active torsions:
REMARK  status: ('A' for Active; 'I' for Inactive)
ROOT
ATOM      1  C   UNL d   1       0.166  -1.747   2.433  0.00  0.00     0.077 C 
ATOM      2  C1  UNL d   1      -0.023  -0.594   1.492  0.00  0.00    -0.074 A 
ATOM      3  C2  UNL d   1       0.657  -0.545   0.271  0.00  0.00    -0.005 A 
ATOM      4  C3  UNL d   1       0.464   0.529  -0.598  0.00  0.00     0.006 A 
ATOM      5  C4  UNL d   1      -0.409   1.562  -0.256  0.00  0.00    -0.005 A 
ATOM      6  C5  UNL d   1      -1.099   1.529   0.960  0.00  0.00    -0.074 A 
ATOM      7  C6  UNL d   1      -2.048   2.626   1.339  0.00  0.00     0.077 C 
ATOM      8  C7  UNL d   1      -0.905   0.443   1.825  0.00  0.00    -0.001 A 
ENDROOT
TORSDOF 0
ENDMDL
