MODEL 1
REMARK minimizedAffinity -3.85588551
REMARK minimizedRMSD -1
REMARK  0 active torsions:
REMARK  status: ('A' for Active; 'I' for Inactive)
ROOT
ATOM      1  C   UNL d   1       2.327  -5.694  -0.002  0.00  0.00     0.077 C 
ATOM      2  C1  UNL d   1       1.763  -4.615  -0.878  0.00  0.00    -0.074 A 
ATOM      3  C2  UNL d   1       1.225  -4.916  -2.133  0.00  0.00    -0.005 A 
ATOM      4  C3  UNL d   1       0.695  -3.903  -2.933  0.00  0.00     0.006 A 
ATOM      5  C4  UNL d   1       0.697  -2.582  -2.486  0.00  0.00    -0.005 A 
ATOM      6  C5  UNL d   1       1.230  -2.261  -1.233  0.00  0.00    -0.074 A 
ATOM      7  C6  UNL d   1       1.232  -0.847  -0.733  0.00  0.00     0.077 C 
ATOM      8  C7  UNL d   1       1.754  -3.286  -0.433  0.00  0.00    -0.001 A 
ENDROOT
TORSDOF 0
ENDMDL
