MODEL 1
REMARK minimizedAffinity -4.91895247
REMARK minimizedRMSD -1
REMARK  0 active torsions:
REMARK  status: ('A' for Active; 'I' for Inactive)
ROOT
ATOM      1  C   UNL d   1       0.734  -0.767  -0.627  0.00  0.00     0.077 C 
ATOM      2  C1  UNL d   1       0.995  -2.066  -1.330  0.00  0.00    -0.074 A 
ATOM      3  C2  UNL d   1       0.920  -2.158  -2.723  0.00  0.00    -0.005 A 
ATOM      4  C3  UNL d   1       1.174  -3.371  -3.363  0.00  0.00     0.006 A 
ATOM      5  C4  UNL d   1       1.505  -4.503  -2.617  0.00  0.00    -0.005 A 
ATOM      6  C5  UNL d   1       1.586  -4.430  -1.223  0.00  0.00    -0.074 A 
ATOM      7  C6  UNL d   1       1.949  -5.635  -0.407  0.00  0.00     0.077 C 
ATOM      8  C7  UNL d   1       1.335  -3.206  -0.588  0.00  0.00    -0.001 A 
ENDROOT
TORSDOF 0
ENDMDL
