MODEL 1
REMARK minimizedAffinity -5.6055522
REMARK minimizedRMSD -1
REMARK  0 active torsions:
REMARK  status: ('A' for Active; 'I' for Inactive)
ROOT
ATOM      1  C   UNL d   1       0.851  -1.034  -0.765  0.00  0.00     0.077 C 
ATOM      2  C1  UNL d   1       0.066  -0.208   0.211  0.00  0.00    -0.074 A 
ATOM      3  C2  UNL d   1      -0.220  -0.688   1.493  0.00  0.00    -0.005 A 
ATOM      4  C3  UNL d   1      -0.942   0.096   2.393  0.00  0.00     0.006 A 
ATOM      5  C4  UNL d   1      -1.385   1.366   2.020  0.00  0.00    -0.005 A 
ATOM      6  C5  UNL d   1      -1.108   1.863   0.742  0.00  0.00    -0.074 A 
ATOM      7  C6  UNL d   1      -1.568   3.229   0.329  0.00  0.00     0.077 C 
ATOM      8  C7  UNL d   1      -0.375   1.072  -0.154  0.00  0.00    -0.001 A 
ENDROOT
TORSDOF 0
ENDMDL
