MODEL 1
REMARK minimizedAffinity -3.88987207
REMARK minimizedRMSD -1
REMARK  0 active torsions:
REMARK  status: ('A' for Active; 'I' for Inactive)
ROOT
ATOM      1  C   UNL d   1      -0.745   3.773   0.282  0.00  0.00     0.077 C 
ATOM      2  C1  UNL d   1      -0.751   2.336   0.710  0.00  0.00    -0.074 A 
ATOM      3  C2  UNL d   1      -1.374   1.943   1.898  0.00  0.00    -0.005 A 
ATOM      4  C3  UNL d   1      -1.380   0.601   2.279  0.00  0.00     0.006 A 
ATOM      5  C4  UNL d   1      -0.764  -0.360   1.476  0.00  0.00    -0.005 A 
ATOM      6  C5  UNL d   1      -0.137   0.015   0.283  0.00  0.00    -0.074 A 
ATOM      7  C6  UNL d   1       0.521  -1.007  -0.597  0.00  0.00     0.077 C 
ATOM      8  C7  UNL d   1      -0.141   1.364  -0.096  0.00  0.00    -0.001 A 
ENDROOT
TORSDOF 0
ENDMDL
