MODEL 1
REMARK minimizedAffinity -5.19808245
REMARK minimizedRMSD -1
REMARK  0 active torsions:
REMARK  status: ('A' for Active; 'I' for Inactive)
ROOT
ATOM      1  C   UNL d   1      -0.750   4.158   0.312  0.00  0.00     0.077 C 
ATOM      2  C1  UNL d   1      -1.026   2.731   0.683  0.00  0.00    -0.074 A 
ATOM      3  C2  UNL d   1      -2.165   2.387   1.418  0.00  0.00    -0.005 A 
ATOM      4  C3  UNL d   1      -2.414   1.054   1.747  0.00  0.00     0.006 A 
ATOM      5  C4  UNL d   1      -1.527   0.054   1.346  0.00  0.00    -0.005 A 
ATOM      6  C5  UNL d   1      -0.383   0.379   0.610  0.00  0.00    -0.074 A 
ATOM      7  C6  UNL d   1       0.575  -0.684   0.163  0.00  0.00     0.077 C 
ATOM      8  C7  UNL d   1      -0.144   1.720   0.277  0.00  0.00    -0.001 A 
ENDROOT
TORSDOF 0
ENDMDL
