MODEL 1
REMARK minimizedAffinity -0.98955518
REMARK minimizedRMSD -1
REMARK  0 active torsions:
REMARK  status: ('A' for Active; 'I' for Inactive)
ROOT
ATOM      1  C   UNL d   1      -2.195   3.120   1.513  0.00  0.00     0.077 C 
ATOM      2  C1  UNL d   1      -1.430   1.829   1.523  0.00  0.00    -0.074 A 
ATOM      3  C2  UNL d   1      -1.563   0.923   2.580  0.00  0.00    -0.005 A 
ATOM      4  C3  UNL d   1      -0.853  -0.277   2.572  0.00  0.00     0.006 A 
ATOM      5  C4  UNL d   1      -0.004  -0.583   1.507  0.00  0.00    -0.005 A 
ATOM      6  C5  UNL d   1       0.141   0.310   0.441  0.00  0.00    -0.074 A 
ATOM      7  C6  UNL d   1       1.042  -0.009  -0.715  0.00  0.00     0.077 C 
ATOM      8  C7  UNL d   1      -0.581   1.511   0.454  0.00  0.00    -0.001 A 
ENDROOT
TORSDOF 0
ENDMDL
