MODEL 1
REMARK minimizedAffinity -3.11708045
REMARK minimizedRMSD -1
REMARK  0 active torsions:
REMARK  status: ('A' for Active; 'I' for Inactive)
ROOT
ATOM      1  C   UNL d   1      -0.416  -0.113   1.715  0.00  0.00     0.077 C 
ATOM      2  C1  UNL d   1       0.005  -0.353   0.296  0.00  0.00    -0.074 A 
ATOM      3  C2  UNL d   1      -0.110   0.653  -0.668  0.00  0.00    -0.005 A 
ATOM      4  C3  UNL d   1       0.294   0.418  -1.982  0.00  0.00     0.006 A 
ATOM      5  C4  UNL d   1       0.817  -0.824  -2.345  0.00  0.00    -0.005 A 
ATOM      6  C5  UNL d   1       0.941  -1.842  -1.394  0.00  0.00    -0.074 A 
ATOM      7  C6  UNL d   1       1.510  -3.179  -1.765  0.00  0.00     0.077 C 
ATOM      8  C7  UNL d   1       0.539  -1.596  -0.074  0.00  0.00    -0.001 A 
ENDROOT
TORSDOF 0
ENDMDL
