MODEL 1
REMARK minimizedAffinity -5.74406767
REMARK minimizedRMSD -1
REMARK  0 active torsions:
REMARK  status: ('A' for Active; 'I' for Inactive)
ROOT
ATOM      1  C   UNL d   1      -1.515   0.811   1.921  0.00  0.00     0.077 C 
ATOM      2  C1  UNL d   1      -0.494   0.972   0.833  0.00  0.00    -0.074 A 
ATOM      3  C2  UNL d   1      -0.617   1.985  -0.123  0.00  0.00    -0.005 A 
ATOM      4  C3  UNL d   1       0.345   2.128  -1.123  0.00  0.00     0.006 A 
ATOM      5  C4  UNL d   1       1.438   1.262  -1.176  0.00  0.00    -0.005 A 
ATOM      6  C5  UNL d   1       1.578   0.244  -0.228  0.00  0.00    -0.074 A 
ATOM      7  C6  UNL d   1       2.752  -0.689  -0.264  0.00  0.00     0.077 C 
ATOM      8  C7  UNL d   1       0.611   0.111   0.778  0.00  0.00    -0.001 A 
ENDROOT
TORSDOF 0
ENDMDL
