MODEL 1
REMARK minimizedAffinity -4.70299435
REMARK minimizedRMSD -1
REMARK  0 active torsions:
REMARK  status: ('A' for Active; 'I' for Inactive)
ROOT
ATOM      1  C   UNL d   1       0.925  -0.899  -0.564  0.00  0.00     0.077 C 
ATOM      2  C1  UNL d   1       0.922  -2.191  -1.325  0.00  0.00    -0.074 A 
ATOM      3  C2  UNL d   1       0.615  -2.222  -2.689  0.00  0.00    -0.005 A 
ATOM      4  C3  UNL d   1       0.626  -3.431  -3.385  0.00  0.00     0.006 A 
ATOM      5  C4  UNL d   1       0.944  -4.619  -2.725  0.00  0.00    -0.005 A 
ATOM      6  C5  UNL d   1       1.255  -4.607  -1.362  0.00  0.00    -0.074 A 
ATOM      7  C6  UNL d   1       1.608  -5.874  -0.640  0.00  0.00     0.077 C 
ATOM      8  C7  UNL d   1       1.248  -3.388  -0.671  0.00  0.00    -0.001 A 
ENDROOT
TORSDOF 0
ENDMDL
