MODEL 1
REMARK minimizedAffinity -4.05903625
REMARK minimizedRMSD -1
REMARK  0 active torsions:
REMARK  status: ('A' for Active; 'I' for Inactive)
ROOT
ATOM      1  C   UNL d   1       1.902  -5.508  -0.260  0.00  0.00     0.077 C 
ATOM      2  C1  UNL d   1       1.246  -4.373  -0.990  0.00  0.00    -0.074 A 
ATOM      3  C2  UNL d   1       0.356  -4.615  -2.042  0.00  0.00    -0.005 A 
ATOM      4  C3  UNL d   1      -0.254  -3.550  -2.705  0.00  0.00     0.006 A 
ATOM      5  C4  UNL d   1       0.019  -2.236  -2.324  0.00  0.00    -0.005 A 
ATOM      6  C5  UNL d   1       0.906  -1.975  -1.274  0.00  0.00    -0.074 A 
ATOM      7  C6  UNL d   1       1.203  -0.569  -0.846  0.00  0.00     0.077 C 
ATOM      8  C7  UNL d   1       1.509  -3.051  -0.608  0.00  0.00    -0.001 A 
ENDROOT
TORSDOF 0
ENDMDL
