MODEL 1
REMARK minimizedAffinity -2.57696104
REMARK minimizedRMSD -1
REMARK  0 active torsions:
REMARK  status: ('A' for Active; 'I' for Inactive)
ROOT
ATOM      1  C   UNL d   1      -1.874   1.494   1.168  0.00  0.00     0.077 C 
ATOM      2  C1  UNL d   1      -0.756   1.064   0.265  0.00  0.00    -0.074 A 
ATOM      3  C2  UNL d   1      -0.045   2.000  -0.493  0.00  0.00    -0.005 A 
ATOM      4  C3  UNL d   1       0.998   1.587  -1.322  0.00  0.00     0.006 A 
ATOM      5  C4  UNL d   1       1.340   0.236  -1.401  0.00  0.00    -0.005 A 
ATOM      6  C5  UNL d   1       0.641  -0.714  -0.649  0.00  0.00    -0.074 A 
ATOM      7  C6  UNL d   1       1.002  -2.168  -0.714  0.00  0.00     0.077 C 
ATOM      8  C7  UNL d   1      -0.401  -0.290   0.186  0.00  0.00    -0.001 A 
ENDROOT
TORSDOF 0
ENDMDL
