MODEL 1
REMARK minimizedAffinity 13.1408987
REMARK minimizedRMSD -1
REMARK  0 active torsions:
REMARK  status: ('A' for Active; 'I' for Inactive)
ROOT
ATOM      1  C   UNL d   1       5.918   2.891   0.763  0.00  0.00     0.077 C 
ATOM      2  C1  UNL d   1       5.277   2.128  -0.358  0.00  0.00    -0.074 A 
ATOM      3  C2  UNL d   1       5.804   2.175  -1.652  0.00  0.00    -0.005 A 
ATOM      4  C3  UNL d   1       5.202   1.453  -2.683  0.00  0.00     0.006 A 
ATOM      5  C4  UNL d   1       4.070   0.677  -2.430  0.00  0.00    -0.005 A 
ATOM      6  C5  UNL d   1       3.530   0.617  -1.141  0.00  0.00    -0.074 A 
ATOM      7  C6  UNL d   1       2.320  -0.219  -0.850  0.00  0.00     0.077 C 
ATOM      8  C7  UNL d   1       4.144   1.340  -0.109  0.00  0.00    -0.001 A 
ENDROOT
TORSDOF 0
ENDMDL
