MODEL 1
REMARK minimizedAffinity 8.02661896
REMARK minimizedRMSD -1
REMARK  0 active torsions:
REMARK  status: ('A' for Active; 'I' for Inactive)
ROOT
ATOM      1  C   UNL d   1      -0.020   2.766   4.641  0.00  0.00     0.077 C 
ATOM      2  C1  UNL d   1      -0.574   3.259   3.337  0.00  0.00    -0.074 A 
ATOM      3  C2  UNL d   1      -1.552   4.258   3.304  0.00  0.00    -0.005 A 
ATOM      4  C3  UNL d   1      -2.052   4.713   2.084  0.00  0.00     0.006 A 
ATOM      5  C4  UNL d   1      -1.579   4.174   0.886  0.00  0.00    -0.005 A 
ATOM      6  C5  UNL d   1      -0.601   3.175   0.900  0.00  0.00    -0.074 A 
ATOM      7  C6  UNL d   1      -0.075   2.592  -0.378  0.00  0.00     0.077 C 
ATOM      8  C7  UNL d   1      -0.099   2.728   2.130  0.00  0.00    -0.001 A 
ENDROOT
TORSDOF 0
ENDMDL
