MODEL 1
REMARK minimizedAffinity 0.405735344
REMARK minimizedRMSD -1
REMARK  0 active torsions:
REMARK  status: ('A' for Active; 'I' for Inactive)
ROOT
ATOM      1  C   UNL d   1       1.174   5.772   4.180  0.00  0.00     0.077 C 
ATOM      2  C1  UNL d   1       2.582   5.255   4.192  0.00  0.00    -0.074 A 
ATOM      3  C2  UNL d   1       2.972   4.212   3.345  0.00  0.00    -0.005 A 
ATOM      4  C3  UNL d   1       4.287   3.749   3.361  0.00  0.00     0.006 A 
ATOM      5  C4  UNL d   1       5.224   4.321   4.222  0.00  0.00    -0.005 A 
ATOM      6  C5  UNL d   1       4.852   5.365   5.075  0.00  0.00    -0.074 A 
ATOM      7  C6  UNL d   1       5.849   5.999   6.000  0.00  0.00     0.077 C 
ATOM      8  C7  UNL d   1       3.530   5.830   5.049  0.00  0.00    -0.001 A 
ENDROOT
TORSDOF 0
ENDMDL
