MODEL 1
REMARK minimizedAffinity 4.97199583
REMARK minimizedRMSD -1
REMARK  0 active torsions:
REMARK  status: ('A' for Active; 'I' for Inactive)
ROOT
ATOM      1  C   UNL d   1       4.054   1.402   1.074  0.00  0.00     0.077 C 
ATOM      2  C1  UNL d   1       2.703   1.576   0.446  0.00  0.00    -0.074 A 
ATOM      3  C2  UNL d   1       2.311   0.793  -0.644  0.00  0.00    -0.005 A 
ATOM      4  C3  UNL d   1       1.048   0.959  -1.212  0.00  0.00     0.006 A 
ATOM      5  C4  UNL d   1       0.165   1.908  -0.696  0.00  0.00    -0.005 A 
ATOM      6  C5  UNL d   1       0.539   2.699   0.395  0.00  0.00    -0.074 A 
ATOM      7  C6  UNL d   1      -0.402   3.717   0.969  0.00  0.00     0.077 C 
ATOM      8  C7  UNL d   1       1.807   2.522   0.964  0.00  0.00    -0.001 A 
ENDROOT
TORSDOF 0
ENDMDL
