MODEL 1
REMARK minimizedAffinity 3.38394141
REMARK minimizedRMSD -1
REMARK  0 active torsions:
REMARK  status: ('A' for Active; 'I' for Inactive)
ROOT
ATOM      1  C   UNL d   1       5.988   2.475  -3.242  0.00  0.00     0.077 C 
ATOM      2  C1  UNL d   1       5.253   1.758  -2.149  0.00  0.00    -0.074 A 
ATOM      3  C2  UNL d   1       5.733   1.764  -0.835  0.00  0.00    -0.005 A 
ATOM      4  C3  UNL d   1       5.033   1.101   0.173  0.00  0.00     0.006 A 
ATOM      5  C4  UNL d   1       3.848   0.425  -0.122  0.00  0.00    -0.005 A 
ATOM      6  C5  UNL d   1       3.352   0.409  -1.430  0.00  0.00    -0.074 A 
ATOM      7  C6  UNL d   1       2.075  -0.304  -1.762  0.00  0.00     0.077 C 
ATOM      8  C7  UNL d   1       4.058   1.083  -2.436  0.00  0.00    -0.001 A 
ENDROOT
TORSDOF 0
ENDMDL
