MODEL 1
REMARK minimizedAffinity 0.766809821
REMARK minimizedRMSD -1
REMARK  0 active torsions:
REMARK  status: ('A' for Active; 'I' for Inactive)
ROOT
ATOM      1  C1  DEN d   1       1.495   2.382  -2.363  0.00  0.00     0.130 A 
ATOM      2  C2  DEN d   1       1.565   3.770  -1.916  0.00  0.00    -0.031 A 
ATOM      3  C3  DEN d   1       1.367   3.789  -0.453  0.00  0.00     0.027 A 
ATOM      4  C4  DEN d   1       0.967   1.812   1.155  0.00  0.00     0.027 A 
ATOM      5  C5  DEN d   1       0.816   0.446   1.239  0.00  0.00    -0.003 A 
ATOM      6  C6  DEN d   1       0.847  -0.361   0.132  0.00  0.00     0.001 A 
ATOM      7  C7  DEN d   1       1.078   0.187  -1.101  0.00  0.00     0.017 A 
ATOM      8  C8  DEN d   1       1.224   1.565  -1.194  0.00  0.00    -0.094 A 
ATOM      9  C9  DEN d   1       1.201   2.362  -0.063  0.00  0.00    -0.072 A 
ENDROOT
TORSDOF 0
ENDMDL
