MODEL 1
REMARK minimizedAffinity -0.468471944
REMARK minimizedRMSD -1
REMARK  0 active torsions:
REMARK  status: ('A' for Active; 'I' for Inactive)
ROOT
ATOM      1  C1  DEN d   1       0.684   0.247  -1.539  0.00  0.00     0.130 A 
ATOM      2  C2  DEN d   1       0.764  -0.354  -0.211  0.00  0.00    -0.031 A 
ATOM      3  C3  DEN d   1       1.060   0.720   0.759  0.00  0.00     0.027 A 
ATOM      4  C4  DEN d   1       1.396   3.242   0.334  0.00  0.00     0.027 A 
ATOM      5  C5  DEN d   1       1.433   4.222  -0.633  0.00  0.00    -0.003 A 
ATOM      6  C6  DEN d   1       1.259   3.943  -1.962  0.00  0.00     0.001 A 
ATOM      7  C7  DEN d   1       0.994   2.659  -2.357  0.00  0.00     0.017 A 
ATOM      8  C8  DEN d   1       0.962   1.664  -1.389  0.00  0.00    -0.094 A 
ATOM      9  C9  DEN d   1       1.128   1.968  -0.049  0.00  0.00    -0.072 A 
ENDROOT
TORSDOF 0
ENDMDL
