MODEL 1
REMARK minimizedAffinity -5.97780371
REMARK minimizedRMSD -1
REMARK  0 active torsions:
REMARK  status: ('A' for Active; 'I' for Inactive)
ROOT
ATOM      1  C1  DEN d   1       1.592   0.733  -1.547  0.00  0.00     0.130 A 
ATOM      2  C2  DEN d   1       1.342  -0.019  -0.320  0.00  0.00    -0.031 A 
ATOM      3  C3  DEN d   1       1.174   0.949   0.782  0.00  0.00     0.027 A 
ATOM      4  C4  DEN d   1       1.271   3.525   0.709  0.00  0.00     0.027 A 
ATOM      5  C5  DEN d   1       1.468   4.618  -0.106  0.00  0.00    -0.003 A 
ATOM      6  C6  DEN d   1       1.752   4.493  -1.440  0.00  0.00     0.001 A 
ATOM      7  C7  DEN d   1       1.802   3.248  -2.009  0.00  0.00     0.017 A 
ATOM      8  C8  DEN d   1       1.611   2.141  -1.193  0.00  0.00    -0.094 A 
ATOM      9  C9  DEN d   1       1.313   2.289   0.151  0.00  0.00    -0.072 A 
ENDROOT
TORSDOF 0
ENDMDL
