MODEL 1
REMARK minimizedAffinity -3.78466415
REMARK minimizedRMSD -1
REMARK  0 active torsions:
REMARK  status: ('A' for Active; 'I' for Inactive)
ROOT
ATOM      1  C1  DEN d   1       0.209  -1.326  -1.608  0.00  0.00     0.130 A 
ATOM      2  C2  DEN d   1       0.747  -2.427  -0.812  0.00  0.00    -0.031 A 
ATOM      3  C3  DEN d   1       1.582  -1.849   0.260  0.00  0.00     0.027 A 
ATOM      4  C4  DEN d   1       2.087   0.629   0.766  0.00  0.00     0.027 A 
ATOM      5  C5  DEN d   1       1.864   1.926   0.359  0.00  0.00    -0.003 A 
ATOM      6  C6  DEN d   1       1.108   2.226  -0.743  0.00  0.00     0.001 A 
ATOM      7  C7  DEN d   1       0.510   1.217  -1.451  0.00  0.00     0.017 A 
ATOM      8  C8  DEN d   1       0.736  -0.094  -1.051  0.00  0.00    -0.094 A 
ATOM      9  C9  DEN d   1       1.493  -0.375   0.074  0.00  0.00    -0.072 A 
ENDROOT
TORSDOF 0
ENDMDL
