MODEL 1
REMARK minimizedAffinity -3.4701097
REMARK minimizedRMSD -1
REMARK  0 active torsions:
REMARK  status: ('A' for Active; 'I' for Inactive)
ROOT
ATOM      1  C1  DEN d   1       2.495  -0.794  -0.086  0.00  0.00     0.130 A 
ATOM      2  C2  DEN d   1       1.888  -1.527  -1.193  0.00  0.00    -0.031 A 
ATOM      3  C3  DEN d   1       1.123  -0.565  -2.012  0.00  0.00     0.027 A 
ATOM      4  C4  DEN d   1       0.824   1.975  -1.676  0.00  0.00     0.027 A 
ATOM      5  C5  DEN d   1       1.140   3.045  -0.869  0.00  0.00    -0.003 A 
ATOM      6  C6  DEN d   1       1.896   2.906   0.265  0.00  0.00     0.001 A 
ATOM      7  C7  DEN d   1       2.399   1.677   0.600  0.00  0.00     0.017 A 
ATOM      8  C8  DEN d   1       2.078   0.592  -0.205  0.00  0.00    -0.094 A 
ATOM      9  C9  DEN d   1       1.323   0.754  -1.354  0.00  0.00    -0.072 A 
ENDROOT
TORSDOF 0
ENDMDL
