MODEL 1
REMARK minimizedAffinity 3.75821328
REMARK minimizedRMSD -1
REMARK  0 active torsions:
REMARK  status: ('A' for Active; 'I' for Inactive)
ROOT
ATOM      1  C1  DEN d   1       0.665   2.708  -0.220  0.00  0.00     0.130 A 
ATOM      2  C2  DEN d   1       1.333   2.825   1.073  0.00  0.00    -0.031 A 
ATOM      3  C3  DEN d   1       2.304   1.718   1.187  0.00  0.00     0.027 A 
ATOM      4  C4  DEN d   1       2.838  -0.153  -0.506  0.00  0.00     0.027 A 
ATOM      5  C5  DEN d   1       2.520  -0.674  -1.740  0.00  0.00    -0.003 A 
ATOM      6  C6  DEN d   1       1.545  -0.129  -2.533  0.00  0.00     0.001 A 
ATOM      7  C7  DEN d   1       0.885   0.998  -2.120  0.00  0.00     0.017 A 
ATOM      8  C8  DEN d   1       1.195   1.525  -0.873  0.00  0.00    -0.094 A 
ATOM      9  C9  DEN d   1       2.193   0.967  -0.092  0.00  0.00    -0.072 A 
ENDROOT
TORSDOF 0
ENDMDL
