MODEL 1
REMARK minimizedAffinity -4.23295498
REMARK minimizedRMSD -1
REMARK  0 active torsions:
REMARK  status: ('A' for Active; 'I' for Inactive)
ROOT
ATOM      1  C1  DEN d   1       1.366   4.015  -1.509  0.00  0.00     0.130 A 
ATOM      2  C2  DEN d   1       1.598   4.732  -0.258  0.00  0.00    -0.031 A 
ATOM      3  C3  DEN d   1       1.775   3.733   0.815  0.00  0.00     0.027 A 
ATOM      4  C4  DEN d   1       1.719   1.159   0.661  0.00  0.00     0.027 A 
ATOM      5  C5  DEN d   1       1.543   0.089  -0.188  0.00  0.00    -0.003 A 
ATOM      6  C6  DEN d   1       1.265   0.251  -1.520  0.00  0.00     0.001 A 
ATOM      7  C7  DEN d   1       1.198   1.512  -2.050  0.00  0.00     0.017 A 
ATOM      8  C8  DEN d   1       1.367   2.596  -1.199  0.00  0.00    -0.094 A 
ATOM      9  C9  DEN d   1       1.660   2.412   0.141  0.00  0.00    -0.072 A 
ENDROOT
TORSDOF 0
ENDMDL
