MODEL 1
REMARK minimizedAffinity 1.45843732
REMARK minimizedRMSD -1
REMARK  0 active torsions:
REMARK  status: ('A' for Active; 'I' for Inactive)
ROOT
ATOM      1  C1  DEN d   1       0.524   0.519   1.039  0.00  0.00     0.130 A 
ATOM      2  C2  DEN d   1       0.773  -0.803   0.470  0.00  0.00    -0.031 A 
ATOM      3  C3  DEN d   1       1.379  -0.619  -0.863  0.00  0.00     0.027 A 
ATOM      4  C4  DEN d   1       1.959   1.572  -2.094  0.00  0.00     0.027 A 
ATOM      5  C5  DEN d   1       1.922   2.947  -2.016  0.00  0.00    -0.003 A 
ATOM      6  C6  DEN d   1       1.390   3.603  -0.938  0.00  0.00     0.001 A 
ATOM      7  C7  DEN d   1       0.913   2.885   0.126  0.00  0.00     0.017 A 
ATOM      8  C8  DEN d   1       0.941   1.498   0.052  0.00  0.00    -0.094 A 
ATOM      9  C9  DEN d   1       1.494   0.854  -1.041  0.00  0.00    -0.072 A 
ENDROOT
TORSDOF 0
ENDMDL
