MODEL 1
REMARK minimizedAffinity -1.93008816
REMARK minimizedRMSD -1
REMARK  0 active torsions:
REMARK  status: ('A' for Active; 'I' for Inactive)
ROOT
ATOM      1  C1  DEN d   1       1.808   4.199  -1.502  0.00  0.00     0.130 A 
ATOM      2  C2  DEN d   1       1.806   5.020  -0.294  0.00  0.00    -0.031 A 
ATOM      3  C3  DEN d   1       1.434   4.157   0.845  0.00  0.00     0.027 A 
ATOM      4  C4  DEN d   1       0.870   1.640   0.856  0.00  0.00     0.027 A 
ATOM      5  C5  DEN d   1       0.728   0.518   0.070  0.00  0.00    -0.003 A 
ATOM      6  C6  DEN d   1       0.902   0.551  -1.288  0.00  0.00     0.001 A 
ATOM      7  C7  DEN d   1       1.272   1.721  -1.897  0.00  0.00     0.017 A 
ATOM      8  C8  DEN d   1       1.409   2.859  -1.112  0.00  0.00    -0.094 A 
ATOM      9  C9  DEN d   1       1.242   2.802   0.261  0.00  0.00    -0.072 A 
ENDROOT
TORSDOF 0
ENDMDL
