MODEL 1
REMARK minimizedAffinity -1.21785069
REMARK minimizedRMSD -1
REMARK  0 active torsions:
REMARK  status: ('A' for Active; 'I' for Inactive)
ROOT
ATOM      1  C1  DEN d   1       1.196   1.086   0.844  0.00  0.00     0.130 A 
ATOM      2  C2  DEN d   1       0.920  -0.040  -0.045  0.00  0.00    -0.031 A 
ATOM      3  C3  DEN d   1       0.897   0.468  -1.431  0.00  0.00     0.027 A 
ATOM      4  C4  DEN d   1       1.265   2.874  -2.284  0.00  0.00     0.027 A 
ATOM      5  C5  DEN d   1       1.519   4.173  -1.904  0.00  0.00    -0.003 A 
ATOM      6  C6  DEN d   1       1.648   4.538  -0.590  0.00  0.00     0.001 A 
ATOM      7  C7  DEN d   1       1.569   3.584   0.390  0.00  0.00     0.017 A 
ATOM      8  C8  DEN d   1       1.306   2.273   0.015  0.00  0.00    -0.094 A 
ATOM      9  C9  DEN d   1       1.190   1.922  -1.320  0.00  0.00    -0.072 A 
ENDROOT
TORSDOF 0
ENDMDL
