MODEL 1
REMARK minimizedAffinity -3.17586422
REMARK minimizedRMSD -1
REMARK  0 active torsions:
REMARK  status: ('A' for Active; 'I' for Inactive)
ROOT
ATOM      1  C1  DEN d   1       1.251   3.425  -2.138  0.00  0.00     0.130 A 
ATOM      2  C2  DEN d   1       1.434   4.572  -1.253  0.00  0.00    -0.031 A 
ATOM      3  C3  DEN d   1       1.535   4.068   0.131  0.00  0.00     0.027 A 
ATOM      4  C4  DEN d   1       1.431   1.636   0.985  0.00  0.00     0.027 A 
ATOM      5  C5  DEN d   1       1.276   0.320   0.609  0.00  0.00    -0.003 A 
ATOM      6  C6  DEN d   1       1.069  -0.047  -0.694  0.00  0.00     0.001 A 
ATOM      7  C7  DEN d   1       1.057   0.909  -1.675  0.00  0.00     0.017 A 
ATOM      8  C8  DEN d   1       1.206   2.238  -1.303  0.00  0.00    -0.094 A 
ATOM      9  C9  DEN d   1       1.426   2.589   0.018  0.00  0.00    -0.072 A 
ENDROOT
TORSDOF 0
ENDMDL
