MODEL 1
REMARK minimizedAffinity -3.21409726
REMARK minimizedRMSD -1
REMARK  0 active torsions:
REMARK  status: ('A' for Active; 'I' for Inactive)
ROOT
ATOM      1  C1  DEN d   1       1.637   3.681  -1.894  0.00  0.00     0.130 A 
ATOM      2  C2  DEN d   1       1.477   4.545  -0.727  0.00  0.00    -0.031 A 
ATOM      3  C3  DEN d   1       1.094   3.696   0.419  0.00  0.00     0.027 A 
ATOM      4  C4  DEN d   1       0.741   1.143   0.502  0.00  0.00     0.027 A 
ATOM      5  C5  DEN d   1       0.751  -0.017  -0.242  0.00  0.00    -0.003 A 
ATOM      6  C6  DEN d   1       1.022  -0.020  -1.584  0.00  0.00     0.001 A 
ATOM      7  C7  DEN d   1       1.338   1.153  -2.216  0.00  0.00     0.017 A 
ATOM      8  C8  DEN d   1       1.323   2.327  -1.475  0.00  0.00    -0.094 A 
ATOM      9  C9  DEN d   1       1.058   2.309  -0.116  0.00  0.00    -0.072 A 
ENDROOT
TORSDOF 0
ENDMDL
