MODEL 1
REMARK minimizedAffinity 1.74210441
REMARK minimizedRMSD -1
REMARK  0 active torsions:
REMARK  status: ('A' for Active; 'I' for Inactive)
ROOT
ATOM      1  C1  DEN d   1       1.824   3.678  -0.411  0.00  0.00     0.130 A 
ATOM      2  C2  DEN d   1       1.563   4.015  -1.808  0.00  0.00    -0.031 A 
ATOM      3  C3  DEN d   1       1.127   2.786  -2.500  0.00  0.00     0.027 A 
ATOM      4  C4  DEN d   1       0.826   0.407  -1.549  0.00  0.00     0.027 A 
ATOM      5  C5  DEN d   1       0.937  -0.372  -0.419  0.00  0.00    -0.003 A 
ATOM      6  C6  DEN d   1       1.380   0.132   0.775  0.00  0.00     0.001 A 
ATOM      7  C7  DEN d   1       1.686   1.463   0.878  0.00  0.00     0.017 A 
ATOM      8  C8  DEN d   1       1.583   2.254  -0.259  0.00  0.00    -0.094 A 
ATOM      9  C9  DEN d   1       1.122   1.728  -1.454  0.00  0.00    -0.072 A 
ENDROOT
TORSDOF 0
ENDMDL
