MODEL 1
REMARK minimizedAffinity -3.94053292
REMARK minimizedRMSD -1
REMARK  0 active torsions:
REMARK  status: ('A' for Active; 'I' for Inactive)
ROOT
ATOM      1  C1  DEN d   1       1.766   3.723  -0.574  0.00  0.00     0.130 A 
ATOM      2  C2  DEN d   1       1.374   4.226  -1.887  0.00  0.00    -0.031 A 
ATOM      3  C3  DEN d   1       0.713   3.126  -2.619  0.00  0.00     0.027 A 
ATOM      4  C4  DEN d   1       0.259   0.707  -1.847  0.00  0.00     0.027 A 
ATOM      5  C5  DEN d   1       0.419  -0.190  -0.814  0.00  0.00    -0.003 A 
ATOM      6  C6  DEN d   1       1.064   0.141   0.348  0.00  0.00     0.001 A 
ATOM      7  C7  DEN d   1       1.533   1.416   0.524  0.00  0.00     0.017 A 
ATOM      8  C8  DEN d   1       1.382   2.324  -0.515  0.00  0.00    -0.094 A 
ATOM      9  C9  DEN d   1       0.716   1.974  -1.678  0.00  0.00    -0.072 A 
ENDROOT
TORSDOF 0
ENDMDL
