MODEL 1
REMARK minimizedAffinity 3.07420039
REMARK minimizedRMSD -1
REMARK  0 active torsions:
REMARK  status: ('A' for Active; 'I' for Inactive)
ROOT
ATOM      1  C1  DEN d   1       1.813   3.426  -1.039  0.00  0.00     0.130 A 
ATOM      2  C2  DEN d   1       1.344   3.616  -2.409  0.00  0.00    -0.031 A 
ATOM      3  C3  DEN d   1       0.805   2.328  -2.889  0.00  0.00     0.027 A 
ATOM      4  C4  DEN d   1       0.648   0.071  -1.651  0.00  0.00     0.027 A 
ATOM      5  C5  DEN d   1       0.928  -0.585  -0.472  0.00  0.00    -0.003 A 
ATOM      6  C6  DEN d   1       1.549   0.037   0.579  0.00  0.00     0.001 A 
ATOM      7  C7  DEN d   1       1.869   1.365   0.489  0.00  0.00     0.017 A 
ATOM      8  C8  DEN d   1       1.596   2.031  -0.699  0.00  0.00    -0.094 A 
ATOM      9  C9  DEN d   1       0.957   1.389  -1.745  0.00  0.00    -0.072 A 
ENDROOT
TORSDOF 0
ENDMDL
