MODEL 1
REMARK minimizedAffinity -3.82850194
REMARK minimizedRMSD -1
REMARK  0 active torsions:
REMARK  status: ('A' for Active; 'I' for Inactive)
ROOT
ATOM      1  C   UNL d   1      -1.597  -0.405   2.555  0.00  0.00     0.172 C 
ATOM      2  N   UNL d   1      -1.022   0.024   1.301  0.00  0.00    -0.070 N 
ATOM      3  C1  UNL d   1      -1.723   0.462   0.210  0.00  0.00    -0.004 A 
ATOM      4  C2  UNL d   1      -0.814   0.776  -0.777  0.00  0.00    -0.047 A 
ATOM      5  C3  UNL d   1       0.478   0.517  -0.261  0.00  0.00    -0.047 A 
ATOM      6  C4  UNL d   1       0.320   0.052   1.027  0.00  0.00    -0.004 A 
ENDROOT
TORSDOF 0
ENDMDL
