MODEL 1
REMARK minimizedAffinity -2.885777
REMARK minimizedRMSD -1
REMARK  0 active torsions:
REMARK  status: ('A' for Active; 'I' for Inactive)
ROOT
ATOM      1  C   UNL d   1       1.714   0.215   1.309  0.00  0.00     0.172 C 
ATOM      2  N   UNL d   1       0.397   0.025   1.871  0.00  0.00    -0.070 N 
ATOM      3  C1  UNL d   1       0.070   0.141   3.196  0.00  0.00    -0.004 A 
ATOM      4  C2  UNL d   1      -1.278  -0.114   3.322  0.00  0.00    -0.047 A 
ATOM      5  C3  UNL d   1      -1.779  -0.393   2.028  0.00  0.00    -0.047 A 
ATOM      6  C4  UNL d   1      -0.721  -0.300   1.149  0.00  0.00    -0.004 A 
ENDROOT
TORSDOF 0
ENDMDL
