MODEL 1
REMARK minimizedAffinity -2.3925271
REMARK minimizedRMSD -1
REMARK  0 active torsions:
REMARK  status: ('A' for Active; 'I' for Inactive)
ROOT
ATOM      1  C   UNL d   1      -1.005  -0.260   3.086  0.00  0.00     0.172 C 
ATOM      2  N   UNL d   1      -0.586   0.043   1.738  0.00  0.00    -0.070 N 
ATOM      3  C1  UNL d   1      -1.416   0.191   0.659  0.00  0.00    -0.004 A 
ATOM      4  C2  UNL d   1      -0.634   0.474  -0.440  0.00  0.00    -0.047 A 
ATOM      5  C3  UNL d   1       0.713   0.496  -0.006  0.00  0.00    -0.047 A 
ATOM      6  C4  UNL d   1       0.713   0.226   1.346  0.00  0.00    -0.004 A 
ENDROOT
TORSDOF 0
ENDMDL
