MODEL 1
REMARK minimizedAffinity -1.04811203
REMARK minimizedRMSD -1
REMARK  0 active torsions:
REMARK  status: ('A' for Active; 'I' for Inactive)
ROOT
ATOM      1  C   UNL d   1       0.060   0.797  -1.960  0.00  0.00     0.172 C 
ATOM      2  N   UNL d   1       0.227   0.626  -0.535  0.00  0.00    -0.070 N 
ATOM      3  C1  UNL d   1       1.404   0.754   0.152  0.00  0.00    -0.004 A 
ATOM      4  C2  UNL d   1       1.144   0.514   1.483  0.00  0.00    -0.047 A 
ATOM      5  C3  UNL d   1      -0.237   0.231   1.601  0.00  0.00    -0.047 A 
ATOM      6  C4  UNL d   1      -0.781   0.307   0.336  0.00  0.00    -0.004 A 
ENDROOT
TORSDOF 0
ENDMDL
