MODEL 1
REMARK minimizedAffinity -3.76440501
REMARK minimizedRMSD -1
REMARK  0 active torsions:
REMARK  status: ('A' for Active; 'I' for Inactive)
ROOT
ATOM      1  C   UNL d   1       0.293   0.078  -0.383  0.00  0.00     0.172 C 
ATOM      2  N   UNL d   1      -0.010  -0.040   1.024  0.00  0.00    -0.070 N 
ATOM      3  C1  UNL d   1      -1.159  -0.566   1.551  0.00  0.00    -0.004 A 
ATOM      4  C2  UNL d   1      -1.061  -0.500   2.924  0.00  0.00    -0.047 A 
ATOM      5  C3  UNL d   1       0.189   0.086   3.233  0.00  0.00    -0.047 A 
ATOM      6  C4  UNL d   1       0.820   0.361   2.037  0.00  0.00    -0.004 A 
ENDROOT
TORSDOF 0
ENDMDL
