MODEL 1
REMARK minimizedAffinity -2.75969577
REMARK minimizedRMSD -1
REMARK  0 active torsions:
REMARK  status: ('A' for Active; 'I' for Inactive)
ROOT
ATOM      1  C   UNL d   1      -0.043   0.379  -1.127  0.00  0.00     0.172 C 
ATOM      2  N   UNL d   1      -0.483   0.082   0.216  0.00  0.00    -0.070 N 
ATOM      3  C1  UNL d   1       0.318  -0.336   1.245  0.00  0.00    -0.004 A 
ATOM      4  C2  UNL d   1      -0.478  -0.510   2.356  0.00  0.00    -0.047 A 
ATOM      5  C3  UNL d   1      -1.804  -0.186   1.982  0.00  0.00    -0.047 A 
ATOM      6  C4  UNL d   1      -1.778   0.177   0.652  0.00  0.00    -0.004 A 
ENDROOT
TORSDOF 0
ENDMDL
