MODEL 1
REMARK minimizedAffinity -3.27731466
REMARK minimizedRMSD -1
REMARK  0 active torsions:
REMARK  status: ('A' for Active; 'I' for Inactive)
ROOT
ATOM      1  C   UNL d   1      -0.005   0.378  -0.983  0.00  0.00     0.172 C 
ATOM      2  N   UNL d   1       0.079   0.204   0.448  0.00  0.00    -0.070 N 
ATOM      3  C1  UNL d   1       1.203   0.383   1.209  0.00  0.00    -0.004 A 
ATOM      4  C2  UNL d   1       0.870   0.121   2.521  0.00  0.00    -0.047 A 
ATOM      5  C3  UNL d   1      -0.501  -0.229   2.548  0.00  0.00    -0.047 A 
ATOM      6  C4  UNL d   1      -0.966  -0.169   1.251  0.00  0.00    -0.004 A 
ENDROOT
TORSDOF 0
ENDMDL
