MODEL 1
REMARK minimizedAffinity -3.61341929
REMARK minimizedRMSD -1
REMARK  0 active torsions:
REMARK  status: ('A' for Active; 'I' for Inactive)
ROOT
ATOM      1  C   UNL d   1       1.214   0.568   0.426  0.00  0.00     0.172 C 
ATOM      2  N   UNL d   1       0.041   0.156   1.161  0.00  0.00    -0.070 N 
ATOM      3  C1  UNL d   1      -0.074   0.117   2.525  0.00  0.00    -0.004 A 
ATOM      4  C2  UNL d   1      -1.342  -0.329   2.830  0.00  0.00    -0.047 A 
ATOM      5  C3  UNL d   1      -2.012  -0.567   1.606  0.00  0.00    -0.047 A 
ATOM      6  C4  UNL d   1      -1.133  -0.259   0.590  0.00  0.00    -0.004 A 
ENDROOT
TORSDOF 0
ENDMDL
