MODEL 1
REMARK minimizedAffinity -1.95328867
REMARK minimizedRMSD -1
REMARK  0 active torsions:
REMARK  status: ('A' for Active; 'I' for Inactive)
ROOT
ATOM      1  C   UNL d   1       0.241   0.230  -0.899  0.00  0.00     0.172 C 
ATOM      2  N   UNL d   1       0.240  -0.006   0.526  0.00  0.00    -0.070 N 
ATOM      3  C1  UNL d   1      -0.823  -0.462   1.259  0.00  0.00    -0.004 A 
ATOM      4  C2  UNL d   1      -0.420  -0.554   2.574  0.00  0.00    -0.047 A 
ATOM      5  C3  UNL d   1       0.932  -0.139   2.633  0.00  0.00    -0.047 A 
ATOM      6  C4  UNL d   1       1.315   0.195   1.351  0.00  0.00    -0.004 A 
ENDROOT
TORSDOF 0
ENDMDL
