MODEL 1
REMARK minimizedAffinity -2.20500088
REMARK minimizedRMSD -1
REMARK  0 active torsions:
REMARK  status: ('A' for Active; 'I' for Inactive)
ROOT
ATOM      1  C   UNL d   1       1.456   0.356   1.327  0.00  0.00     0.172 C 
ATOM      2  N   UNL d   1       0.254  -0.228   1.874  0.00  0.00    -0.070 N 
ATOM      3  C1  UNL d   1      -0.805  -0.704   1.148  0.00  0.00    -0.004 A 
ATOM      4  C2  UNL d   1      -1.747  -1.177   2.035  0.00  0.00    -0.047 A 
ATOM      5  C3  UNL d   1      -1.238  -0.976   3.340  0.00  0.00    -0.047 A 
ATOM      6  C4  UNL d   1       0.002  -0.387   3.211  0.00  0.00    -0.004 A 
ENDROOT
TORSDOF 0
ENDMDL
