MODEL 1
REMARK minimizedAffinity -3.32520962
REMARK minimizedRMSD -1
REMARK  0 active torsions:
REMARK  status: ('A' for Active; 'I' for Inactive)
ROOT
ATOM      1  C   UNL d   1       0.139   0.226  -0.795  0.00  0.00     0.172 C 
ATOM      2  N   UNL d   1      -0.080  -0.047   0.605  0.00  0.00    -0.070 N 
ATOM      3  C1  UNL d   1      -1.131  -0.755   1.126  0.00  0.00    -0.004 A 
ATOM      4  C2  UNL d   1      -0.977  -0.793   2.495  0.00  0.00    -0.047 A 
ATOM      5  C3  UNL d   1       0.206  -0.082   2.808  0.00  0.00    -0.047 A 
ATOM      6  C4  UNL d   1       0.741   0.369   1.620  0.00  0.00    -0.004 A 
ENDROOT
TORSDOF 0
ENDMDL
