MODEL 1
REMARK minimizedAffinity -3.25227451
REMARK minimizedRMSD -1
REMARK  0 active torsions:
REMARK  status: ('A' for Active; 'I' for Inactive)
ROOT
ATOM      1  C   UNL d   1       1.534   0.695   0.463  0.00  0.00     0.172 C 
ATOM      2  N   UNL d   1       0.341   0.239   1.137  0.00  0.00    -0.070 N 
ATOM      3  C1  UNL d   1       0.202   0.074   2.489  0.00  0.00    -0.004 A 
ATOM      4  C2  UNL d   1      -1.079  -0.373   2.730  0.00  0.00    -0.047 A 
ATOM      5  C3  UNL d   1      -1.732  -0.482   1.479  0.00  0.00    -0.047 A 
ATOM      6  C4  UNL d   1      -0.829  -0.097   0.510  0.00  0.00    -0.004 A 
ENDROOT
TORSDOF 0
ENDMDL
