MODEL 1
REMARK minimizedAffinity -2.82991219
REMARK minimizedRMSD -1
REMARK  0 active torsions:
REMARK  status: ('A' for Active; 'I' for Inactive)
ROOT
ATOM      1  C   UNL d   1      -0.023   0.187  -1.870  0.00  0.00     0.172 C 
ATOM      2  N   UNL d   1      -0.093  -0.020  -0.443  0.00  0.00    -0.070 N 
ATOM      3  C1  UNL d   1       0.946   0.128   0.437  0.00  0.00    -0.004 A 
ATOM      4  C2  UNL d   1       0.474  -0.159   1.700  0.00  0.00    -0.047 A 
ATOM      5  C3  UNL d   1      -0.896  -0.492   1.574  0.00  0.00    -0.047 A 
ATOM      6  C4  UNL d   1      -1.220  -0.398   0.237  0.00  0.00    -0.004 A 
ENDROOT
TORSDOF 0
ENDMDL
