MODEL 1
REMARK minimizedAffinity -3.23949814
REMARK minimizedRMSD -1
REMARK  0 active torsions:
REMARK  status: ('A' for Active; 'I' for Inactive)
ROOT
ATOM      1  C   UNL d   1      -0.134  -0.443   2.653  0.00  0.00     0.172 C 
ATOM      2  N   UNL d   1       0.162  -0.010   1.307  0.00  0.00    -0.070 N 
ATOM      3  C1  UNL d   1       1.414   0.185   0.788  0.00  0.00    -0.004 A 
ATOM      4  C2  UNL d   1       1.270   0.595  -0.520  0.00  0.00    -0.047 A 
ATOM      5  C3  UNL d   1      -0.117   0.649  -0.796  0.00  0.00    -0.047 A 
ATOM      6  C4  UNL d   1      -0.780   0.270   0.353  0.00  0.00    -0.004 A 
ENDROOT
TORSDOF 0
ENDMDL
