MODEL 1
REMARK minimizedAffinity -3.29524636
REMARK minimizedRMSD -1
REMARK  0 active torsions:
REMARK  status: ('A' for Active; 'I' for Inactive)
ROOT
ATOM      1  C   UNL d   1       0.365   0.239  -1.566  0.00  0.00     0.172 C 
ATOM      2  N   UNL d   1       0.167  -0.109  -0.178  0.00  0.00    -0.070 N 
ATOM      3  C1  UNL d   1       1.158  -0.395   0.723  0.00  0.00    -0.004 A 
ATOM      4  C2  UNL d   1       0.561  -0.675   1.932  0.00  0.00    -0.047 A 
ATOM      5  C3  UNL d   1      -0.838  -0.555   1.752  0.00  0.00    -0.047 A 
ATOM      6  C4  UNL d   1      -1.054  -0.204   0.436  0.00  0.00    -0.004 A 
ENDROOT
TORSDOF 0
ENDMDL
