MODEL 1
REMARK minimizedAffinity -2.01509261
REMARK minimizedRMSD -1
REMARK  0 active torsions:
REMARK  status: ('A' for Active; 'I' for Inactive)
ROOT
ATOM      1  C   UNL d   1      -0.538   0.421  -1.443  0.00  0.00     0.172 C 
ATOM      2  N   UNL d   1       0.220  -0.422  -2.337  0.00  0.00    -0.070 N 
ATOM      3  C1  UNL d   1       1.535  -0.247  -2.677  0.00  0.00    -0.004 A 
ATOM      4  C2  UNL d   1       1.884  -1.257  -3.547  0.00  0.00    -0.047 A 
ATOM      5  C3  UNL d   1       0.740  -2.067  -3.737  0.00  0.00    -0.047 A 
ATOM      6  C4  UNL d   1      -0.276  -1.528  -2.976  0.00  0.00    -0.004 A 
ENDROOT
TORSDOF 0
ENDMDL
