MODEL 1
REMARK minimizedAffinity 0.138772428
REMARK minimizedRMSD -1
REMARK  1 active torsions:
REMARK  status: ('A' for Active; 'I' for Inactive)
REMARK    1  A    between atoms: C1_2  and  C2_3 
ROOT
ATOM      1  C2  UNL d   1      -5.982   2.460  -2.245  0.00  0.00    -0.076 A 
ATOM      2  C3  UNL d   1      -5.965   1.227  -2.921  0.00  0.00     0.004 A 
ATOM      3  C4  UNL d   1      -5.974   1.173  -4.314  0.00  0.00    -0.003 A 
ATOM      4  C5  UNL d   1      -5.999   2.350  -5.054  0.00  0.00     0.000 A 
ATOM      5  C6  UNL d   1      -5.998   3.581  -4.400  0.00  0.00     0.000 A 
ATOM      6  C7  UNL d   1      -5.973   3.654  -2.996  0.00  0.00    -0.073 A 
ATOM      7  C8  UNL d   1      -5.979   5.009  -2.344  0.00  0.00     0.078 C 
ENDROOT
BRANCH   1   8
ATOM      8  C1  UNL d   1      -5.999   2.456  -0.733  0.00  0.00     0.053 C 
ATOM      9  C   UNL d   1      -5.070   1.407  -0.142  0.00  0.00     0.018 C 
ENDBRANCH   1   8
TORSDOF 1
ENDMDL
