MODEL 1
REMARK minimizedAffinity 6.83868027
REMARK minimizedRMSD -1
REMARK  1 active torsions:
REMARK  status: ('A' for Active; 'I' for Inactive)
REMARK    1  A    between atoms: C1_2  and  C2_3 
ROOT
ATOM      1  C2  UNL d   1      -4.505   0.644   2.672  0.00  0.00    -0.076 A 
ATOM      2  C3  UNL d   1      -3.379   1.097   3.382  0.00  0.00     0.004 A 
ATOM      3  C4  UNL d   1      -2.542   2.077   2.851  0.00  0.00    -0.003 A 
ATOM      4  C5  UNL d   1      -2.818   2.620   1.600  0.00  0.00     0.000 A 
ATOM      5  C6  UNL d   1      -3.940   2.195   0.890  0.00  0.00     0.000 A 
ATOM      6  C7  UNL d   1      -4.803   1.219   1.419  0.00  0.00    -0.073 A 
ATOM      7  C8  UNL d   1      -5.995   0.794   0.606  0.00  0.00     0.078 C 
ENDROOT
BRANCH   1   8
ATOM      8  C1  UNL d   1      -5.361  -0.440   3.287  0.00  0.00     0.053 C 
ATOM      9  C   UNL d   1      -4.564  -1.691   3.624  0.00  0.00     0.018 C 
ENDBRANCH   1   8
TORSDOF 1
ENDMDL
