MODEL 1
REMARK minimizedAffinity 8.77843285
REMARK minimizedRMSD -1
REMARK  1 active torsions:
REMARK  status: ('A' for Active; 'I' for Inactive)
REMARK    1  A    between atoms: C1_2  and  C2_3 
ROOT
ATOM      1  C2  UNL d   1       2.974  -4.698  -0.503  0.00  0.00    -0.076 A 
ATOM      2  C3  UNL d   1       3.905  -5.639  -0.974  0.00  0.00     0.004 A 
ATOM      3  C4  UNL d   1       5.214  -5.265  -1.273  0.00  0.00    -0.003 A 
ATOM      4  C5  UNL d   1       5.613  -3.943  -1.105  0.00  0.00     0.000 A 
ATOM      5  C6  UNL d   1       4.707  -3.000  -0.621  0.00  0.00     0.000 A 
ATOM      6  C7  UNL d   1       3.388  -3.364  -0.300  0.00  0.00    -0.073 A 
ATOM      7  C8  UNL d   1       2.452  -2.305   0.213  0.00  0.00     0.078 C 
ENDROOT
BRANCH   1   8
ATOM      8  C1  UNL d   1       1.561  -5.156  -0.221  0.00  0.00     0.053 C 
ATOM      9  C   UNL d   1       0.542  -4.507  -1.145  0.00  0.00     0.018 C 
ENDBRANCH   1   8
TORSDOF 1
ENDMDL
