MODEL 1
REMARK minimizedAffinity 12.1991835
REMARK minimizedRMSD -1
REMARK  1 active torsions:
REMARK  status: ('A' for Active; 'I' for Inactive)
REMARK    1  A    between atoms: C1_2  and  C2_3 
ROOT
ATOM      1  C2  UNL d   1      -0.443   4.065  -0.749  0.00  0.00    -0.076 A 
ATOM      2  C3  UNL d   1      -0.757   3.461  -1.979  0.00  0.00     0.004 A 
ATOM      3  C4  UNL d   1      -1.689   4.033  -2.842  0.00  0.00    -0.003 A 
ATOM      4  C5  UNL d   1      -2.323   5.220  -2.490  0.00  0.00     0.000 A 
ATOM      5  C6  UNL d   1      -2.011   5.842  -1.282  0.00  0.00     0.000 A 
ATOM      6  C7  UNL d   1      -1.061   5.287  -0.408  0.00  0.00    -0.073 A 
ATOM      7  C8  UNL d   1      -0.767   5.998   0.885  0.00  0.00     0.078 C 
ENDROOT
BRANCH   1   8
ATOM      8  C1  UNL d   1       0.557   3.384   0.158  0.00  0.00     0.053 C 
ATOM      9  C   UNL d   1      -0.111   2.633   1.300  0.00  0.00     0.018 C 
ENDBRANCH   1   8
TORSDOF 1
ENDMDL
