MODEL 1
REMARK minimizedAffinity -2.65189075
REMARK minimizedRMSD -1
REMARK  2 active torsions:
REMARK  status: ('A' for Active; 'I' for Inactive)
REMARK    1  A    between atoms: C1_2  and  C2_3 
REMARK    2  A    between atoms: C2_3  and  C3_4 
ROOT
ATOM      1  C3  UNL d   1       0.202  -0.780  -0.516  0.00  0.00    -0.075 A 
ATOM      2  C4  UNL d   1       0.479  -0.567   0.843  0.00  0.00     0.002 A 
ATOM      3  C5  UNL d   1       0.161   0.649   1.448  0.00  0.00     0.002 A 
ATOM      4  C6  UNL d   1      -0.427   1.669   0.703  0.00  0.00    -0.004 A 
ATOM      5  C7  UNL d   1      -0.691   1.475  -0.651  0.00  0.00     0.002 A 
ATOM      6  C8  UNL d   1      -0.378   0.257  -1.259  0.00  0.00     0.002 A 
ENDROOT
BRANCH   1   7
ATOM      7  C2  UNL d   1       0.517  -2.104  -1.170  0.00  0.00     0.056 C 
BRANCH   7   8
ATOM      8  C1  UNL d   1      -0.281  -3.284  -0.605  0.00  0.00     0.007 C 
ATOM      9  C   UNL d   1      -1.378  -3.771  -1.542  0.00  0.00     0.009 C 
ENDBRANCH   7   8
ENDBRANCH   1   7
TORSDOF 2
ENDMDL
