MODEL 1
REMARK minimizedAffinity -2.89809823
REMARK minimizedRMSD -1
REMARK  2 active torsions:
REMARK  status: ('A' for Active; 'I' for Inactive)
REMARK    1  A    between atoms: C1_2  and  C2_3 
REMARK    2  A    between atoms: C2_3  and  C3_4 
ROOT
ATOM      1  C3  UNL d   1       0.193  -1.659   0.180  0.00  0.00    -0.075 A 
ATOM      2  C4  UNL d   1       0.485  -0.366  -0.279  0.00  0.00     0.002 A 
ATOM      3  C5  UNL d   1       0.174   0.749   0.499  0.00  0.00     0.002 A 
ATOM      4  C6  UNL d   1      -0.441   0.588   1.739  0.00  0.00    -0.004 A 
ATOM      5  C7  UNL d   1      -0.750  -0.691   2.198  0.00  0.00     0.002 A 
ATOM      6  C8  UNL d   1      -0.436  -1.809   1.423  0.00  0.00     0.002 A 
ENDROOT
BRANCH   1   7
ATOM      7  C2  UNL d   1       0.554  -2.871  -0.644  0.00  0.00     0.056 C 
BRANCH   7   8
ATOM      8  C1  UNL d   1      -0.541  -3.942  -0.691  0.00  0.00     0.007 C 
ATOM      9  C   UNL d   1      -1.493  -3.776  -1.868  0.00  0.00     0.009 C 
ENDBRANCH   7   8
ENDBRANCH   1   7
TORSDOF 2
ENDMDL
