MODEL 1
REMARK minimizedAffinity -4.23944664
REMARK minimizedRMSD -1
REMARK  2 active torsions:
REMARK  status: ('A' for Active; 'I' for Inactive)
REMARK    1  A    between atoms: C1_2  and  C2_3 
REMARK    2  A    between atoms: C2_3  and  C3_4 
ROOT
ATOM      1  C3  UNL d   1       0.303  -0.201  -0.034  0.00  0.00    -0.075 A 
ATOM      2  C4  UNL d   1       0.241  -0.181   1.367  0.00  0.00     0.002 A 
ATOM      3  C5  UNL d   1       0.039   1.019   2.050  0.00  0.00     0.002 A 
ATOM      4  C6  UNL d   1      -0.093   2.212   1.344  0.00  0.00    -0.004 A 
ATOM      5  C7  UNL d   1      -0.016   2.207  -0.047  0.00  0.00     0.002 A 
ATOM      6  C8  UNL d   1       0.182   1.007  -0.734  0.00  0.00     0.002 A 
ENDROOT
BRANCH   1   7
ATOM      7  C2  UNL d   1       0.492  -1.500  -0.780  0.00  0.00     0.056 C 
BRANCH   7   8
ATOM      8  C1  UNL d   1      -0.818  -2.194  -1.165  0.00  0.00     0.007 C 
ATOM      9  C   UNL d   1      -0.664  -3.695  -1.373  0.00  0.00     0.009 C 
ENDBRANCH   7   8
ENDBRANCH   1   7
TORSDOF 2
ENDMDL
