MODEL 1
REMARK minimizedAffinity 0.289579898
REMARK minimizedRMSD -1
REMARK  2 active torsions:
REMARK  status: ('A' for Active; 'I' for Inactive)
REMARK    1  A    between atoms: C1_2  and  C2_3 
REMARK    2  A    between atoms: C2_3  and  C3_4 
ROOT
ATOM      1  C3  UNL d   1      -0.329  -0.355   0.306  0.00  0.00    -0.075 A 
ATOM      2  C4  UNL d   1      -0.116   0.349   1.500  0.00  0.00     0.002 A 
ATOM      3  C5  UNL d   1       0.110   1.726   1.481  0.00  0.00     0.002 A 
ATOM      4  C6  UNL d   1       0.138   2.413   0.269  0.00  0.00    -0.004 A 
ATOM      5  C7  UNL d   1      -0.055   1.721  -0.925  0.00  0.00     0.002 A 
ATOM      6  C8  UNL d   1      -0.286   0.345  -0.908  0.00  0.00     0.002 A 
ENDROOT
BRANCH   1   7
ATOM      7  C2  UNL d   1      -0.604  -1.839   0.323  0.00  0.00     0.056 C 
BRANCH   7   8
ATOM      8  C1  UNL d   1       0.233  -2.640  -0.680  0.00  0.00     0.007 C 
ATOM      9  C   UNL d   1      -0.114  -4.123  -0.704  0.00  0.00     0.009 C 
ENDBRANCH   7   8
ENDBRANCH   1   7
TORSDOF 2
ENDMDL
