MODEL 1
REMARK minimizedAffinity -5.58074474
REMARK minimizedRMSD -1
REMARK  2 active torsions:
REMARK  status: ('A' for Active; 'I' for Inactive)
REMARK    1  A    between atoms: C1_2  and  C2_3 
REMARK    2  A    between atoms: C2_3  and  C3_4 
ROOT
ATOM      1  C3  UNL d   1      -0.091  -1.338  -0.431  0.00  0.00    -0.075 A 
ATOM      2  C4  UNL d   1      -1.287  -2.047  -0.618  0.00  0.00     0.002 A 
ATOM      3  C5  UNL d   1      -1.262  -3.392  -0.989  0.00  0.00     0.002 A 
ATOM      4  C6  UNL d   1      -0.046  -4.041  -1.187  0.00  0.00    -0.004 A 
ATOM      5  C7  UNL d   1       1.148  -3.342  -1.020  0.00  0.00     0.002 A 
ATOM      6  C8  UNL d   1       1.127  -1.998  -0.645  0.00  0.00     0.002 A 
ENDROOT
BRANCH   1   7
ATOM      7  C2  UNL d   1      -0.110   0.109  -0.001  0.00  0.00     0.056 C 
BRANCH   7   8
ATOM      8  C1  UNL d   1       0.613   0.376   1.324  0.00  0.00     0.007 C 
ATOM      9  C   UNL d   1      -0.083   1.418   2.188  0.00  0.00     0.009 C 
ENDBRANCH   7   8
ENDBRANCH   1   7
TORSDOF 2
ENDMDL
