MODEL 1
REMARK minimizedAffinity -4.02897406
REMARK minimizedRMSD -1
REMARK  2 active torsions:
REMARK  status: ('A' for Active; 'I' for Inactive)
REMARK    1  A    between atoms: C1_2  and  C2_3 
REMARK    2  A    between atoms: C2_3  and  C3_4 
ROOT
ATOM      1  C3  UNL d   1      -0.317  -1.638  -0.940  0.00  0.00    -0.075 A 
ATOM      2  C4  UNL d   1       0.313  -2.762  -0.388  0.00  0.00     0.002 A 
ATOM      3  C5  UNL d   1       0.016  -4.042  -0.856  0.00  0.00     0.002 A 
ATOM      4  C6  UNL d   1      -0.921  -4.215  -1.872  0.00  0.00    -0.004 A 
ATOM      5  C7  UNL d   1      -1.565  -3.107  -2.417  0.00  0.00     0.002 A 
ATOM      6  C8  UNL d   1      -1.266  -1.824  -1.954  0.00  0.00     0.002 A 
ENDROOT
BRANCH   1   7
ATOM      7  C2  UNL d   1       0.023  -0.247  -0.459  0.00  0.00     0.056 C 
BRANCH   7   8
ATOM      8  C1  UNL d   1       0.438  -0.181   1.015  0.00  0.00     0.007 C 
ATOM      9  C   UNL d   1       0.289   1.208   1.619  0.00  0.00     0.009 C 
ENDBRANCH   7   8
ENDBRANCH   1   7
TORSDOF 2
ENDMDL
