MODEL 1
REMARK minimizedAffinity 1.07012939
REMARK minimizedRMSD -1
REMARK  2 active torsions:
REMARK  status: ('A' for Active; 'I' for Inactive)
REMARK    1  A    between atoms: C1_2  and  C2_3 
REMARK    2  A    between atoms: C2_3  and  C3_4 
ROOT
ATOM      1  C3  UNL d   1      -0.012  -1.913  -2.303  0.00  0.00    -0.075 A 
ATOM      2  C4  UNL d   1      -0.563  -2.038  -3.587  0.00  0.00     0.002 A 
ATOM      3  C5  UNL d   1      -1.381  -3.122  -3.904  0.00  0.00     0.002 A 
ATOM      4  C6  UNL d   1      -1.651  -4.098  -2.947  0.00  0.00    -0.004 A 
ATOM      5  C7  UNL d   1      -1.095  -3.993  -1.673  0.00  0.00     0.002 A 
ATOM      6  C8  UNL d   1      -0.279  -2.906  -1.353  0.00  0.00     0.002 A 
ENDROOT
BRANCH   1   7
ATOM      7  C2  UNL d   1       0.851  -0.726  -1.946  0.00  0.00     0.056 C 
BRANCH   7   8
ATOM      8  C1  UNL d   1       0.323   0.611  -2.475  0.00  0.00     0.007 C 
ATOM      9  C   UNL d   1      -0.556   1.348  -1.473  0.00  0.00     0.009 C 
ENDBRANCH   7   8
ENDBRANCH   1   7
TORSDOF 2
ENDMDL
