MODEL 1
REMARK minimizedAffinity -5.76880121
REMARK minimizedRMSD -1
REMARK  0 active torsions:
REMARK  status: ('A' for Active; 'I' for Inactive)
ROOT
ATOM      1  N1  IND d   1      -0.776   2.175   0.081  0.00  0.00    -0.196 N 
ATOM      2  C2  IND d   1       0.079   3.240   0.028  0.00  0.00     0.054 A 
ATOM      3  C3  IND d   1       1.359   2.821   0.147  0.00  0.00    -0.031 A 
ATOM      4  C4  IND d   1       2.286   0.427   0.335  0.00  0.00     0.051 A 
ATOM      5  C5  IND d   1       1.890  -0.875   0.461  0.00  0.00    -0.031 A 
ATOM      6  C6  IND d   1       0.557  -1.234   0.464  0.00  0.00     0.015 A 
ATOM      7  C7  IND d   1      -0.432  -0.302   0.329  0.00  0.00    -0.016 A 
ATOM      8  C8  IND d   1      -0.033   1.022   0.208  0.00  0.00    -0.047 A 
ATOM      9  C9  IND d   1       1.316   1.397   0.247  0.00  0.00    -0.096 A 
ATOM     10  HN1 IND d   1      -1.634   2.218   0.041  0.00  0.00     0.298 HD
ENDROOT
TORSDOF 0
ENDMDL
