MODEL 1
REMARK minimizedAffinity -5.87486649
REMARK minimizedRMSD -1
REMARK  0 active torsions:
REMARK  status: ('A' for Active; 'I' for Inactive)
ROOT
ATOM      1  N1  IND d   1       0.397  -0.888  -0.101  0.00  0.00    -0.196 N 
ATOM      2  C2  IND d   1      -0.818  -1.167   0.460  0.00  0.00     0.054 A 
ATOM      3  C3  IND d   1      -1.416  -0.028   0.876  0.00  0.00    -0.031 A 
ATOM      4  C4  IND d   1      -0.626   2.412   0.648  0.00  0.00     0.051 A 
ATOM      5  C5  IND d   1       0.438   3.166   0.239  0.00  0.00    -0.031 A 
ATOM      6  C6  IND d   1       1.564   2.596  -0.318  0.00  0.00     0.015 A 
ATOM      7  C7  IND d   1       1.664   1.245  -0.498  0.00  0.00    -0.016 A 
ATOM      8  C8  IND d   1       0.589   0.476  -0.077  0.00  0.00    -0.047 A 
ATOM      9  C9  IND d   1      -0.539   1.045   0.528  0.00  0.00    -0.096 A 
ATOM     10  HN1 IND d   1       0.949  -1.468  -0.415  0.00  0.00     0.298 HD
ENDROOT
TORSDOF 0
ENDMDL
