MODEL 1
REMARK minimizedAffinity -3.66444802
REMARK minimizedRMSD -1
REMARK  0 active torsions:
REMARK  status: ('A' for Active; 'I' for Inactive)
ROOT
ATOM      1  N1  IND d   1      -0.864  -1.066   0.154  0.00  0.00    -0.196 N 
ATOM      2  C2  IND d   1       0.274  -1.688  -0.279  0.00  0.00     0.054 A 
ATOM      3  C3  IND d   1       1.229  -0.775  -0.565  0.00  0.00    -0.031 A 
ATOM      4  C4  IND d   1       1.176   1.786  -0.301  0.00  0.00     0.051 A 
ATOM      5  C5  IND d   1       0.341   2.818   0.024  0.00  0.00    -0.031 A 
ATOM      6  C6  IND d   1      -0.964   2.604   0.419  0.00  0.00     0.015 A 
ATOM      7  C7  IND d   1      -1.481   1.343   0.516  0.00  0.00    -0.016 A 
ATOM      8  C8  IND d   1      -0.638   0.293   0.180  0.00  0.00    -0.047 A 
ATOM      9  C9  IND d   1       0.673   0.506  -0.263  0.00  0.00    -0.096 A 
ATOM     10  HN1 IND d   1      -1.597  -1.458   0.373  0.00  0.00     0.298 HD
ENDROOT
TORSDOF 0
ENDMDL
