MODEL 1
REMARK minimizedAffinity -3.30302572
REMARK minimizedRMSD -1
REMARK  0 active torsions:
REMARK  status: ('A' for Active; 'I' for Inactive)
ROOT
ATOM      1  N1  IND d   1       2.135  -0.888   0.697  0.00  0.00    -0.196 N 
ATOM      2  C2  IND d   1       3.279  -0.169   0.492  0.00  0.00     0.054 A 
ATOM      3  C3  IND d   1       2.982   1.122   0.225  0.00  0.00    -0.031 A 
ATOM      4  C4  IND d   1       0.693   2.298   0.177  0.00  0.00     0.051 A 
ATOM      5  C5  IND d   1      -0.648   2.049   0.267  0.00  0.00    -0.031 A 
ATOM      6  C6  IND d   1      -1.140   0.783   0.513  0.00  0.00     0.015 A 
ATOM      7  C7  IND d   1      -0.304  -0.284   0.690  0.00  0.00    -0.016 A 
ATOM      8  C8  IND d   1       1.057  -0.036   0.592  0.00  0.00    -0.047 A 
ATOM      9  C9  IND d   1       1.561   1.239   0.300  0.00  0.00    -0.096 A 
ATOM     10  HN1 IND d   1       2.094  -1.730   0.864  0.00  0.00     0.298 HD
ENDROOT
TORSDOF 0
ENDMDL
