MODEL 1
REMARK minimizedAffinity -6.41602325
REMARK minimizedRMSD -1
REMARK  0 active torsions:
REMARK  status: ('A' for Active; 'I' for Inactive)
ROOT
ATOM      1  N1  IND d   1       2.376  -0.062   0.795  0.00  0.00    -0.196 N 
ATOM      2  C2  IND d   1       1.564  -1.125   0.516  0.00  0.00     0.054 A 
ATOM      3  C3  IND d   1       0.305  -0.703   0.266  0.00  0.00    -0.031 A 
ATOM      4  C4  IND d   1      -0.626   1.695   0.161  0.00  0.00     0.051 A 
ATOM      5  C5  IND d   1      -0.274   2.997   0.379  0.00  0.00    -0.031 A 
ATOM      6  C6  IND d   1       1.006   3.354   0.752  0.00  0.00     0.015 A 
ATOM      7  C7  IND d   1       1.989   2.419   0.910  0.00  0.00    -0.016 A 
ATOM      8  C8  IND d   1       1.633   1.094   0.696  0.00  0.00    -0.047 A 
ATOM      9  C9  IND d   1       0.326   0.722   0.359  0.00  0.00    -0.096 A 
ATOM     10  HN1 IND d   1       3.211  -0.107   0.998  0.00  0.00     0.298 HD
ENDROOT
TORSDOF 0
ENDMDL
