MODEL 1
REMARK minimizedAffinity -3.98919606
REMARK minimizedRMSD -1
REMARK  0 active torsions:
REMARK  status: ('A' for Active; 'I' for Inactive)
ROOT
ATOM      1  N1  IND d   1      -0.718  -0.416   1.099  0.00  0.00    -0.196 N 
ATOM      2  C2  IND d   1      -0.333  -1.428   0.265  0.00  0.00     0.054 A 
ATOM      3  C3  IND d   1       0.464  -0.951  -0.717  0.00  0.00    -0.031 A 
ATOM      4  C4  IND d   1       1.350   1.437  -1.089  0.00  0.00     0.051 A 
ATOM      5  C5  IND d   1       1.244   2.712  -0.609  0.00  0.00    -0.031 A 
ATOM      6  C6  IND d   1       0.465   3.016   0.489  0.00  0.00     0.015 A 
ATOM      7  C7  IND d   1      -0.231   2.049   1.157  0.00  0.00    -0.016 A 
ATOM      8  C8  IND d   1      -0.132   0.754   0.669  0.00  0.00    -0.047 A 
ATOM      9  C9  IND d   1       0.623   0.447  -0.471  0.00  0.00    -0.096 A 
ATOM     10  HN1 IND d   1      -1.239  -0.496   1.779  0.00  0.00     0.298 HD
ENDROOT
TORSDOF 0
ENDMDL
