MODEL 1
REMARK minimizedAffinity -3.75728917
REMARK minimizedRMSD -1
REMARK  0 active torsions:
REMARK  status: ('A' for Active; 'I' for Inactive)
ROOT
ATOM      1  N1  IND d   1       1.115  -0.669  -0.089  0.00  0.00    -0.196 N 
ATOM      2  C2  IND d   1       0.056  -1.507   0.123  0.00  0.00     0.054 A 
ATOM      3  C3  IND d   1      -1.090  -0.798   0.236  0.00  0.00    -0.031 A 
ATOM      4  C4  IND d   1      -1.474   1.737   0.003  0.00  0.00     0.051 A 
ATOM      5  C5  IND d   1      -0.805   2.917  -0.155  0.00  0.00    -0.031 A 
ATOM      6  C6  IND d   1       0.566   2.964  -0.305  0.00  0.00     0.015 A 
ATOM      7  C7  IND d   1       1.321   1.825  -0.314  0.00  0.00    -0.016 A 
ATOM      8  C8  IND d   1       0.645   0.625  -0.146  0.00  0.00    -0.047 A 
ATOM      9  C9  IND d   1      -0.741   0.574   0.049  0.00  0.00    -0.096 A 
ATOM     10  HN1 IND d   1       1.936  -0.910  -0.172  0.00  0.00     0.298 HD
ENDROOT
TORSDOF 0
ENDMDL
