MODEL 1
REMARK minimizedAffinity -3.60531569
REMARK minimizedRMSD -1
REMARK  0 active torsions:
REMARK  status: ('A' for Active; 'I' for Inactive)
ROOT
ATOM      1  N1  IND d   1      -0.940  -0.829   0.282  0.00  0.00    -0.196 N 
ATOM      2  C2  IND d   1       0.171  -1.549  -0.056  0.00  0.00     0.054 A 
ATOM      3  C3  IND d   1       1.169  -0.722  -0.441  0.00  0.00    -0.031 A 
ATOM      4  C4  IND d   1       1.230   1.851  -0.496  0.00  0.00     0.051 A 
ATOM      5  C5  IND d   1       0.441   2.952  -0.312  0.00  0.00    -0.031 A 
ATOM      6  C6  IND d   1      -0.875   2.846   0.091  0.00  0.00     0.015 A 
ATOM      7  C7  IND d   1      -1.449   1.632   0.336  0.00  0.00    -0.016 A 
ATOM      8  C8  IND d   1      -0.653   0.512   0.143  0.00  0.00    -0.047 A 
ATOM      9  C9  IND d   1       0.670   0.610  -0.306  0.00  0.00    -0.096 A 
ATOM     10  HN1 IND d   1      -1.692  -1.157   0.539  0.00  0.00     0.298 HD
ENDROOT
TORSDOF 0
ENDMDL
