MODEL 1
REMARK minimizedAffinity -2.68471694
REMARK minimizedRMSD -1
REMARK  0 active torsions:
REMARK  status: ('A' for Active; 'I' for Inactive)
ROOT
ATOM      1  N1  IND d   1       0.774  -0.908  -0.745  0.00  0.00    -0.196 N 
ATOM      2  C2  IND d   1       0.058  -1.841  -0.048  0.00  0.00     0.054 A 
ATOM      3  C3  IND d   1      -0.849  -1.236   0.752  0.00  0.00    -0.031 A 
ATOM      4  C4  IND d   1      -1.401   1.266   1.000  0.00  0.00     0.051 A 
ATOM      5  C5  IND d   1      -0.989   2.505   0.596  0.00  0.00    -0.031 A 
ATOM      6  C6  IND d   1       0.051   2.673  -0.296  0.00  0.00     0.015 A 
ATOM      7  C7  IND d   1       0.713   1.603  -0.828  0.00  0.00    -0.016 A 
ATOM      8  C8  IND d   1       0.302   0.343  -0.414  0.00  0.00    -0.047 A 
ATOM      9  C9  IND d   1      -0.725   0.168   0.523  0.00  0.00    -0.096 A 
ATOM     10  HN1 IND d   1       1.412  -1.075  -1.297  0.00  0.00     0.298 HD
ENDROOT
TORSDOF 0
ENDMDL
