MODEL 1
REMARK minimizedAffinity -5.18317461
REMARK minimizedRMSD -1
REMARK  0 active torsions:
REMARK  status: ('A' for Active; 'I' for Inactive)
ROOT
ATOM      1  N1  IND d   1      -1.435   1.573   0.001  0.00  0.00    -0.196 N 
ATOM      2  C2  IND d   1      -0.840   2.788  -0.199  0.00  0.00     0.054 A 
ATOM      3  C3  IND d   1       0.504   2.672  -0.114  0.00  0.00    -0.031 A 
ATOM      4  C4  IND d   1       1.946   0.569   0.242  0.00  0.00     0.051 A 
ATOM      5  C5  IND d   1       1.853  -0.767   0.510  0.00  0.00    -0.031 A 
ATOM      6  C6  IND d   1       0.635  -1.406   0.621  0.00  0.00     0.015 A 
ATOM      7  C7  IND d   1      -0.541  -0.730   0.457  0.00  0.00    -0.016 A 
ATOM      8  C8  IND d   1      -0.451   0.629   0.192  0.00  0.00    -0.047 A 
ATOM      9  C9  IND d   1       0.782   1.291   0.120  0.00  0.00    -0.096 A 
ATOM     10  HN1 IND d   1      -2.282   1.424   0.005  0.00  0.00     0.298 HD
ENDROOT
TORSDOF 0
ENDMDL
