MODEL 1
REMARK minimizedAffinity -3.52383375
REMARK minimizedRMSD -1
REMARK  0 active torsions:
REMARK  status: ('A' for Active; 'I' for Inactive)
ROOT
ATOM      1  N1  IND d   1       1.370  -0.793  -0.403  0.00  0.00    -0.196 N 
ATOM      2  C2  IND d   1       0.422  -1.775  -0.333  0.00  0.00     0.054 A 
ATOM      3  C3  IND d   1      -0.795  -1.237  -0.093  0.00  0.00    -0.031 A 
ATOM      4  C4  IND d   1      -1.478   1.236   0.119  0.00  0.00     0.051 A 
ATOM      5  C5  IND d   1      -0.955   2.498   0.162  0.00  0.00    -0.031 A 
ATOM      6  C6  IND d   1       0.397   2.732   0.014  0.00  0.00     0.015 A 
ATOM      7  C7  IND d   1       1.279   1.710  -0.196  0.00  0.00    -0.016 A 
ATOM      8  C8  IND d   1       0.752   0.426  -0.234  0.00  0.00    -0.047 A 
ATOM      9  C9  IND d   1      -0.614   0.179  -0.041  0.00  0.00    -0.096 A 
ATOM     10  HN1 IND d   1       2.211  -0.916  -0.532  0.00  0.00     0.298 HD
ENDROOT
TORSDOF 0
ENDMDL
