MODEL 1
REMARK minimizedAffinity -3.67127252
REMARK minimizedRMSD -1
REMARK  0 active torsions:
REMARK  status: ('A' for Active; 'I' for Inactive)
ROOT
ATOM      1  N1  IND d   1       0.387  -0.852   0.003  0.00  0.00    -0.196 N 
ATOM      2  C2  IND d   1      -0.882  -1.184   0.390  0.00  0.00     0.054 A 
ATOM      3  C3  IND d   1      -1.587  -0.071   0.695  0.00  0.00    -0.031 A 
ATOM      4  C4  IND d   1      -0.889   2.402   0.535  0.00  0.00     0.051 A 
ATOM      5  C5  IND d   1       0.185   3.203   0.268  0.00  0.00    -0.031 A 
ATOM      6  C6  IND d   1       1.406   2.683  -0.112  0.00  0.00     0.015 A 
ATOM      7  C7  IND d   1       1.595   1.337  -0.250  0.00  0.00    -0.016 A 
ATOM      8  C8  IND d   1       0.508   0.520   0.028  0.00  0.00    -0.047 A 
ATOM      9  C9  IND d   1      -0.721   1.040   0.455  0.00  0.00    -0.096 A 
ATOM     10  HN1 IND d   1       1.005  -1.407  -0.218  0.00  0.00     0.298 HD
ENDROOT
TORSDOF 0
ENDMDL
