MODEL 1
REMARK minimizedAffinity -2.37780809
REMARK minimizedRMSD -1
REMARK  0 active torsions:
REMARK  status: ('A' for Active; 'I' for Inactive)
ROOT
ATOM      1  N1  IND d   1      -0.974   2.868   0.812  0.00  0.00    -0.196 N 
ATOM      2  C2  IND d   1      -0.039   3.584   0.118  0.00  0.00     0.054 A 
ATOM      3  C3  IND d   1       0.778   2.753  -0.567  0.00  0.00    -0.031 A 
ATOM      4  C4  IND d   1       0.701   0.188  -0.773  0.00  0.00     0.051 A 
ATOM      5  C5  IND d   1       0.049  -0.913  -0.292  0.00  0.00    -0.031 A 
ATOM      6  C6  IND d   1      -1.001  -0.807   0.598  0.00  0.00     0.015 A 
ATOM      7  C7  IND d   1      -1.447   0.410   1.032  0.00  0.00    -0.016 A 
ATOM      8  C8  IND d   1      -0.782   1.529   0.551  0.00  0.00    -0.047 A 
ATOM      9  C9  IND d   1       0.312   1.425  -0.318  0.00  0.00    -0.096 A 
ATOM     10  HN1 IND d   1      -1.580   3.198   1.325  0.00  0.00     0.298 HD
ENDROOT
TORSDOF 0
ENDMDL
