MODEL 1
REMARK minimizedAffinity -3.66331983
REMARK minimizedRMSD -1
REMARK  0 active torsions:
REMARK  status: ('A' for Active; 'I' for Inactive)
ROOT
ATOM      1  N1  IND d   1      -1.148   1.663  -0.075  0.00  0.00    -0.196 N 
ATOM      2  C2  IND d   1      -0.409   2.805  -0.213  0.00  0.00     0.054 A 
ATOM      3  C3  IND d   1       0.911   2.519  -0.166  0.00  0.00    -0.031 A 
ATOM      4  C4  IND d   1       2.085   0.236   0.028  0.00  0.00     0.051 A 
ATOM      5  C5  IND d   1       1.831  -1.094   0.216  0.00  0.00    -0.031 A 
ATOM      6  C6  IND d   1       0.544  -1.583   0.315  0.00  0.00     0.015 A 
ATOM      7  C7  IND d   1      -0.541  -0.758   0.219  0.00  0.00    -0.016 A 
ATOM      8  C8  IND d   1      -0.286   0.594   0.036  0.00  0.00    -0.047 A 
ATOM      9  C9  IND d   1       1.018   1.102  -0.023  0.00  0.00    -0.096 A 
ATOM     10  HN1 IND d   1      -2.006   1.619  -0.060  0.00  0.00     0.298 HD
ENDROOT
TORSDOF 0
ENDMDL
