MODEL 1
REMARK minimizedAffinity -2.91161728
REMARK minimizedRMSD -1
REMARK  0 active torsions:
REMARK  status: ('A' for Active; 'I' for Inactive)
ROOT
ATOM      1  N1  IND d   1       1.178   2.464  -0.290  0.00  0.00    -0.196 N 
ATOM      2  C2  IND d   1       0.357   3.491   0.085  0.00  0.00     0.054 A 
ATOM      3  C3  IND d   1      -0.867   3.019   0.413  0.00  0.00    -0.031 A 
ATOM      4  C4  IND d   1      -1.713   0.589   0.504  0.00  0.00     0.051 A 
ATOM      5  C5  IND d   1      -1.339  -0.693   0.215  0.00  0.00    -0.031 A 
ATOM      6  C6  IND d   1      -0.080  -0.995  -0.264  0.00  0.00     0.015 A 
ATOM      7  C7  IND d   1       0.859  -0.023  -0.462  0.00  0.00    -0.016 A 
ATOM      8  C8  IND d   1       0.480   1.281  -0.176  0.00  0.00    -0.047 A 
ATOM      9  C9  IND d   1      -0.809   1.599   0.269  0.00  0.00    -0.096 A 
ATOM     10  HN1 IND d   1       1.993   2.543  -0.552  0.00  0.00     0.298 HD
ENDROOT
TORSDOF 0
ENDMDL
