MODEL 1
REMARK minimizedAffinity -3.15051293
REMARK minimizedRMSD -1
REMARK  0 active torsions:
REMARK  status: ('A' for Active; 'I' for Inactive)
ROOT
ATOM      1  N1  IND d   1       0.531   3.242  -0.687  0.00  0.00    -0.196 N 
ATOM      2  C2  IND d   1       0.381   3.899   0.502  0.00  0.00     0.054 A 
ATOM      3  C3  IND d   1      -0.095   3.059   1.448  0.00  0.00    -0.031 A 
ATOM      4  C4  IND d   1      -0.602   0.540   1.292  0.00  0.00     0.051 A 
ATOM      5  C5  IND d   1      -0.655  -0.495   0.401  0.00  0.00    -0.031 A 
ATOM      6  C6  IND d   1      -0.305  -0.335  -0.925  0.00  0.00     0.015 A 
ATOM      7  C7  IND d   1       0.123   0.870  -1.408  0.00  0.00    -0.016 A 
ATOM      8  C8  IND d   1       0.171   1.924  -0.507  0.00  0.00    -0.047 A 
ATOM      9  C9  IND d   1      -0.223   1.778   0.829  0.00  0.00    -0.096 A 
ATOM     10  HN1 IND d   1       0.804   3.592  -1.423  0.00  0.00     0.298 HD
ENDROOT
TORSDOF 0
ENDMDL
