MODEL 1
REMARK minimizedAffinity -5.026052
REMARK minimizedRMSD -1
REMARK  1 active torsions:
REMARK  status: ('A' for Active; 'I' for Inactive)
REMARK    1  A    between atoms: C1_2  and  C2_3 
ROOT
ATOM      1  C2  UNL d   1       0.966  -0.137  -0.819  0.00  0.00    -0.081 A 
ATOM      2  C3  UNL d   1       0.129   0.689  -0.059  0.00  0.00     0.006 A 
ATOM      3  C4  UNL d   1      -0.996   1.281  -0.638  0.00  0.00     0.002 A 
ATOM      4  C5  UNL d   1      -1.307   1.051  -1.983  0.00  0.00    -0.080 A 
ATOM      5  C6  UNL d   1      -2.528   1.656  -2.608  0.00  0.00     0.076 C 
ATOM      6  C7  UNL d   1      -0.460   0.239  -2.746  0.00  0.00     0.002 A 
ATOM      7  C8  UNL d   1       0.665  -0.352  -2.168  0.00  0.00     0.006 A 
ENDROOT
BRANCH   1   8
ATOM      8  C1  UNL d   1       2.144  -0.829  -0.181  0.00  0.00     0.054 C 
ATOM      9  C   UNL d   1       1.832  -1.246   1.250  0.00  0.00     0.018 C 
ENDBRANCH   1   8
TORSDOF 1
ENDMDL
