MODEL 1
REMARK minimizedAffinity -0.705013216
REMARK minimizedRMSD -1
REMARK  1 active torsions:
REMARK  status: ('A' for Active; 'I' for Inactive)
REMARK    1  A    between atoms: C1_2  and  C2_3 
ROOT
ATOM      1  C2  UNL d   1      -0.534   1.230  -0.822  0.00  0.00    -0.081 A 
ATOM      2  C3  UNL d   1       0.829   1.232  -1.143  0.00  0.00     0.006 A 
ATOM      3  C4  UNL d   1       1.702   0.327  -0.533  0.00  0.00     0.002 A 
ATOM      4  C5  UNL d   1       1.225  -0.600   0.400  0.00  0.00    -0.080 A 
ATOM      5  C6  UNL d   1       2.146  -1.597   1.038  0.00  0.00     0.076 C 
ATOM      6  C7  UNL d   1      -0.133  -0.591   0.733  0.00  0.00     0.002 A 
ATOM      7  C8  UNL d   1      -1.006   0.314   0.125  0.00  0.00     0.006 A 
ENDROOT
BRANCH   1   8
ATOM      8  C1  UNL d   1      -1.488   2.161  -1.524  0.00  0.00     0.054 C 
ATOM      9  C   UNL d   1      -2.583   1.389  -2.248  0.00  0.00     0.018 C 
ENDBRANCH   1   8
TORSDOF 1
ENDMDL
