MODEL 1
REMARK minimizedAffinity -0.915640533
REMARK minimizedRMSD -1
REMARK  1 active torsions:
REMARK  status: ('A' for Active; 'I' for Inactive)
REMARK    1  A    between atoms: C1_2  and  C2_3 
ROOT
ATOM      1  C2  UNL d   1       1.111  -0.303  -0.017  0.00  0.00    -0.081 A 
ATOM      2  C3  UNL d   1       0.059  -1.042  -0.572  0.00  0.00     0.006 A 
ATOM      3  C4  UNL d   1      -1.066  -0.394  -1.089  0.00  0.00     0.002 A 
ATOM      4  C5  UNL d   1      -1.154   1.002  -1.066  0.00  0.00    -0.080 A 
ATOM      5  C6  UNL d   1      -2.342   1.710  -1.646  0.00  0.00     0.076 C 
ATOM      6  C7  UNL d   1      -0.111   1.739  -0.496  0.00  0.00     0.002 A 
ATOM      7  C8  UNL d   1       1.014   1.092   0.021  0.00  0.00     0.006 A 
ENDROOT
BRANCH   1   8
ATOM      8  C1  UNL d   1       2.353  -0.995   0.483  0.00  0.00     0.054 C 
ATOM      9  C   UNL d   1       2.135  -1.595   1.864  0.00  0.00     0.018 C 
ENDBRANCH   1   8
TORSDOF 1
ENDMDL
