MODEL 1
REMARK minimizedAffinity -3.7386477
REMARK minimizedRMSD -1
REMARK  1 active torsions:
REMARK  status: ('A' for Active; 'I' for Inactive)
REMARK    1  A    between atoms: C1_2  and  C2_3 
ROOT
ATOM      1  C2  UNL d   1       0.897  -0.642   0.382  0.00  0.00    -0.081 A 
ATOM      2  C3  UNL d   1       1.157  -0.607  -0.994  0.00  0.00     0.006 A 
ATOM      3  C4  UNL d   1       0.341   0.136  -1.851  0.00  0.00     0.002 A 
ATOM      4  C5  UNL d   1      -0.743   0.862  -1.346  0.00  0.00    -0.080 A 
ATOM      5  C6  UNL d   1      -1.608   1.688  -2.250  0.00  0.00     0.076 C 
ATOM      6  C7  UNL d   1      -1.013   0.814   0.026  0.00  0.00     0.002 A 
ATOM      7  C8  UNL d   1      -0.198   0.071   0.883  0.00  0.00     0.006 A 
ENDROOT
BRANCH   1   8
ATOM      8  C1  UNL d   1       1.813  -1.389   1.316  0.00  0.00     0.054 C 
ATOM      9  C   UNL d   1       1.089  -1.796   2.592  0.00  0.00     0.018 C 
ENDBRANCH   1   8
TORSDOF 1
ENDMDL
