MODEL 1
REMARK minimizedAffinity -4.25244951
REMARK minimizedRMSD -1
REMARK  1 active torsions:
REMARK  status: ('A' for Active; 'I' for Inactive)
REMARK    1  A    between atoms: C1_2  and  C2_3 
ROOT
ATOM      1  C2  UNL d   1      -0.303   1.579  -1.549  0.00  0.00    -0.081 A 
ATOM      2  C3  UNL d   1      -0.619   1.242  -0.227  0.00  0.00     0.006 A 
ATOM      3  C4  UNL d   1       0.107   0.256   0.445  0.00  0.00     0.002 A 
ATOM      4  C5  UNL d   1       1.166  -0.402  -0.189  0.00  0.00    -0.080 A 
ATOM      5  C6  UNL d   1       1.973  -1.441   0.532  0.00  0.00     0.076 C 
ATOM      6  C7  UNL d   1       1.471  -0.078  -1.515  0.00  0.00     0.002 A 
ATOM      7  C8  UNL d   1       0.744   0.907  -2.189  0.00  0.00     0.006 A 
ENDROOT
BRANCH   1   8
ATOM      8  C1  UNL d   1      -1.042   2.686  -2.256  0.00  0.00     0.054 C 
ATOM      9  C   UNL d   1      -2.433   2.239  -2.682  0.00  0.00     0.018 C 
ENDBRANCH   1   8
TORSDOF 1
ENDMDL
