MODEL 1
REMARK minimizedAffinity -3.5913322
REMARK minimizedRMSD -1
REMARK  1 active torsions:
REMARK  status: ('A' for Active; 'I' for Inactive)
REMARK    1  A    between atoms: C1_2  and  C2_3 
ROOT
ATOM      1  C2  UNL d   1      -1.389   0.838  -1.534  0.00  0.00    -0.081 A 
ATOM      2  C3  UNL d   1      -0.953  -0.441  -1.902  0.00  0.00     0.006 A 
ATOM      3  C4  UNL d   1       0.082  -1.065  -1.202  0.00  0.00     0.002 A 
ATOM      4  C5  UNL d   1       0.692  -0.426  -0.117  0.00  0.00    -0.080 A 
ATOM      5  C6  UNL d   1       1.783  -1.098   0.662  0.00  0.00     0.076 C 
ATOM      6  C7  UNL d   1       0.268   0.859   0.240  0.00  0.00     0.002 A 
ATOM      7  C8  UNL d   1      -0.766   1.484  -0.461  0.00  0.00     0.006 A 
ENDROOT
BRANCH   1   8
ATOM      8  C1  UNL d   1      -2.548   1.487  -2.246  0.00  0.00     0.054 C 
ATOM      9  C   UNL d   1      -2.343   1.481  -3.755  0.00  0.00     0.018 C 
ENDBRANCH   1   8
TORSDOF 1
ENDMDL
