MODEL 1
REMARK minimizedAffinity -1.24515676
REMARK minimizedRMSD -1
REMARK  1 active torsions:
REMARK  status: ('A' for Active; 'I' for Inactive)
REMARK    1  A    between atoms: C1_2  and  C2_3 
ROOT
ATOM      1  C2  UNL d   1      -0.856   1.153  -1.435  0.00  0.00    -0.081 A 
ATOM      2  C3  UNL d   1      -0.701   1.243  -0.046  0.00  0.00     0.006 A 
ATOM      3  C4  UNL d   1       0.287   0.501   0.606  0.00  0.00     0.002 A 
ATOM      4  C5  UNL d   1       1.140  -0.337  -0.120  0.00  0.00    -0.080 A 
ATOM      5  C6  UNL d   1       2.224  -1.116   0.563  0.00  0.00     0.076 C 
ATOM      6  C7  UNL d   1       0.974  -0.440  -1.506  0.00  0.00     0.002 A 
ATOM      7  C8  UNL d   1      -0.014   0.301  -2.158  0.00  0.00     0.006 A 
ENDROOT
BRANCH   1   8
ATOM      8  C1  UNL d   1      -1.877   2.002  -2.148  0.00  0.00     0.054 C 
ATOM      9  C   UNL d   1      -3.230   1.306  -2.208  0.00  0.00     0.018 C 
ENDBRANCH   1   8
TORSDOF 1
ENDMDL
