MODEL 1
REMARK minimizedAffinity 13.5981159
REMARK minimizedRMSD -1
REMARK  1 active torsions:
REMARK  status: ('A' for Active; 'I' for Inactive)
REMARK    1  A    between atoms: C1_2  and  C2_3 
ROOT
ATOM      1  C2  UNL d   1      -1.425   0.152   1.279  0.00  0.00    -0.081 A 
ATOM      2  C3  UNL d   1      -1.929  -0.502   0.148  0.00  0.00     0.006 A 
ATOM      3  C4  UNL d   1      -2.380   0.231  -0.952  0.00  0.00     0.002 A 
ATOM      4  C5  UNL d   1      -2.329   1.629  -0.943  0.00  0.00    -0.080 A 
ATOM      5  C6  UNL d   1      -2.782   2.427  -2.129  0.00  0.00     0.076 C 
ATOM      6  C7  UNL d   1      -1.842   2.283   0.194  0.00  0.00     0.002 A 
ATOM      7  C8  UNL d   1      -1.391   1.551   1.294  0.00  0.00     0.006 A 
ENDROOT
BRANCH   1   8
ATOM      8  C1  UNL d   1      -0.877  -0.637   2.440  0.00  0.00     0.054 C 
ATOM      9  C   UNL d   1       0.101  -1.705   1.972  0.00  0.00     0.018 C 
ENDBRANCH   1   8
TORSDOF 1
ENDMDL
