MODEL 1
REMARK minimizedAffinity -4.06165981
REMARK minimizedRMSD -1
REMARK  1 active torsions:
REMARK  status: ('A' for Active; 'I' for Inactive)
REMARK    1  A    between atoms: C3_4  and  O_7 
ROOT
ATOM      1  C   UNL d   1       6.000  -2.505   2.345  0.00  0.00    -0.033 A 
ATOM      2  C1  UNL d   1       6.000  -3.812   1.855  0.00  0.00     0.039 A 
ATOM      3  C2  UNL d   1       5.574  -4.865   2.667  0.00  0.00    -0.080 A 
ATOM      4  C3  UNL d   1       5.150  -4.597   3.966  0.00  0.00     0.150 A 
ATOM      5  C4  UNL d   1       5.144  -3.297   4.460  0.00  0.00    -0.007 A 
ATOM      6  C5  UNL d   1       5.571  -2.247   3.647  0.00  0.00     0.039 A 
ENDROOT
BRANCH   4   7
ATOM      7  O   UNL d   1       4.730  -5.592   4.798  0.00  0.00    -0.526 OA
ATOM      8  H5  UNL d   1       4.816  -6.440   4.331  0.00  0.00     0.418 HD
ENDBRANCH   4   7
TORSDOF 1
ENDMDL
