MODEL 1
REMARK minimizedAffinity -3.19571066
REMARK minimizedRMSD -1
REMARK  1 active torsions:
REMARK  status: ('A' for Active; 'I' for Inactive)
REMARK    1  A    between atoms: C3_4  and  O_7 
ROOT
ATOM      1  C   UNL d   1       5.966  -2.631   2.450  0.00  0.00    -0.033 A 
ATOM      2  C1  UNL d   1       5.936  -2.519   3.841  0.00  0.00     0.039 A 
ATOM      3  C2  UNL d   1       5.671  -3.641   4.629  0.00  0.00    -0.080 A 
ATOM      4  C3  UNL d   1       5.441  -4.868   4.014  0.00  0.00     0.150 A 
ATOM      5  C4  UNL d   1       5.473  -4.988   2.628  0.00  0.00    -0.007 A 
ATOM      6  C5  UNL d   1       5.736  -3.867   1.844  0.00  0.00     0.039 A 
ENDROOT
BRANCH   4   7
ATOM      7  O   UNL d   1       5.174  -5.991   4.740  0.00  0.00    -0.526 OA
ATOM      8  H5  UNL d   1       5.155  -5.750   5.682  0.00  0.00     0.418 HD
ENDBRANCH   4   7
TORSDOF 1
ENDMDL
