MODEL 1
REMARK minimizedAffinity -2.6541214
REMARK minimizedRMSD -1
REMARK  1 active torsions:
REMARK  status: ('A' for Active; 'I' for Inactive)
REMARK    1  A    between atoms: C3_4  and  O_7 
ROOT
ATOM      1  C   UNL d   1       6.000  -3.918   1.603  0.00  0.00    -0.033 A 
ATOM      2  C1  UNL d   1       5.897  -5.283   1.878  0.00  0.00     0.039 A 
ATOM      3  C2  UNL d   1       5.420  -5.712   3.118  0.00  0.00    -0.080 A 
ATOM      4  C3  UNL d   1       5.049  -4.769   4.072  0.00  0.00     0.150 A 
ATOM      5  C4  UNL d   1       5.145  -3.407   3.803  0.00  0.00    -0.007 A 
ATOM      6  C5  UNL d   1       5.622  -2.980   2.564  0.00  0.00     0.039 A 
ENDROOT
BRANCH   4   7
ATOM      7  O   UNL d   1       4.582  -5.140   5.298  0.00  0.00    -0.526 OA
ATOM      8  H5  UNL d   1       4.597  -6.110   5.352  0.00  0.00     0.418 HD
ENDBRANCH   4   7
TORSDOF 1
ENDMDL
