MODEL 1
REMARK minimizedAffinity -3.6289475
REMARK minimizedRMSD -1
REMARK  1 active torsions:
REMARK  status: ('A' for Active; 'I' for Inactive)
REMARK    1  A    between atoms: C3_4  and  O_7 
ROOT
ATOM      1  C   UNL d   1       6.000  -2.297   3.534  0.00  0.00    -0.033 A 
ATOM      2  C1  UNL d   1       5.576  -2.208   4.861  0.00  0.00     0.039 A 
ATOM      3  C2  UNL d   1       4.946  -3.296   5.468  0.00  0.00    -0.080 A 
ATOM      4  C3  UNL d   1       4.747  -4.465   4.739  0.00  0.00     0.150 A 
ATOM      5  C4  UNL d   1       5.170  -4.561   3.418  0.00  0.00    -0.007 A 
ATOM      6  C5  UNL d   1       5.798  -3.474   2.812  0.00  0.00     0.039 A 
ENDROOT
BRANCH   4   7
ATOM      7  O   UNL d   1       4.132  -5.551   5.288  0.00  0.00    -0.526 OA
ATOM      8  H5  UNL d   1       3.868  -5.329   6.196  0.00  0.00     0.418 HD
ENDBRANCH   4   7
TORSDOF 1
ENDMDL
