MODEL 1
REMARK minimizedAffinity -3.02764988
REMARK minimizedRMSD -1
REMARK  1 active torsions:
REMARK  status: ('A' for Active; 'I' for Inactive)
REMARK    1  A    between atoms: C3_4  and  O_7 
ROOT
ATOM      1  C   UNL d   1       4.858  -2.952   5.625  0.00  0.00    -0.033 A 
ATOM      2  C1  UNL d   1       5.215  -2.632   4.313  0.00  0.00     0.039 A 
ATOM      3  C2  UNL d   1       5.414  -3.647   3.375  0.00  0.00    -0.080 A 
ATOM      4  C3  UNL d   1       5.253  -4.975   3.760  0.00  0.00     0.150 A 
ATOM      5  C4  UNL d   1       4.894  -5.300   5.064  0.00  0.00    -0.007 A 
ATOM      6  C5  UNL d   1       4.696  -4.286   6.000  0.00  0.00     0.039 A 
ENDROOT
BRANCH   4   7
ATOM      7  O   UNL d   1       5.442  -6.000   2.881  0.00  0.00    -0.526 OA
ATOM      8  H5  UNL d   1       5.714  -5.626   2.027  0.00  0.00     0.418 HD
ENDBRANCH   4   7
TORSDOF 1
ENDMDL
