MODEL 1
REMARK minimizedAffinity -3.6439147
REMARK minimizedRMSD -1
REMARK  1 active torsions:
REMARK  status: ('A' for Active; 'I' for Inactive)
REMARK    1  A    between atoms: C3_4  and  O_7 
ROOT
ATOM      1  C   UNL d   1       5.841  -5.187   2.702  0.00  0.00    -0.033 A 
ATOM      2  C1  UNL d   1       5.621  -4.015   1.976  0.00  0.00     0.039 A 
ATOM      3  C2  UNL d   1       5.380  -2.813   2.644  0.00  0.00    -0.080 A 
ATOM      4  C3  UNL d   1       5.363  -2.796   4.036  0.00  0.00     0.150 A 
ATOM      5  C4  UNL d   1       5.585  -3.960   4.765  0.00  0.00    -0.007 A 
ATOM      6  C5  UNL d   1       5.825  -5.159   4.096  0.00  0.00     0.039 A 
ENDROOT
BRANCH   4   7
ATOM      7  O   UNL d   1       5.127  -1.648   4.732  0.00  0.00    -0.526 OA
ATOM      8  H5  UNL d   1       4.962  -0.931   4.097  0.00  0.00     0.418 HD
ENDBRANCH   4   7
TORSDOF 1
ENDMDL
