MODEL 1
REMARK minimizedAffinity -3.84933901
REMARK minimizedRMSD -1
REMARK  1 active torsions:
REMARK  status: ('A' for Active; 'I' for Inactive)
REMARK    1  A    between atoms: C3_4  and  O_7 
ROOT
ATOM      1  C   UNL d   1       6.000  -2.231   3.371  0.00  0.00    -0.033 A 
ATOM      2  C1  UNL d   1       5.734  -3.459   2.763  0.00  0.00     0.039 A 
ATOM      3  C2  UNL d   1       5.211  -4.514   3.513  0.00  0.00    -0.080 A 
ATOM      4  C3  UNL d   1       4.958  -4.328   4.870  0.00  0.00     0.150 A 
ATOM      5  C4  UNL d   1       5.217  -3.106   5.482  0.00  0.00    -0.007 A 
ATOM      6  C5  UNL d   1       5.740  -2.054   4.731  0.00  0.00     0.039 A 
ENDROOT
BRANCH   4   7
ATOM      7  O   UNL d   1       4.452  -5.329   5.644  0.00  0.00    -0.526 OA
ATOM      8  H5  UNL d   1       4.351  -6.123   5.093  0.00  0.00     0.418 HD
ENDBRANCH   4   7
TORSDOF 1
ENDMDL
