MODEL 1
REMARK minimizedAffinity -2.83088636
REMARK minimizedRMSD -1
REMARK  1 active torsions:
REMARK  status: ('A' for Active; 'I' for Inactive)
REMARK    1  A    between atoms: C3_4  and  O_7 
ROOT
ATOM      1  C   UNL d   1       6.000  -3.010   2.363  0.00  0.00    -0.033 A 
ATOM      2  C1  UNL d   1       5.999  -4.404   2.430  0.00  0.00     0.039 A 
ATOM      3  C2  UNL d   1       5.430  -5.052   3.529  0.00  0.00    -0.080 A 
ATOM      4  C3  UNL d   1       4.865  -4.294   4.551  0.00  0.00     0.150 A 
ATOM      5  C4  UNL d   1       4.859  -2.905   4.489  0.00  0.00    -0.007 A 
ATOM      6  C5  UNL d   1       5.428  -2.260   3.391  0.00  0.00     0.039 A 
ENDROOT
BRANCH   4   7
ATOM      7  O   UNL d   1       4.302  -4.881   5.645  0.00  0.00    -0.526 OA
ATOM      8  H5  UNL d   1       4.405  -5.844   5.565  0.00  0.00     0.418 HD
ENDBRANCH   4   7
TORSDOF 1
ENDMDL
