MODEL 1
REMARK minimizedAffinity -3.11978412
REMARK minimizedRMSD -1
REMARK  1 active torsions:
REMARK  status: ('A' for Active; 'I' for Inactive)
REMARK    1  A    between atoms: C3_4  and  O_7 
ROOT
ATOM      1  C   UNL d   1       5.995  -2.244   4.213  0.00  0.00    -0.033 A 
ATOM      2  C1  UNL d   1       5.841  -3.311   3.325  0.00  0.00     0.039 A 
ATOM      3  C2  UNL d   1       5.171  -4.467   3.730  0.00  0.00    -0.080 A 
ATOM      4  C3  UNL d   1       4.660  -4.543   5.023  0.00  0.00     0.150 A 
ATOM      5  C4  UNL d   1       4.806  -3.483   5.911  0.00  0.00    -0.007 A 
ATOM      6  C5  UNL d   1       5.477  -2.329   5.505  0.00  0.00     0.039 A 
ENDROOT
BRANCH   4   7
ATOM      7  O   UNL d   1       4.002  -5.653   5.465  0.00  0.00    -0.526 OA
ATOM      8  H5  UNL d   1       4.002  -6.314   4.753  0.00  0.00     0.418 HD
ENDBRANCH   4   7
TORSDOF 1
ENDMDL
