MODEL 1
REMARK minimizedAffinity -3.72050452
REMARK minimizedRMSD -1
REMARK  1 active torsions:
REMARK  status: ('A' for Active; 'I' for Inactive)
REMARK    1  A    between atoms: C3_4  and  O_7 
ROOT
ATOM      1  C   UNL d   1       6.000  -2.947   2.415  0.00  0.00    -0.033 A 
ATOM      2  C1  UNL d   1       5.842  -4.223   1.870  0.00  0.00     0.039 A 
ATOM      3  C2  UNL d   1       5.342  -5.263   2.656  0.00  0.00    -0.080 A 
ATOM      4  C3  UNL d   1       5.002  -5.014   3.983  0.00  0.00     0.150 A 
ATOM      5  C4  UNL d   1       5.153  -3.745   4.532  0.00  0.00    -0.007 A 
ATOM      6  C5  UNL d   1       5.654  -2.708   3.746  0.00  0.00     0.039 A 
ENDROOT
BRANCH   4   7
ATOM      7  O   UNL d   1       4.514  -5.998   4.791  0.00  0.00    -0.526 OA
ATOM      8  H5  UNL d   1       4.491  -6.828   4.285  0.00  0.00     0.418 HD
ENDBRANCH   4   7
TORSDOF 1
ENDMDL
