MODEL 1
REMARK minimizedAffinity -4.90238953
REMARK minimizedRMSD -1
REMARK  1 active torsions:
REMARK  status: ('A' for Active; 'I' for Inactive)
REMARK    1  A    between atoms: C1_2  and  C2_3 
ROOT
ATOM      1  C2  UNL d   1       0.284   0.412   0.101  0.00  0.00    -0.073 A 
ATOM      2  C3  UNL d   1      -0.070  -0.198   1.310  0.00  0.00    -0.002 A 
ATOM      3  C4  UNL d   1      -0.697   0.540   2.315  0.00  0.00     0.004 A 
ATOM      4  C5  UNL d   1      -0.983   1.891   2.119  0.00  0.00    -0.004 A 
ATOM      5  C6  UNL d   1      -0.648   2.516   0.913  0.00  0.00    -0.075 A 
ATOM      6  C7  UNL d   1      -0.947   3.969   0.688  0.00  0.00     0.076 C 
ATOM      7  C8  UNL d   1      -0.016   1.769  -0.090  0.00  0.00     0.001 A 
ENDROOT
BRANCH   1   8
ATOM      8  C1  UNL d   1       0.955  -0.382  -0.989  0.00  0.00     0.053 C 
ATOM      9  C   UNL d   1       0.808  -1.880  -0.777  0.00  0.00     0.018 C 
ENDBRANCH   1   8
TORSDOF 1
ENDMDL
