MODEL 1
REMARK minimizedAffinity -4.02109241
REMARK minimizedRMSD -1
REMARK  1 active torsions:
REMARK  status: ('A' for Active; 'I' for Inactive)
REMARK    1  A    between atoms: C1_2  and  C2_3 
ROOT
ATOM      1  C2  UNL d   1       0.156  -0.789  -0.810  0.00  0.00    -0.073 A 
ATOM      2  C3  UNL d   1       0.423  -0.372  -2.119  0.00  0.00    -0.002 A 
ATOM      3  C4  UNL d   1      -0.057   0.855  -2.580  0.00  0.00     0.004 A 
ATOM      4  C5  UNL d   1      -0.803   1.678  -1.737  0.00  0.00    -0.004 A 
ATOM      5  C6  UNL d   1      -1.071   1.284  -0.422  0.00  0.00    -0.075 A 
ATOM      6  C7  UNL d   1      -1.874   2.158   0.497  0.00  0.00     0.076 C 
ATOM      7  C8  UNL d   1      -0.587   0.050   0.033  0.00  0.00     0.001 A 
ENDROOT
BRANCH   1   8
ATOM      8  C1  UNL d   1       0.678  -2.109  -0.306  0.00  0.00     0.053 C 
ATOM      9  C   UNL d   1       0.227  -3.271  -1.177  0.00  0.00     0.018 C 
ENDBRANCH   1   8
TORSDOF 1
ENDMDL
