MODEL 1
REMARK minimizedAffinity -1.3069483
REMARK minimizedRMSD -1
REMARK  1 active torsions:
REMARK  status: ('A' for Active; 'I' for Inactive)
REMARK    1  A    between atoms: C1_2  and  C2_3 
ROOT
ATOM      1  C2  UNL d   1       0.218  -1.354  -1.158  0.00  0.00    -0.073 A 
ATOM      2  C3  UNL d   1       0.494  -0.578  -2.290  0.00  0.00    -0.002 A 
ATOM      3  C4  UNL d   1       0.439   0.814  -2.220  0.00  0.00     0.004 A 
ATOM      4  C5  UNL d   1       0.115   1.445  -1.019  0.00  0.00    -0.004 A 
ATOM      5  C6  UNL d   1      -0.152   0.687   0.126  0.00  0.00    -0.075 A 
ATOM      6  C7  UNL d   1      -0.504   1.350   1.425  0.00  0.00     0.076 C 
ATOM      7  C8  UNL d   1      -0.097  -0.711   0.047  0.00  0.00     0.001 A 
ENDROOT
BRANCH   1   8
ATOM      8  C1  UNL d   1       0.283  -2.858  -1.227  0.00  0.00     0.053 C 
ATOM      9  C   UNL d   1      -0.892  -3.445  -1.994  0.00  0.00     0.018 C 
ENDBRANCH   1   8
TORSDOF 1
ENDMDL
