MODEL 1
REMARK minimizedAffinity -3.83924818
REMARK minimizedRMSD -1
REMARK  1 active torsions:
REMARK  status: ('A' for Active; 'I' for Inactive)
REMARK    1  A    between atoms: C1_2  and  C2_3 
ROOT
ATOM      1  C2  UNL d   1       0.593  -0.955  -0.944  0.00  0.00    -0.073 A 
ATOM      2  C3  UNL d   1       0.694  -0.213  -2.126  0.00  0.00    -0.002 A 
ATOM      3  C4  UNL d   1       0.311   1.129  -2.150  0.00  0.00     0.004 A 
ATOM      4  C5  UNL d   1      -0.168   1.743  -0.993  0.00  0.00    -0.004 A 
ATOM      5  C6  UNL d   1      -0.264   1.021   0.201  0.00  0.00    -0.075 A 
ATOM      6  C7  UNL d   1      -0.780   1.667   1.453  0.00  0.00     0.076 C 
ATOM      7  C8  UNL d   1       0.119  -0.326   0.217  0.00  0.00     0.001 A 
ENDROOT
BRANCH   1   8
ATOM      8  C1  UNL d   1       1.011  -2.403  -0.911  0.00  0.00     0.053 C 
ATOM      9  C   UNL d   1      -0.003  -3.304  -1.598  0.00  0.00     0.018 C 
ENDBRANCH   1   8
TORSDOF 1
ENDMDL
