MODEL 1
REMARK minimizedAffinity -5.21388197
REMARK minimizedRMSD -1
REMARK  1 active torsions:
REMARK  status: ('A' for Active; 'I' for Inactive)
REMARK    1  A    between atoms: C1_2  and  C2_3 
ROOT
ATOM      1  C2  UNL d   1       0.368   0.669   0.079  0.00  0.00    -0.073 A 
ATOM      2  C3  UNL d   1       0.330   0.972   1.445  0.00  0.00    -0.002 A 
ATOM      3  C4  UNL d   1      -0.339   2.111   1.896  0.00  0.00     0.004 A 
ATOM      4  C5  UNL d   1      -0.982   2.953   0.988  0.00  0.00    -0.004 A 
ATOM      5  C6  UNL d   1      -0.965   2.660  -0.379  0.00  0.00    -0.075 A 
ATOM      6  C7  UNL d   1      -1.650   3.557  -1.369  0.00  0.00     0.076 C 
ATOM      7  C8  UNL d   1      -0.289   1.517  -0.825  0.00  0.00     0.001 A 
ENDROOT
BRANCH   1   8
ATOM      8  C1  UNL d   1       1.084  -0.563  -0.412  0.00  0.00     0.053 C 
ATOM      9  C   UNL d   1       0.120  -1.594  -0.977  0.00  0.00     0.018 C 
ENDBRANCH   1   8
TORSDOF 1
ENDMDL
