MODEL 1
REMARK minimizedAffinity -3.43918896
REMARK minimizedRMSD -1
REMARK  1 active torsions:
REMARK  status: ('A' for Active; 'I' for Inactive)
REMARK    1  A    between atoms: C1_2  and  C2_3 
ROOT
ATOM      1  C2  UNL d   1       0.396  -0.979  -0.586  0.00  0.00    -0.073 A 
ATOM      2  C3  UNL d   1       0.800  -0.283  -1.731  0.00  0.00    -0.002 A 
ATOM      3  C4  UNL d   1       0.739   1.110  -1.767  0.00  0.00     0.004 A 
ATOM      4  C5  UNL d   1       0.282   1.822  -0.658  0.00  0.00    -0.004 A 
ATOM      5  C6  UNL d   1      -0.115   1.145   0.499  0.00  0.00    -0.075 A 
ATOM      6  C7  UNL d   1      -0.612   1.896   1.700  0.00  0.00     0.076 C 
ATOM      7  C8  UNL d   1      -0.054  -0.255   0.527  0.00  0.00     0.001 A 
ENDROOT
BRANCH   1   8
ATOM      8  C1  UNL d   1       0.465  -2.484  -0.540  0.00  0.00     0.053 C 
ATOM      9  C   UNL d   1      -0.189  -3.122  -1.756  0.00  0.00     0.018 C 
ENDBRANCH   1   8
TORSDOF 1
ENDMDL
