MODEL 1
REMARK minimizedAffinity -2.90266991
REMARK minimizedRMSD -1
REMARK  1 active torsions:
REMARK  status: ('A' for Active; 'I' for Inactive)
REMARK    1  A    between atoms: C1_2  and  C2_3 
ROOT
ATOM      1  C2  UNL d   1       0.167  -0.300  -0.736  0.00  0.00    -0.073 A 
ATOM      2  C3  UNL d   1       0.198   0.396  -1.950  0.00  0.00    -0.002 A 
ATOM      3  C4  UNL d   1      -0.348   1.676  -2.042  0.00  0.00     0.004 A 
ATOM      4  C5  UNL d   1      -0.925   2.276  -0.923  0.00  0.00    -0.004 A 
ATOM      5  C6  UNL d   1      -0.955   1.601   0.302  0.00  0.00    -0.075 A 
ATOM      6  C7  UNL d   1      -1.574   2.232   1.515  0.00  0.00     0.076 C 
ATOM      7  C8  UNL d   1      -0.407   0.315   0.386  0.00  0.00     0.001 A 
ENDROOT
BRANCH   1   8
ATOM      8  C1  UNL d   1       0.761  -1.681  -0.630  0.00  0.00     0.053 C 
ATOM      9  C   UNL d   1      -0.179  -2.749  -1.165  0.00  0.00     0.018 C 
ENDBRANCH   1   8
TORSDOF 1
ENDMDL
