MODEL 1
REMARK minimizedAffinity 8.05117607
REMARK minimizedRMSD -1
REMARK  1 active torsions:
REMARK  status: ('A' for Active; 'I' for Inactive)
REMARK    1  A    between atoms: C3_4  and  O_7 
ROOT
ATOM      1  C   UNL d   1       6.000   1.872  -2.231  0.00  0.00    -0.033 A 
ATOM      2  C1  UNL d   1       5.997   2.655  -1.074  0.00  0.00     0.039 A 
ATOM      3  C2  UNL d   1       5.975   4.047  -1.172  0.00  0.00    -0.080 A 
ATOM      4  C3  UNL d   1       5.954   4.644  -2.429  0.00  0.00     0.150 A 
ATOM      5  C4  UNL d   1       5.953   3.871  -3.585  0.00  0.00    -0.007 A 
ATOM      6  C5  UNL d   1       5.976   2.480  -3.486  0.00  0.00     0.039 A 
ENDROOT
BRANCH   4   7
ATOM      7  O   UNL d   1       5.937   5.999  -2.574  0.00  0.00    -0.526 OA
ATOM      8  H5  UNL d   1       5.970   6.404  -1.691  0.00  0.00     0.418 HD
ENDBRANCH   4   7
TORSDOF 1
ENDMDL
