MODEL 1
REMARK minimizedAffinity 3.88796043
REMARK minimizedRMSD -1
REMARK  1 active torsions:
REMARK  status: ('A' for Active; 'I' for Inactive)
REMARK    1  A    between atoms: C3_4  and  O_7 
ROOT
ATOM      1  C   UNL d   1       6.000   2.263  -1.351  0.00  0.00    -0.033 A 
ATOM      2  C1  UNL d   1       5.049   1.855  -2.289  0.00  0.00     0.039 A 
ATOM      3  C2  UNL d   1       3.934   1.121  -1.882  0.00  0.00    -0.080 A 
ATOM      4  C3  UNL d   1       3.780   0.802  -0.535  0.00  0.00     0.150 A 
ATOM      5  C4  UNL d   1       4.721   1.208   0.405  0.00  0.00    -0.007 A 
ATOM      6  C5  UNL d   1       5.835   1.941  -0.004  0.00  0.00     0.039 A 
ENDROOT
BRANCH   4   7
ATOM      7  O   UNL d   1       2.711   0.083  -0.090  0.00  0.00    -0.526 OA
ATOM      8  H5  UNL d   1       2.159  -0.153  -0.855  0.00  0.00     0.418 HD
ENDBRANCH   4   7
TORSDOF 1
ENDMDL
