MODEL 1
REMARK minimizedAffinity 6.53530455
REMARK minimizedRMSD -1
REMARK  1 active torsions:
REMARK  status: ('A' for Active; 'I' for Inactive)
REMARK    1  A    between atoms: C3_4  and  O_7 
ROOT
ATOM      1  C   UNL d   1       3.312   0.258  -0.009  0.00  0.00    -0.033 A 
ATOM      2  C1  UNL d   1       4.285   1.077   0.566  0.00  0.00     0.039 A 
ATOM      3  C2  UNL d   1       5.142   1.822  -0.246  0.00  0.00    -0.080 A 
ATOM      4  C3  UNL d   1       5.016   1.739  -1.630  0.00  0.00     0.150 A 
ATOM      5  C4  UNL d   1       4.046   0.928  -2.210  0.00  0.00    -0.007 A 
ATOM      6  C5  UNL d   1       3.192   0.184  -1.397  0.00  0.00     0.039 A 
ENDROOT
BRANCH   4   7
ATOM      7  O   UNL d   1       5.833   2.443  -2.463  0.00  0.00    -0.526 OA
ATOM      8  H5  UNL d   1       6.472   2.937  -1.923  0.00  0.00     0.418 HD
ENDBRANCH   4   7
TORSDOF 1
ENDMDL
