MODEL 1
REMARK minimizedAffinity 6.76220989
REMARK minimizedRMSD -1
REMARK  1 active torsions:
REMARK  status: ('A' for Active; 'I' for Inactive)
REMARK    1  A    between atoms: C3_4  and  O_7 
ROOT
ATOM      1  C   UNL d   1       2.286   2.932   4.251  0.00  0.00    -0.033 A 
ATOM      2  C1  UNL d   1       2.891   3.496   3.127  0.00  0.00     0.039 A 
ATOM      3  C2  UNL d   1       2.114   4.146   2.166  0.00  0.00    -0.080 A 
ATOM      4  C3  UNL d   1       0.735   4.226   2.342  0.00  0.00     0.150 A 
ATOM      5  C4  UNL d   1       0.126   3.669   3.462  0.00  0.00    -0.007 A 
ATOM      6  C5  UNL d   1       0.904   3.020   4.420  0.00  0.00     0.039 A 
ENDROOT
BRANCH   4   7
ATOM      7  O   UNL d   1      -0.065   4.846   1.429  0.00  0.00    -0.526 OA
ATOM      8  H5  UNL d   1       0.490   5.157   0.694  0.00  0.00     0.418 HD
ENDBRANCH   4   7
TORSDOF 1
ENDMDL
