MODEL 1
REMARK minimizedAffinity 5.21303368
REMARK minimizedRMSD -1
REMARK  1 active torsions:
REMARK  status: ('A' for Active; 'I' for Inactive)
REMARK    1  A    between atoms: C3_4  and  O_7 
ROOT
ATOM      1  C   UNL d   1       3.446   0.387  -0.208  0.00  0.00    -0.033 A 
ATOM      2  C1  UNL d   1       4.406   1.186   0.417  0.00  0.00     0.039 A 
ATOM      3  C2  UNL d   1       5.272   1.969  -0.349  0.00  0.00    -0.080 A 
ATOM      4  C3  UNL d   1       5.166   1.946  -1.737  0.00  0.00     0.150 A 
ATOM      5  C4  UNL d   1       4.209   1.156  -2.366  0.00  0.00    -0.007 A 
ATOM      6  C5  UNL d   1       3.347   0.374  -1.599  0.00  0.00     0.039 A 
ENDROOT
BRANCH   4   7
ATOM      7  O   UNL d   1       5.991   2.690  -2.527  0.00  0.00    -0.526 OA
ATOM      8  H5  UNL d   1       6.620   3.163  -1.956  0.00  0.00     0.418 HD
ENDBRANCH   4   7
TORSDOF 1
ENDMDL
