MODEL 1
REMARK minimizedAffinity 13.1887083
REMARK minimizedRMSD -1
REMARK  1 active torsions:
REMARK  status: ('A' for Active; 'I' for Inactive)
REMARK    1  A    between atoms: C3_4  and  O_7 
ROOT
ATOM      1  C   UNL d   1      -5.751   1.357  -5.085  0.00  0.00    -0.033 A 
ATOM      2  C1  UNL d   1      -4.456   1.043  -4.669  0.00  0.00     0.039 A 
ATOM      3  C2  UNL d   1      -3.406   1.931  -4.914  0.00  0.00    -0.080 A 
ATOM      4  C3  UNL d   1      -3.665   3.128  -5.575  0.00  0.00     0.150 A 
ATOM      5  C4  UNL d   1      -4.954   3.450  -5.989  0.00  0.00    -0.007 A 
ATOM      6  C5  UNL d   1      -6.000   2.561  -5.744  0.00  0.00     0.039 A 
ENDROOT
BRANCH   4   7
ATOM      7  O   UNL d   1      -2.673   4.024  -5.841  0.00  0.00    -0.526 OA
ATOM      8  H5  UNL d   1      -1.832   3.656  -5.523  0.00  0.00     0.418 HD
ENDBRANCH   4   7
TORSDOF 1
ENDMDL
