MODEL 1
REMARK minimizedAffinity 2.55291128
REMARK minimizedRMSD -1
REMARK  1 active torsions:
REMARK  status: ('A' for Active; 'I' for Inactive)
REMARK    1  A    between atoms: C3_4  and  O_7 
ROOT
ATOM      1  C   UNL d   1       3.196   0.659   0.032  0.00  0.00    -0.033 A 
ATOM      2  C1  UNL d   1       3.100   0.324  -1.320  0.00  0.00     0.039 A 
ATOM      3  C2  UNL d   1       4.033   0.820  -2.232  0.00  0.00    -0.080 A 
ATOM      4  C3  UNL d   1       5.057   1.648  -1.780  0.00  0.00     0.150 A 
ATOM      5  C4  UNL d   1       5.162   1.982  -0.433  0.00  0.00    -0.007 A 
ATOM      6  C5  UNL d   1       4.228   1.487   0.476  0.00  0.00     0.039 A 
ENDROOT
BRANCH   4   7
ATOM      7  O   UNL d   1       5.989   2.160  -2.633  0.00  0.00    -0.526 OA
ATOM      8  H5  UNL d   1       5.775   1.868  -3.534  0.00  0.00     0.418 HD
ENDBRANCH   4   7
TORSDOF 1
ENDMDL
