MODEL 1
REMARK minimizedAffinity 10.7958708
REMARK minimizedRMSD -1
REMARK  1 active torsions:
REMARK  status: ('A' for Active; 'I' for Inactive)
REMARK    1  A    between atoms: C3_4  and  O_7 
ROOT
ATOM      1  C   UNL d   1       2.533   0.674   0.044  0.00  0.00    -0.033 A 
ATOM      2  C1  UNL d   1       3.044   1.487   1.058  0.00  0.00     0.039 A 
ATOM      3  C2  UNL d   1       2.383   2.666   1.410  0.00  0.00    -0.080 A 
ATOM      4  C3  UNL d   1       1.214   3.019   0.741  0.00  0.00     0.150 A 
ATOM      5  C4  UNL d   1       0.697   2.212  -0.267  0.00  0.00    -0.007 A 
ATOM      6  C5  UNL d   1       1.359   1.036  -0.617  0.00  0.00     0.039 A 
ENDROOT
BRANCH   4   7
ATOM      7  O   UNL d   1       0.537   4.163   1.046  0.00  0.00    -0.526 OA
ATOM      8  H5  UNL d   1       1.026   4.634   1.741  0.00  0.00     0.418 HD
ENDBRANCH   4   7
TORSDOF 1
ENDMDL
