MODEL 1
REMARK minimizedAffinity 11.4979944
REMARK minimizedRMSD -1
REMARK  1 active torsions:
REMARK  status: ('A' for Active; 'I' for Inactive)
REMARK    1  A    between atoms: C3_4  and  O_7 
ROOT
ATOM      1  C   UNL d   1      -2.228   0.691  -0.385  0.00  0.00    -0.033 A 
ATOM      2  C1  UNL d   1      -2.375  -0.696  -0.325  0.00  0.00     0.039 A 
ATOM      3  C2  UNL d   1      -3.639  -1.258  -0.134  0.00  0.00    -0.080 A 
ATOM      4  C3  UNL d   1      -4.746  -0.424  -0.007  0.00  0.00     0.150 A 
ATOM      5  C4  UNL d   1      -4.607   0.959  -0.071  0.00  0.00    -0.007 A 
ATOM      6  C5  UNL d   1      -3.345   1.518  -0.260  0.00  0.00     0.039 A 
ENDROOT
BRANCH   4   7
ATOM      7  O   UNL d   1      -5.998  -0.927   0.184  0.00  0.00    -0.526 OA
ATOM      8  H5  UNL d   1      -5.937  -1.895   0.236  0.00  0.00     0.418 HD
ENDBRANCH   4   7
TORSDOF 1
ENDMDL
