MODEL 1
REMARK minimizedAffinity 5.16395426
REMARK minimizedRMSD -1
REMARK  1 active torsions:
REMARK  status: ('A' for Active; 'I' for Inactive)
REMARK    1  A    between atoms: C3_4  and  O_7 
ROOT
ATOM      1  C   UNL d   1       5.999   2.627  -1.501  0.00  0.00    -0.033 A 
ATOM      2  C1  UNL d   1       5.999   2.523  -0.108  0.00  0.00     0.039 A 
ATOM      3  C2  UNL d   1       4.936   1.898   0.547  0.00  0.00    -0.080 A 
ATOM      4  C3  UNL d   1       3.881   1.382  -0.200  0.00  0.00     0.150 A 
ATOM      5  C4  UNL d   1       3.876   1.478  -1.587  0.00  0.00    -0.007 A 
ATOM      6  C5  UNL d   1       4.938   2.103  -2.240  0.00  0.00     0.039 A 
ENDROOT
BRANCH   4   7
ATOM      7  O   UNL d   1       2.820   0.768   0.396  0.00  0.00    -0.526 OA
ATOM      8  H5  UNL d   1       2.946   0.800   1.359  0.00  0.00     0.418 HD
ENDBRANCH   4   7
TORSDOF 1
ENDMDL
