MODEL 1
REMARK minimizedAffinity 11.0242758
REMARK minimizedRMSD -1
REMARK  1 active torsions:
REMARK  status: ('A' for Active; 'I' for Inactive)
REMARK    1  A    between atoms: C1_2  and  C2_3 
ROOT
ATOM      1  C2  UNL d   1       0.129   2.653  -0.288  0.00  0.00    -0.077 A 
ATOM      2  C3  UNL d   1       1.327   3.375  -0.203  0.00  0.00     0.002 A 
ATOM      3  C4  UNL d   1       1.509   4.534  -0.959  0.00  0.00     0.002 A 
ATOM      4  C5  UNL d   1       0.495   4.984  -1.802  0.00  0.00    -0.004 A 
ATOM      5  C6  UNL d   1      -0.700   4.272  -1.896  0.00  0.00     0.002 A 
ATOM      6  C7  UNL d   1      -0.883   3.112  -1.142  0.00  0.00     0.002 A 
ENDROOT
BRANCH   1   7
ATOM      7  C1  UNL d   1      -0.088   1.429   0.563  0.00  0.00     0.055 C 
ATOM      8  C   UNL d   1       1.188   1.026   1.288  0.00  0.00     0.019 C 
ENDBRANCH   1   7
TORSDOF 1
ENDMDL
