MODEL 1
REMARK minimizedAffinity 4.33923721
REMARK minimizedRMSD -1
REMARK  1 active torsions:
REMARK  status: ('A' for Active; 'I' for Inactive)
REMARK    1  A    between atoms: C1_2  and  C2_3 
ROOT
ATOM      1  C2  UNL d   1       0.445   1.956   0.021  0.00  0.00    -0.077 A 
ATOM      2  C3  UNL d   1       1.391   1.602   0.993  0.00  0.00     0.002 A 
ATOM      3  C4  UNL d   1       1.054   1.625   2.348  0.00  0.00     0.002 A 
ATOM      4  C5  UNL d   1      -0.230   1.995   2.741  0.00  0.00    -0.004 A 
ATOM      5  C6  UNL d   1      -1.178   2.350   1.782  0.00  0.00     0.002 A 
ATOM      6  C7  UNL d   1      -0.842   2.330   0.428  0.00  0.00     0.002 A 
ENDROOT
BRANCH   1   7
ATOM      7  C1  UNL d   1       0.792   1.885  -1.444  0.00  0.00     0.055 C 
ATOM      8  C   UNL d   1       0.069   2.964  -2.237  0.00  0.00     0.019 C 
ENDBRANCH   1   7
TORSDOF 1
ENDMDL
