MODEL 1
REMARK minimizedAffinity 1.42472947
REMARK minimizedRMSD -1
REMARK  0 active torsions:
REMARK  status: ('A' for Active; 'I' for Inactive)
ROOT
ATOM      1  C   UNL d   1       2.308  -4.875   5.039  0.00  0.00     0.078 C 
ATOM      2  C1  UNL d   1       0.851  -4.780   5.381  0.00  0.00    -0.077 A 
ATOM      3  C2  UNL d   1       0.090  -5.931   5.618  0.00  0.00    -0.001 A 
ATOM      4  C3  UNL d   1      -1.268  -5.829   5.926  0.00  0.00     0.003 A 
ATOM      5  C4  UNL d   1      -1.876  -4.577   6.000  0.00  0.00    -0.005 A 
ATOM      6  C5  UNL d   1      -1.127  -3.426   5.764  0.00  0.00     0.003 A 
ATOM      7  C6  UNL d   1       0.231  -3.527   5.456  0.00  0.00    -0.001 A 
ENDROOT
TORSDOF 0
ENDMDL
