MODEL 1
REMARK minimizedAffinity 5.46840429
REMARK minimizedRMSD -1
REMARK  0 active torsions:
REMARK  status: ('A' for Active; 'I' for Inactive)
ROOT
ATOM      1  C   UNL d   1       1.562  -0.778   1.853  0.00  0.00     0.078 C 
ATOM      2  C1  UNL d   1       0.504  -0.865   0.793  0.00  0.00    -0.077 A 
ATOM      3  C2  UNL d   1       0.652  -0.199  -0.429  0.00  0.00    -0.001 A 
ATOM      4  C3  UNL d   1      -0.345  -0.280  -1.403  0.00  0.00     0.003 A 
ATOM      5  C4  UNL d   1      -1.497  -1.027  -1.163  0.00  0.00    -0.005 A 
ATOM      6  C5  UNL d   1      -1.654  -1.691   0.051  0.00  0.00     0.003 A 
ATOM      7  C6  UNL d   1      -0.658  -1.611   1.026  0.00  0.00    -0.001 A 
ENDROOT
TORSDOF 0
ENDMDL
