MODEL 1
REMARK minimizedAffinity -4.61801815
REMARK minimizedRMSD -1
REMARK  0 active torsions:
REMARK  status: ('A' for Active; 'I' for Inactive)
ROOT
ATOM      1  C   UNL d   1       2.490  -2.115   0.321  0.00  0.00     0.078 C 
ATOM      2  C1  UNL d   1       1.396  -1.135   0.018  0.00  0.00    -0.077 A 
ATOM      3  C2  UNL d   1       0.227  -1.539  -0.637  0.00  0.00    -0.001 A 
ATOM      4  C3  UNL d   1      -0.779  -0.614  -0.921  0.00  0.00     0.003 A 
ATOM      5  C4  UNL d   1      -0.625   0.722  -0.555  0.00  0.00    -0.005 A 
ATOM      6  C5  UNL d   1       0.537   1.134   0.096  0.00  0.00     0.003 A 
ATOM      7  C6  UNL d   1       1.543   0.210   0.381  0.00  0.00    -0.001 A 
ENDROOT
TORSDOF 0
ENDMDL
