MODEL 1
REMARK minimizedAffinity 5.32760096
REMARK minimizedRMSD -1
REMARK  0 active torsions:
REMARK  status: ('A' for Active; 'I' for Inactive)
ROOT
ATOM      1  C   UNL d   1       0.943  -2.661  -0.297  0.00  0.00     0.078 C 
ATOM      2  C1  UNL d   1       2.150  -2.332  -1.124  0.00  0.00    -0.077 A 
ATOM      3  C2  UNL d   1       2.790  -1.093  -1.004  0.00  0.00    -0.001 A 
ATOM      4  C3  UNL d   1       3.907  -0.796  -1.788  0.00  0.00     0.003 A 
ATOM      5  C4  UNL d   1       4.392  -1.733  -2.698  0.00  0.00    -0.005 A 
ATOM      6  C5  UNL d   1       3.760  -2.968  -2.826  0.00  0.00     0.003 A 
ATOM      7  C6  UNL d   1       2.643  -3.267  -2.043  0.00  0.00    -0.001 A 
ENDROOT
TORSDOF 0
ENDMDL
