MODEL 1
REMARK minimizedAffinity 3.70849586
REMARK minimizedRMSD -1
REMARK  0 active torsions:
REMARK  status: ('A' for Active; 'I' for Inactive)
ROOT
ATOM      1  C   UNL d   1       0.645  -2.263  -0.590  0.00  0.00     0.078 C 
ATOM      2  C1  UNL d   1       1.920  -1.609  -1.033  0.00  0.00    -0.077 A 
ATOM      3  C2  UNL d   1       2.214  -0.287  -0.677  0.00  0.00    -0.001 A 
ATOM      4  C3  UNL d   1       3.400   0.312  -1.105  0.00  0.00     0.003 A 
ATOM      5  C4  UNL d   1       4.301  -0.403  -1.892  0.00  0.00    -0.005 A 
ATOM      6  C5  UNL d   1       4.015  -1.718  -2.253  0.00  0.00     0.003 A 
ATOM      7  C6  UNL d   1       2.830  -2.319  -1.826  0.00  0.00    -0.001 A 
ENDROOT
TORSDOF 0
ENDMDL
