MODEL 1
REMARK minimizedAffinity 5.99441671
REMARK minimizedRMSD -1
REMARK  0 active torsions:
REMARK  status: ('A' for Active; 'I' for Inactive)
ROOT
ATOM      1  C   UNL d   1      -2.262  -5.889  -4.158  0.00  0.00     0.078 C 
ATOM      2  C1  UNL d   1      -1.618  -5.246  -2.966  0.00  0.00    -0.077 A 
ATOM      3  C2  UNL d   1      -1.235  -3.900  -2.992  0.00  0.00    -0.001 A 
ATOM      4  C3  UNL d   1      -0.627  -3.317  -1.878  0.00  0.00     0.003 A 
ATOM      5  C4  UNL d   1      -0.396  -4.074  -0.731  0.00  0.00    -0.005 A 
ATOM      6  C5  UNL d   1      -0.771  -5.416  -0.698  0.00  0.00     0.003 A 
ATOM      7  C6  UNL d   1      -1.379  -6.000  -1.810  0.00  0.00    -0.001 A 
ENDROOT
TORSDOF 0
ENDMDL
