MODEL 1
REMARK minimizedAffinity -2.6671226
REMARK minimizedRMSD -1
REMARK  0 active torsions:
REMARK  status: ('A' for Active; 'I' for Inactive)
ROOT
ATOM      1  C   UNL d   1       3.640  -0.715   1.242  0.00  0.00     0.020 A 
ATOM      2  C1  UNL d   1       3.116   0.483   1.726  0.00  0.00     0.020 A 
ATOM      3  C2  UNL d   1       1.806   0.851   1.409  0.00  0.00     0.034 A 
ATOM      4  C3  UNL d   1       1.017   0.019   0.606  0.00  0.00     0.017 A 
ATOM      5  C4  UNL d   1       1.544  -1.183   0.121  0.00  0.00     0.017 A 
ATOM      6  C5  UNL d   1       2.856  -1.546   0.442  0.00  0.00     0.034 A 
ATOM      7 Cl   UNL d   1       0.631  -2.261  -0.875  0.00  0.00    -0.070 Cl
ATOM      8 Cl1  UNL d   1      -0.594   0.536   0.254  0.00  0.00    -0.070 Cl
ENDROOT
TORSDOF 0
ENDMDL
