MODEL 1
REMARK minimizedAffinity -0.881623089
REMARK minimizedRMSD -1
REMARK  0 active torsions:
REMARK  status: ('A' for Active; 'I' for Inactive)
ROOT
ATOM      1  C   UNL d   1      -3.421   0.565  -3.391  0.00  0.00     0.020 A 
ATOM      2  C1  UNL d   1      -2.378   0.177  -4.231  0.00  0.00     0.020 A 
ATOM      3  C2  UNL d   1      -1.164  -0.246  -3.686  0.00  0.00     0.034 A 
ATOM      4  C3  UNL d   1      -0.990  -0.282  -2.298  0.00  0.00     0.017 A 
ATOM      5  C4  UNL d   1      -2.038   0.108  -1.456  0.00  0.00     0.017 A 
ATOM      6  C5  UNL d   1      -3.251   0.530  -2.007  0.00  0.00     0.034 A 
ATOM      7 Cl   UNL d   1      -1.898   0.090   0.267  0.00  0.00    -0.070 Cl
ATOM      8 Cl1  UNL d   1       0.538  -0.816  -1.693  0.00  0.00    -0.070 Cl
ENDROOT
TORSDOF 0
ENDMDL
