MODEL 1
REMARK minimizedAffinity -5.47144079
REMARK minimizedRMSD -1
REMARK  0 active torsions:
REMARK  status: ('A' for Active; 'I' for Inactive)
ROOT
ATOM      1  C   UNL d   1       1.231  -1.668   2.252  0.00  0.00     0.020 A 
ATOM      2  C1  UNL d   1       2.323  -0.804   2.333  0.00  0.00     0.020 A 
ATOM      3  C2  UNL d   1       2.333   0.379   1.589  0.00  0.00     0.034 A 
ATOM      4  C3  UNL d   1       1.251   0.700   0.762  0.00  0.00     0.017 A 
ATOM      5  C4  UNL d   1       0.156  -0.168   0.681  0.00  0.00     0.017 A 
ATOM      6  C5  UNL d   1       0.151  -1.351   1.428  0.00  0.00     0.034 A 
ATOM      7 Cl   UNL d   1      -1.216   0.160  -0.317  0.00  0.00    -0.070 Cl
ATOM      8 Cl1  UNL d   1       1.332   2.178  -0.128  0.00  0.00    -0.070 Cl
ENDROOT
TORSDOF 0
ENDMDL
