MODEL 1
REMARK minimizedAffinity -1.24077535
REMARK minimizedRMSD -1
REMARK  0 active torsions:
REMARK  status: ('A' for Active; 'I' for Inactive)
ROOT
ATOM      1  C   UNL d   1      -0.068   1.844  -0.580  0.00  0.00     0.020 A 
ATOM      2  C1  UNL d   1      -1.079   0.886  -0.521  0.00  0.00     0.020 A 
ATOM      3  C2  UNL d   1      -0.827  -0.360   0.057  0.00  0.00     0.034 A 
ATOM      4  C3  UNL d   1       0.439  -0.651   0.578  0.00  0.00     0.017 A 
ATOM      5  C4  UNL d   1       1.454   0.312   0.518  0.00  0.00     0.017 A 
ATOM      6  C5  UNL d   1       1.195   1.558  -0.062  0.00  0.00     0.034 A 
ATOM      7 Cl   UNL d   1       3.041   0.026   1.139  0.00  0.00    -0.070 Cl
ATOM      8 Cl1  UNL d   1       0.681  -2.212   1.279  0.00  0.00    -0.070 Cl
ENDROOT
TORSDOF 0
ENDMDL
