MODEL 1
REMARK minimizedAffinity -3.12828803
REMARK minimizedRMSD -1
REMARK  0 active torsions:
REMARK  status: ('A' for Active; 'I' for Inactive)
ROOT
ATOM      1  C   UNL d   1      -1.169   0.586  -0.010  0.00  0.00     0.020 A 
ATOM      2  C1  UNL d   1      -0.185   1.561  -0.169  0.00  0.00     0.020 A 
ATOM      3  C2  UNL d   1       1.152   1.254   0.094  0.00  0.00     0.034 A 
ATOM      4  C3  UNL d   1       1.509  -0.031   0.518  0.00  0.00     0.017 A 
ATOM      5  C4  UNL d   1       0.521  -1.009   0.678  0.00  0.00     0.017 A 
ATOM      6  C5  UNL d   1      -0.816  -0.697   0.413  0.00  0.00     0.034 A 
ATOM      7 Cl   UNL d   1       0.884  -2.617   1.197  0.00  0.00    -0.070 Cl
ATOM      8 Cl1  UNL d   1       3.181  -0.340   0.824  0.00  0.00    -0.070 Cl
ENDROOT
TORSDOF 0
ENDMDL
