MODEL 1
REMARK minimizedAffinity -4.81617355
REMARK minimizedRMSD -1
REMARK  0 active torsions:
REMARK  status: ('A' for Active; 'I' for Inactive)
ROOT
ATOM      1  C   UNL d   1       2.081  -2.013   1.773  0.00  0.00     0.020 A 
ATOM      2  C1  UNL d   1       3.067  -1.079   1.456  0.00  0.00     0.020 A 
ATOM      3  C2  UNL d   1       2.736   0.064   0.726  0.00  0.00     0.034 A 
ATOM      4  C3  UNL d   1       1.417   0.277   0.311  0.00  0.00     0.017 A 
ATOM      5  C4  UNL d   1       0.428  -0.661   0.630  0.00  0.00     0.017 A 
ATOM      6  C5  UNL d   1       0.765  -1.804   1.361  0.00  0.00     0.034 A 
ATOM      7 Cl   UNL d   1      -1.222  -0.467   0.152  0.00  0.00    -0.070 Cl
ATOM      8 Cl1  UNL d   1       1.079   1.714  -0.588  0.00  0.00    -0.070 Cl
ENDROOT
TORSDOF 0
ENDMDL
