MODEL 1
REMARK minimizedAffinity -4.80991173
REMARK minimizedRMSD -1
REMARK  0 active torsions:
REMARK  status: ('A' for Active; 'I' for Inactive)
ROOT
ATOM      1  C   UNL d   1      -1.411   0.641  -0.033  0.00  0.00     0.020 A 
ATOM      2  C1  UNL d   1      -0.688   1.817   0.161  0.00  0.00     0.020 A 
ATOM      3  C2  UNL d   1       0.681   1.759   0.431  0.00  0.00     0.034 A 
ATOM      4  C3  UNL d   1       1.332   0.522   0.507  0.00  0.00     0.017 A 
ATOM      5  C4  UNL d   1       0.605  -0.658   0.311  0.00  0.00     0.017 A 
ATOM      6  C5  UNL d   1      -0.766  -0.594   0.042  0.00  0.00     0.034 A 
ATOM      7 Cl   UNL d   1       1.338  -2.222   0.390  0.00  0.00    -0.070 Cl
ATOM      8 Cl1  UNL d   1       3.026   0.524   0.843  0.00  0.00    -0.070 Cl
ENDROOT
TORSDOF 0
ENDMDL
