MODEL 1
REMARK minimizedAffinity -4.74641514
REMARK minimizedRMSD -1
REMARK  0 active torsions:
REMARK  status: ('A' for Active; 'I' for Inactive)
ROOT
ATOM      1  C   UNL d   1      -3.326  -0.649  -3.818  0.00  0.00     0.020 A 
ATOM      2  C1  UNL d   1      -2.311  -1.421  -3.252  0.00  0.00     0.020 A 
ATOM      3  C2  UNL d   1      -1.671  -0.988  -2.089  0.00  0.00     0.034 A 
ATOM      4  C3  UNL d   1      -2.044   0.219  -1.488  0.00  0.00     0.017 A 
ATOM      5  C4  UNL d   1      -3.062   0.993  -2.056  0.00  0.00     0.017 A 
ATOM      6  C5  UNL d   1      -3.700   0.555  -3.221  0.00  0.00     0.034 A 
ATOM      7 Cl   UNL d   1      -3.578   2.494  -1.371  0.00  0.00    -0.070 Cl
ATOM      8 Cl1  UNL d   1      -1.210   0.692  -0.051  0.00  0.00    -0.070 Cl
ENDROOT
TORSDOF 0
ENDMDL
