MODEL 1
REMARK minimizedAffinity -4.21635914
REMARK minimizedRMSD -1
REMARK  0 active torsions:
REMARK  status: ('A' for Active; 'I' for Inactive)
ROOT
ATOM      1  C   UNL d   1      -1.403  -0.907   0.869  0.00  0.00     0.020 A 
ATOM      2  C1  UNL d   1      -0.440  -1.855   1.212  0.00  0.00     0.020 A 
ATOM      3  C2  UNL d   1       0.913  -1.508   1.210  0.00  0.00     0.034 A 
ATOM      4  C3  UNL d   1       1.306  -0.210   0.864  0.00  0.00     0.017 A 
ATOM      5  C4  UNL d   1       0.338   0.741   0.519  0.00  0.00     0.017 A 
ATOM      6  C5  UNL d   1      -1.015   0.388   0.523  0.00  0.00     0.034 A 
ATOM      7 Cl   UNL d   1       0.746   2.362   0.081  0.00  0.00    -0.070 Cl
ATOM      8 Cl1  UNL d   1       2.996   0.150   0.883  0.00  0.00    -0.070 Cl
ENDROOT
TORSDOF 0
ENDMDL
