MODEL 1
REMARK minimizedAffinity 5.15131712
REMARK minimizedRMSD -1
REMARK  0 active torsions:
REMARK  status: ('A' for Active; 'I' for Inactive)
ROOT
ATOM      1  C   UNL d   1       1.458   0.015   0.425  0.00  0.00    -0.002 A 
ATOM      2  C1  UNL d   1       2.473   0.784  -0.128  0.00  0.00     0.010 A 
ATOM      3  C2  UNL d   1       2.394   1.218  -1.452  0.00  0.00     0.041 A 
ATOM      4  C3  UNL d   1       1.266   0.865  -2.219  0.00  0.00    -0.075 A 
ATOM      5  S   UNL d   1       0.953   1.284  -3.862  0.00  0.00     0.015 SA
ATOM      6  C4  UNL d   1      -0.536   0.455  -3.868  0.00  0.00     0.022 A 
ATOM      7  C5  UNL d   1      -0.803  -0.134  -2.655  0.00  0.00     0.026 A 
ATOM      8  C6  UNL d   1       0.230   0.093  -1.684  0.00  0.00    -0.082 A 
ATOM      9  C7  UNL d   1       0.340  -0.333  -0.339  0.00  0.00     0.045 A 
ENDROOT
TORSDOF 0
ENDMDL
