MODEL 1
REMARK minimizedAffinity 12.9399328
REMARK minimizedRMSD -1
REMARK  0 active torsions:
REMARK  status: ('A' for Active; 'I' for Inactive)
ROOT
ATOM      1  C   UNL d   1       0.810   0.764  -4.652  0.00  0.00    -0.002 A 
ATOM      2  C1  UNL d   1       1.879   1.311  -3.956  0.00  0.00     0.010 A 
ATOM      3  C2  UNL d   1       2.009   1.109  -2.581  0.00  0.00     0.041 A 
ATOM      4  C3  UNL d   1       1.039   0.340  -1.910  0.00  0.00    -0.075 A 
ATOM      5  S   UNL d   1       0.993  -0.039  -0.228  0.00  0.00     0.015 SA
ATOM      6  C4  UNL d   1      -0.446  -0.937  -0.394  0.00  0.00     0.022 A 
ATOM      7  C5  UNL d   1      -0.895  -0.957  -1.693  0.00  0.00     0.026 A 
ATOM      8  C6  UNL d   1      -0.046  -0.222  -2.588  0.00  0.00    -0.082 A 
ATOM      9  C7  UNL d   1      -0.151   0.001  -3.983  0.00  0.00     0.045 A 
ENDROOT
TORSDOF 0
ENDMDL
