MODEL 1
REMARK minimizedAffinity 0.790778875
REMARK minimizedRMSD -1
REMARK  0 active torsions:
REMARK  status: ('A' for Active; 'I' for Inactive)
ROOT
ATOM      1  C   UNL d   1      -1.780   1.082   3.022  0.00  0.00    -0.002 A 
ATOM      2  C1  UNL d   1      -2.287   0.994   1.733  0.00  0.00     0.010 A 
ATOM      3  C2  UNL d   1      -1.506   0.479   0.697  0.00  0.00     0.041 A 
ATOM      4  C3  UNL d   1      -0.195   0.047   0.981  0.00  0.00    -0.075 A 
ATOM      5  S   UNL d   1       0.943  -0.619  -0.129  0.00  0.00     0.015 SA
ATOM      6  C4  UNL d   1       2.128  -0.804   1.082  0.00  0.00     0.022 A 
ATOM      7  C5  UNL d   1       1.683  -0.373   2.309  0.00  0.00     0.026 A 
ATOM      8  C6  UNL d   1       0.337   0.124   2.271  0.00  0.00    -0.082 A 
ATOM      9  C7  UNL d   1      -0.480   0.653   3.300  0.00  0.00     0.045 A 
ENDROOT
TORSDOF 0
ENDMDL
