MODEL 1
REMARK minimizedAffinity -0.679314613
REMARK minimizedRMSD -1
REMARK  0 active torsions:
REMARK  status: ('A' for Active; 'I' for Inactive)
ROOT
ATOM      1  C   UNL d   1      -0.616  -0.044  -1.500  0.00  0.00    -0.002 A 
ATOM      2  C1  UNL d   1       0.552  -0.777  -1.345  0.00  0.00     0.010 A 
ATOM      3  C2  UNL d   1       1.142  -0.915  -0.087  0.00  0.00     0.041 A 
ATOM      4  C3  UNL d   1       0.532  -0.299   1.023  0.00  0.00    -0.075 A 
ATOM      5  S   UNL d   1       1.075  -0.333   2.659  0.00  0.00     0.015 SA
ATOM      6  C4  UNL d   1      -0.232   0.624   3.191  0.00  0.00     0.022 A 
ATOM      7  C5  UNL d   1      -1.071   0.971   2.159  0.00  0.00     0.026 A 
ATOM      8  C6  UNL d   1      -0.645   0.444   0.892  0.00  0.00    -0.082 A 
ATOM      9  C7  UNL d   1      -1.219   0.565  -0.396  0.00  0.00     0.045 A 
ENDROOT
TORSDOF 0
ENDMDL
