MODEL 1
REMARK minimizedAffinity -1.77068043
REMARK minimizedRMSD -1
REMARK  0 active torsions:
REMARK  status: ('A' for Active; 'I' for Inactive)
ROOT
ATOM      1  C   UNL d   1      -0.960   0.127   2.986  0.00  0.00    -0.002 A 
ATOM      2  C1  UNL d   1       0.222  -0.411   3.475  0.00  0.00     0.010 A 
ATOM      3  C2  UNL d   1       1.178  -0.937   2.604  0.00  0.00     0.041 A 
ATOM      4  C3  UNL d   1       0.924  -0.911   1.218  0.00  0.00    -0.075 A 
ATOM      5  S   UNL d   1       1.950  -1.497  -0.038  0.00  0.00     0.015 SA
ATOM      6  C4  UNL d   1       0.844  -1.046  -1.253  0.00  0.00     0.022 A 
ATOM      7  C5  UNL d   1      -0.286  -0.461  -0.732  0.00  0.00     0.026 A 
ATOM      8  C6  UNL d   1      -0.258  -0.373   0.701  0.00  0.00    -0.082 A 
ATOM      9  C7  UNL d   1      -1.208   0.151   1.611  0.00  0.00     0.045 A 
ENDROOT
TORSDOF 0
ENDMDL
