MODEL 1
REMARK minimizedAffinity 22.0551682
REMARK minimizedRMSD -1
REMARK  0 active torsions:
REMARK  status: ('A' for Active; 'I' for Inactive)
ROOT
ATOM      1  C   UNL d   1      -1.820   1.296   2.885  0.00  0.00     0.124 A 
ATOM      2  C1  UNL d   1      -1.229   0.136   2.405  0.00  0.00     0.062 A 
ATOM      3  C2  UNL d   1      -0.047   0.203   1.674  0.00  0.00     0.162 A 
ATOM      4  C3  UNL d   1       0.554   1.436   1.418  0.00  0.00    -0.034 A 
ATOM      5  C4  UNL d   1      -0.047   2.599   1.903  0.00  0.00     0.162 A 
ATOM      6  C5  UNL d   1      -1.229   2.526   2.633  0.00  0.00     0.062 A 
ATOM      7  F   UNL d   1      -1.798   3.649   3.095  0.00  0.00    -0.097 F 
ATOM      8  F1  UNL d   1       0.503   3.800   1.675  0.00  0.00    -0.096 F 
ATOM      9  I   UNL d   1       2.322   1.540   0.325  0.00  0.00    -0.060 I 
ATOM     10  F2  UNL d   1       0.502  -0.935   1.223  0.00  0.00    -0.096 F 
ATOM     11  F3  UNL d   1      -1.799  -1.054   2.646  0.00  0.00    -0.097 F 
ATOM     12  F4  UNL d   1      -2.958   1.229   3.587  0.00  0.00    -0.092 F 
ENDROOT
TORSDOF 0
ENDMDL
