MODEL 1
REMARK minimizedAffinity 5.94282818
REMARK minimizedRMSD -1
REMARK  0 active torsions:
REMARK  status: ('A' for Active; 'I' for Inactive)
ROOT
ATOM      1  C   UNL d   1      -2.315  -3.720   3.564  0.00  0.00     0.124 A 
ATOM      2  C1  UNL d   1      -1.902  -2.466   3.136  0.00  0.00     0.062 A 
ATOM      3  C2  UNL d   1      -1.501  -2.274   1.817  0.00  0.00     0.162 A 
ATOM      4  C3  UNL d   1      -1.512  -3.339   0.916  0.00  0.00    -0.034 A 
ATOM      5  C4  UNL d   1      -1.928  -4.597   1.354  0.00  0.00     0.162 A 
ATOM      6  C5  UNL d   1      -2.328  -4.784   2.674  0.00  0.00     0.062 A 
ATOM      7  F   UNL d   1      -2.726  -5.996   3.086  0.00  0.00    -0.097 F 
ATOM      8  F1  UNL d   1      -1.950  -5.643   0.514  0.00  0.00    -0.096 F 
ATOM      9  I   UNL d   1      -0.913  -3.055  -1.057  0.00  0.00    -0.060 I 
ATOM     10  F2  UNL d   1      -1.107  -1.051   1.431  0.00  0.00    -0.096 F 
ATOM     11  F3  UNL d   1      -1.888  -1.437   3.995  0.00  0.00    -0.097 F 
ATOM     12  F4  UNL d   1      -2.700  -3.902   4.834  0.00  0.00    -0.092 F 
ENDROOT
TORSDOF 0
ENDMDL
