MODEL 1
REMARK minimizedAffinity 24.0296535
REMARK minimizedRMSD -1
REMARK  0 active torsions:
REMARK  status: ('A' for Active; 'I' for Inactive)
ROOT
ATOM      1  C   UNL d   1      -0.551  -2.231  -0.004  0.00  0.00     0.124 A 
ATOM      2  C1  UNL d   1      -1.215  -3.002   0.939  0.00  0.00     0.062 A 
ATOM      3  C2  UNL d   1      -2.001  -4.078   0.536  0.00  0.00     0.162 A 
ATOM      4  C3  UNL d   1      -2.127  -4.389  -0.818  0.00  0.00    -0.034 A 
ATOM      5  C4  UNL d   1      -1.456  -3.608  -1.761  0.00  0.00     0.162 A 
ATOM      6  C5  UNL d   1      -0.672  -2.534  -1.353  0.00  0.00     0.062 A 
ATOM      7  F   UNL d   1      -0.031  -1.790  -2.266  0.00  0.00    -0.097 F 
ATOM      8  F1  UNL d   1      -1.555  -3.880  -3.071  0.00  0.00    -0.096 F 
ATOM      9  I   UNL d   1      -3.301  -5.996  -1.425  0.00  0.00    -0.060 I 
ATOM     10  F2  UNL d   1      -2.632  -4.806   1.469  0.00  0.00    -0.096 F 
ATOM     11  F3  UNL d   1      -1.101  -2.710   2.243  0.00  0.00    -0.097 F 
ATOM     12  F4  UNL d   1       0.204  -1.196   0.386  0.00  0.00    -0.092 F 
ENDROOT
TORSDOF 0
ENDMDL
