MODEL 1
REMARK minimizedAffinity 17.3805256
REMARK minimizedRMSD -1
REMARK  0 active torsions:
REMARK  status: ('A' for Active; 'I' for Inactive)
ROOT
ATOM      1  C   UNL d   1       4.326   3.742   1.210  0.00  0.00     0.124 A 
ATOM      2  C1  UNL d   1       3.500   3.545   0.111  0.00  0.00     0.062 A 
ATOM      3  C2  UNL d   1       2.559   2.521   0.118  0.00  0.00     0.162 A 
ATOM      4  C3  UNL d   1       2.437   1.684   1.228  0.00  0.00    -0.034 A 
ATOM      5  C4  UNL d   1       3.272   1.888   2.329  0.00  0.00     0.162 A 
ATOM      6  C5  UNL d   1       4.211   2.913   2.317  0.00  0.00     0.062 A 
ATOM      7  F   UNL d   1       5.008   3.102   3.379  0.00  0.00    -0.097 F 
ATOM      8  F1  UNL d   1       3.181   1.102   3.412  0.00  0.00    -0.096 F 
ATOM      9  I   UNL d   1       1.030   0.151   1.243  0.00  0.00    -0.060 I 
ATOM     10  F2  UNL d   1       1.774   2.354  -0.957  0.00  0.00    -0.096 F 
ATOM     11  F3  UNL d   1       3.610   4.344  -0.960  0.00  0.00    -0.097 F 
ATOM     12  F4  UNL d   1       5.232   4.728   1.200  0.00  0.00    -0.092 F 
ENDROOT
TORSDOF 0
ENDMDL
