MODEL 1
REMARK minimizedAffinity 21.9620953
REMARK minimizedRMSD -1
REMARK  0 active torsions:
REMARK  status: ('A' for Active; 'I' for Inactive)
ROOT
ATOM      1  C   UNL d   1      -1.153  -2.378  -0.643  0.00  0.00     0.124 A 
ATOM      2  C1  UNL d   1      -1.688  -3.575  -1.099  0.00  0.00     0.062 A 
ATOM      3  C2  UNL d   1      -2.253  -4.476  -0.201  0.00  0.00     0.162 A 
ATOM      4  C3  UNL d   1      -2.288  -4.183   1.162  0.00  0.00    -0.034 A 
ATOM      5  C4  UNL d   1      -1.747  -2.978   1.613  0.00  0.00     0.162 A 
ATOM      6  C5  UNL d   1      -1.183  -2.081   0.712  0.00  0.00     0.062 A 
ATOM      7  F   UNL d   1      -0.667  -0.925   1.154  0.00  0.00    -0.097 F 
ATOM      8  F1  UNL d   1      -1.764  -2.665   2.917  0.00  0.00    -0.096 F 
ATOM      9  I   UNL d   1      -3.132  -5.528   2.508  0.00  0.00    -0.060 I 
ATOM     10  F2  UNL d   1      -2.762  -5.625  -0.670  0.00  0.00    -0.096 F 
ATOM     11  F3  UNL d   1      -1.659  -3.865  -2.408  0.00  0.00    -0.097 F 
ATOM     12  F4  UNL d   1      -0.608  -1.514  -1.509  0.00  0.00    -0.092 F 
ENDROOT
TORSDOF 0
ENDMDL
