MODEL 1
REMARK minimizedAffinity 22.7619743
REMARK minimizedRMSD -1
REMARK  0 active torsions:
REMARK  status: ('A' for Active; 'I' for Inactive)
ROOT
ATOM      1  C   UNL d   1      -1.008  -3.019  -1.497  0.00  0.00     0.124 A 
ATOM      2  C1  UNL d   1      -1.744  -4.172  -1.730  0.00  0.00     0.062 A 
ATOM      3  C2  UNL d   1      -2.280  -4.889  -0.664  0.00  0.00     0.162 A 
ATOM      4  C3  UNL d   1      -2.082  -4.453   0.646  0.00  0.00    -0.034 A 
ATOM      5  C4  UNL d   1      -1.341  -3.293   0.874  0.00  0.00     0.162 A 
ATOM      6  C5  UNL d   1      -0.807  -2.580  -0.195  0.00  0.00     0.062 A 
ATOM      7  F   UNL d   1      -0.097  -1.466   0.032  0.00  0.00    -0.097 F 
ATOM      8  F1  UNL d   1      -1.132  -2.846   2.121  0.00  0.00    -0.096 F 
ATOM      9  I   UNL d   1      -2.882  -5.522   2.243  0.00  0.00    -0.060 I 
ATOM     10  F2  UNL d   1      -2.986  -6.000  -0.919  0.00  0.00    -0.096 F 
ATOM     11  F3  UNL d   1      -1.939  -4.598  -2.987  0.00  0.00    -0.097 F 
ATOM     12  F4  UNL d   1      -0.493  -2.332  -2.524  0.00  0.00    -0.092 F 
ENDROOT
TORSDOF 0
ENDMDL
