MODEL 1
REMARK minimizedAffinity 18.6056042
REMARK minimizedRMSD -1
REMARK  0 active torsions:
REMARK  status: ('A' for Active; 'I' for Inactive)
ROOT
ATOM      1  C   UNL d   1      -0.899   3.783  -0.293  0.00  0.00     0.124 A 
ATOM      2  C1  UNL d   1       0.397   3.744  -0.789  0.00  0.00     0.062 A 
ATOM      3  C2  UNL d   1       1.374   2.998  -0.136  0.00  0.00     0.162 A 
ATOM      4  C3  UNL d   1       1.059   2.284   1.020  0.00  0.00    -0.034 A 
ATOM      5  C4  UNL d   1      -0.246   2.329   1.514  0.00  0.00     0.162 A 
ATOM      6  C5  UNL d   1      -1.219   3.076   0.857  0.00  0.00     0.062 A 
ATOM      7  F   UNL d   1      -2.471   3.113   1.338  0.00  0.00    -0.097 F 
ATOM      8  F1  UNL d   1      -0.583   1.655   2.623  0.00  0.00    -0.096 F 
ATOM      9  I   UNL d   1       2.517   1.167   1.999  0.00  0.00    -0.060 I 
ATOM     10  F2  UNL d   1       2.617   2.978  -0.638  0.00  0.00    -0.096 F 
ATOM     11  F3  UNL d   1       0.709   4.427  -1.900  0.00  0.00    -0.097 F 
ATOM     12  F4  UNL d   1      -1.837   4.503  -0.922  0.00  0.00    -0.092 F 
ENDROOT
TORSDOF 0
ENDMDL
