MODEL 1
REMARK minimizedAffinity 20.7927876
REMARK minimizedRMSD -1
REMARK  0 active torsions:
REMARK  status: ('A' for Active; 'I' for Inactive)
ROOT
ATOM      1  C   UNL d   1      -1.233   3.244   3.867  0.00  0.00     0.124 A 
ATOM      2  C1  UNL d   1      -1.647   3.858   2.693  0.00  0.00     0.062 A 
ATOM      3  C2  UNL d   1      -0.928   3.673   1.516  0.00  0.00     0.162 A 
ATOM      4  C3  UNL d   1       0.212   2.870   1.506  0.00  0.00    -0.034 A 
ATOM      5  C4  UNL d   1       0.623   2.256   2.690  0.00  0.00     0.162 A 
ATOM      6  C5  UNL d   1      -0.099   2.444   3.865  0.00  0.00     0.062 A 
ATOM      7  F   UNL d   1       0.303   1.850   4.998  0.00  0.00    -0.097 F 
ATOM      8  F1  UNL d   1       1.714   1.477   2.716  0.00  0.00    -0.096 F 
ATOM      9  I   UNL d   1       1.289   2.591  -0.253  0.00  0.00    -0.060 I 
ATOM     10  F2  UNL d   1      -1.351   4.279   0.396  0.00  0.00    -0.096 F 
ATOM     11  F3  UNL d   1      -2.742   4.632   2.693  0.00  0.00    -0.097 F 
ATOM     12  F4  UNL d   1      -1.926   3.424   4.999  0.00  0.00    -0.092 F 
ENDROOT
TORSDOF 0
ENDMDL
