MODEL 1
REMARK minimizedAffinity 1.52095938
REMARK minimizedRMSD -1
REMARK  0 active torsions:
REMARK  status: ('A' for Active; 'I' for Inactive)
ROOT
ATOM      1  C   UNL d   1      -3.160   2.570   0.166  0.00  0.00     0.124 A 
ATOM      2  C1  UNL d   1      -1.994   3.303  -0.004  0.00  0.00     0.062 A 
ATOM      3  C2  UNL d   1      -0.783   2.812   0.476  0.00  0.00     0.162 A 
ATOM      4  C3  UNL d   1      -0.732   1.581   1.129  0.00  0.00    -0.034 A 
ATOM      5  C4  UNL d   1      -1.909   0.850   1.297  0.00  0.00     0.162 A 
ATOM      6  C5  UNL d   1      -3.117   1.344   0.816  0.00  0.00     0.062 A 
ATOM      7  F   UNL d   1      -4.243   0.635   0.981  0.00  0.00    -0.097 F 
ATOM      8  F1  UNL d   1      -1.896  -0.338   1.921  0.00  0.00    -0.096 F 
ATOM      9  I   UNL d   1       1.077   0.843   1.848  0.00  0.00    -0.060 I 
ATOM     10  F2  UNL d   1       0.329   3.541   0.298  0.00  0.00    -0.096 F 
ATOM     11  F3  UNL d   1      -2.033   4.487  -0.631  0.00  0.00    -0.097 F 
ATOM     12  F4  UNL d   1      -4.324   3.045  -0.296  0.00  0.00    -0.092 F 
ENDROOT
TORSDOF 0
ENDMDL
