MODEL 1
REMARK minimizedAffinity 24.0023594
REMARK minimizedRMSD -1
REMARK  0 active torsions:
REMARK  status: ('A' for Active; 'I' for Inactive)
ROOT
ATOM      1  C   UNL d   1      -1.301  -3.358  -0.926  0.00  0.00     0.124 A 
ATOM      2  C1  UNL d   1      -1.833  -4.364  -1.720  0.00  0.00     0.062 A 
ATOM      3  C2  UNL d   1      -1.026  -5.032  -2.638  0.00  0.00     0.162 A 
ATOM      4  C3  UNL d   1       0.321  -4.696  -2.765  0.00  0.00    -0.034 A 
ATOM      5  C4  UNL d   1       0.849  -3.683  -1.963  0.00  0.00     0.162 A 
ATOM      6  C5  UNL d   1       0.039  -3.019  -1.048  0.00  0.00     0.062 A 
ATOM      7  F   UNL d   1       0.555  -2.047  -0.281  0.00  0.00    -0.097 F 
ATOM      8  F1  UNL d   1       2.141  -3.335  -2.060  0.00  0.00    -0.096 F 
ATOM      9  I   UNL d   1       1.530  -5.692  -4.136  0.00  0.00    -0.060 I 
ATOM     10  F2  UNL d   1      -1.567  -6.000  -3.393  0.00  0.00    -0.096 F 
ATOM     11  F3  UNL d   1      -3.127  -4.694  -1.605  0.00  0.00    -0.097 F 
ATOM     12  F4  UNL d   1      -2.079  -2.717  -0.045  0.00  0.00    -0.092 F 
ENDROOT
TORSDOF 0
ENDMDL
