MODEL 1
REMARK minimizedAffinity 19.4647427
REMARK minimizedRMSD -1
REMARK  0 active torsions:
REMARK  status: ('A' for Active; 'I' for Inactive)
ROOT
ATOM      1  C   UNL d   1       2.272   2.078   0.988  0.00  0.00     0.124 A 
ATOM      2  C1  UNL d   1       1.121   2.588   0.404  0.00  0.00     0.062 A 
ATOM      3  C2  UNL d   1      -0.012   2.824   1.178  0.00  0.00     0.162 A 
ATOM      4  C3  UNL d   1       0.001   2.551   2.546  0.00  0.00    -0.034 A 
ATOM      5  C4  UNL d   1       1.162   2.036   3.126  0.00  0.00     0.162 A 
ATOM      6  C5  UNL d   1       2.291   1.802   2.348  0.00  0.00     0.062 A 
ATOM      7  F   UNL d   1       3.403   1.309   2.914  0.00  0.00    -0.097 F 
ATOM      8  F1  UNL d   1       1.209   1.762   4.438  0.00  0.00    -0.096 F 
ATOM      9  I   UNL d   1      -1.690   2.902   3.707  0.00  0.00    -0.060 I 
ATOM     10  F2  UNL d   1      -1.110   3.318   0.587  0.00  0.00    -0.096 F 
ATOM     11  F3  UNL d   1       1.099   2.855  -0.910  0.00  0.00    -0.097 F 
ATOM     12  F4  UNL d   1       3.360   1.851   0.240  0.00  0.00    -0.092 F 
ENDROOT
TORSDOF 0
ENDMDL
