MODEL 1
REMARK minimizedAffinity 14.8747435
REMARK minimizedRMSD -1
REMARK  0 active torsions:
REMARK  status: ('A' for Active; 'I' for Inactive)
ROOT
ATOM      1  C   UNL d   1       4.553   3.922   1.794  0.00  0.00     0.124 A 
ATOM      2  C1  UNL d   1       4.390   3.046   2.857  0.00  0.00     0.062 A 
ATOM      3  C2  UNL d   1       3.442   2.029   2.787  0.00  0.00     0.162 A 
ATOM      4  C3  UNL d   1       2.651   1.881   1.648  0.00  0.00    -0.034 A 
ATOM      5  C4  UNL d   1       2.820   2.767   0.582  0.00  0.00     0.162 A 
ATOM      6  C5  UNL d   1       3.769   3.782   0.657  0.00  0.00     0.062 A 
ATOM      7  F   UNL d   1       3.925   4.628  -0.371  0.00  0.00    -0.097 F 
ATOM      8  F1  UNL d   1       2.076   2.654  -0.528  0.00  0.00    -0.096 F 
ATOM      9  I   UNL d   1       1.233   0.362   1.539  0.00  0.00    -0.060 I 
ATOM     10  F2  UNL d   1       3.306   1.196   3.830  0.00  0.00    -0.096 F 
ATOM     11  F3  UNL d   1       5.146   3.180   3.957  0.00  0.00    -0.097 F 
ATOM     12  F4  UNL d   1       5.465   4.901   1.864  0.00  0.00    -0.092 F 
ENDROOT
TORSDOF 0
ENDMDL
