MODEL 1
REMARK minimizedAffinity 1.41267073
REMARK minimizedRMSD -1
REMARK  0 active torsions:
REMARK  status: ('A' for Active; 'I' for Inactive)
ROOT
ATOM      1  C   UNL d   1       4.178   3.963   2.203  0.00  0.00     0.124 A 
ATOM      2  C1  UNL d   1       3.695   3.548   0.970  0.00  0.00     0.062 A 
ATOM      3  C2  UNL d   1       3.365   2.212   0.761  0.00  0.00     0.162 A 
ATOM      4  C3  UNL d   1       3.516   1.281   1.788  0.00  0.00    -0.034 A 
ATOM      5  C4  UNL d   1       4.004   1.706   3.026  0.00  0.00     0.162 A 
ATOM      6  C5  UNL d   1       4.333   3.042   3.229  0.00  0.00     0.062 A 
ATOM      7  F   UNL d   1       4.800   3.441   4.421  0.00  0.00    -0.097 F 
ATOM      8  F1  UNL d   1       4.162   0.837   4.035  0.00  0.00    -0.096 F 
ATOM      9  I   UNL d   1       3.024  -0.718   1.480  0.00  0.00    -0.060 I 
ATOM     10  F2  UNL d   1       2.900   1.839  -0.440  0.00  0.00    -0.096 F 
ATOM     11  F3  UNL d   1       3.546   4.436  -0.023  0.00  0.00    -0.097 F 
ATOM     12  F4  UNL d   1       4.496   5.249   2.401  0.00  0.00    -0.092 F 
ENDROOT
TORSDOF 0
ENDMDL
