MODEL 1
REMARK minimizedAffinity 19.7968731
REMARK minimizedRMSD -1
REMARK  0 active torsions:
REMARK  status: ('A' for Active; 'I' for Inactive)
ROOT
ATOM      1  C   UNL d   1       4.786   3.842   2.088  0.00  0.00     0.124 A 
ATOM      2  C1  UNL d   1       4.113   3.775   0.876  0.00  0.00     0.062 A 
ATOM      3  C2  UNL d   1       3.177   2.769   0.649  0.00  0.00     0.162 A 
ATOM      4  C3  UNL d   1       2.908   1.823   1.638  0.00  0.00    -0.034 A 
ATOM      5  C4  UNL d   1       3.589   1.897   2.855  0.00  0.00     0.162 A 
ATOM      6  C5  UNL d   1       4.523   2.903   3.076  0.00  0.00     0.062 A 
ATOM      7  F   UNL d   1       5.172   2.967   4.248  0.00  0.00    -0.097 F 
ATOM      8  F1  UNL d   1       3.354   1.003   3.827  0.00  0.00    -0.096 F 
ATOM      9  I   UNL d   1       1.510   0.318   1.304  0.00  0.00    -0.060 I 
ATOM     10  F2  UNL d   1       2.542   2.729  -0.531  0.00  0.00    -0.096 F 
ATOM     11  F3  UNL d   1       4.366   4.680  -0.080  0.00  0.00    -0.097 F 
ATOM     12  F4  UNL d   1       5.686   4.810   2.303  0.00  0.00    -0.092 F 
ENDROOT
TORSDOF 0
ENDMDL
