MODEL 1
REMARK minimizedAffinity 8.54683685
REMARK minimizedRMSD -1
REMARK  0 active torsions:
REMARK  status: ('A' for Active; 'I' for Inactive)
ROOT
ATOM      1  C   UNL d   1       4.642   3.642   1.959  0.00  0.00     0.124 A 
ATOM      2  C1  UNL d   1       4.338   2.833   3.045  0.00  0.00     0.062 A 
ATOM      3  C2  UNL d   1       3.243   1.976   2.994  0.00  0.00     0.162 A 
ATOM      4  C3  UNL d   1       2.443   1.922   1.853  0.00  0.00    -0.034 A 
ATOM      5  C4  UNL d   1       2.754   2.739   0.765  0.00  0.00     0.162 A 
ATOM      6  C5  UNL d   1       3.850   3.594   0.820  0.00  0.00     0.062 A 
ATOM      7  F   UNL d   1       4.142   4.375  -0.230  0.00  0.00    -0.097 F 
ATOM      8  F1  UNL d   1       2.007   2.713  -0.349  0.00  0.00    -0.096 F 
ATOM      9  I   UNL d   1       0.804   0.642   1.773  0.00  0.00    -0.060 I 
ATOM     10  F2  UNL d   1       2.973   1.205   4.059  0.00  0.00    -0.096 F 
ATOM     11  F3  UNL d   1       5.101   2.878   4.146  0.00  0.00    -0.097 F 
ATOM     12  F4  UNL d   1       5.696   4.467   2.010  0.00  0.00    -0.092 F 
ENDROOT
TORSDOF 0
ENDMDL
