MODEL 1
REMARK minimizedAffinity -4.83220339
REMARK minimizedRMSD -1
REMARK  1 active torsions:
REMARK  status: ('A' for Active; 'I' for Inactive)
REMARK    1  A    between atoms: C1_2  and  C2_3 
ROOT
ATOM      1  C2  UNL d   1      -0.751   0.492   0.671  0.00  0.00    -0.077 A 
ATOM      2  C3  UNL d   1      -1.714   0.312   1.674  0.00  0.00     0.002 A 
ATOM      3  C4  UNL d   1      -1.940  -0.955   2.217  0.00  0.00     0.002 A 
ATOM      4  C5  UNL d   1      -1.204  -2.049   1.766  0.00  0.00    -0.004 A 
ATOM      5  C6  UNL d   1      -0.246  -1.880   0.768  0.00  0.00     0.002 A 
ATOM      6  C7  UNL d   1      -0.019  -0.616   0.223  0.00  0.00     0.002 A 
ENDROOT
BRANCH   1   7
ATOM      7  C1  UNL d   1      -0.471   1.865   0.119  0.00  0.00     0.055 C 
ATOM      8  C   UNL d   1       0.580   1.817  -0.980  0.00  0.00     0.019 C 
ENDBRANCH   1   7
TORSDOF 1
ENDMDL
