MODEL 1
REMARK minimizedAffinity -2.32983017
REMARK minimizedRMSD -1
REMARK  1 active torsions:
REMARK  status: ('A' for Active; 'I' for Inactive)
REMARK    1  A    between atoms: C1_2  and  C2_3 
ROOT
ATOM      1  C2  UNL d   1      -0.059  -0.165   0.444  0.00  0.00    -0.077 A 
ATOM      2  C3  UNL d   1      -0.804  -0.617   1.542  0.00  0.00     0.002 A 
ATOM      3  C4  UNL d   1      -1.074  -1.978   1.700  0.00  0.00     0.002 A 
ATOM      4  C5  UNL d   1      -0.601  -2.897   0.766  0.00  0.00    -0.004 A 
ATOM      5  C6  UNL d   1       0.139  -2.457  -0.331  0.00  0.00     0.002 A 
ATOM      6  C7  UNL d   1       0.410  -1.097  -0.491  0.00  0.00     0.002 A 
ENDROOT
BRANCH   1   7
ATOM      7  C1  UNL d   1       0.276   1.296   0.298  0.00  0.00     0.055 C 
ATOM      8  C   UNL d   1       0.975   1.575  -1.025  0.00  0.00     0.019 C 
ENDBRANCH   1   7
TORSDOF 1
ENDMDL
