MODEL 1
REMARK minimizedAffinity -1.738397
REMARK minimizedRMSD -1
REMARK  1 active torsions:
REMARK  status: ('A' for Active; 'I' for Inactive)
REMARK    1  A    between atoms: C1_2  and  C2_3 
ROOT
ATOM      1  C2  UNL d   1      -0.118  -0.065   0.523  0.00  0.00    -0.077 A 
ATOM      2  C3  UNL d   1      -1.007  -0.433   1.543  0.00  0.00     0.002 A 
ATOM      3  C4  UNL d   1      -1.135  -1.772   1.920  0.00  0.00     0.002 A 
ATOM      4  C5  UNL d   1      -0.375  -2.751   1.285  0.00  0.00    -0.004 A 
ATOM      5  C6  UNL d   1       0.511  -2.396   0.269  0.00  0.00     0.002 A 
ATOM      6  C7  UNL d   1       0.639  -1.059  -0.110  0.00  0.00     0.002 A 
ENDROOT
BRANCH   1   7
ATOM      7  C1  UNL d   1       0.057   1.383   0.150  0.00  0.00     0.055 C 
ATOM      8  C   UNL d   1       0.639   1.527  -1.249  0.00  0.00     0.019 C 
ENDBRANCH   1   7
TORSDOF 1
ENDMDL
