MODEL 1
REMARK minimizedAffinity -5.53589249
REMARK minimizedRMSD -1
REMARK  1 active torsions:
REMARK  status: ('A' for Active; 'I' for Inactive)
REMARK    1  A    between atoms: C1_2  and  C2_3 
ROOT
ATOM      1  C2  UNL d   1      -0.164  -0.950   0.146  0.00  0.00    -0.077 A 
ATOM      2  C3  UNL d   1      -0.956  -1.334  -0.945  0.00  0.00     0.002 A 
ATOM      3  C4  UNL d   1      -1.839  -2.409  -0.834  0.00  0.00     0.002 A 
ATOM      4  C5  UNL d   1      -1.941  -3.107   0.368  0.00  0.00    -0.004 A 
ATOM      5  C6  UNL d   1      -1.157  -2.735   1.458  0.00  0.00     0.002 A 
ATOM      6  C7  UNL d   1      -0.272  -1.661   1.349  0.00  0.00     0.002 A 
ENDROOT
BRANCH   1   7
ATOM      7  C1  UNL d   1       0.753   0.240   0.044  0.00  0.00     0.055 C 
ATOM      8  C   UNL d   1      -0.033   1.543   0.002  0.00  0.00     0.019 C 
ENDBRANCH   1   7
TORSDOF 1
ENDMDL
