MODEL 1
REMARK minimizedAffinity -4.06640959
REMARK minimizedRMSD -1
REMARK  1 active torsions:
REMARK  status: ('A' for Active; 'I' for Inactive)
REMARK    1  A    between atoms: C1_2  and  C2_3 
ROOT
ATOM      1  C2  UNL d   1      -0.172  -0.344  -0.035  0.00  0.00    -0.077 A 
ATOM      2  C3  UNL d   1      -1.360  -0.971  -0.436  0.00  0.00     0.002 A 
ATOM      3  C4  UNL d   1      -1.680  -2.245   0.035  0.00  0.00     0.002 A 
ATOM      4  C5  UNL d   1      -0.821  -2.901   0.914  0.00  0.00    -0.004 A 
ATOM      5  C6  UNL d   1       0.364  -2.287   1.318  0.00  0.00     0.002 A 
ATOM      6  C7  UNL d   1       0.686  -1.014   0.847  0.00  0.00     0.002 A 
ENDROOT
BRANCH   1   7
ATOM      7  C1  UNL d   1       0.151   1.051  -0.504  0.00  0.00     0.055 C 
ATOM      8  C   UNL d   1       0.497   1.070  -1.985  0.00  0.00     0.019 C 
ENDBRANCH   1   7
TORSDOF 1
ENDMDL
