MODEL 1
REMARK minimizedAffinity -5.13390112
REMARK minimizedRMSD -1
REMARK  1 active torsions:
REMARK  status: ('A' for Active; 'I' for Inactive)
REMARK    1  A    between atoms: C1_2  and  C2_3 
ROOT
ATOM      1  C2  UNL d   1       0.344   0.283   0.101  0.00  0.00    -0.077 A 
ATOM      2  C3  UNL d   1       0.926  -0.988   0.203  0.00  0.00     0.002 A 
ATOM      3  C4  UNL d   1       0.158  -2.087   0.594  0.00  0.00     0.002 A 
ATOM      4  C5  UNL d   1      -1.195  -1.926   0.880  0.00  0.00    -0.004 A 
ATOM      5  C6  UNL d   1      -1.783  -0.666   0.783  0.00  0.00     0.002 A 
ATOM      6  C7  UNL d   1      -1.017   0.434   0.395  0.00  0.00     0.002 A 
ENDROOT
BRANCH   1   7
ATOM      7  C1  UNL d   1       1.159   1.461  -0.367  0.00  0.00     0.055 C 
ATOM      8  C   UNL d   1       0.905   1.760  -1.837  0.00  0.00     0.019 C 
ENDBRANCH   1   7
TORSDOF 1
ENDMDL
