MODEL 1
REMARK minimizedAffinity -5.88392448
REMARK minimizedRMSD -1
REMARK  1 active torsions:
REMARK  status: ('A' for Active; 'I' for Inactive)
REMARK    1  A    between atoms: C1_2  and  C2_3 
ROOT
ATOM      1  C2  UNL d   1      -0.215  -0.533   0.155  0.00  0.00    -0.077 A 
ATOM      2  C3  UNL d   1       0.462  -1.709   0.505  0.00  0.00     0.002 A 
ATOM      3  C4  UNL d   1      -0.216  -2.752   1.139  0.00  0.00     0.002 A 
ATOM      4  C5  UNL d   1      -1.574  -2.630   1.426  0.00  0.00    -0.004 A 
ATOM      5  C6  UNL d   1      -2.255  -1.463   1.084  0.00  0.00     0.002 A 
ATOM      6  C7  UNL d   1      -1.579  -0.419   0.451  0.00  0.00     0.002 A 
ENDROOT
BRANCH   1   7
ATOM      7  C1  UNL d   1       0.503   0.573  -0.574  0.00  0.00     0.055 C 
ATOM      8  C   UNL d   1       0.112   1.940  -0.029  0.00  0.00     0.019 C 
ENDBRANCH   1   7
TORSDOF 1
ENDMDL
