MODEL 1
REMARK minimizedAffinity -4.98320532
REMARK minimizedRMSD -1
REMARK  1 active torsions:
REMARK  status: ('A' for Active; 'I' for Inactive)
REMARK    1  A    between atoms: C1_2  and  C2_3 
ROOT
ATOM      1  C2  UNL d   1      -0.284  -0.139   0.239  0.00  0.00    -0.077 A 
ATOM      2  C3  UNL d   1      -1.659  -0.269   0.481  0.00  0.00     0.002 A 
ATOM      3  C4  UNL d   1      -2.202  -1.510   0.822  0.00  0.00     0.002 A 
ATOM      4  C5  UNL d   1      -1.377  -2.628   0.927  0.00  0.00    -0.004 A 
ATOM      5  C6  UNL d   1      -0.009  -2.509   0.686  0.00  0.00     0.002 A 
ATOM      6  C7  UNL d   1       0.535  -1.270   0.345  0.00  0.00     0.002 A 
ENDROOT
BRANCH   1   7
ATOM      7  C1  UNL d   1       0.311   1.207  -0.080  0.00  0.00     0.055 C 
ATOM      8  C   UNL d   1       0.530   1.375  -1.576  0.00  0.00     0.019 C 
ENDBRANCH   1   7
TORSDOF 1
ENDMDL
