MODEL 1
REMARK minimizedAffinity -2.57316303
REMARK minimizedRMSD -1
REMARK  1 active torsions:
REMARK  status: ('A' for Active; 'I' for Inactive)
REMARK    1  A    between atoms: C1_2  and  C2_3 
ROOT
ATOM      1  C2  UNL d   1      -0.134  -0.110   0.263  0.00  0.00    -0.077 A 
ATOM      2  C3  UNL d   1      -0.419   1.140   0.832  0.00  0.00     0.002 A 
ATOM      3  C4  UNL d   1      -1.735   1.497   1.127  0.00  0.00     0.002 A 
ATOM      4  C5  UNL d   1      -2.776   0.610   0.862  0.00  0.00    -0.004 A 
ATOM      5  C6  UNL d   1      -2.504  -0.634   0.295  0.00  0.00     0.002 A 
ATOM      6  C7  UNL d   1      -1.188  -0.993  -0.002  0.00  0.00     0.002 A 
ENDROOT
BRANCH   1   7
ATOM      7  C1  UNL d   1       1.291  -0.517  -0.010  0.00  0.00     0.055 C 
ATOM      8  C   UNL d   1       1.745  -1.615   0.941  0.00  0.00     0.019 C 
ENDBRANCH   1   7
TORSDOF 1
ENDMDL
