MODEL 1
REMARK minimizedAffinity -3.11352348
REMARK minimizedRMSD -1
REMARK  1 active torsions:
REMARK  status: ('A' for Active; 'I' for Inactive)
REMARK    1  A    between atoms: C1_2  and  C2_3 
ROOT
ATOM      1  C2  UNL d   1       0.541   1.595  -0.998  0.00  0.00    -0.077 A 
ATOM      2  C3  UNL d   1      -0.231   2.454  -0.203  0.00  0.00     0.002 A 
ATOM      3  C4  UNL d   1      -0.977   1.949   0.864  0.00  0.00     0.002 A 
ATOM      4  C5  UNL d   1      -0.956   0.585   1.148  0.00  0.00    -0.004 A 
ATOM      5  C6  UNL d   1      -0.193  -0.278   0.362  0.00  0.00     0.002 A 
ATOM      6  C7  UNL d   1       0.553   0.225  -0.706  0.00  0.00     0.002 A 
ENDROOT
BRANCH   1   7
ATOM      7  C1  UNL d   1       1.385   2.144  -2.118  0.00  0.00     0.055 C 
ATOM      8  C   UNL d   1       0.721   1.925  -3.470  0.00  0.00     0.019 C 
ENDBRANCH   1   7
TORSDOF 1
ENDMDL
