MODEL 1
REMARK minimizedAffinity 3.14297628
REMARK minimizedRMSD -1
REMARK  1 active torsions:
REMARK  status: ('A' for Active; 'I' for Inactive)
REMARK    1  A    between atoms: C1_2  and  C2_3 
ROOT
ATOM      1  C2  UNL d   1      -1.835  -5.247  -5.857  0.00  0.00    -0.077 A 
ATOM      2  C3  UNL d   1      -3.028  -5.972  -5.982  0.00  0.00     0.002 A 
ATOM      3  C4  UNL d   1      -4.258  -5.311  -5.996  0.00  0.00     0.002 A 
ATOM      4  C5  UNL d   1      -4.307  -3.923  -5.891  0.00  0.00    -0.004 A 
ATOM      5  C6  UNL d   1      -3.126  -3.193  -5.765  0.00  0.00     0.002 A 
ATOM      6  C7  UNL d   1      -1.895  -3.851  -5.749  0.00  0.00     0.002 A 
ENDROOT
BRANCH   1   7
ATOM      7  C1  UNL d   1      -0.505  -5.953  -5.890  0.00  0.00     0.055 C 
ATOM      8  C   UNL d   1       0.397  -5.489  -4.756  0.00  0.00     0.019 C 
ENDBRANCH   1   7
TORSDOF 1
ENDMDL
