MODEL 1
REMARK minimizedAffinity 6.59047747
REMARK minimizedRMSD -1
REMARK  0 active torsions:
REMARK  status: ('A' for Active; 'I' for Inactive)
ROOT
ATOM      1  N1  IND d   1      -0.856   0.506   3.443  0.00  0.00    -0.196 N 
ATOM      2  C2  IND d   1       0.094  -0.384   3.027  0.00  0.00     0.054 A 
ATOM      3  C3  IND d   1      -0.377  -1.131   2.004  0.00  0.00    -0.031 A 
ATOM      4  C4  IND d   1      -2.642  -0.996   0.787  0.00  0.00     0.051 A 
ATOM      5  C5  IND d   1      -3.853  -0.365   0.833  0.00  0.00    -0.031 A 
ATOM      6  C6  IND d   1      -4.132   0.611   1.768  0.00  0.00     0.015 A 
ATOM      7  C7  IND d   1      -3.202   1.001   2.690  0.00  0.00    -0.016 A 
ATOM      8  C8  IND d   1      -1.973   0.357   2.651  0.00  0.00    -0.047 A 
ATOM      9  C9  IND d   1      -1.699  -0.664   1.731  0.00  0.00    -0.096 A 
ATOM     10  HN1 IND d   1      -0.771   1.064   4.092  0.00  0.00     0.298 HD
ENDROOT
TORSDOF 0
ENDMDL
