MODEL 1
REMARK minimizedAffinity 3.79067874
REMARK minimizedRMSD -1
REMARK  0 active torsions:
REMARK  status: ('A' for Active; 'I' for Inactive)
ROOT
ATOM      1  N1  IND d   1      -1.407  -0.798  -2.221  0.00  0.00    -0.196 N 
ATOM      2  C2  IND d   1      -0.781  -1.975  -1.921  0.00  0.00     0.054 A 
ATOM      3  C3  IND d   1      -0.043  -2.397  -2.972  0.00  0.00    -0.031 A 
ATOM      4  C4  IND d   1       0.363  -1.261  -5.246  0.00  0.00     0.051 A 
ATOM      5  C5  IND d   1      -0.023  -0.188  -5.998  0.00  0.00    -0.031 A 
ATOM      6  C6  IND d   1      -0.906   0.758  -5.519  0.00  0.00     0.015 A 
ATOM      7  C7  IND d   1      -1.430   0.671  -4.260  0.00  0.00    -0.016 A 
ATOM      8  C8  IND d   1      -1.045  -0.422  -3.496  0.00  0.00    -0.047 A 
ATOM      9  C9  IND d   1      -0.182  -1.407  -3.992  0.00  0.00    -0.096 A 
ATOM     10  HN1 IND d   1      -1.938  -0.365  -1.702  0.00  0.00     0.298 HD
ENDROOT
TORSDOF 0
ENDMDL
