MODEL 1
REMARK minimizedAffinity 7.83150673
REMARK minimizedRMSD -1
REMARK  0 active torsions:
REMARK  status: ('A' for Active; 'I' for Inactive)
ROOT
ATOM      1  N1  IND d   1       1.048  -1.879   2.881  0.00  0.00    -0.196 N 
ATOM      2  C2  IND d   1       1.657  -1.063   3.793  0.00  0.00     0.054 A 
ATOM      3  C3  IND d   1       0.921   0.053   3.991  0.00  0.00    -0.031 A 
ATOM      4  C4  IND d   1      -1.366   0.701   3.001  0.00  0.00     0.051 A 
ATOM      5  C5  IND d   1      -2.301   0.293   2.092  0.00  0.00    -0.031 A 
ATOM      6  C6  IND d   1      -2.166  -0.886   1.387  0.00  0.00     0.015 A 
ATOM      7  C7  IND d   1      -1.092  -1.709   1.574  0.00  0.00    -0.016 A 
ATOM      8  C8  IND d   1      -0.137  -1.294   2.491  0.00  0.00    -0.047 A 
ATOM      9  C9  IND d   1      -0.247  -0.078   3.179  0.00  0.00    -0.096 A 
ATOM     10  HN1 IND d   1       1.354  -2.631   2.597  0.00  0.00     0.298 HD
ENDROOT
TORSDOF 0
ENDMDL
