MODEL 1
REMARK minimizedAffinity -2.01909399
REMARK minimizedRMSD -1
REMARK  0 active torsions:
REMARK  status: ('A' for Active; 'I' for Inactive)
ROOT
ATOM      1  N1  IND d   1       2.824   1.489  -4.346  0.00  0.00    -0.196 N 
ATOM      2  C2  IND d   1       3.570   0.835  -5.286  0.00  0.00     0.054 A 
ATOM      3  C3  IND d   1       2.793  -0.010  -6.000  0.00  0.00    -0.031 A 
ATOM      4  C4  IND d   1       0.253  -0.405  -5.862  0.00  0.00     0.051 A 
ATOM      5  C5  IND d   1      -0.852  -0.066  -5.133  0.00  0.00    -0.031 A 
ATOM      6  C6  IND d   1      -0.788   0.829  -4.085  0.00  0.00     0.015 A 
ATOM      7  C7  IND d   1       0.388   1.430  -3.732  0.00  0.00    -0.016 A 
ATOM      8  C8  IND d   1       1.513   1.082  -4.466  0.00  0.00    -0.047 A 
ATOM      9  C9  IND d   1       1.462   0.142  -5.503  0.00  0.00    -0.096 A 
ATOM     10  HN1 IND d   1       3.123   2.058  -3.775  0.00  0.00     0.298 HD
ENDROOT
TORSDOF 0
ENDMDL
