MODEL 1
REMARK minimizedAffinity 4.82939625
REMARK minimizedRMSD -1
REMARK  0 active torsions:
REMARK  status: ('A' for Active; 'I' for Inactive)
ROOT
ATOM      1  N1  IND d   1      -1.224   0.442  -4.743  0.00  0.00    -0.196 N 
ATOM      2  C2  IND d   1      -0.788   0.127  -6.000  0.00  0.00     0.054 A 
ATOM      3  C3  IND d   1      -0.046  -1.002  -5.971  0.00  0.00    -0.031 A 
ATOM      4  C4  IND d   1       0.495  -2.554  -3.989  0.00  0.00     0.051 A 
ATOM      5  C5  IND d   1       0.348  -2.663  -2.635  0.00  0.00    -0.031 A 
ATOM      6  C6  IND d   1      -0.347  -1.725  -1.899  0.00  0.00     0.015 A 
ATOM      7  C7  IND d   1      -0.934  -0.644  -2.495  0.00  0.00    -0.016 A 
ATOM      8  C8  IND d   1      -0.780  -0.527  -3.870  0.00  0.00    -0.047 A 
ATOM      9  C9  IND d   1      -0.040  -1.453  -4.615  0.00  0.00    -0.096 A 
ATOM     10  HN1 IND d   1      -1.697   1.129  -4.533  0.00  0.00     0.298 HD
ENDROOT
TORSDOF 0
ENDMDL
