MODEL 1
REMARK minimizedAffinity 0.973507404
REMARK minimizedRMSD -1
REMARK  0 active torsions:
REMARK  status: ('A' for Active; 'I' for Inactive)
ROOT
ATOM      1  N1  IND d   1      -0.713   1.020  -4.407  0.00  0.00    -0.196 N 
ATOM      2  C2  IND d   1      -0.301   0.938  -5.708  0.00  0.00     0.054 A 
ATOM      3  C3  IND d   1       0.202  -0.290  -5.965  0.00  0.00    -0.031 A 
ATOM      4  C4  IND d   1       0.353  -2.351  -4.429  0.00  0.00     0.051 A 
ATOM      5  C5  IND d   1       0.137  -2.752  -3.140  0.00  0.00    -0.031 A 
ATOM      6  C6  IND d   1      -0.386  -1.899  -2.189  0.00  0.00     0.015 A 
ATOM      7  C7  IND d   1      -0.725  -0.612  -2.496  0.00  0.00    -0.016 A 
ATOM      8  C8  IND d   1      -0.501  -0.199  -3.802  0.00  0.00    -0.047 A 
ATOM      9  C9  IND d   1       0.069  -1.047  -4.760  0.00  0.00    -0.096 A 
ATOM     10  HN1 IND d   1      -1.048   1.717  -4.029  0.00  0.00     0.298 HD
ENDROOT
TORSDOF 0
ENDMDL
