MODEL 1
REMARK minimizedAffinity 3.25107312
REMARK minimizedRMSD -1
REMARK  0 active torsions:
REMARK  status: ('A' for Active; 'I' for Inactive)
ROOT
ATOM      1  N1  IND d   1      -4.304   0.604   0.641  0.00  0.00    -0.196 N 
ATOM      2  C2  IND d   1      -4.317   1.506   1.668  0.00  0.00     0.054 A 
ATOM      3  C3  IND d   1      -3.239   1.329   2.464  0.00  0.00    -0.031 A 
ATOM      4  C4  IND d   1      -1.272  -0.313   2.212  0.00  0.00     0.051 A 
ATOM      5  C5  IND d   1      -0.834  -1.360   1.450  0.00  0.00    -0.031 A 
ATOM      6  C6  IND d   1      -1.543  -1.814   0.357  0.00  0.00     0.015 A 
ATOM      7  C7  IND d   1      -2.716  -1.227  -0.025  0.00  0.00    -0.016 A 
ATOM      8  C8  IND d   1      -3.168  -0.168   0.750  0.00  0.00    -0.047 A 
ATOM      9  C9  IND d   1      -2.474   0.269   1.886  0.00  0.00    -0.096 A 
ATOM     10  HN1 IND d   1      -4.904   0.530   0.030  0.00  0.00     0.298 HD
ENDROOT
TORSDOF 0
ENDMDL
