MODEL 1
REMARK minimizedAffinity -0.737653494
REMARK minimizedRMSD -1
REMARK  0 active torsions:
REMARK  status: ('A' for Active; 'I' for Inactive)
ROOT
ATOM      1  N1  IND d   1      -4.966   1.167   1.211  0.00  0.00    -0.196 N 
ATOM      2  C2  IND d   1      -5.435   0.665   0.030  0.00  0.00     0.054 A 
ATOM      3  C3  IND d   1      -4.506  -0.133  -0.543  0.00  0.00    -0.031 A 
ATOM      4  C4  IND d   1      -2.189  -0.835   0.331  0.00  0.00     0.051 A 
ATOM      5  C5  IND d   1      -1.306  -0.604   1.349  0.00  0.00    -0.031 A 
ATOM      6  C6  IND d   1      -1.606   0.245   2.395  0.00  0.00     0.015 A 
ATOM      7  C7  IND d   1      -2.809   0.888   2.469  0.00  0.00    -0.016 A 
ATOM      8  C8  IND d   1      -3.705   0.661   1.434  0.00  0.00    -0.047 A 
ATOM      9  C9  IND d   1      -3.390  -0.166   0.348  0.00  0.00    -0.096 A 
ATOM     10  HN1 IND d   1      -5.389   1.709   1.729  0.00  0.00     0.298 HD
ENDROOT
TORSDOF 0
ENDMDL
