MODEL 1
REMARK minimizedAffinity 2.27276158
REMARK minimizedRMSD -1
REMARK  0 active torsions:
REMARK  status: ('A' for Active; 'I' for Inactive)
ROOT
ATOM      1  N1  IND d   1       2.927  -1.119  -4.847  0.00  0.00    -0.196 N 
ATOM      2  C2  IND d   1       3.601  -0.085  -5.434  0.00  0.00     0.054 A 
ATOM      3  C3  IND d   1       2.732   0.783  -6.000  0.00  0.00    -0.031 A 
ATOM      4  C4  IND d   1       0.158   0.757  -5.994  0.00  0.00     0.051 A 
ATOM      5  C5  IND d   1      -0.911  -0.006  -5.615  0.00  0.00    -0.031 A 
ATOM      6  C6  IND d   1      -0.752  -1.202  -4.944  0.00  0.00     0.015 A 
ATOM      7  C7  IND d   1       0.487  -1.675  -4.617  0.00  0.00    -0.016 A 
ATOM      8  C8  IND d   1       1.575  -0.907  -5.006  0.00  0.00    -0.047 A 
ATOM      9  C9  IND d   1       1.421   0.286  -5.724  0.00  0.00    -0.096 A 
ATOM     10  HN1 IND d   1       3.286  -1.789  -4.445  0.00  0.00     0.298 HD
ENDROOT
TORSDOF 0
ENDMDL
