MODEL 1
REMARK minimizedAffinity 13.9954748
REMARK minimizedRMSD -1
REMARK  1 active torsions:
REMARK  status: ('A' for Active; 'I' for Inactive)
REMARK    1  A    between atoms: C1_2  and  C2_3 
ROOT
ATOM      1  C2  UNL d   1       3.228  -3.698   1.820  0.00  0.00    -0.077 A 
ATOM      2  C3  UNL d   1       4.540  -3.911   1.375  0.00  0.00     0.002 A 
ATOM      3  C4  UNL d   1       5.084  -3.107   0.371  0.00  0.00     0.002 A 
ATOM      4  C5  UNL d   1       4.325  -2.084  -0.192  0.00  0.00    -0.004 A 
ATOM      5  C6  UNL d   1       3.018  -1.865   0.242  0.00  0.00     0.002 A 
ATOM      6  C7  UNL d   1       2.472  -2.668   1.245  0.00  0.00     0.002 A 
ENDROOT
BRANCH   1   7
ATOM      7  C1  UNL d   1       2.656  -4.532   2.937  0.00  0.00     0.055 C 
ATOM      8  C   UNL d   1       1.979  -5.785   2.401  0.00  0.00     0.019 C 
ENDBRANCH   1   7
TORSDOF 1
ENDMDL
