MODEL 1
REMARK minimizedAffinity 6.87028742
REMARK minimizedRMSD -1
REMARK  1 active torsions:
REMARK  status: ('A' for Active; 'I' for Inactive)
REMARK    1  A    between atoms: C1_2  and  C2_3 
ROOT
ATOM      1  C2  UNL d   1       0.265  -2.926   1.132  0.00  0.00    -0.077 A 
ATOM      2  C3  UNL d   1       0.132  -4.106   0.386  0.00  0.00     0.002 A 
ATOM      3  C4  UNL d   1      -1.089  -4.431  -0.209  0.00  0.00     0.002 A 
ATOM      4  C5  UNL d   1      -2.183  -3.580  -0.070  0.00  0.00    -0.004 A 
ATOM      5  C6  UNL d   1      -2.061  -2.405   0.671  0.00  0.00     0.002 A 
ATOM      6  C7  UNL d   1      -0.842  -2.079   1.269  0.00  0.00     0.002 A 
ENDROOT
BRANCH   1   7
ATOM      7  C1  UNL d   1       1.594  -2.550   1.733  0.00  0.00     0.055 C 
ATOM      8  C   UNL d   1       1.586  -1.114   2.238  0.00  0.00     0.019 C 
ENDBRANCH   1   7
TORSDOF 1
ENDMDL
