MODEL 1
REMARK minimizedAffinity 8.41371536
REMARK minimizedRMSD -1
REMARK  1 active torsions:
REMARK  status: ('A' for Active; 'I' for Inactive)
REMARK    1  A    between atoms: C1_2  and  C2_3 
ROOT
ATOM      1  C2  UNL d   1       0.073  -4.948  -1.078  0.00  0.00    -0.077 A 
ATOM      2  C3  UNL d   1      -0.935  -5.906  -0.901  0.00  0.00     0.002 A 
ATOM      3  C4  UNL d   1      -2.010  -5.651  -0.046  0.00  0.00     0.002 A 
ATOM      4  C5  UNL d   1      -2.088  -4.438   0.634  0.00  0.00    -0.004 A 
ATOM      5  C6  UNL d   1      -1.090  -3.479   0.466  0.00  0.00     0.002 A 
ATOM      6  C7  UNL d   1      -0.015  -3.733  -0.387  0.00  0.00     0.002 A 
ENDROOT
BRANCH   1   7
ATOM      7  C1  UNL d   1       1.206  -5.201  -2.037  0.00  0.00     0.055 C 
ATOM      8  C   UNL d   1       2.075  -3.963  -2.206  0.00  0.00     0.019 C 
ENDBRANCH   1   7
TORSDOF 1
ENDMDL
