MODEL 1
REMARK minimizedAffinity 5.28683281
REMARK minimizedRMSD -1
REMARK  1 active torsions:
REMARK  status: ('A' for Active; 'I' for Inactive)
REMARK    1  A    between atoms: C1_2  and  C2_3 
ROOT
ATOM      1  C2  UNL d   1      -3.822   2.242  -3.172  0.00  0.00    -0.077 A 
ATOM      2  C3  UNL d   1      -3.488   2.519  -4.505  0.00  0.00     0.002 A 
ATOM      3  C4  UNL d   1      -3.784   3.764  -5.064  0.00  0.00     0.002 A 
ATOM      4  C5  UNL d   1      -4.410   4.743  -4.296  0.00  0.00    -0.004 A 
ATOM      5  C6  UNL d   1      -4.749   4.477  -2.970  0.00  0.00     0.002 A 
ATOM      6  C7  UNL d   1      -4.455   3.233  -2.410  0.00  0.00     0.002 A 
ENDROOT
BRANCH   1   7
ATOM      7  C1  UNL d   1      -3.460   0.918  -2.553  0.00  0.00     0.055 C 
ATOM      8  C   UNL d   1      -2.239   1.042  -1.653  0.00  0.00     0.019 C 
ENDBRANCH   1   7
TORSDOF 1
ENDMDL
