MODEL 1
REMARK minimizedAffinity 13.6879702
REMARK minimizedRMSD -1
REMARK  1 active torsions:
REMARK  status: ('A' for Active; 'I' for Inactive)
REMARK    1  A    between atoms: C1_2  and  C2_3 
ROOT
ATOM      1  C2  UNL d   1      -4.121   2.901  -3.799  0.00  0.00    -0.077 A 
ATOM      2  C3  UNL d   1      -3.716   3.592  -4.950  0.00  0.00     0.002 A 
ATOM      3  C4  UNL d   1      -4.424   4.713  -5.387  0.00  0.00     0.002 A 
ATOM      4  C5  UNL d   1      -5.539   5.155  -4.677  0.00  0.00    -0.004 A 
ATOM      5  C6  UNL d   1      -5.951   4.474  -3.532  0.00  0.00     0.002 A 
ATOM      6  C7  UNL d   1      -5.245   3.353  -3.095  0.00  0.00     0.002 A 
ENDROOT
BRANCH   1   7
ATOM      7  C1  UNL d   1      -3.330   1.721  -3.299  0.00  0.00     0.055 C 
ATOM      8  C   UNL d   1      -4.183   0.462  -3.252  0.00  0.00     0.019 C 
ENDBRANCH   1   7
TORSDOF 1
ENDMDL
