MODEL 1
REMARK minimizedAffinity 3.93780065
REMARK minimizedRMSD -1
REMARK  1 active torsions:
REMARK  status: ('A' for Active; 'I' for Inactive)
REMARK    1  A    between atoms: C1_2  and  C2_3 
ROOT
ATOM      1  C2  UNL d   1       1.584  -2.113   3.516  0.00  0.00    -0.077 A 
ATOM      2  C3  UNL d   1       2.370  -3.272   3.585  0.00  0.00     0.002 A 
ATOM      3  C4  UNL d   1       2.712  -3.821   4.823  0.00  0.00     0.002 A 
ATOM      4  C5  UNL d   1       2.270  -3.220   5.999  0.00  0.00    -0.004 A 
ATOM      5  C6  UNL d   1       1.490  -2.066   5.941  0.00  0.00     0.002 A 
ATOM      6  C7  UNL d   1       1.147  -1.515   4.705  0.00  0.00     0.002 A 
ENDROOT
BRANCH   1   7
ATOM      7  C1  UNL d   1       1.172  -1.549   2.181  0.00  0.00     0.055 C 
ATOM      8  C   UNL d   1       2.355  -1.466   1.227  0.00  0.00     0.019 C 
ENDBRANCH   1   7
TORSDOF 1
ENDMDL
