MODEL 1
REMARK minimizedAffinity 10.262084
REMARK minimizedRMSD -1
REMARK  1 active torsions:
REMARK  status: ('A' for Active; 'I' for Inactive)
REMARK    1  A    between atoms: C1_2  and  C2_3 
ROOT
ATOM      1  C2  UNL d   1      -0.840  -4.602  -0.415  0.00  0.00    -0.077 A 
ATOM      2  C3  UNL d   1       0.214  -4.488   0.502  0.00  0.00     0.002 A 
ATOM      3  C4  UNL d   1       1.537  -4.635   0.080  0.00  0.00     0.002 A 
ATOM      4  C5  UNL d   1       1.817  -4.893  -1.261  0.00  0.00    -0.004 A 
ATOM      5  C6  UNL d   1       0.776  -5.011  -2.180  0.00  0.00     0.002 A 
ATOM      6  C7  UNL d   1      -0.547  -4.865  -1.759  0.00  0.00     0.002 A 
ENDROOT
BRANCH   1   7
ATOM      7  C1  UNL d   1      -2.264  -4.395   0.030  0.00  0.00     0.055 C 
ATOM      8  C   UNL d   1      -3.071  -5.681  -0.080  0.00  0.00     0.019 C 
ENDBRANCH   1   7
TORSDOF 1
ENDMDL
