MODEL 1
REMARK minimizedAffinity 12.7397099
REMARK minimizedRMSD -1
REMARK  1 active torsions:
REMARK  status: ('A' for Active; 'I' for Inactive)
REMARK    1  A    between atoms: C1_2  and  C2_3 
ROOT
ATOM      1  C2  UNL d   1       1.443  -1.772   3.721  0.00  0.00    -0.077 A 
ATOM      2  C3  UNL d   1       2.021  -2.875   3.076  0.00  0.00     0.002 A 
ATOM      3  C4  UNL d   1       2.363  -2.803   1.724  0.00  0.00     0.002 A 
ATOM      4  C5  UNL d   1       2.135  -1.631   1.007  0.00  0.00    -0.004 A 
ATOM      5  C6  UNL d   1       1.559  -0.529   1.639  0.00  0.00     0.002 A 
ATOM      6  C7  UNL d   1       1.215  -0.599   2.990  0.00  0.00     0.002 A 
ENDROOT
BRANCH   1   7
ATOM      7  C1  UNL d   1       1.120  -1.831   5.191  0.00  0.00     0.055 C 
ATOM      8  C   UNL d   1       1.953  -2.889   5.900  0.00  0.00     0.019 C 
ENDBRANCH   1   7
TORSDOF 1
ENDMDL
