MODEL 1
REMARK minimizedAffinity 8.67931843
REMARK minimizedRMSD -1
REMARK  0 active torsions:
REMARK  status: ('A' for Active; 'I' for Inactive)
ROOT
ATOM      1  C   UNL d   1       3.747   3.647   0.739  0.00  0.00     0.172 C 
ATOM      2  N   UNL d   1       4.126   4.359   1.937  0.00  0.00    -0.070 N 
ATOM      3  C1  UNL d   1       4.143   5.720   2.086  0.00  0.00    -0.004 A 
ATOM      4  C2  UNL d   1       4.560   6.000   3.369  0.00  0.00    -0.047 A 
ATOM      5  C3  UNL d   1       4.803   4.764   4.014  0.00  0.00    -0.047 A 
ATOM      6  C4  UNL d   1       4.527   3.765   3.105  0.00  0.00    -0.004 A 
ENDROOT
TORSDOF 0
ENDMDL
