MODEL 1
REMARK minimizedAffinity 9.40655613
REMARK minimizedRMSD -1
REMARK  0 active torsions:
REMARK  status: ('A' for Active; 'I' for Inactive)
ROOT
ATOM      1  C   UNL d   1       0.721  -2.735   4.612  0.00  0.00     0.172 C 
ATOM      2  N   UNL d   1       0.661  -1.661   3.648  0.00  0.00    -0.070 N 
ATOM      3  C1  UNL d   1       1.740  -1.030   3.088  0.00  0.00    -0.004 A 
ATOM      4  C2  UNL d   1       1.264  -0.069   2.222  0.00  0.00    -0.047 A 
ATOM      5  C3  UNL d   1      -0.149  -0.124   2.264  0.00  0.00    -0.047 A 
ATOM      6  C4  UNL d   1      -0.496  -1.119   3.154  0.00  0.00    -0.004 A 
ENDROOT
TORSDOF 0
ENDMDL
