MODEL 1
REMARK minimizedAffinity 9.86838818
REMARK minimizedRMSD -1
REMARK  0 active torsions:
REMARK  status: ('A' for Active; 'I' for Inactive)
ROOT
ATOM      1  C   UNL d   1       0.488   1.409   5.785  0.00  0.00     0.172 C 
ATOM      2  N   UNL d   1       0.377   0.796   4.482  0.00  0.00    -0.070 N 
ATOM      3  C1  UNL d   1       1.176  -0.206   4.000  0.00  0.00    -0.004 A 
ATOM      4  C2  UNL d   1       0.749  -0.512   2.727  0.00  0.00    -0.047 A 
ATOM      5  C3  UNL d   1      -0.345   0.336   2.432  0.00  0.00    -0.047 A 
ATOM      6  C4  UNL d   1      -0.554   1.136   3.536  0.00  0.00    -0.004 A 
ENDROOT
TORSDOF 0
ENDMDL
