MODEL 1
REMARK minimizedAffinity 0.159980178
REMARK minimizedRMSD -1
REMARK  0 active torsions:
REMARK  status: ('A' for Active; 'I' for Inactive)
ROOT
ATOM      1  C   UNL d   1       1.001  -3.186   4.394  0.00  0.00     0.172 C 
ATOM      2  N   UNL d   1       0.697  -1.936   3.737  0.00  0.00    -0.070 N 
ATOM      3  C1  UNL d   1      -0.102  -1.786   2.635  0.00  0.00    -0.004 A 
ATOM      4  C2  UNL d   1      -0.139  -0.445   2.320  0.00  0.00    -0.047 A 
ATOM      5  C3  UNL d   1       0.667   0.235   3.264  0.00  0.00    -0.047 A 
ATOM      6  C4  UNL d   1       1.172  -0.712   4.130  0.00  0.00    -0.004 A 
ENDROOT
TORSDOF 0
ENDMDL
