MODEL 1
REMARK minimizedAffinity 6.24913454
REMARK minimizedRMSD -1
REMARK  0 active torsions:
REMARK  status: ('A' for Active; 'I' for Inactive)
ROOT
ATOM      1  C   UNL d   1      -0.200   2.005   3.450  0.00  0.00     0.172 C 
ATOM      2  N   UNL d   1       0.255   0.652   3.235  0.00  0.00    -0.070 N 
ATOM      3  C1  UNL d   1       1.395   0.100   3.755  0.00  0.00    -0.004 A 
ATOM      4  C2  UNL d   1       1.470  -1.204   3.317  0.00  0.00    -0.047 A 
ATOM      5  C3  UNL d   1       0.337  -1.445   2.505  0.00  0.00    -0.047 A 
ATOM      6  C4  UNL d   1      -0.399  -0.279   2.471  0.00  0.00    -0.004 A 
ENDROOT
TORSDOF 0
ENDMDL
