MODEL 1
REMARK minimizedAffinity 5.35541439
REMARK minimizedRMSD -1
REMARK  0 active torsions:
REMARK  status: ('A' for Active; 'I' for Inactive)
ROOT
ATOM      1  C   UNL d   1      -0.375   1.680   3.075  0.00  0.00     0.172 C 
ATOM      2  N   UNL d   1       0.516   0.549   3.171  0.00  0.00    -0.070 N 
ATOM      3  C1  UNL d   1       1.858   0.610   3.440  0.00  0.00    -0.004 A 
ATOM      4  C2  UNL d   1       2.346  -0.679   3.446  0.00  0.00    -0.047 A 
ATOM      5  C3  UNL d   1       1.261  -1.544   3.169  0.00  0.00    -0.047 A 
ATOM      6  C4  UNL d   1       0.141  -0.758   3.003  0.00  0.00    -0.004 A 
ENDROOT
TORSDOF 0
ENDMDL
