MODEL 1
REMARK minimizedAffinity -4.19140053
REMARK minimizedRMSD -1
REMARK  0 active torsions:
REMARK  status: ('A' for Active; 'I' for Inactive)
ROOT
ATOM      1  C   UNL d   1      -1.693  -0.142   3.117  0.00  0.00     0.020 A 
ATOM      2  C1  UNL d   1      -2.538  -0.125   2.009  0.00  0.00     0.020 A 
ATOM      3  C2  UNL d   1      -2.000  -0.045   0.722  0.00  0.00     0.034 A 
ATOM      4  C3  UNL d   1      -0.614   0.018   0.541  0.00  0.00     0.017 A 
ATOM      5  C4  UNL d   1       0.234   0.001   1.655  0.00  0.00     0.017 A 
ATOM      6  C5  UNL d   1      -0.310  -0.080   2.941  0.00  0.00     0.034 A 
ATOM      7 Cl   UNL d   1       1.954   0.075   1.511  0.00  0.00    -0.070 Cl
ATOM      8 Cl1  UNL d   1      -0.019   0.116  -1.078  0.00  0.00    -0.070 Cl
ENDROOT
TORSDOF 0
ENDMDL
