MODEL 1
REMARK minimizedAffinity -4.00466967
REMARK minimizedRMSD -1
REMARK  0 active torsions:
REMARK  status: ('A' for Active; 'I' for Inactive)
ROOT
ATOM      1  C   UNL d   1       0.088  -0.350   3.039  0.00  0.00     0.020 A 
ATOM      2  C1  UNL d   1      -1.214  -0.196   3.512  0.00  0.00     0.020 A 
ATOM      3  C2  UNL d   1      -2.259   0.042   2.616  0.00  0.00     0.034 A 
ATOM      4  C3  UNL d   1      -2.003   0.125   1.243  0.00  0.00     0.017 A 
ATOM      5  C4  UNL d   1      -0.695  -0.030   0.769  0.00  0.00     0.017 A 
ATOM      6  C5  UNL d   1       0.347  -0.267   1.670  0.00  0.00     0.034 A 
ATOM      7 Cl   UNL d   1      -0.301   0.060  -0.912  0.00  0.00    -0.070 Cl
ATOM      8 Cl1  UNL d   1      -3.342   0.421   0.192  0.00  0.00    -0.070 Cl
ENDROOT
TORSDOF 0
ENDMDL
