MODEL 1
REMARK minimizedAffinity -5.12760115
REMARK minimizedRMSD -1
REMARK  0 active torsions:
REMARK  status: ('A' for Active; 'I' for Inactive)
ROOT
ATOM      1  C   UNL d   1      -1.611  -0.323   2.954  0.00  0.00     0.020 A 
ATOM      2  C1  UNL d   1      -2.604  -0.250   1.978  0.00  0.00     0.020 A 
ATOM      3  C2  UNL d   1      -2.255  -0.071   0.638  0.00  0.00     0.034 A 
ATOM      4  C3  UNL d   1      -0.908   0.036   0.270  0.00  0.00     0.017 A 
ATOM      5  C4  UNL d   1       0.088  -0.039   1.250  0.00  0.00     0.017 A 
ATOM      6  C5  UNL d   1      -0.268  -0.218   2.590  0.00  0.00     0.034 A 
ATOM      7 Cl   UNL d   1       1.770   0.084   0.873  0.00  0.00    -0.070 Cl
ATOM      8 Cl1  UNL d   1      -0.549   0.255  -1.406  0.00  0.00    -0.070 Cl
ENDROOT
TORSDOF 0
ENDMDL
