MODEL 1
REMARK minimizedAffinity -4.54766989
REMARK minimizedRMSD -1
REMARK  0 active torsions:
REMARK  status: ('A' for Active; 'I' for Inactive)
ROOT
ATOM      1  C   UNL d   1      -2.605   0.405   2.883  0.00  0.00     0.020 A 
ATOM      2  C1  UNL d   1      -1.502  -0.272   3.403  0.00  0.00     0.020 A 
ATOM      3  C2  UNL d   1      -0.465  -0.672   2.558  0.00  0.00     0.034 A 
ATOM      4  C3  UNL d   1      -0.528  -0.395   1.187  0.00  0.00     0.017 A 
ATOM      5  C4  UNL d   1      -1.635   0.284   0.666  0.00  0.00     0.017 A 
ATOM      6  C5  UNL d   1      -2.671   0.682   1.517  0.00  0.00     0.034 A 
ATOM      7 Cl   UNL d   1      -1.784   0.661  -1.014  0.00  0.00    -0.070 Cl
ATOM      8 Cl1  UNL d   1       0.790  -0.919   0.201  0.00  0.00    -0.070 Cl
ENDROOT
TORSDOF 0
ENDMDL
