MODEL 1
REMARK minimizedAffinity -3.60071206
REMARK minimizedRMSD -1
REMARK  0 active torsions:
REMARK  status: ('A' for Active; 'I' for Inactive)
ROOT
ATOM      1  C   UNL d   1       1.034   0.567  -0.727  0.00  0.00     0.020 A 
ATOM      2  C1  UNL d   1       1.822   0.510   0.422  0.00  0.00     0.020 A 
ATOM      3  C2  UNL d   1       1.257   0.115   1.636  0.00  0.00     0.034 A 
ATOM      4  C3  UNL d   1      -0.099  -0.224   1.705  0.00  0.00     0.017 A 
ATOM      5  C4  UNL d   1      -0.889  -0.166   0.551  0.00  0.00     0.017 A 
ATOM      6  C5  UNL d   1      -0.318   0.230  -0.663  0.00  0.00     0.034 A 
ATOM      7 Cl   UNL d   1      -2.569  -0.569   0.557  0.00  0.00    -0.070 Cl
ATOM      8 Cl1  UNL d   1      -0.731  -0.703   3.240  0.00  0.00    -0.070 Cl
ENDROOT
TORSDOF 0
ENDMDL
