MODEL 1
REMARK minimizedAffinity -3.58572245
REMARK minimizedRMSD -1
REMARK  0 active torsions:
REMARK  status: ('A' for Active; 'I' for Inactive)
ROOT
ATOM      1  C   UNL d   1      -2.929   0.125   1.886  0.00  0.00     0.020 A 
ATOM      2  C1  UNL d   1      -2.049   0.003   2.960  0.00  0.00     0.020 A 
ATOM      3  C2  UNL d   1      -0.671  -0.028   2.734  0.00  0.00     0.034 A 
ATOM      4  C3  UNL d   1      -0.170   0.062   1.430  0.00  0.00     0.017 A 
ATOM      5  C4  UNL d   1      -1.054   0.184   0.352  0.00  0.00     0.017 A 
ATOM      6  C5  UNL d   1      -2.433   0.215   0.585  0.00  0.00     0.034 A 
ATOM      7 Cl   UNL d   1      -0.511   0.300  -1.284  0.00  0.00    -0.070 Cl
ATOM      8 Cl1  UNL d   1       1.545   0.016   1.224  0.00  0.00    -0.070 Cl
ENDROOT
TORSDOF 0
ENDMDL
