MODEL 1
REMARK minimizedAffinity -4.75408888
REMARK minimizedRMSD -1
REMARK  0 active torsions:
REMARK  status: ('A' for Active; 'I' for Inactive)
ROOT
ATOM      1  C   UNL d   1      -2.247  -0.214   3.229  0.00  0.00     0.020 A 
ATOM      2  C1  UNL d   1      -0.914  -0.620   3.247  0.00  0.00     0.020 A 
ATOM      3  C2  UNL d   1      -0.169  -0.626   2.065  0.00  0.00     0.034 A 
ATOM      4  C3  UNL d   1      -0.759  -0.224   0.860  0.00  0.00     0.017 A 
ATOM      5  C4  UNL d   1      -2.097   0.183   0.844  0.00  0.00     0.017 A 
ATOM      6  C5  UNL d   1      -2.838   0.186   2.030  0.00  0.00     0.034 A 
ATOM      7 Cl   UNL d   1      -2.893   0.692  -0.604  0.00  0.00    -0.070 Cl
ATOM      8 Cl1  UNL d   1       0.221  -0.256  -0.563  0.00  0.00    -0.070 Cl
ENDROOT
TORSDOF 0
ENDMDL
