MODEL 1
REMARK minimizedAffinity -4.32979059
REMARK minimizedRMSD -1
REMARK  0 active torsions:
REMARK  status: ('A' for Active; 'I' for Inactive)
ROOT
ATOM      1  C   UNL d   1      -3.429   0.334   1.496  0.00  0.00     0.020 A 
ATOM      2  C1  UNL d   1      -3.002   0.004   2.782  0.00  0.00     0.020 A 
ATOM      3  C2  UNL d   1      -1.645  -0.201   3.036  0.00  0.00     0.034 A 
ATOM      4  C3  UNL d   1      -0.709  -0.078   2.003  0.00  0.00     0.017 A 
ATOM      5  C4  UNL d   1      -1.138   0.252   0.712  0.00  0.00     0.017 A 
ATOM      6  C5  UNL d   1      -2.499   0.457   0.464  0.00  0.00     0.034 A 
ATOM      7 Cl   UNL d   1      -0.043   0.422  -0.614  0.00  0.00    -0.070 Cl
ATOM      8 Cl1  UNL d   1       0.954  -0.346   2.388  0.00  0.00    -0.070 Cl
ENDROOT
TORSDOF 0
ENDMDL
