MODEL 1
REMARK minimizedAffinity -3.95915246
REMARK minimizedRMSD -1
REMARK  0 active torsions:
REMARK  status: ('A' for Active; 'I' for Inactive)
ROOT
ATOM      1  C   UNL d   1      -2.099  -0.564   3.013  0.00  0.00     0.020 A 
ATOM      2  C1  UNL d   1      -3.006  -0.070   2.076  0.00  0.00     0.020 A 
ATOM      3  C2  UNL d   1      -2.556   0.350   0.823  0.00  0.00     0.034 A 
ATOM      4  C3  UNL d   1      -1.195   0.277   0.503  0.00  0.00     0.017 A 
ATOM      5  C4  UNL d   1      -0.286  -0.219   1.443  0.00  0.00     0.017 A 
ATOM      6  C5  UNL d   1      -0.742  -0.638   2.697  0.00  0.00     0.034 A 
ATOM      7 Cl   UNL d   1       1.408  -0.339   1.121  0.00  0.00    -0.070 Cl
ATOM      8 Cl1  UNL d   1      -0.709   0.814  -1.066  0.00  0.00    -0.070 Cl
ENDROOT
TORSDOF 0
ENDMDL
