MODEL 1
REMARK minimizedAffinity -1.40840816
REMARK minimizedRMSD -1
REMARK  0 active torsions:
REMARK  status: ('A' for Active; 'I' for Inactive)
ROOT
ATOM      1  C   UNL d   1       0.275  -1.189  -3.739  0.00  0.00     0.020 A 
ATOM      2  C1  UNL d   1       1.604  -1.009  -3.356  0.00  0.00     0.020 A 
ATOM      3  C2  UNL d   1       1.902  -0.392  -2.139  0.00  0.00     0.034 A 
ATOM      4  C3  UNL d   1       0.870   0.047  -1.301  0.00  0.00     0.017 A 
ATOM      5  C4  UNL d   1      -0.463  -0.135  -1.686  0.00  0.00     0.017 A 
ATOM      6  C5  UNL d   1      -0.756  -0.754  -2.906  0.00  0.00     0.034 A 
ATOM      7 Cl   UNL d   1      -1.790   0.379  -0.705  0.00  0.00    -0.070 Cl
ATOM      8 Cl1  UNL d   1       1.312   0.801   0.189  0.00  0.00    -0.070 Cl
ENDROOT
TORSDOF 0
ENDMDL
