MODEL 1
REMARK minimizedAffinity -6.08821726
REMARK minimizedRMSD -1
REMARK  0 active torsions:
REMARK  status: ('A' for Active; 'I' for Inactive)
ROOT
ATOM      1  C   UNL d   1      -2.420  -0.008   2.152  0.00  0.00     0.020 A 
ATOM      2  C1  UNL d   1      -1.462   0.047   3.163  0.00  0.00     0.020 A 
ATOM      3  C2  UNL d   1      -0.121   0.267   2.842  0.00  0.00     0.034 A 
ATOM      4  C3  UNL d   1       0.266   0.433   1.507  0.00  0.00     0.017 A 
ATOM      5  C4  UNL d   1      -0.697   0.377   0.493  0.00  0.00     0.017 A 
ATOM      6  C5  UNL d   1      -2.038   0.157   0.820  0.00  0.00     0.034 A 
ATOM      7 Cl   UNL d   1      -0.296   0.573  -1.177  0.00  0.00    -0.070 Cl
ATOM      8 Cl1  UNL d   1       1.942   0.702   1.184  0.00  0.00    -0.070 Cl
ENDROOT
TORSDOF 0
ENDMDL
