MODEL 1
REMARK minimizedAffinity -4.41510344
REMARK minimizedRMSD -1
REMARK  0 active torsions:
REMARK  status: ('A' for Active; 'I' for Inactive)
ROOT
ATOM      1  C   UNL d   1      -0.364  -0.096   3.486  0.00  0.00     0.020 A 
ATOM      2  C1  UNL d   1      -0.812  -0.958   2.486  0.00  0.00     0.020 A 
ATOM      3  C2  UNL d   1      -1.929  -0.616   1.719  0.00  0.00     0.034 A 
ATOM      4  C3  UNL d   1      -2.600   0.589   1.952  0.00  0.00     0.017 A 
ATOM      5  C4  UNL d   1      -2.150   1.453   2.956  0.00  0.00     0.017 A 
ATOM      6  C5  UNL d   1      -1.031   1.107   3.721  0.00  0.00     0.034 A 
ATOM      7 Cl   UNL d   1      -2.927   2.958   3.302  0.00  0.00    -0.070 Cl
ATOM      8 Cl1  UNL d   1      -3.973   0.947   0.965  0.00  0.00    -0.070 Cl
ENDROOT
TORSDOF 0
ENDMDL
