MODEL 1
REMARK minimizedAffinity -4.72614288
REMARK minimizedRMSD -1
REMARK  0 active torsions:
REMARK  status: ('A' for Active; 'I' for Inactive)
ROOT
ATOM      1  C   UNL d   1      -2.364  -0.383   2.214  0.00  0.00     0.020 A 
ATOM      2  C1  UNL d   1      -1.432  -0.693   3.204  0.00  0.00     0.020 A 
ATOM      3  C2  UNL d   1      -0.067  -0.677   2.908  0.00  0.00     0.034 A 
ATOM      4  C3  UNL d   1       0.370  -0.350   1.619  0.00  0.00     0.017 A 
ATOM      5  C4  UNL d   1      -0.567  -0.040   0.626  0.00  0.00     0.017 A 
ATOM      6  C5  UNL d   1      -1.932  -0.058   0.928  0.00  0.00     0.034 A 
ATOM      7 Cl   UNL d   1      -0.104   0.373  -0.988  0.00  0.00    -0.070 Cl
ATOM      8 Cl1  UNL d   1       2.072  -0.349   1.323  0.00  0.00    -0.070 Cl
ENDROOT
TORSDOF 0
ENDMDL
