MODEL 1
REMARK minimizedAffinity -5.58779764
REMARK minimizedRMSD -1
REMARK  0 active torsions:
REMARK  status: ('A' for Active; 'I' for Inactive)
ROOT
ATOM      1  C   UNL d   1      -2.795  -0.057   2.321  0.00  0.00     0.020 A 
ATOM      2  C1  UNL d   1      -1.795  -0.295   3.263  0.00  0.00     0.020 A 
ATOM      3  C2  UNL d   1      -0.458  -0.354   2.863  0.00  0.00     0.034 A 
ATOM      4  C3  UNL d   1      -0.118  -0.174   1.518  0.00  0.00     0.017 A 
ATOM      5  C4  UNL d   1      -1.122   0.064   0.573  0.00  0.00     0.017 A 
ATOM      6  C5  UNL d   1      -2.459   0.122   0.979  0.00  0.00     0.034 A 
ATOM      7 Cl   UNL d   1      -0.780   0.296  -1.106  0.00  0.00    -0.070 Cl
ATOM      8 Cl1  UNL d   1       1.555  -0.260   1.094  0.00  0.00    -0.070 Cl
ENDROOT
TORSDOF 0
ENDMDL
