MODEL 1
REMARK minimizedAffinity -1.80904448
REMARK minimizedRMSD -1
REMARK  0 active torsions:
REMARK  status: ('A' for Active; 'I' for Inactive)
ROOT
ATOM      1  C   UNL d   1       1.144   0.337   2.695  0.00  0.00     0.020 A 
ATOM      2  C1  UNL d   1       2.140   0.177   1.732  0.00  0.00     0.020 A 
ATOM      3  C2  UNL d   1       1.805   0.162   0.377  0.00  0.00     0.034 A 
ATOM      4  C3  UNL d   1       0.470   0.309  -0.020  0.00  0.00     0.017 A 
ATOM      5  C4  UNL d   1      -0.528   0.470   0.947  0.00  0.00     0.017 A 
ATOM      6  C5  UNL d   1      -0.187   0.483   2.303  0.00  0.00     0.034 A 
ATOM      7 Cl   UNL d   1      -2.196   0.656   0.535  0.00  0.00    -0.070 Cl
ATOM      8 Cl1  UNL d   1       0.128   0.282  -1.713  0.00  0.00    -0.070 Cl
ENDROOT
TORSDOF 0
ENDMDL
