MODEL 1
REMARK minimizedAffinity -2.94707966
REMARK minimizedRMSD -1
REMARK  1 active torsions:
REMARK  status: ('A' for Active; 'I' for Inactive)
REMARK    1  A    between atoms: C1_2  and  C2_3 
ROOT
ATOM      1  C2  UNL d   1      -0.748   0.284  -0.370  0.00  0.00    -0.073 A 
ATOM      2  C3  UNL d   1       0.338   1.161  -0.285  0.00  0.00    -0.002 A 
ATOM      3  C4  UNL d   1       1.549   0.733   0.262  0.00  0.00     0.004 A 
ATOM      4  C5  UNL d   1       1.688  -0.576   0.722  0.00  0.00    -0.004 A 
ATOM      5  C6  UNL d   1       0.617  -1.472   0.634  0.00  0.00    -0.075 A 
ATOM      6  C7  UNL d   1       0.749  -2.883   1.125  0.00  0.00     0.076 C 
ATOM      7  C8  UNL d   1      -0.596  -1.034   0.086  0.00  0.00     0.001 A 
ENDROOT
BRANCH   1   8
ATOM      8  C1  UNL d   1      -2.055   0.739  -0.966  0.00  0.00     0.053 C 
ATOM      9  C   UNL d   1      -2.383   0.000  -2.254  0.00  0.00     0.018 C 
ENDBRANCH   1   8
TORSDOF 1
ENDMDL
