MODEL 1
REMARK minimizedAffinity -4.08737469
REMARK minimizedRMSD -1
REMARK  1 active torsions:
REMARK  status: ('A' for Active; 'I' for Inactive)
REMARK    1  A    between atoms: C1_2  and  C2_3 
ROOT
ATOM      1  C2  UNL d   1      -0.434  -0.261   0.811  0.00  0.00    -0.073 A 
ATOM      2  C3  UNL d   1      -0.688   1.105   0.640  0.00  0.00    -0.002 A 
ATOM      3  C4  UNL d   1       0.363   1.994   0.414  0.00  0.00     0.004 A 
ATOM      4  C5  UNL d   1       1.676   1.527   0.349  0.00  0.00    -0.004 A 
ATOM      5  C6  UNL d   1       1.948   0.164   0.504  0.00  0.00    -0.075 A 
ATOM      6  C7  UNL d   1       3.355  -0.354   0.439  0.00  0.00     0.076 C 
ATOM      7  C8  UNL d   1       0.888  -0.722   0.734  0.00  0.00     0.001 A 
ENDROOT
BRANCH   1   8
ATOM      8  C1  UNL d   1      -1.567  -1.226   1.049  0.00  0.00     0.053 C 
ATOM      9  C   UNL d   1      -1.101  -2.489   1.756  0.00  0.00     0.018 C 
ENDBRANCH   1   8
TORSDOF 1
ENDMDL
