MODEL 1
REMARK minimizedAffinity -2.40220618
REMARK minimizedRMSD -1
REMARK  1 active torsions:
REMARK  status: ('A' for Active; 'I' for Inactive)
REMARK    1  A    between atoms: C1_2  and  C2_3 
ROOT
ATOM      1  C2  UNL d   1      -0.755  -0.091  -0.779  0.00  0.00    -0.073 A 
ATOM      2  C3  UNL d   1      -1.455  -0.778   0.219  0.00  0.00    -0.002 A 
ATOM      3  C4  UNL d   1      -0.768  -1.402   1.260  0.00  0.00     0.004 A 
ATOM      4  C5  UNL d   1       0.625  -1.340   1.319  0.00  0.00    -0.004 A 
ATOM      5  C6  UNL d   1       1.342  -0.648   0.337  0.00  0.00    -0.075 A 
ATOM      6  C7  UNL d   1       2.840  -0.574   0.385  0.00  0.00     0.076 C 
ATOM      7  C8  UNL d   1       0.644  -0.027  -0.707  0.00  0.00     0.001 A 
ENDROOT
BRANCH   1   8
ATOM      8  C1  UNL d   1      -1.493   0.590  -1.903  0.00  0.00     0.053 C 
ATOM      9  C   UNL d   1      -2.412  -0.368  -2.644  0.00  0.00     0.018 C 
ENDBRANCH   1   8
TORSDOF 1
ENDMDL
