MODEL 1
REMARK minimizedAffinity -5.53124952
REMARK minimizedRMSD -1
REMARK  1 active torsions:
REMARK  status: ('A' for Active; 'I' for Inactive)
REMARK    1  A    between atoms: C1_2  and  C2_3 
ROOT
ATOM      1  C2  UNL d   1       1.707  -0.562   0.998  0.00  0.00    -0.073 A 
ATOM      2  C3  UNL d   1       2.279   0.712   1.082  0.00  0.00    -0.002 A 
ATOM      3  C4  UNL d   1       1.611   1.821   0.559  0.00  0.00     0.004 A 
ATOM      4  C5  UNL d   1       0.363   1.668  -0.045  0.00  0.00    -0.004 A 
ATOM      5  C6  UNL d   1      -0.230   0.404  -0.128  0.00  0.00    -0.075 A 
ATOM      6  C7  UNL d   1      -1.571   0.223  -0.777  0.00  0.00     0.076 C 
ATOM      7  C8  UNL d   1       0.448  -0.704   0.397  0.00  0.00     0.001 A 
ENDROOT
BRANCH   1   8
ATOM      8  C1  UNL d   1       2.421  -1.761   1.566  0.00  0.00     0.053 C 
ATOM      9  C   UNL d   1       1.453  -2.776   2.152  0.00  0.00     0.018 C 
ENDBRANCH   1   8
TORSDOF 1
ENDMDL
