MODEL 1
REMARK minimizedAffinity 0.785205305
REMARK minimizedRMSD -1
REMARK  1 active torsions:
REMARK  status: ('A' for Active; 'I' for Inactive)
REMARK    1  A    between atoms: C1_2  and  C2_3 
ROOT
ATOM      1  C2  UNL d   1       0.609   2.956   0.340  0.00  0.00    -0.073 A 
ATOM      2  C3  UNL d   1      -0.228   2.010  -0.262  0.00  0.00    -0.002 A 
ATOM      3  C4  UNL d   1      -0.060   0.650   0.002  0.00  0.00     0.004 A 
ATOM      4  C5  UNL d   1       0.941   0.223   0.874  0.00  0.00    -0.004 A 
ATOM      5  C6  UNL d   1       1.780   1.154   1.495  0.00  0.00    -0.075 A 
ATOM      6  C7  UNL d   1       2.862   0.711   2.435  0.00  0.00     0.076 C 
ATOM      7  C8  UNL d   1       1.606   2.518   1.223  0.00  0.00     0.001 A 
ENDROOT
BRANCH   1   8
ATOM      8  C1  UNL d   1       0.427   4.426   0.063  0.00  0.00     0.053 C 
ATOM      9  C   UNL d   1      -0.845   4.972   0.693  0.00  0.00     0.018 C 
ENDBRANCH   1   8
TORSDOF 1
ENDMDL
