MODEL 1
REMARK minimizedAffinity -5.32660151
REMARK minimizedRMSD -1
REMARK  1 active torsions:
REMARK  status: ('A' for Active; 'I' for Inactive)
REMARK    1  A    between atoms: C1_2  and  C2_3 
ROOT
ATOM      1  C2  UNL d   1       0.157  -0.655   0.700  0.00  0.00    -0.073 A 
ATOM      2  C3  UNL d   1      -0.470  -1.784   1.239  0.00  0.00    -0.002 A 
ATOM      3  C4  UNL d   1       0.270  -2.727   1.954  0.00  0.00     0.004 A 
ATOM      4  C5  UNL d   1       1.640  -2.547   2.143  0.00  0.00    -0.004 A 
ATOM      5  C6  UNL d   1       2.282  -1.419   1.623  0.00  0.00    -0.075 A 
ATOM      6  C7  UNL d   1       3.756  -1.211   1.817  0.00  0.00     0.076 C 
ATOM      7  C8  UNL d   1       1.533  -0.478   0.904  0.00  0.00     0.001 A 
ENDROOT
BRANCH   1   8
ATOM      8  C1  UNL d   1      -0.639   0.369  -0.067  0.00  0.00     0.053 C 
ATOM      9  C   UNL d   1      -0.600   1.736   0.597  0.00  0.00     0.018 C 
ENDBRANCH   1   8
TORSDOF 1
ENDMDL
