MODEL 1
REMARK minimizedAffinity -4.87101126
REMARK minimizedRMSD -1
REMARK  1 active torsions:
REMARK  status: ('A' for Active; 'I' for Inactive)
REMARK    1  A    between atoms: C1_2  and  C2_3 
ROOT
ATOM      1  C2  UNL d   1      -2.027  -0.206  -1.302  0.00  0.00    -0.073 A 
ATOM      2  C3  UNL d   1      -2.190  -1.351  -2.090  0.00  0.00    -0.002 A 
ATOM      3  C4  UNL d   1      -2.982  -1.309  -3.238  0.00  0.00     0.004 A 
ATOM      4  C5  UNL d   1      -3.612  -0.123  -3.614  0.00  0.00    -0.004 A 
ATOM      5  C6  UNL d   1      -3.451   1.035  -2.846  0.00  0.00    -0.075 A 
ATOM      6  C7  UNL d   1      -4.124   2.319  -3.235  0.00  0.00     0.076 C 
ATOM      7  C8  UNL d   1      -2.657   0.985  -1.693  0.00  0.00     0.001 A 
ENDROOT
BRANCH   1   8
ATOM      8  C1  UNL d   1      -1.168  -0.244  -0.064  0.00  0.00     0.053 C 
ATOM      9  C   UNL d   1      -0.140   0.876  -0.049  0.00  0.00     0.018 C 
ENDBRANCH   1   8
TORSDOF 1
ENDMDL
