MODEL 1
REMARK minimizedAffinity -4.10718346
REMARK minimizedRMSD -1
REMARK  0 active torsions:
REMARK  status: ('A' for Active; 'I' for Inactive)
ROOT
ATOM      1  C   UNL d   1       1.820   1.442  -2.250  0.00  0.00     0.077 C 
ATOM      2  C1  UNL d   1       1.171   1.022  -0.965  0.00  0.00    -0.074 A 
ATOM      3  C2  UNL d   1       1.914   0.921   0.216  0.00  0.00    -0.005 A 
ATOM      4  C3  UNL d   1       1.295   0.538   1.405  0.00  0.00     0.006 A 
ATOM      5  C4  UNL d   1      -0.071   0.253   1.427  0.00  0.00    -0.005 A 
ATOM      6  C5  UNL d   1      -0.830   0.349   0.256  0.00  0.00    -0.074 A 
ATOM      7  C6  UNL d   1      -2.301   0.056   0.264  0.00  0.00     0.077 C 
ATOM      8  C7  UNL d   1      -0.202   0.742  -0.934  0.00  0.00    -0.001 A 
ENDROOT
TORSDOF 0
ENDMDL
