MODEL 1
REMARK minimizedAffinity -3.05225706
REMARK minimizedRMSD -1
REMARK  0 active torsions:
REMARK  status: ('A' for Active; 'I' for Inactive)
ROOT
ATOM      1  C   UNL d   1       1.331  -1.318  -3.150  0.00  0.00     0.077 C 
ATOM      2  C1  UNL d   1       0.443  -0.739  -2.089  0.00  0.00    -0.074 A 
ATOM      3  C2  UNL d   1      -0.600   0.132  -2.421  0.00  0.00    -0.005 A 
ATOM      4  C3  UNL d   1      -1.424   0.655  -1.425  0.00  0.00     0.006 A 
ATOM      5  C4  UNL d   1      -1.214   0.314  -0.088  0.00  0.00    -0.005 A 
ATOM      6  C5  UNL d   1      -0.177  -0.556   0.263  0.00  0.00    -0.074 A 
ATOM      7  C6  UNL d   1       0.056  -0.942   1.694  0.00  0.00     0.077 C 
ATOM      8  C7  UNL d   1       0.642  -1.084  -0.745  0.00  0.00    -0.001 A 
ENDROOT
TORSDOF 0
ENDMDL
