MODEL 1
REMARK minimizedAffinity -3.90498638
REMARK minimizedRMSD -1
REMARK  0 active torsions:
REMARK  status: ('A' for Active; 'I' for Inactive)
ROOT
ATOM      1  C   UNL d   1      -0.392  -1.129   2.562  0.00  0.00     0.077 C 
ATOM      2  C1  UNL d   1      -0.717  -0.448   1.266  0.00  0.00    -0.074 A 
ATOM      3  C2  UNL d   1      -2.044  -0.246   0.873  0.00  0.00    -0.005 A 
ATOM      4  C3  UNL d   1      -2.331   0.397  -0.331  0.00  0.00     0.006 A 
ATOM      5  C4  UNL d   1      -1.296   0.843  -1.153  0.00  0.00    -0.005 A 
ATOM      6  C5  UNL d   1       0.037   0.651  -0.776  0.00  0.00    -0.074 A 
ATOM      7  C6  UNL d   1       1.161   1.134  -1.644  0.00  0.00     0.077 C 
ATOM      8  C7  UNL d   1       0.317   0.010   0.438  0.00  0.00    -0.001 A 
ENDROOT
TORSDOF 0
ENDMDL
