MODEL 1
REMARK minimizedAffinity -4.33099794
REMARK minimizedRMSD -1
REMARK  0 active torsions:
REMARK  status: ('A' for Active; 'I' for Inactive)
ROOT
ATOM      1  C   UNL d   1       0.764   0.644   0.329  0.00  0.00     0.077 C 
ATOM      2  C1  UNL d   1       1.215  -0.033  -0.930  0.00  0.00    -0.074 A 
ATOM      3  C2  UNL d   1       0.689  -1.273  -1.308  0.00  0.00    -0.005 A 
ATOM      4  C3  UNL d   1       1.111  -1.886  -2.487  0.00  0.00     0.006 A 
ATOM      5  C4  UNL d   1       2.062  -1.268  -3.300  0.00  0.00    -0.005 A 
ATOM      6  C5  UNL d   1       2.599  -0.028  -2.939  0.00  0.00    -0.074 A 
ATOM      7  C6  UNL d   1       3.615   0.655  -3.805  0.00  0.00     0.077 C 
ATOM      8  C7  UNL d   1       2.165   0.586  -1.756  0.00  0.00    -0.001 A 
ENDROOT
TORSDOF 0
ENDMDL
