MODEL 1
REMARK minimizedAffinity -3.08505845
REMARK minimizedRMSD -1
REMARK  0 active torsions:
REMARK  status: ('A' for Active; 'I' for Inactive)
ROOT
ATOM      1  C   UNL d   1      -1.897   0.793  -0.878  0.00  0.00     0.077 C 
ATOM      2  C1  UNL d   1      -0.750   0.673   0.080  0.00  0.00    -0.074 A 
ATOM      3  C2  UNL d   1       0.521   1.150  -0.257  0.00  0.00    -0.005 A 
ATOM      4  C3  UNL d   1       1.577   1.041   0.648  0.00  0.00     0.006 A 
ATOM      5  C4  UNL d   1       1.372   0.455   1.898  0.00  0.00    -0.005 A 
ATOM      6  C5  UNL d   1       0.108  -0.027   2.253  0.00  0.00    -0.074 A 
ATOM      7  C6  UNL d   1      -0.130  -0.650   3.596  0.00  0.00     0.077 C 
ATOM      8  C7  UNL d   1      -0.949   0.093   1.341  0.00  0.00    -0.001 A 
ENDROOT
TORSDOF 0
ENDMDL
