MODEL 1
REMARK minimizedAffinity -4.20510817
REMARK minimizedRMSD -1
REMARK  0 active torsions:
REMARK  status: ('A' for Active; 'I' for Inactive)
ROOT
ATOM      1  C   UNL d   1      -1.931  -0.628   0.608  0.00  0.00     0.077 C 
ATOM      2  C1  UNL d   1      -0.719   0.095   0.101  0.00  0.00    -0.074 A 
ATOM      3  C2  UNL d   1       0.088   0.839   0.967  0.00  0.00    -0.005 A 
ATOM      4  C3  UNL d   1       1.218   1.499   0.483  0.00  0.00     0.006 A 
ATOM      5  C4  UNL d   1       1.552   1.420  -0.869  0.00  0.00    -0.005 A 
ATOM      6  C5  UNL d   1       0.757   0.679  -1.750  0.00  0.00    -0.074 A 
ATOM      7  C6  UNL d   1       1.107   0.577  -3.205  0.00  0.00     0.077 C 
ATOM      8  C7  UNL d   1      -0.373   0.014  -1.255  0.00  0.00    -0.001 A 
ENDROOT
TORSDOF 0
ENDMDL
