MODEL 1
REMARK minimizedAffinity -4.05886507
REMARK minimizedRMSD -1
REMARK  0 active torsions:
REMARK  status: ('A' for Active; 'I' for Inactive)
ROOT
ATOM      1  C   UNL d   1      -2.371   0.896  -1.636  0.00  0.00     0.077 C 
ATOM      2  C1  UNL d   1      -1.266   0.679  -0.645  0.00  0.00    -0.074 A 
ATOM      3  C2  UNL d   1       0.055   1.016  -0.956  0.00  0.00    -0.005 A 
ATOM      4  C3  UNL d   1       1.070   0.817  -0.021  0.00  0.00     0.006 A 
ATOM      5  C4  UNL d   1       0.776   0.279   1.233  0.00  0.00    -0.005 A 
ATOM      6  C5  UNL d   1      -0.540  -0.064   1.561  0.00  0.00    -0.074 A 
ATOM      7  C6  UNL d   1      -0.875  -0.635   2.907  0.00  0.00     0.077 C 
ATOM      8  C7  UNL d   1      -1.556   0.146   0.619  0.00  0.00    -0.001 A 
ENDROOT
TORSDOF 0
ENDMDL
