MODEL 1
REMARK minimizedAffinity -4.90614414
REMARK minimizedRMSD -1
REMARK  0 active torsions:
REMARK  status: ('A' for Active; 'I' for Inactive)
ROOT
ATOM      1  C   UNL d   1      -0.076   0.686   2.306  0.00  0.00     0.077 C 
ATOM      2  C1  UNL d   1      -0.319   0.888   0.840  0.00  0.00    -0.074 A 
ATOM      3  C2  UNL d   1      -1.616   1.046   0.341  0.00  0.00    -0.005 A 
ATOM      4  C3  UNL d   1      -1.826   1.242  -1.024  0.00  0.00     0.006 A 
ATOM      5  C4  UNL d   1      -0.743   1.283  -1.902  0.00  0.00    -0.005 A 
ATOM      6  C5  UNL d   1       0.561   1.127  -1.422  0.00  0.00    -0.074 A 
ATOM      7  C6  UNL d   1       1.738   1.178  -2.351  0.00  0.00     0.077 C 
ATOM      8  C7  UNL d   1       0.764   0.937  -0.048  0.00  0.00    -0.001 A 
ENDROOT
TORSDOF 0
ENDMDL
