MODEL 1
REMARK minimizedAffinity 3.8783102
REMARK minimizedRMSD -1
REMARK  0 active torsions:
REMARK  status: ('A' for Active; 'I' for Inactive)
ROOT
ATOM      1  C   UNL d   1      -0.848  -1.563   4.009  0.00  0.00     0.077 C 
ATOM      2  C1  UNL d   1      -0.045  -0.532   3.273  0.00  0.00    -0.074 A 
ATOM      3  C2  UNL d   1      -0.643   0.637   2.793  0.00  0.00    -0.005 A 
ATOM      4  C3  UNL d   1       0.119   1.591   2.118  0.00  0.00     0.006 A 
ATOM      5  C4  UNL d   1       1.484   1.386   1.918  0.00  0.00    -0.005 A 
ATOM      6  C5  UNL d   1       2.100   0.224   2.392  0.00  0.00    -0.074 A 
ATOM      7  C6  UNL d   1       3.569  -0.008   2.193  0.00  0.00     0.077 C 
ATOM      8  C7  UNL d   1       1.330  -0.727   3.075  0.00  0.00    -0.001 A 
ENDROOT
TORSDOF 0
ENDMDL
