MODEL 1
REMARK minimizedAffinity 2.55166483
REMARK minimizedRMSD -1
REMARK  0 active torsions:
REMARK  status: ('A' for Active; 'I' for Inactive)
ROOT
ATOM      1  C   UNL d   1      -3.321   2.612   3.334  0.00  0.00     0.077 C 
ATOM      2  C1  UNL d   1      -3.513   1.527   2.317  0.00  0.00    -0.074 A 
ATOM      3  C2  UNL d   1      -4.155   0.331   2.655  0.00  0.00    -0.005 A 
ATOM      4  C3  UNL d   1      -4.334  -0.666   1.696  0.00  0.00     0.006 A 
ATOM      5  C4  UNL d   1      -3.874  -0.477   0.392  0.00  0.00    -0.005 A 
ATOM      6  C5  UNL d   1      -3.231   0.712   0.036  0.00  0.00    -0.074 A 
ATOM      7  C6  UNL d   1      -2.739   0.935  -1.364  0.00  0.00     0.077 C 
ATOM      8  C7  UNL d   1      -3.060   1.712   1.003  0.00  0.00    -0.001 A 
ENDROOT
TORSDOF 0
ENDMDL
