MODEL 1
REMARK minimizedAffinity -4.59350538
REMARK minimizedRMSD -1
REMARK  0 active torsions:
REMARK  status: ('A' for Active; 'I' for Inactive)
ROOT
ATOM      1  C   UNL d   1      -1.283  -1.069   3.239  0.00  0.00     0.077 C 
ATOM      2  C1  UNL d   1      -0.440  -0.440   2.170  0.00  0.00    -0.074 A 
ATOM      3  C2  UNL d   1      -1.001  -0.041   0.953  0.00  0.00    -0.005 A 
ATOM      4  C3  UNL d   1      -0.206   0.552  -0.027  0.00  0.00     0.006 A 
ATOM      5  C4  UNL d   1       1.156   0.753   0.199  0.00  0.00    -0.005 A 
ATOM      6  C5  UNL d   1       1.735   0.362   1.411  0.00  0.00    -0.074 A 
ATOM      7  C6  UNL d   1       3.196   0.579   1.675  0.00  0.00     0.077 C 
ATOM      8  C7  UNL d   1       0.928  -0.228   2.394  0.00  0.00    -0.001 A 
ENDROOT
TORSDOF 0
ENDMDL
