MODEL 1
REMARK minimizedAffinity -5.43356705
REMARK minimizedRMSD -1
REMARK  0 active torsions:
REMARK  status: ('A' for Active; 'I' for Inactive)
ROOT
ATOM      1  C   UNL d   1      -1.419   1.086  -0.722  0.00  0.00     0.077 C 
ATOM      2  C1  UNL d   1      -0.827   0.528   0.538  0.00  0.00    -0.074 A 
ATOM      3  C2  UNL d   1      -1.617  -0.177   1.452  0.00  0.00    -0.005 A 
ATOM      4  C3  UNL d   1      -1.051  -0.699   2.615  0.00  0.00     0.006 A 
ATOM      5  C4  UNL d   1       0.308  -0.522   2.876  0.00  0.00    -0.005 A 
ATOM      6  C5  UNL d   1       1.114   0.179   1.973  0.00  0.00    -0.074 A 
ATOM      7  C6  UNL d   1       2.579   0.370   2.233  0.00  0.00     0.077 C 
ATOM      8  C7  UNL d   1       0.539   0.694   0.803  0.00  0.00    -0.001 A 
ENDROOT
TORSDOF 0
ENDMDL
