MODEL 1
REMARK minimizedAffinity -4.66939116
REMARK minimizedRMSD -1
REMARK  0 active torsions:
REMARK  status: ('A' for Active; 'I' for Inactive)
ROOT
ATOM      1  C   UNL d   1       0.710   0.723  -1.789  0.00  0.00     0.077 C 
ATOM      2  C1  UNL d   1       1.807   0.505  -2.789  0.00  0.00    -0.074 A 
ATOM      3  C2  UNL d   1       1.951  -0.723  -3.441  0.00  0.00    -0.005 A 
ATOM      4  C3  UNL d   1       2.970  -0.908  -4.376  0.00  0.00     0.006 A 
ATOM      5  C4  UNL d   1       3.853   0.132  -4.667  0.00  0.00    -0.005 A 
ATOM      6  C5  UNL d   1       3.724   1.368  -4.025  0.00  0.00    -0.074 A 
ATOM      7  C6  UNL d   1       4.659   2.499  -4.333  0.00  0.00     0.077 C 
ATOM      8  C7  UNL d   1       2.693   1.548  -3.092  0.00  0.00    -0.001 A 
ENDROOT
TORSDOF 0
ENDMDL
