MODEL 1
REMARK minimizedAffinity -2.53824234
REMARK minimizedRMSD -1
REMARK  0 active torsions:
REMARK  status: ('A' for Active; 'I' for Inactive)
ROOT
ATOM      1  C   UNL d   1      -3.051   1.106  -0.850  0.00  0.00     0.077 C 
ATOM      2  C1  UNL d   1      -1.800   0.566  -0.224  0.00  0.00    -0.074 A 
ATOM      3  C2  UNL d   1      -0.618   0.451  -0.963  0.00  0.00    -0.005 A 
ATOM      4  C3  UNL d   1       0.540  -0.044  -0.364  0.00  0.00     0.006 A 
ATOM      5  C4  UNL d   1       0.529  -0.428   0.978  0.00  0.00    -0.005 A 
ATOM      6  C5  UNL d   1      -0.643  -0.319   1.733  0.00  0.00    -0.074 A 
ATOM      7  C6  UNL d   1      -0.670  -0.717   3.179  0.00  0.00     0.077 C 
ATOM      8  C7  UNL d   1      -1.801   0.186   1.126  0.00  0.00    -0.001 A 
ENDROOT
TORSDOF 0
ENDMDL
