MODEL 1
REMARK minimizedAffinity -3.9702704
REMARK minimizedRMSD -1
REMARK  2 active torsions:
REMARK  status: ('A' for Active; 'I' for Inactive)
REMARK    1  A    between atoms: C1_2  and  C2_3 
REMARK    2  A    between atoms: C2_3  and  C3_4 
ROOT
ATOM      1  C3  UNL d   1      -1.076  -5.194   3.201  0.00  0.00    -0.075 A 
ATOM      2  C4  UNL d   1      -0.355  -4.040   3.541  0.00  0.00     0.002 A 
ATOM      3  C5  UNL d   1      -0.310  -3.597   4.863  0.00  0.00     0.002 A 
ATOM      4  C6  UNL d   1      -0.992  -4.294   5.858  0.00  0.00    -0.004 A 
ATOM      5  C7  UNL d   1      -1.726  -5.432   5.529  0.00  0.00     0.002 A 
ATOM      6  C8  UNL d   1      -1.769  -5.880   4.207  0.00  0.00     0.002 A 
ENDROOT
BRANCH   1   7
ATOM      7  C2  UNL d   1      -1.105  -5.695   1.777  0.00  0.00     0.056 C 
BRANCH   7   8
ATOM      8  C1  UNL d   1      -1.591  -4.657   0.760  0.00  0.00     0.007 C 
ATOM      9  C   UNL d   1      -1.667  -5.199  -0.662  0.00  0.00     0.009 C 
ENDBRANCH   7   8
ENDBRANCH   1   7
TORSDOF 2
ENDMDL
