MODEL 1
REMARK minimizedAffinity 4.49146318
REMARK minimizedRMSD -1
REMARK  2 active torsions:
REMARK  status: ('A' for Active; 'I' for Inactive)
REMARK    1  A    between atoms: C1_2  and  C2_3 
REMARK    2  A    between atoms: C2_3  and  C3_4 
ROOT
ATOM      1  C3  UNL d   1      -2.611  -0.716   2.969  0.00  0.00    -0.075 A 
ATOM      2  C4  UNL d   1      -2.522  -1.124   4.308  0.00  0.00     0.002 A 
ATOM      3  C5  UNL d   1      -1.692  -0.447   5.201  0.00  0.00     0.002 A 
ATOM      4  C6  UNL d   1      -0.934   0.638   4.766  0.00  0.00    -0.004 A 
ATOM      5  C7  UNL d   1      -1.001   1.042   3.435  0.00  0.00     0.002 A 
ATOM      6  C8  UNL d   1      -1.835   0.369   2.540  0.00  0.00     0.002 A 
ENDROOT
BRANCH   1   7
ATOM      7  C2  UNL d   1      -3.530  -1.426   2.004  0.00  0.00     0.056 C 
BRANCH   7   8
ATOM      8  C1  UNL d   1      -4.709  -0.573   1.524  0.00  0.00     0.007 C 
ATOM      9  C   UNL d   1      -5.675  -1.336   0.626  0.00  0.00     0.009 C 
ENDBRANCH   7   8
ENDBRANCH   1   7
TORSDOF 2
ENDMDL
