MODEL 1
REMARK minimizedAffinity 0.808780432
REMARK minimizedRMSD -1
REMARK  2 active torsions:
REMARK  status: ('A' for Active; 'I' for Inactive)
REMARK    1  A    between atoms: C1_2  and  C2_3 
REMARK    2  A    between atoms: C2_3  and  C3_4 
ROOT
ATOM      1  C3  UNL d   1      -2.321  -0.124   1.916  0.00  0.00    -0.075 A 
ATOM      2  C4  UNL d   1      -1.773  -1.133   1.110  0.00  0.00     0.002 A 
ATOM      3  C5  UNL d   1      -2.523  -1.702   0.080  0.00  0.00     0.002 A 
ATOM      4  C6  UNL d   1      -3.830  -1.279  -0.149  0.00  0.00    -0.004 A 
ATOM      5  C7  UNL d   1      -4.391  -0.290   0.656  0.00  0.00     0.002 A 
ATOM      6  C8  UNL d   1      -3.641   0.285   1.684  0.00  0.00     0.002 A 
ENDROOT
BRANCH   1   7
ATOM      7  C2  UNL d   1      -1.505   0.517   3.013  0.00  0.00     0.056 C 
BRANCH   7   8
ATOM      8  C1  UNL d   1      -0.894   1.868   2.627  0.00  0.00     0.007 C 
ATOM      9  C   UNL d   1       0.002   2.454   3.710  0.00  0.00     0.009 C 
ENDBRANCH   7   8
ENDBRANCH   1   7
TORSDOF 2
ENDMDL
