MODEL 1
REMARK minimizedAffinity 3.96699715
REMARK minimizedRMSD -1
REMARK  2 active torsions:
REMARK  status: ('A' for Active; 'I' for Inactive)
REMARK    1  A    between atoms: C1_2  and  C2_3 
REMARK    2  A    between atoms: C2_3  and  C3_4 
ROOT
ATOM      1  C3  UNL d   1      -2.078  -0.493   2.797  0.00  0.00    -0.075 A 
ATOM      2  C4  UNL d   1      -2.143  -1.074   4.072  0.00  0.00     0.002 A 
ATOM      3  C5  UNL d   1      -1.394  -0.551   5.128  0.00  0.00     0.002 A 
ATOM      4  C6  UNL d   1      -0.566   0.549   4.920  0.00  0.00    -0.004 A 
ATOM      5  C7  UNL d   1      -0.481   1.124   3.653  0.00  0.00     0.002 A 
ATOM      6  C8  UNL d   1      -1.233   0.606   2.597  0.00  0.00     0.002 A 
ENDROOT
BRANCH   1   7
ATOM      7  C2  UNL d   1      -2.908  -1.036   1.659  0.00  0.00     0.056 C 
BRANCH   7   8
ATOM      8  C1  UNL d   1      -4.190  -0.241   1.387  0.00  0.00     0.007 C 
ATOM      9  C   UNL d   1      -5.249  -1.045   0.645  0.00  0.00     0.009 C 
ENDBRANCH   7   8
ENDBRANCH   1   7
TORSDOF 2
ENDMDL
