MODEL 1
REMARK minimizedAffinity -4.05843401
REMARK minimizedRMSD -1
REMARK  2 active torsions:
REMARK  status: ('A' for Active; 'I' for Inactive)
REMARK    1  A    between atoms: C1_2  and  C2_3 
REMARK    2  A    between atoms: C2_3  and  C3_4 
ROOT
ATOM      1  C3  UNL d   1      -5.043   5.517   3.314  0.00  0.00    -0.075 A 
ATOM      2  C4  UNL d   1      -4.082   6.000   4.214  0.00  0.00     0.002 A 
ATOM      3  C5  UNL d   1      -4.046   5.533   5.529  0.00  0.00     0.002 A 
ATOM      4  C6  UNL d   1      -4.974   4.588   5.961  0.00  0.00    -0.004 A 
ATOM      5  C7  UNL d   1      -5.943   4.114   5.080  0.00  0.00     0.002 A 
ATOM      6  C8  UNL d   1      -5.978   4.576   3.763  0.00  0.00     0.002 A 
ENDROOT
BRANCH   1   7
ATOM      7  C2  UNL d   1      -5.068   5.996   1.882  0.00  0.00     0.056 C 
BRANCH   7   8
ATOM      8  C1  UNL d   1      -3.745   5.799   1.134  0.00  0.00     0.007 C 
ATOM      9  C   UNL d   1      -2.521   5.998   2.018  0.00  0.00     0.009 C 
ENDBRANCH   7   8
ENDBRANCH   1   7
TORSDOF 2
ENDMDL
