MODEL 1
REMARK minimizedAffinity -0.164582133
REMARK minimizedRMSD -1
REMARK  0 active torsions:
REMARK  status: ('A' for Active; 'I' for Inactive)
ROOT
ATOM      1  C1  DEN d   1       3.494  -2.111   5.965  0.00  0.00     0.130 A 
ATOM      2  C2  DEN d   1       2.873  -1.372   4.869  0.00  0.00    -0.031 A 
ATOM      3  C3  DEN d   1       3.396  -1.916   3.599  0.00  0.00     0.027 A 
ATOM      4  C4  DEN d   1       5.093  -3.821   3.225  0.00  0.00     0.027 A 
ATOM      5  C5  DEN d   1       5.905  -4.741   3.853  0.00  0.00    -0.003 A 
ATOM      6  C6  DEN d   1       5.995  -4.825   5.217  0.00  0.00     0.001 A 
ATOM      7  C7  DEN d   1       5.226  -4.004   5.999  0.00  0.00     0.017 A 
ATOM      8  C8  DEN d   1       4.411  -3.069   5.374  0.00  0.00    -0.094 A 
ATOM      9  C9  DEN d   1       4.325  -3.008   3.994  0.00  0.00    -0.072 A 
ENDROOT
TORSDOF 0
ENDMDL
