MODEL 1
REMARK minimizedAffinity -2.33612013
REMARK minimizedRMSD -1
REMARK  0 active torsions:
REMARK  status: ('A' for Active; 'I' for Inactive)
ROOT
ATOM      1  C1  DEN d   1       0.119  -1.196   0.804  0.00  0.00     0.130 A 
ATOM      2  C2  DEN d   1      -0.439  -2.024   1.871  0.00  0.00    -0.031 A 
ATOM      3  C3  DEN d   1      -0.706  -3.365   1.315  0.00  0.00     0.027 A 
ATOM      4  C4  DEN d   1      -0.309  -4.238  -1.080  0.00  0.00     0.027 A 
ATOM      5  C5  DEN d   1       0.137  -3.900  -2.338  0.00  0.00    -0.003 A 
ATOM      6  C6  DEN d   1       0.572  -2.637  -2.644  0.00  0.00     0.001 A 
ATOM      7  C7  DEN d   1       0.614  -1.679  -1.667  0.00  0.00     0.017 A 
ATOM      8  C8  DEN d   1       0.159  -2.010  -0.397  0.00  0.00    -0.094 A 
ATOM      9  C9  DEN d   1      -0.265  -3.295  -0.105  0.00  0.00    -0.072 A 
ENDROOT
TORSDOF 0
ENDMDL
