MODEL 1
REMARK minimizedAffinity 1.37737226
REMARK minimizedRMSD -1
REMARK  0 active torsions:
REMARK  status: ('A' for Active; 'I' for Inactive)
ROOT
ATOM      1  C1  DEN d   1      -0.533  -0.617  -1.524  0.00  0.00     0.130 A 
ATOM      2  C2  DEN d   1       0.511  -1.223  -2.345  0.00  0.00    -0.031 A 
ATOM      3  C3  DEN d   1       1.046  -2.390  -1.615  0.00  0.00     0.027 A 
ATOM      4  C4  DEN d   1       0.359  -3.315   0.692  0.00  0.00     0.027 A 
ATOM      5  C5  DEN d   1      -0.474  -3.129   1.773  0.00  0.00    -0.003 A 
ATOM      6  C6  DEN d   1      -1.354  -2.082   1.846  0.00  0.00     0.001 A 
ATOM      7  C7  DEN d   1      -1.453  -1.205   0.798  0.00  0.00     0.017 A 
ATOM      8  C8  DEN d   1      -0.611  -1.382  -0.292  0.00  0.00    -0.094 A 
ATOM      9  C9  DEN d   1       0.263  -2.454  -0.352  0.00  0.00    -0.072 A 
ENDROOT
TORSDOF 0
ENDMDL
