MODEL 1
REMARK minimizedAffinity 10.4729242
REMARK minimizedRMSD -1
REMARK  0 active torsions:
REMARK  status: ('A' for Active; 'I' for Inactive)
ROOT
ATOM      1  C1  DEN d   1      -0.116  -0.479  -1.401  0.00  0.00     0.130 A 
ATOM      2  C2  DEN d   1       1.094  -0.552  -2.216  0.00  0.00    -0.031 A 
ATOM      3  C3  DEN d   1       1.771  -1.830  -1.915  0.00  0.00     0.027 A 
ATOM      4  C4  DEN d   1       1.064  -3.694  -0.278  0.00  0.00     0.027 A 
ATOM      5  C5  DEN d   1       0.117  -4.078   0.645  0.00  0.00    -0.003 A 
ATOM      6  C6  DEN d   1      -0.948  -3.281   0.973  0.00  0.00     0.001 A 
ATOM      7  C7  DEN d   1      -1.115  -2.077   0.340  0.00  0.00     0.017 A 
ATOM      8  C8  DEN d   1      -0.160  -1.680  -0.586  0.00  0.00    -0.094 A 
ATOM      9  C9  DEN d   1       0.902  -2.506  -0.914  0.00  0.00    -0.072 A 
ENDROOT
TORSDOF 0
ENDMDL
