MODEL 1
REMARK minimizedAffinity 6.84193659
REMARK minimizedRMSD -1
REMARK  0 active torsions:
REMARK  status: ('A' for Active; 'I' for Inactive)
ROOT
ATOM      1  C1  DEN d   1      -0.065  -0.376  -1.542  0.00  0.00     0.130 A 
ATOM      2  C2  DEN d   1       1.165  -0.625  -2.290  0.00  0.00    -0.031 A 
ATOM      3  C3  DEN d   1       1.724  -1.913  -1.835  0.00  0.00     0.027 A 
ATOM      4  C4  DEN d   1       0.807  -3.542  -0.057  0.00  0.00     0.027 A 
ATOM      5  C5  DEN d   1      -0.203  -3.756   0.855  0.00  0.00    -0.003 A 
ATOM      6  C6  DEN d   1      -1.210  -2.850   1.055  0.00  0.00     0.001 A 
ATOM      7  C7  DEN d   1      -1.255  -1.708   0.300  0.00  0.00     0.017 A 
ATOM      8  C8  DEN d   1      -0.237  -1.482  -0.617  0.00  0.00    -0.094 A 
ATOM      9  C9  DEN d   1       0.766  -2.415  -0.812  0.00  0.00    -0.072 A 
ENDROOT
TORSDOF 0
ENDMDL
