MODEL 1
REMARK minimizedAffinity 12.5038147
REMARK minimizedRMSD -1
REMARK  0 active torsions:
REMARK  status: ('A' for Active; 'I' for Inactive)
ROOT
ATOM      1  C1  DEN d   1       0.410   2.682  -0.276  0.00  0.00     0.130 A 
ATOM      2  C2  DEN d   1       1.270   3.248   0.760  0.00  0.00    -0.031 A 
ATOM      3  C3  DEN d   1       2.489   2.419   0.846  0.00  0.00     0.027 A 
ATOM      4  C4  DEN d   1       3.127   0.327  -0.521  0.00  0.00     0.027 A 
ATOM      5  C5  DEN d   1       2.711  -0.539  -1.508  0.00  0.00    -0.003 A 
ATOM      6  C6  DEN d   1       1.495  -0.413  -2.125  0.00  0.00     0.001 A 
ATOM      7  C7  DEN d   1       0.670   0.629  -1.792  0.00  0.00     0.017 A 
ATOM      8  C8  DEN d   1       1.079   1.501  -0.792  0.00  0.00    -0.094 A 
ATOM      9  C9  DEN d   1       2.318   1.365  -0.190  0.00  0.00    -0.072 A 
ENDROOT
TORSDOF 0
ENDMDL
