MODEL 1
REMARK minimizedAffinity 3.04613662
REMARK minimizedRMSD -1
REMARK  0 active torsions:
REMARK  status: ('A' for Active; 'I' for Inactive)
ROOT
ATOM      1  C1  DEN d   1       0.575  -0.949  -1.852  0.00  0.00     0.130 A 
ATOM      2  C2  DEN d   1       1.237  -1.599  -2.980  0.00  0.00    -0.031 A 
ATOM      3  C3  DEN d   1       1.401  -3.029  -2.649  0.00  0.00     0.027 A 
ATOM      4  C4  DEN d   1       0.695  -4.293  -0.514  0.00  0.00     0.027 A 
ATOM      5  C5  DEN d   1       0.109  -4.162   0.726  0.00  0.00    -0.003 A 
ATOM      6  C6  DEN d   1      -0.328  -2.955   1.203  0.00  0.00     0.001 A 
ATOM      7  C7  DEN d   1      -0.227  -1.837   0.417  0.00  0.00     0.017 A 
ATOM      8  C8  DEN d   1       0.369  -1.960  -0.831  0.00  0.00    -0.094 A 
ATOM      9  C9  DEN d   1       0.794  -3.191  -1.300  0.00  0.00    -0.072 A 
ENDROOT
TORSDOF 0
ENDMDL
