MODEL 1
REMARK minimizedAffinity 5.90933561
REMARK minimizedRMSD -1
REMARK  0 active torsions:
REMARK  status: ('A' for Active; 'I' for Inactive)
ROOT
ATOM      1  C1  DEN d   1       5.227   2.242  -2.543  0.00  0.00     0.130 A 
ATOM      2  C2  DEN d   1       3.930   1.821  -2.019  0.00  0.00    -0.031 A 
ATOM      3  C3  DEN d   1       2.963   2.908  -2.269  0.00  0.00     0.027 A 
ATOM      4  C4  DEN d   1       3.343   5.187  -3.415  0.00  0.00     0.027 A 
ATOM      5  C5  DEN d   1       4.280   6.000  -4.015  0.00  0.00    -0.003 A 
ATOM      6  C6  DEN d   1       5.594   5.634  -4.134  0.00  0.00     0.001 A 
ATOM      7  C7  DEN d   1       6.000   4.404  -3.688  0.00  0.00     0.017 A 
ATOM      8  C8  DEN d   1       5.063   3.582  -3.076  0.00  0.00    -0.094 A 
ATOM      9  C9  DEN d   1       3.736   3.965  -2.975  0.00  0.00    -0.072 A 
ENDROOT
TORSDOF 0
ENDMDL
