MODEL 1
REMARK minimizedAffinity 10.3849173
REMARK minimizedRMSD -1
REMARK  0 active torsions:
REMARK  status: ('A' for Active; 'I' for Inactive)
ROOT
ATOM      1  C1  DEN d   1       0.358  -0.632  -1.484  0.00  0.00     0.130 A 
ATOM      2  C2  DEN d   1       0.924  -0.868  -2.809  0.00  0.00    -0.031 A 
ATOM      3  C3  DEN d   1       1.251  -2.304  -2.916  0.00  0.00     0.027 A 
ATOM      4  C4  DEN d   1       0.934  -4.175  -1.170  0.00  0.00     0.027 A 
ATOM      5  C5  DEN d   1       0.502  -4.458   0.107  0.00  0.00    -0.003 A 
ATOM      6  C6  DEN d   1       0.027  -3.487   0.949  0.00  0.00     0.001 A 
ATOM      7  C7  DEN d   1      -0.069  -2.193   0.507  0.00  0.00     0.017 A 
ATOM      8  C8  DEN d   1       0.371  -1.900  -0.777  0.00  0.00    -0.094 A 
ATOM      9  C9  DEN d   1       0.837  -2.898  -1.616  0.00  0.00    -0.072 A 
ENDROOT
TORSDOF 0
ENDMDL
