MODEL 1
REMARK minimizedAffinity 13.5711517
REMARK minimizedRMSD -1
REMARK  0 active torsions:
REMARK  status: ('A' for Active; 'I' for Inactive)
ROOT
ATOM      1  C1  DEN d   1      -2.080   4.924  -0.635  0.00  0.00     0.130 A 
ATOM      2  C2  DEN d   1      -1.329   6.000   0.006  0.00  0.00    -0.031 A 
ATOM      3  C3  DEN d   1      -0.002   5.470   0.381  0.00  0.00     0.027 A 
ATOM      4  C4  DEN d   1       0.959   3.103   0.029  0.00  0.00     0.027 A 
ATOM      5  C5  DEN d   1       0.690   1.844  -0.461  0.00  0.00    -0.003 A 
ATOM      6  C6  DEN d   1      -0.522   1.517  -1.008  0.00  0.00     0.001 A 
ATOM      7  C7  DEN d   1      -1.497   2.473  -1.120  0.00  0.00     0.017 A 
ATOM      8  C8  DEN d   1      -1.236   3.742  -0.621  0.00  0.00    -0.094 A 
ATOM      9  C9  DEN d   1      -0.000   4.057  -0.083  0.00  0.00    -0.072 A 
ENDROOT
TORSDOF 0
ENDMDL
