MODEL 1
REMARK minimizedAffinity 8.49421597
REMARK minimizedRMSD -1
REMARK  0 active torsions:
REMARK  status: ('A' for Active; 'I' for Inactive)
ROOT
ATOM      1  C1  DEN d   1       2.568  -0.732  -0.287  0.00  0.00     0.130 A 
ATOM      2  C2  DEN d   1       3.463  -0.652   0.864  0.00  0.00    -0.031 A 
ATOM      3  C3  DEN d   1       3.161  -1.789   1.757  0.00  0.00     0.027 A 
ATOM      4  C4  DEN d   1       1.407  -3.659   1.466  0.00  0.00     0.027 A 
ATOM      5  C5  DEN d   1       0.406  -4.141   0.653  0.00  0.00    -0.003 A 
ATOM      6  C6  DEN d   1       0.034  -3.508  -0.503  0.00  0.00     0.001 A 
ATOM      7  C7  DEN d   1       0.700  -2.380  -0.903  0.00  0.00     0.017 A 
ATOM      8  C8  DEN d   1       1.707  -1.883  -0.085  0.00  0.00    -0.094 A 
ATOM      9  C9  DEN d   1       2.075  -2.544   1.074  0.00  0.00    -0.072 A 
ENDROOT
TORSDOF 0
ENDMDL
