MODEL 1
REMARK minimizedAffinity -0.36435768
REMARK minimizedRMSD -1
REMARK  0 active torsions:
REMARK  status: ('A' for Active; 'I' for Inactive)
ROOT
ATOM      1  C1  DEN d   1      -1.155  -0.491   1.755  0.00  0.00     0.130 A 
ATOM      2  C2  DEN d   1      -1.341  -1.846   1.243  0.00  0.00    -0.031 A 
ATOM      3  C3  DEN d   1      -0.610  -1.955  -0.035  0.00  0.00     0.027 A 
ATOM      4  C4  DEN d   1       0.787  -0.169  -1.263  0.00  0.00     0.027 A 
ATOM      5  C5  DEN d   1       1.226   1.136  -1.224  0.00  0.00    -0.003 A 
ATOM      6  C6  DEN d   1       0.876   1.994  -0.214  0.00  0.00     0.001 A 
ATOM      7  C7  DEN d   1       0.101   1.542   0.822  0.00  0.00     0.017 A 
ATOM      8  C8  DEN d   1      -0.351   0.230   0.785  0.00  0.00    -0.094 A 
ATOM      9  C9  DEN d   1       0.024  -0.625  -0.238  0.00  0.00    -0.072 A 
ENDROOT
TORSDOF 0
ENDMDL
