MODEL 1
REMARK minimizedAffinity -6.05161667
REMARK minimizedRMSD -1
REMARK  0 active torsions:
REMARK  status: ('A' for Active; 'I' for Inactive)
ROOT
ATOM      1  C1  DEN d   1       0.560   0.462  -1.141  0.00  0.00     0.130 A 
ATOM      2  C2  DEN d   1      -0.385   1.170  -0.282  0.00  0.00    -0.031 A 
ATOM      3  C3  DEN d   1      -1.068   0.172   0.566  0.00  0.00     0.027 A 
ATOM      4  C4  DEN d   1      -0.751  -2.387   0.635  0.00  0.00     0.027 A 
ATOM      5  C5  DEN d   1      -0.069  -3.449   0.083  0.00  0.00    -0.003 A 
ATOM      6  C6  DEN d   1       0.838  -3.287  -0.931  0.00  0.00     0.001 A 
ATOM      7  C7  DEN d   1       1.121  -2.029  -1.394  0.00  0.00     0.017 A 
ATOM      8  C8  DEN d   1       0.432  -0.954  -0.847  0.00  0.00    -0.094 A 
ATOM      9  C9  DEN d   1      -0.472  -1.137   0.185  0.00  0.00    -0.072 A 
ENDROOT
TORSDOF 0
ENDMDL
