MODEL 1
REMARK minimizedAffinity 5.31550407
REMARK minimizedRMSD -1
REMARK  0 active torsions:
REMARK  status: ('A' for Active; 'I' for Inactive)
ROOT
ATOM      1  C1  DEN d   1      -0.272   0.640   1.167  0.00  0.00     0.130 A 
ATOM      2  C2  DEN d   1      -1.068   0.435   2.374  0.00  0.00    -0.031 A 
ATOM      3  C3  DEN d   1      -1.837  -0.814   2.207  0.00  0.00     0.027 A 
ATOM      4  C4  DEN d   1      -1.870  -2.445   0.209  0.00  0.00     0.027 A 
ATOM      5  C5  DEN d   1      -1.368  -2.688  -1.050  0.00  0.00    -0.003 A 
ATOM      6  C6  DEN d   1      -0.499  -1.828  -1.668  0.00  0.00     0.001 A 
ATOM      7  C7  DEN d   1      -0.070  -0.706  -1.008  0.00  0.00     0.017 A 
ATOM      8  C8  DEN d   1      -0.578  -0.451   0.259  0.00  0.00    -0.094 A 
ATOM      9  C9  DEN d   1      -1.446  -1.339   0.871  0.00  0.00    -0.072 A 
ENDROOT
TORSDOF 0
ENDMDL
