MODEL 1
REMARK minimizedAffinity 9.83631039
REMARK minimizedRMSD -1
REMARK  0 active torsions:
REMARK  status: ('A' for Active; 'I' for Inactive)
ROOT
ATOM      1  C1  DEN d   1       3.592  -4.619   5.682  0.00  0.00     0.130 A 
ATOM      2  C2  DEN d   1       4.808  -5.427   5.723  0.00  0.00    -0.031 A 
ATOM      3  C3  DEN d   1       5.963  -4.510   5.788  0.00  0.00     0.027 A 
ATOM      4  C4  DEN d   1       5.987  -1.931   5.834  0.00  0.00     0.027 A 
ATOM      5  C5  DEN d   1       5.200  -0.800   5.806  0.00  0.00    -0.003 A 
ATOM      6  C6  DEN d   1       3.836  -0.862   5.701  0.00  0.00     0.001 A 
ATOM      7  C7  DEN d   1       3.212  -2.082   5.666  0.00  0.00     0.017 A 
ATOM      8  C8  DEN d   1       3.999  -3.226   5.686  0.00  0.00    -0.094 A 
ATOM      9  C9  DEN d   1       5.376  -3.142   5.805  0.00  0.00    -0.072 A 
ENDROOT
TORSDOF 0
ENDMDL
