MODEL 1
REMARK minimizedAffinity -2.82287812
REMARK minimizedRMSD -1
REMARK  0 active torsions:
REMARK  status: ('A' for Active; 'I' for Inactive)
ROOT
ATOM      1  C1  DEN d   1       0.212   0.976   0.256  0.00  0.00     0.130 A 
ATOM      2  C2  DEN d   1      -0.977   1.440   0.965  0.00  0.00    -0.031 A 
ATOM      3  C3  DEN d   1      -1.815   0.263   1.269  0.00  0.00     0.027 A 
ATOM      4  C4  DEN d   1      -1.387  -2.220   0.717  0.00  0.00     0.027 A 
ATOM      5  C5  DEN d   1      -0.517  -3.102   0.115  0.00  0.00    -0.003 A 
ATOM      6  C6  DEN d   1       0.630  -2.687  -0.507  0.00  0.00     0.001 A 
ATOM      7  C7  DEN d   1       0.962  -1.358  -0.501  0.00  0.00     0.017 A 
ATOM      8  C8  DEN d   1       0.086  -0.461   0.097  0.00  0.00    -0.094 A 
ATOM      9  C9  DEN d   1      -1.063  -0.902   0.731  0.00  0.00    -0.072 A 
ENDROOT
TORSDOF 0
ENDMDL
