MODEL 1
REMARK minimizedAffinity 18.0403557
REMARK minimizedRMSD -1
REMARK  0 active torsions:
REMARK  status: ('A' for Active; 'I' for Inactive)
ROOT
ATOM      1  C   UNL d   1      -2.271   1.368   1.927  0.00  0.00     0.124 A 
ATOM      2  C1  UNL d   1      -1.317   0.584   2.560  0.00  0.00     0.062 A 
ATOM      3  C2  UNL d   1      -0.729  -0.483   1.887  0.00  0.00     0.162 A 
ATOM      4  C3  UNL d   1      -1.093  -0.772   0.572  0.00  0.00    -0.034 A 
ATOM      5  C4  UNL d   1      -2.054   0.021  -0.058  0.00  0.00     0.162 A 
ATOM      6  C5  UNL d   1      -2.639   1.086   0.619  0.00  0.00     0.062 A 
ATOM      7  F   UNL d   1      -3.560   1.843   0.006  0.00  0.00    -0.097 F 
ATOM      8  F1  UNL d   1      -2.426  -0.228  -1.322  0.00  0.00    -0.096 F 
ATOM      9  I   UNL d   1      -0.215  -2.366  -0.438  0.00  0.00    -0.060 I 
ATOM     10  F2  UNL d   1       0.190  -1.224   2.524  0.00  0.00    -0.096 F 
ATOM     11  F3  UNL d   1      -0.961   0.853   3.825  0.00  0.00    -0.097 F 
ATOM     12  F4  UNL d   1      -2.837   2.393   2.578  0.00  0.00    -0.092 F 
ENDROOT
TORSDOF 0
ENDMDL
