MODEL 1
REMARK minimizedAffinity 3.99954009
REMARK minimizedRMSD -1
REMARK  0 active torsions:
REMARK  status: ('A' for Active; 'I' for Inactive)
ROOT
ATOM      1  C   UNL d   1      -0.198   1.716   3.429  0.00  0.00     0.124 A 
ATOM      2  C1  UNL d   1       1.044   2.213   3.060  0.00  0.00     0.062 A 
ATOM      3  C2  UNL d   1       1.644   1.789   1.878  0.00  0.00     0.162 A 
ATOM      4  C3  UNL d   1       1.003   0.863   1.056  0.00  0.00    -0.034 A 
ATOM      5  C4  UNL d   1      -0.246   0.367   1.434  0.00  0.00     0.162 A 
ATOM      6  C5  UNL d   1      -0.842   0.794   2.617  0.00  0.00     0.062 A 
ATOM      7  F   UNL d   1      -2.043   0.313   2.972  0.00  0.00    -0.097 F 
ATOM      8  F1  UNL d   1      -0.891  -0.524   0.667  0.00  0.00    -0.096 F 
ATOM      9  I   UNL d   1       1.897   0.226  -0.712  0.00  0.00    -0.060 I 
ATOM     10  F2  UNL d   1       2.845   2.285   1.546  0.00  0.00    -0.096 F 
ATOM     11  F3  UNL d   1       1.669   3.103   3.844  0.00  0.00    -0.097 F 
ATOM     12  F4  UNL d   1      -0.773   2.126   4.568  0.00  0.00    -0.092 F 
ENDROOT
TORSDOF 0
ENDMDL
