MODEL 1
REMARK minimizedAffinity 0.763513505
REMARK minimizedRMSD -1
REMARK  0 active torsions:
REMARK  status: ('A' for Active; 'I' for Inactive)
ROOT
ATOM      1  C   UNL d   1      -4.141   4.591  -1.329  0.00  0.00     0.124 A 
ATOM      2  C1  UNL d   1      -4.777   3.357  -1.333  0.00  0.00     0.062 A 
ATOM      3  C2  UNL d   1      -4.148   2.243  -0.784  0.00  0.00     0.162 A 
ATOM      4  C3  UNL d   1      -2.876   2.358  -0.223  0.00  0.00    -0.034 A 
ATOM      5  C4  UNL d   1      -2.242   3.602  -0.223  0.00  0.00     0.162 A 
ATOM      6  C5  UNL d   1      -2.875   4.712  -0.774  0.00  0.00     0.062 A 
ATOM      7  F   UNL d   1      -2.258   5.903  -0.769  0.00  0.00    -0.097 F 
ATOM      8  F1  UNL d   1      -1.019   3.748   0.307  0.00  0.00    -0.096 F 
ATOM      9  I   UNL d   1      -1.933   0.696   0.600  0.00  0.00    -0.060 I 
ATOM     10  F2  UNL d   1      -4.786   1.064  -0.802  0.00  0.00    -0.096 F 
ATOM     11  F3  UNL d   1      -6.000   3.237  -1.869  0.00  0.00    -0.097 F 
ATOM     12  F4  UNL d   1      -4.747   5.660  -1.859  0.00  0.00    -0.092 F 
ENDROOT
TORSDOF 0
ENDMDL
