MODEL 1
REMARK minimizedAffinity 15.9849234
REMARK minimizedRMSD -1
REMARK  0 active torsions:
REMARK  status: ('A' for Active; 'I' for Inactive)
ROOT
ATOM      1  C   UNL d   1      -0.125  -0.670   3.256  0.00  0.00     0.124 A 
ATOM      2  C1  UNL d   1       1.018  -0.145   2.670  0.00  0.00     0.062 A 
ATOM      3  C2  UNL d   1       0.970   1.083   2.017  0.00  0.00     0.162 A 
ATOM      4  C3  UNL d   1      -0.226   1.797   1.948  0.00  0.00    -0.034 A 
ATOM      5  C4  UNL d   1      -1.373   1.263   2.540  0.00  0.00     0.162 A 
ATOM      6  C5  UNL d   1      -1.319   0.034   3.191  0.00  0.00     0.062 A 
ATOM      7  F   UNL d   1      -2.425  -0.471   3.756  0.00  0.00    -0.097 F 
ATOM      8  F1  UNL d   1      -2.539   1.923   2.492  0.00  0.00    -0.096 F 
ATOM      9  I   UNL d   1      -0.303   3.634   0.974  0.00  0.00    -0.060 I 
ATOM     10  F2  UNL d   1       2.090   1.566   1.460  0.00  0.00    -0.096 F 
ATOM     11  F3  UNL d   1       2.173  -0.824   2.731  0.00  0.00    -0.097 F 
ATOM     12  F4  UNL d   1      -0.076  -1.853   3.882  0.00  0.00    -0.092 F 
ENDROOT
TORSDOF 0
ENDMDL
