MODEL 1
REMARK minimizedAffinity 11.7885714
REMARK minimizedRMSD -1
REMARK  0 active torsions:
REMARK  status: ('A' for Active; 'I' for Inactive)
ROOT
ATOM      1  C   UNL d   1      -0.826  -0.101   2.096  0.00  0.00     0.124 A 
ATOM      2  C1  UNL d   1      -2.044  -0.690   1.790  0.00  0.00     0.062 A 
ATOM      3  C2  UNL d   1      -2.189  -1.432   0.621  0.00  0.00     0.162 A 
ATOM      4  C3  UNL d   1      -1.112  -1.590  -0.250  0.00  0.00    -0.034 A 
ATOM      5  C4  UNL d   1       0.111  -0.993   0.064  0.00  0.00     0.162 A 
ATOM      6  C5  UNL d   1       0.250  -0.252   1.233  0.00  0.00     0.062 A 
ATOM      7  F   UNL d   1       1.429   0.316   1.528  0.00  0.00    -0.097 F 
ATOM      8  F1  UNL d   1       1.167  -1.124  -0.752  0.00  0.00    -0.096 F 
ATOM      9  I   UNL d   1      -1.324  -2.698  -1.999  0.00  0.00    -0.060 I 
ATOM     10  F2  UNL d   1      -3.378  -1.990   0.351  0.00  0.00    -0.096 F 
ATOM     11  F3  UNL d   1      -3.086  -0.544   2.622  0.00  0.00    -0.097 F 
ATOM     12  F4  UNL d   1      -0.690   0.613   3.221  0.00  0.00    -0.092 F 
ENDROOT
TORSDOF 0
ENDMDL
