MODEL 1
REMARK minimizedAffinity 11.5127935
REMARK minimizedRMSD -1
REMARK  0 active torsions:
REMARK  status: ('A' for Active; 'I' for Inactive)
ROOT
ATOM      1  C   UNL d   1      -2.343   0.668   2.414  0.00  0.00     0.124 A 
ATOM      2  C1  UNL d   1      -1.487   1.351   1.561  0.00  0.00     0.062 A 
ATOM      3  C2  UNL d   1      -0.134   1.028   1.522  0.00  0.00     0.162 A 
ATOM      4  C3  UNL d   1       0.372   0.015   2.337  0.00  0.00    -0.034 A 
ATOM      5  C4  UNL d   1      -0.495  -0.667   3.193  0.00  0.00     0.162 A 
ATOM      6  C5  UNL d   1      -1.847  -0.340   3.228  0.00  0.00     0.062 A 
ATOM      7  F   UNL d   1      -2.673  -1.001   4.052  0.00  0.00    -0.097 F 
ATOM      8  F1  UNL d   1      -0.042  -1.646   3.990  0.00  0.00    -0.096 F 
ATOM      9  I   UNL d   1       2.395  -0.471   2.282  0.00  0.00    -0.060 I 
ATOM     10  F2  UNL d   1       0.671   1.705   0.689  0.00  0.00    -0.096 F 
ATOM     11  F3  UNL d   1      -1.964   2.326   0.774  0.00  0.00    -0.097 F 
ATOM     12  F4  UNL d   1      -3.645   0.981   2.450  0.00  0.00    -0.092 F 
ENDROOT
TORSDOF 0
ENDMDL
