MODEL 1
REMARK minimizedAffinity 10.6326895
REMARK minimizedRMSD -1
REMARK  0 active torsions:
REMARK  status: ('A' for Active; 'I' for Inactive)
ROOT
ATOM      1  C   UNL d   1      -1.411   1.071   2.433  0.00  0.00     0.124 A 
ATOM      2  C1  UNL d   1      -1.510  -0.239   1.985  0.00  0.00     0.062 A 
ATOM      3  C2  UNL d   1      -2.292  -0.541   0.874  0.00  0.00     0.162 A 
ATOM      4  C3  UNL d   1      -2.981   0.469   0.202  0.00  0.00    -0.034 A 
ATOM      5  C4  UNL d   1      -2.877   1.784   0.660  0.00  0.00     0.162 A 
ATOM      6  C5  UNL d   1      -2.094   2.081   1.770  0.00  0.00     0.062 A 
ATOM      7  F   UNL d   1      -1.999   3.347   2.202  0.00  0.00    -0.097 F 
ATOM      8  F1  UNL d   1      -3.526   2.779   0.037  0.00  0.00    -0.096 F 
ATOM      9  I   UNL d   1      -4.151   0.021  -1.459  0.00  0.00    -0.060 I 
ATOM     10  F2  UNL d   1      -2.370  -1.816   0.463  0.00  0.00    -0.096 F 
ATOM     11  F3  UNL d   1      -0.852  -1.217   2.624  0.00  0.00    -0.097 F 
ATOM     12  F4  UNL d   1      -0.658   1.359   3.503  0.00  0.00    -0.092 F 
ENDROOT
TORSDOF 0
ENDMDL
