MODEL 1
REMARK minimizedAffinity 9.60492611
REMARK minimizedRMSD -1
REMARK  0 active torsions:
REMARK  status: ('A' for Active; 'I' for Inactive)
ROOT
ATOM      1  C   UNL d   1       0.294   0.082   3.431  0.00  0.00     0.124 A 
ATOM      2  C1  UNL d   1      -0.827   0.175   2.619  0.00  0.00     0.062 A 
ATOM      3  C2  UNL d   1      -0.784  -0.294   1.309  0.00  0.00     0.162 A 
ATOM      4  C3  UNL d   1       0.385  -0.862   0.803  0.00  0.00    -0.034 A 
ATOM      5  C4  UNL d   1       1.510  -0.951   1.625  0.00  0.00     0.162 A 
ATOM      6  C5  UNL d   1       1.462  -0.481   2.934  0.00  0.00     0.062 A 
ATOM      7  F   UNL d   1       2.546  -0.571   3.717  0.00  0.00    -0.097 F 
ATOM      8  F1  UNL d   1       2.650  -1.491   1.171  0.00  0.00    -0.096 F 
ATOM      9  I   UNL d   1       0.454  -1.564  -1.155  0.00  0.00    -0.060 I 
ATOM     10  F2  UNL d   1      -1.883  -0.191   0.547  0.00  0.00    -0.096 F 
ATOM     11  F3  UNL d   1      -1.956   0.719   3.097  0.00  0.00    -0.097 F 
ATOM     12  F4  UNL d   1       0.251   0.535   4.691  0.00  0.00    -0.092 F 
ENDROOT
TORSDOF 0
ENDMDL
