MODEL 1
REMARK minimizedAffinity 11.9594336
REMARK minimizedRMSD -1
REMARK  0 active torsions:
REMARK  status: ('A' for Active; 'I' for Inactive)
ROOT
ATOM      1  C   UNL d   1       2.986   0.159  -0.211  0.00  0.00     0.124 A 
ATOM      2  C1  UNL d   1       2.918  -0.598   0.950  0.00  0.00     0.062 A 
ATOM      3  C2  UNL d   1       1.961  -0.309   1.919  0.00  0.00     0.162 A 
ATOM      4  C3  UNL d   1       1.064   0.742   1.731  0.00  0.00    -0.034 A 
ATOM      5  C4  UNL d   1       1.140   1.500   0.561  0.00  0.00     0.162 A 
ATOM      6  C5  UNL d   1       2.098   1.208  -0.404  0.00  0.00     0.062 A 
ATOM      7  F   UNL d   1       2.162   1.941  -1.525  0.00  0.00    -0.097 F 
ATOM      8  F1  UNL d   1       0.293   2.518   0.348  0.00  0.00    -0.096 F 
ATOM      9  I   UNL d   1      -0.368   1.177   3.177  0.00  0.00    -0.060 I 
ATOM     10  F2  UNL d   1       1.918  -1.058   3.031  0.00  0.00    -0.096 F 
ATOM     11  F3  UNL d   1       3.776  -1.611   1.140  0.00  0.00    -0.097 F 
ATOM     12  F4  UNL d   1       3.908  -0.120  -1.141  0.00  0.00    -0.092 F 
ENDROOT
TORSDOF 0
ENDMDL
