MODEL 1
REMARK minimizedAffinity -1.99754882
REMARK minimizedRMSD -1
REMARK  0 active torsions:
REMARK  status: ('A' for Active; 'I' for Inactive)
ROOT
ATOM      1  C   UNL d   1       1.021   2.277   1.134  0.00  0.00     0.124 A 
ATOM      2  C1  UNL d   1       1.942   1.282   0.834  0.00  0.00     0.062 A 
ATOM      3  C2  UNL d   1       1.508   0.035   0.394  0.00  0.00     0.162 A 
ATOM      4  C3  UNL d   1       0.145  -0.224   0.249  0.00  0.00    -0.034 A 
ATOM      5  C4  UNL d   1      -0.776   0.781   0.553  0.00  0.00     0.162 A 
ATOM      6  C5  UNL d   1      -0.336   2.025   0.993  0.00  0.00     0.062 A 
ATOM      7  F   UNL d   1      -1.228   2.984   1.282  0.00  0.00    -0.097 F 
ATOM      8  F1  UNL d   1      -2.093   0.565   0.424  0.00  0.00    -0.096 F 
ATOM      9  I   UNL d   1      -0.509  -2.087  -0.410  0.00  0.00    -0.060 I 
ATOM     10  F2  UNL d   1       2.420  -0.907   0.112  0.00  0.00    -0.096 F 
ATOM     11  F3  UNL d   1       3.254   1.523   0.971  0.00  0.00    -0.097 F 
ATOM     12  F4  UNL d   1       1.442   3.475   1.558  0.00  0.00    -0.092 F 
ENDROOT
TORSDOF 0
ENDMDL
