MODEL 1
REMARK minimizedAffinity -2.39265752
REMARK minimizedRMSD -1
REMARK  0 active torsions:
REMARK  status: ('A' for Active; 'I' for Inactive)
ROOT
ATOM      1  C   UNL d   1       0.978   2.189   0.630  0.00  0.00     0.124 A 
ATOM      2  C1  UNL d   1      -0.252   1.999   0.016  0.00  0.00     0.062 A 
ATOM      3  C2  UNL d   1      -0.653   0.723  -0.368  0.00  0.00     0.162 A 
ATOM      4  C3  UNL d   1       0.176  -0.375  -0.139  0.00  0.00    -0.034 A 
ATOM      5  C4  UNL d   1       1.413  -0.176   0.478  0.00  0.00     0.162 A 
ATOM      6  C5  UNL d   1       1.809   1.101   0.860  0.00  0.00     0.062 A 
ATOM      7  F   UNL d   1       2.999   1.282   1.453  0.00  0.00    -0.097 F 
ATOM      8  F1  UNL d   1       2.235  -1.209   0.713  0.00  0.00    -0.096 F 
ATOM      9  I   UNL d   1      -0.420  -2.284  -0.713  0.00  0.00    -0.060 I 
ATOM     10  F2  UNL d   1      -1.848   0.569  -0.959  0.00  0.00    -0.096 F 
ATOM     11  F3  UNL d   1      -1.057   3.048  -0.208  0.00  0.00    -0.097 F 
ATOM     12  F4  UNL d   1       1.362   3.418   0.998  0.00  0.00    -0.092 F 
ENDROOT
TORSDOF 0
ENDMDL
