MODEL 1
REMARK minimizedAffinity -0.888136148
REMARK minimizedRMSD -1
REMARK  0 active torsions:
REMARK  status: ('A' for Active; 'I' for Inactive)
ROOT
ATOM      1  C   UNL d   1       0.872   2.179   0.705  0.00  0.00     0.124 A 
ATOM      2  C1  UNL d   1      -0.460   1.939   0.398  0.00  0.00     0.062 A 
ATOM      3  C2  UNL d   1      -0.886   0.652   0.083  0.00  0.00     0.162 A 
ATOM      4  C3  UNL d   1       0.022  -0.407   0.075  0.00  0.00    -0.034 A 
ATOM      5  C4  UNL d   1       1.361  -0.158   0.383  0.00  0.00     0.162 A 
ATOM      6  C5  UNL d   1       1.781   1.130   0.697  0.00  0.00     0.062 A 
ATOM      7  F   UNL d   1       3.069   1.359   0.993  0.00  0.00    -0.097 F 
ATOM      8  F1  UNL d   1       2.260  -1.153   0.384  0.00  0.00    -0.096 F 
ATOM      9  I   UNL d   1      -0.610  -2.333  -0.395  0.00  0.00    -0.060 I 
ATOM     10  F2  UNL d   1      -2.179   0.450  -0.209  0.00  0.00    -0.096 F 
ATOM     11  F3  UNL d   1      -1.340   2.951   0.404  0.00  0.00    -0.097 F 
ATOM     12  F4  UNL d   1       1.279   3.418   1.006  0.00  0.00    -0.092 F 
ENDROOT
TORSDOF 0
ENDMDL
