MODEL 1
REMARK minimizedAffinity 1.24554908
REMARK minimizedRMSD -1
REMARK  0 active torsions:
REMARK  status: ('A' for Active; 'I' for Inactive)
ROOT
ATOM      1  C   UNL d   1       1.047   2.355   1.226  0.00  0.00     0.124 A 
ATOM      2  C1  UNL d   1       1.950   1.302   1.194  0.00  0.00     0.062 A 
ATOM      3  C2  UNL d   1       1.563   0.063   0.690  0.00  0.00     0.162 A 
ATOM      4  C3  UNL d   1       0.267  -0.129   0.213  0.00  0.00    -0.034 A 
ATOM      5  C4  UNL d   1      -0.636   0.935   0.249  0.00  0.00     0.162 A 
ATOM      6  C5  UNL d   1      -0.245   2.171   0.753  0.00  0.00     0.062 A 
ATOM      7  F   UNL d   1      -1.119   3.188   0.783  0.00  0.00    -0.097 F 
ATOM      8  F1  UNL d   1      -1.891   0.786  -0.202  0.00  0.00    -0.096 F 
ATOM      9  I   UNL d   1      -0.315  -1.979  -0.542  0.00  0.00    -0.060 I 
ATOM     10  F2  UNL d   1       2.457  -0.937   0.672  0.00  0.00    -0.096 F 
ATOM     11  F3  UNL d   1       3.198   1.477   1.651  0.00  0.00    -0.097 F 
ATOM     12  F4  UNL d   1       1.421   3.545   1.712  0.00  0.00    -0.092 F 
ENDROOT
TORSDOF 0
ENDMDL
