MODEL 1
REMARK minimizedAffinity -0.317804247
REMARK minimizedRMSD -1
REMARK  0 active torsions:
REMARK  status: ('A' for Active; 'I' for Inactive)
ROOT
ATOM      1  C   UNL d   1      -0.018  -3.279  -0.875  0.00  0.00     0.124 A 
ATOM      2  C1  UNL d   1       0.787  -2.525  -0.032  0.00  0.00     0.062 A 
ATOM      3  C2  UNL d   1       0.454  -1.205   0.257  0.00  0.00     0.162 A 
ATOM      4  C3  UNL d   1      -0.689  -0.630  -0.297  0.00  0.00    -0.034 A 
ATOM      5  C4  UNL d   1      -1.493  -1.394  -1.144  0.00  0.00     0.162 A 
ATOM      6  C5  UNL d   1      -1.157  -2.713  -1.430  0.00  0.00     0.062 A 
ATOM      7  F   UNL d   1      -1.936  -3.440  -2.245  0.00  0.00    -0.097 F 
ATOM      8  F1  UNL d   1      -2.600  -0.872  -1.694  0.00  0.00    -0.096 F 
ATOM      9  I   UNL d   1      -1.190   1.344   0.133  0.00  0.00    -0.060 I 
ATOM     10  F2  UNL d   1       1.250  -0.500   1.075  0.00  0.00    -0.096 F 
ATOM     11  F3  UNL d   1       1.888  -3.070   0.505  0.00  0.00    -0.097 F 
ATOM     12  F4  UNL d   1       0.305  -4.549  -1.152  0.00  0.00    -0.092 F 
ENDROOT
TORSDOF 0
ENDMDL
