MODEL 1
REMARK minimizedAffinity -2.79067063
REMARK minimizedRMSD -1
REMARK  0 active torsions:
REMARK  status: ('A' for Active; 'I' for Inactive)
ROOT
ATOM      1  C   UNL d   1      -0.203   1.511   0.509  0.00  0.00     0.124 A 
ATOM      2  C1  UNL d   1       0.617   0.391   0.527  0.00  0.00     0.062 A 
ATOM      3  C2  UNL d   1       0.435  -0.624  -0.407  0.00  0.00     0.162 A 
ATOM      4  C3  UNL d   1      -0.570  -0.525  -1.368  0.00  0.00    -0.034 A 
ATOM      5  C4  UNL d   1      -1.391   0.604  -1.380  0.00  0.00     0.162 A 
ATOM      6  C5  UNL d   1      -1.206   1.617  -0.444  0.00  0.00     0.062 A 
ATOM      7  F   UNL d   1      -1.999   2.698  -0.463  0.00  0.00    -0.097 F 
ATOM      8  F1  UNL d   1      -2.368   0.732  -2.290  0.00  0.00    -0.096 F 
ATOM      9  I   UNL d   1      -0.845  -2.042  -2.767  0.00  0.00    -0.060 I 
ATOM     10  F2  UNL d   1       1.242  -1.695  -0.365  0.00  0.00    -0.096 F 
ATOM     11  F3  UNL d   1       1.586   0.287   1.448  0.00  0.00    -0.097 F 
ATOM     12  F4  UNL d   1      -0.027   2.487   1.410  0.00  0.00    -0.092 F 
ENDROOT
TORSDOF 0
ENDMDL
