MODEL 1
REMARK minimizedAffinity -1.46871376
REMARK minimizedRMSD -1
REMARK  0 active torsions:
REMARK  status: ('A' for Active; 'I' for Inactive)
ROOT
ATOM      1  C   UNL d   1       0.825   1.975   0.644  0.00  0.00     0.124 A 
ATOM      2  C1  UNL d   1       1.696   0.895   0.678  0.00  0.00     0.062 A 
ATOM      3  C2  UNL d   1       1.253  -0.374   0.318  0.00  0.00     0.162 A 
ATOM      4  C3  UNL d   1      -0.069  -0.571  -0.081  0.00  0.00    -0.034 A 
ATOM      5  C4  UNL d   1      -0.940   0.520  -0.112  0.00  0.00     0.162 A 
ATOM      6  C5  UNL d   1      -0.492   1.786   0.249  0.00  0.00     0.062 A 
ATOM      7  F   UNL d   1      -1.336   2.828   0.216  0.00  0.00    -0.097 F 
ATOM      8  F1  UNL d   1      -2.218   0.366  -0.491  0.00  0.00    -0.096 F 
ATOM      9  I   UNL d   1      -0.736  -2.467  -0.621  0.00  0.00    -0.060 I 
ATOM     10  F2  UNL d   1       2.117  -1.399   0.360  0.00  0.00    -0.096 F 
ATOM     11  F3  UNL d   1       2.969   1.074   1.061  0.00  0.00    -0.097 F 
ATOM     12  F4  UNL d   1       1.254   3.194   0.993  0.00  0.00    -0.092 F 
ENDROOT
TORSDOF 0
ENDMDL
