MODEL 1
REMARK minimizedAffinity -1.56240511
REMARK minimizedRMSD -1
REMARK  0 active torsions:
REMARK  status: ('A' for Active; 'I' for Inactive)
ROOT
ATOM      1  C   UNL d   1       0.470   1.807   0.553  0.00  0.00     0.124 A 
ATOM      2  C1  UNL d   1      -0.856   1.633   0.182  0.00  0.00     0.062 A 
ATOM      3  C2  UNL d   1      -1.313   0.379  -0.215  0.00  0.00     0.162 A 
ATOM      4  C3  UNL d   1      -0.443  -0.711  -0.243  0.00  0.00    -0.034 A 
ATOM      5  C4  UNL d   1       0.890  -0.527   0.131  0.00  0.00     0.162 A 
ATOM      6  C5  UNL d   1       1.341   0.727   0.527  0.00  0.00     0.062 A 
ATOM      7  F   UNL d   1       2.623   0.894   0.885  0.00  0.00    -0.097 F 
ATOM      8  F1  UNL d   1       1.753  -1.553   0.116  0.00  0.00    -0.096 F 
ATOM      9  I   UNL d   1      -1.122  -2.586  -0.836  0.00  0.00    -0.060 I 
ATOM     10  F2  UNL d   1      -2.600   0.240  -0.568  0.00  0.00    -0.096 F 
ATOM     11  F3  UNL d   1      -1.700   2.674   0.205  0.00  0.00    -0.097 F 
ATOM     12  F4  UNL d   1       0.907   3.014   0.934  0.00  0.00    -0.092 F 
ENDROOT
TORSDOF 0
ENDMDL
