MODEL 1
REMARK minimizedAffinity -1.82230949
REMARK minimizedRMSD -1
REMARK  0 active torsions:
REMARK  status: ('A' for Active; 'I' for Inactive)
ROOT
ATOM      1  C   UNL d   1       1.111   2.208   0.775  0.00  0.00     0.124 A 
ATOM      2  C1  UNL d   1       1.943   1.098   0.840  0.00  0.00     0.062 A 
ATOM      3  C2  UNL d   1       1.440  -0.170   0.564  0.00  0.00     0.162 A 
ATOM      4  C3  UNL d   1       0.099  -0.336   0.219  0.00  0.00    -0.034 A 
ATOM      5  C4  UNL d   1      -0.731   0.784   0.156  0.00  0.00     0.162 A 
ATOM      6  C5  UNL d   1      -0.224   2.050   0.433  0.00  0.00     0.062 A 
ATOM      7  F   UNL d   1      -1.029   3.121   0.369  0.00  0.00    -0.097 F 
ATOM      8  F1  UNL d   1      -2.025   0.660  -0.173  0.00  0.00    -0.096 F 
ATOM      9  I   UNL d   1      -0.655  -2.231  -0.195  0.00  0.00    -0.060 I 
ATOM     10  F2  UNL d   1       2.267  -1.224   0.636  0.00  0.00    -0.096 F 
ATOM     11  F3  UNL d   1       3.233   1.248   1.172  0.00  0.00    -0.097 F 
ATOM     12  F4  UNL d   1       1.597   3.427   1.042  0.00  0.00    -0.092 F 
ENDROOT
TORSDOF 0
ENDMDL
