MODEL 1
REMARK minimizedAffinity 0.749316275
REMARK minimizedRMSD -1
REMARK  0 active torsions:
REMARK  status: ('A' for Active; 'I' for Inactive)
ROOT
ATOM      1  C   UNL d   1       0.638   1.887   0.787  0.00  0.00     0.124 A 
ATOM      2  C1  UNL d   1       1.427   0.806   0.420  0.00  0.00     0.062 A 
ATOM      3  C2  UNL d   1       0.839  -0.349  -0.087  0.00  0.00     0.162 A 
ATOM      4  C3  UNL d   1      -0.547  -0.430  -0.229  0.00  0.00    -0.034 A 
ATOM      5  C4  UNL d   1      -1.334   0.661   0.144  0.00  0.00     0.162 A 
ATOM      6  C5  UNL d   1      -0.741   1.814   0.649  0.00  0.00     0.062 A 
ATOM      7  F   UNL d   1      -1.505   2.857   1.004  0.00  0.00    -0.097 F 
ATOM      8  F1  UNL d   1      -2.668   0.618   0.020  0.00  0.00    -0.096 F 
ATOM      9  I   UNL d   1      -1.430  -2.156  -0.986  0.00  0.00    -0.060 I 
ATOM     10  F2  UNL d   1       1.625  -1.379  -0.434  0.00  0.00    -0.096 F 
ATOM     11  F3  UNL d   1       2.759   0.874   0.553  0.00  0.00    -0.097 F 
ATOM     12  F4  UNL d   1       1.206   2.997   1.275  0.00  0.00    -0.092 F 
ENDROOT
TORSDOF 0
ENDMDL
