MODEL 1
REMARK minimizedAffinity -2.5292263
REMARK minimizedRMSD -1
REMARK  0 active torsions:
REMARK  status: ('A' for Active; 'I' for Inactive)
ROOT
ATOM      1  C   UNL d   1       0.686   2.141   0.574  0.00  0.00     0.124 A 
ATOM      2  C1  UNL d   1      -0.610   1.894   0.142  0.00  0.00     0.062 A 
ATOM      3  C2  UNL d   1      -1.045   0.587  -0.057  0.00  0.00     0.162 A 
ATOM      4  C3  UNL d   1      -0.183  -0.484   0.177  0.00  0.00    -0.034 A 
ATOM      5  C4  UNL d   1       1.119  -0.228   0.611  0.00  0.00     0.162 A 
ATOM      6  C5  UNL d   1       1.549   1.080   0.809  0.00  0.00     0.062 A 
ATOM      7  F   UNL d   1       2.801   1.316   1.226  0.00  0.00    -0.097 F 
ATOM      8  F1  UNL d   1       1.973  -1.235   0.846  0.00  0.00    -0.096 F 
ATOM      9  I   UNL d   1      -0.829  -2.440  -0.119  0.00  0.00    -0.060 I 
ATOM     10  F2  UNL d   1      -2.302   0.379  -0.475  0.00  0.00    -0.096 F 
ATOM     11  F3  UNL d   1      -1.445   2.918  -0.086  0.00  0.00    -0.097 F 
ATOM     12  F4  UNL d   1       1.102   3.400   0.764  0.00  0.00    -0.092 F 
ENDROOT
TORSDOF 0
ENDMDL
