MODEL 1
REMARK minimizedAffinity 1.66061354
REMARK minimizedRMSD -1
REMARK  0 active torsions:
REMARK  status: ('A' for Active; 'I' for Inactive)
ROOT
ATOM      1  C   UNL d   1       0.940   2.262   1.311  0.00  0.00     0.124 A 
ATOM      2  C1  UNL d   1      -0.396   2.103   0.968  0.00  0.00     0.062 A 
ATOM      3  C2  UNL d   1      -0.846   0.893   0.448  0.00  0.00     0.162 A 
ATOM      4  C3  UNL d   1       0.041  -0.169   0.269  0.00  0.00    -0.034 A 
ATOM      5  C4  UNL d   1       1.383  -0.002   0.616  0.00  0.00     0.162 A 
ATOM      6  C5  UNL d   1       1.827   1.210   1.135  0.00  0.00     0.062 A 
ATOM      7  F   UNL d   1       3.118   1.361   1.466  0.00  0.00    -0.097 F 
ATOM      8  F1  UNL d   1       2.262  -1.002   0.457  0.00  0.00    -0.096 F 
ATOM      9  I   UNL d   1      -0.628  -1.980  -0.508  0.00  0.00    -0.060 I 
ATOM     10  F2  UNL d   1      -2.141   0.768   0.124  0.00  0.00    -0.096 F 
ATOM     11  F3  UNL d   1      -1.255   3.118   1.136  0.00  0.00    -0.097 F 
ATOM     12  F4  UNL d   1       1.370   3.428   1.810  0.00  0.00    -0.092 F 
ENDROOT
TORSDOF 0
ENDMDL
