MODEL 1
REMARK minimizedAffinity -2.44134927
REMARK minimizedRMSD -1
REMARK  0 active torsions:
REMARK  status: ('A' for Active; 'I' for Inactive)
ROOT
ATOM      1  C   UNL d   1      -0.549  -2.839  -1.736  0.00  0.00     0.124 A 
ATOM      2  C1  UNL d   1      -1.146  -1.736  -2.332  0.00  0.00     0.062 A 
ATOM      3  C2  UNL d   1      -1.212  -0.524  -1.652  0.00  0.00     0.162 A 
ATOM      4  C3  UNL d   1      -0.678  -0.406  -0.368  0.00  0.00    -0.034 A 
ATOM      5  C4  UNL d   1      -0.080  -1.520   0.224  0.00  0.00     0.162 A 
ATOM      6  C5  UNL d   1      -0.016  -2.730  -0.460  0.00  0.00     0.062 A 
ATOM      7  F   UNL d   1       0.561  -3.794   0.117  0.00  0.00    -0.097 F 
ATOM      8  F1  UNL d   1       0.444  -1.442   1.457  0.00  0.00    -0.096 F 
ATOM      9  I   UNL d   1      -0.774   1.405   0.652  0.00  0.00    -0.060 I 
ATOM     10  F2  UNL d   1      -1.795   0.525  -2.251  0.00  0.00    -0.096 F 
ATOM     11  F3  UNL d   1      -1.663  -1.839  -3.565  0.00  0.00    -0.097 F 
ATOM     12  F4  UNL d   1      -0.488  -4.005  -2.393  0.00  0.00    -0.092 F 
ENDROOT
TORSDOF 0
ENDMDL
