MODEL 1
REMARK minimizedAffinity 0.000127348976
REMARK minimizedRMSD -1
REMARK  0 active torsions:
REMARK  status: ('A' for Active; 'I' for Inactive)
ROOT
ATOM      1  C   UNL d   1       0.336   1.771   0.687  0.00  0.00     0.124 A 
ATOM      2  C1  UNL d   1       1.287   0.762   0.753  0.00  0.00     0.062 A 
ATOM      3  C2  UNL d   1       0.988  -0.513   0.282  0.00  0.00     0.162 A 
ATOM      4  C3  UNL d   1      -0.267  -0.786  -0.262  0.00  0.00    -0.034 A 
ATOM      5  C4  UNL d   1      -1.219   0.234  -0.324  0.00  0.00     0.162 A 
ATOM      6  C5  UNL d   1      -0.915   1.506   0.149  0.00  0.00     0.062 A 
ATOM      7  F   UNL d   1      -1.834   2.480   0.084  0.00  0.00    -0.097 F 
ATOM      8  F1  UNL d   1      -2.435   0.006  -0.840  0.00  0.00    -0.096 F 
ATOM      9  I   UNL d   1      -0.718  -2.691  -0.968  0.00  0.00    -0.060 I 
ATOM     10  F2  UNL d   1       1.926  -1.470   0.358  0.00  0.00    -0.096 F 
ATOM     11  F3  UNL d   1       2.496   1.014   1.274  0.00  0.00    -0.097 F 
ATOM     12  F4  UNL d   1       0.626   2.996   1.143  0.00  0.00    -0.092 F 
ENDROOT
TORSDOF 0
ENDMDL
