MODEL 1
REMARK minimizedAffinity 2.77207518
REMARK minimizedRMSD -1
REMARK  0 active torsions:
REMARK  status: ('A' for Active; 'I' for Inactive)
ROOT
ATOM      1  C   UNL d   1       0.679   1.858   0.880  0.00  0.00     0.124 A 
ATOM      2  C1  UNL d   1      -0.645   1.668   0.510  0.00  0.00     0.062 A 
ATOM      3  C2  UNL d   1      -1.072   0.425   0.051  0.00  0.00     0.162 A 
ATOM      4  C3  UNL d   1      -0.173  -0.638  -0.039  0.00  0.00    -0.034 A 
ATOM      5  C4  UNL d   1       1.157  -0.438   0.334  0.00  0.00     0.162 A 
ATOM      6  C5  UNL d   1       1.579   0.806   0.792  0.00  0.00     0.062 A 
ATOM      7  F   UNL d   1       2.858   0.988   1.149  0.00  0.00    -0.097 F 
ATOM      8  F1  UNL d   1       2.047  -1.439   0.259  0.00  0.00    -0.096 F 
ATOM      9  I   UNL d   1      -0.807  -2.498  -0.725  0.00  0.00    -0.060 I 
ATOM     10  F2  UNL d   1      -2.357   0.270  -0.299  0.00  0.00    -0.096 F 
ATOM     11  F3  UNL d   1      -1.516   2.684   0.594  0.00  0.00    -0.097 F 
ATOM     12  F4  UNL d   1       1.087   3.056   1.321  0.00  0.00    -0.092 F 
ENDROOT
TORSDOF 0
ENDMDL
