MODEL 1
REMARK minimizedAffinity 3.60203743
REMARK minimizedRMSD -1
REMARK  0 active torsions:
REMARK  status: ('A' for Active; 'I' for Inactive)
ROOT
ATOM      1  C   UNL d   1       0.445  -0.603   0.394  0.00  0.00     0.124 A 
ATOM      2  C1  UNL d   1       0.608  -1.979   0.472  0.00  0.00     0.062 A 
ATOM      3  C2  UNL d   1      -0.044  -2.814  -0.432  0.00  0.00     0.162 A 
ATOM      4  C3  UNL d   1      -0.865  -2.274  -1.423  0.00  0.00    -0.034 A 
ATOM      5  C4  UNL d   1      -1.024  -0.889  -1.494  0.00  0.00     0.162 A 
ATOM      6  C5  UNL d   1      -0.371  -0.059  -0.589  0.00  0.00     0.062 A 
ATOM      7  F   UNL d   1      -0.530   1.270  -0.666  0.00  0.00    -0.097 F 
ATOM      8  F1  UNL d   1      -1.806  -0.337  -2.434  0.00  0.00    -0.096 F 
ATOM      9  I   UNL d   1      -1.841  -3.518  -2.776  0.00  0.00    -0.060 I 
ATOM     10  F2  UNL d   1       0.132  -4.140  -0.333  0.00  0.00    -0.096 F 
ATOM     11  F3  UNL d   1       1.394  -2.507   1.420  0.00  0.00    -0.097 F 
ATOM     12  F4  UNL d   1       1.072   0.197   1.265  0.00  0.00    -0.092 F 
ENDROOT
TORSDOF 0
ENDMDL
