MODEL 1
REMARK minimizedAffinity 0.306492567
REMARK minimizedRMSD -1
REMARK  0 active torsions:
REMARK  status: ('A' for Active; 'I' for Inactive)
ROOT
ATOM      1  C   UNL d   1       0.256   1.485   0.374  0.00  0.00     0.124 A 
ATOM      2  C1  UNL d   1       1.061   0.362   0.501  0.00  0.00     0.062 A 
ATOM      3  C2  UNL d   1       0.695  -0.834  -0.109  0.00  0.00     0.162 A 
ATOM      4  C3  UNL d   1      -0.483  -0.913  -0.853  0.00  0.00    -0.034 A 
ATOM      5  C4  UNL d   1      -1.288   0.221  -0.976  0.00  0.00     0.162 A 
ATOM      6  C5  UNL d   1      -0.917   1.414  -0.364  0.00  0.00     0.062 A 
ATOM      7  F   UNL d   1      -1.696   2.498  -0.488  0.00  0.00    -0.097 F 
ATOM      8  F1  UNL d   1      -2.426   0.180  -1.683  0.00  0.00    -0.096 F 
ATOM      9  I   UNL d   1      -1.034  -2.700  -1.767  0.00  0.00    -0.060 I 
ATOM     10  F2  UNL d   1       1.492  -1.904   0.030  0.00  0.00    -0.096 F 
ATOM     11  F3  UNL d   1       2.194   0.428   1.214  0.00  0.00    -0.097 F 
ATOM     12  F4  UNL d   1       0.610   2.635   0.963  0.00  0.00    -0.092 F 
ENDROOT
TORSDOF 0
ENDMDL
