MODEL 1
REMARK minimizedAffinity 3.1355648
REMARK minimizedRMSD -1
REMARK  3 active torsions:
REMARK  status: ('A' for Active; 'I' for Inactive)
REMARK    1  A    between atoms: C3'_2  and  C2'_3 
REMARK    2  A    between atoms: C2'_3  and  C1'_4 
REMARK    3  A    between atoms: C1'_4  and  C1_5 
ROOT
ATOM      1  C1  N4B d   1      -5.824   4.019   2.081  0.00  0.00    -0.075 A 
ATOM      2  C2  N4B d   1      -5.892   5.406   1.820  0.00  0.00     0.002 A 
ATOM      3  C3  N4B d   1      -5.648   5.878   0.554  0.00  0.00     0.002 A 
ATOM      4  C4  N4B d   1      -5.317   4.990  -0.458  0.00  0.00    -0.004 A 
ATOM      5  C5  N4B d   1      -5.279   3.650  -0.203  0.00  0.00     0.002 A 
ATOM      6  C6  N4B d   1      -5.526   3.160   1.064  0.00  0.00     0.002 A 
ENDROOT
BRANCH   1   7
ATOM      7  C1' N4B d   1      -5.999   3.463   3.468  0.00  0.00     0.057 C 
BRANCH   7   8
ATOM      8  C2' N4B d   1      -5.912   4.602   4.479  0.00  0.00     0.009 C 
BRANCH   8   9
ATOM      9  C3' N4B d   1      -5.157   4.193   5.732  0.00  0.00     0.004 C 
ATOM     10  C4' N4B d   1      -5.197   2.715   5.978  0.00  0.00     0.003 C 
ENDBRANCH   8   9
ENDBRANCH   7   8
ENDBRANCH   1   7
TORSDOF 3
ENDMDL
