MODEL 1
REMARK minimizedAffinity -3.51745701
REMARK minimizedRMSD -1
REMARK  3 active torsions:
REMARK  status: ('A' for Active; 'I' for Inactive)
REMARK    1  A    between atoms: C3'_2  and  C2'_3 
REMARK    2  A    between atoms: C2'_3  and  C1'_4 
REMARK    3  A    between atoms: C1'_4  and  C1_5 
ROOT
ATOM      1  C1  N4B d   1      -4.948   4.765   4.167  0.00  0.00    -0.075 A 
ATOM      2  C2  N4B d   1      -5.244   3.397   4.355  0.00  0.00     0.002 A 
ATOM      3  C3  N4B d   1      -4.536   2.662   5.274  0.00  0.00     0.002 A 
ATOM      4  C4  N4B d   1      -3.520   3.266   6.000  0.00  0.00    -0.004 A 
ATOM      5  C5  N4B d   1      -3.257   4.594   5.830  0.00  0.00     0.002 A 
ATOM      6  C6  N4B d   1      -3.964   5.346   4.913  0.00  0.00     0.002 A 
ENDROOT
BRANCH   1   7
ATOM      7  C1' N4B d   1      -5.637   5.589   3.113  0.00  0.00     0.057 C 
BRANCH   7   8
ATOM      8  C2' N4B d   1      -5.229   5.080   1.734  0.00  0.00     0.009 C 
BRANCH   8   9
ATOM      9  C3' N4B d   1      -5.807   5.934   0.619  0.00  0.00     0.004 C 
ATOM     10  C4' N4B d   1      -5.999   5.171  -0.658  0.00  0.00     0.003 C 
ENDBRANCH   8   9
ENDBRANCH   7   8
ENDBRANCH   1   7
TORSDOF 3
ENDMDL
