MODEL 1
REMARK minimizedAffinity 1.51464522
REMARK minimizedRMSD -1
REMARK  3 active torsions:
REMARK  status: ('A' for Active; 'I' for Inactive)
REMARK    1  A    between atoms: C3'_2  and  C2'_3 
REMARK    2  A    between atoms: C2'_3  and  C1'_4 
REMARK    3  A    between atoms: C1'_4  and  C1_5 
ROOT
ATOM      1  C1  N4B d   1      -1.537  -1.795  -0.052  0.00  0.00    -0.075 A 
ATOM      2  C2  N4B d   1      -2.645  -1.045   0.399  0.00  0.00     0.002 A 
ATOM      3  C3  N4B d   1      -2.594   0.328   0.391  0.00  0.00     0.002 A 
ATOM      4  C4  N4B d   1      -1.443   0.969  -0.043  0.00  0.00    -0.004 A 
ATOM      5  C5  N4B d   1      -0.387   0.237  -0.501  0.00  0.00     0.002 A 
ATOM      6  C6  N4B d   1      -0.426  -1.143  -0.503  0.00  0.00     0.002 A 
ENDROOT
BRANCH   1   7
ATOM      7  C1' N4B d   1      -1.514  -3.298   0.018  0.00  0.00     0.057 C 
BRANCH   7   8
ATOM      8  C2' N4B d   1      -2.333  -3.755   1.221  0.00  0.00     0.009 C 
BRANCH   8   9
ATOM      9  C3' N4B d   1      -2.222  -5.253   1.447  0.00  0.00     0.004 C 
ATOM     10  C4' N4B d   1      -3.446  -6.000   1.007  0.00  0.00     0.003 C 
ENDBRANCH   8   9
ENDBRANCH   7   8
ENDBRANCH   1   7
TORSDOF 3
ENDMDL
