MODEL 1
REMARK minimizedAffinity -0.596975744
REMARK minimizedRMSD -1
REMARK  3 active torsions:
REMARK  status: ('A' for Active; 'I' for Inactive)
REMARK    1  A    between atoms: C3'_2  and  C2'_3 
REMARK    2  A    between atoms: C2'_3  and  C1'_4 
REMARK    3  A    between atoms: C1'_4  and  C1_5 
ROOT
ATOM      1  C1  N4B d   1      -5.678   4.514   3.379  0.00  0.00    -0.075 A 
ATOM      2  C2  N4B d   1      -6.000   3.572   2.377  0.00  0.00     0.002 A 
ATOM      3  C3  N4B d   1      -5.767   3.868   1.056  0.00  0.00     0.002 A 
ATOM      4  C4  N4B d   1      -5.234   5.101   0.713  0.00  0.00    -0.004 A 
ATOM      5  C5  N4B d   1      -4.903   5.996   1.689  0.00  0.00     0.002 A 
ATOM      6  C6  N4B d   1      -5.127   5.710   3.020  0.00  0.00     0.002 A 
ENDROOT
BRANCH   1   7
ATOM      7  C1' N4B d   1      -5.994   4.270   4.829  0.00  0.00     0.057 C 
BRANCH   7   8
ATOM      8  C2' N4B d   1      -5.611   2.837   5.190  0.00  0.00     0.009 C 
BRANCH   8   9
ATOM      9  C3' N4B d   1      -4.326   2.779   5.998  0.00  0.00     0.004 C 
ATOM     10  C4' N4B d   1      -3.532   4.048   5.918  0.00  0.00     0.003 C 
ENDBRANCH   8   9
ENDBRANCH   7   8
ENDBRANCH   1   7
TORSDOF 3
ENDMDL
