MODEL 1
REMARK minimizedAffinity -2.0336585
REMARK minimizedRMSD -1
REMARK  3 active torsions:
REMARK  status: ('A' for Active; 'I' for Inactive)
REMARK    1  A    between atoms: C3'_2  and  C2'_3 
REMARK    2  A    between atoms: C2'_3  and  C1'_4 
REMARK    3  A    between atoms: C1'_4  and  C1_5 
ROOT
ATOM      1  C1  N4B d   1      -5.495   4.831   3.721  0.00  0.00    -0.075 A 
ATOM      2  C2  N4B d   1      -4.529   3.849   3.412  0.00  0.00     0.002 A 
ATOM      3  C3  N4B d   1      -4.098   2.980   4.385  0.00  0.00     0.002 A 
ATOM      4  C4  N4B d   1      -4.603   3.088   5.673  0.00  0.00    -0.004 A 
ATOM      5  C5  N4B d   1      -5.555   4.023   5.956  0.00  0.00     0.002 A 
ATOM      6  C6  N4B d   1      -6.000   4.900   4.987  0.00  0.00     0.002 A 
ENDROOT
BRANCH   1   7
ATOM      7  C1' N4B d   1      -5.934   5.858   2.712  0.00  0.00     0.057 C 
BRANCH   7   8
ATOM      8  C2' N4B d   1      -4.924   5.900   1.569  0.00  0.00     0.009 C 
BRANCH   8   9
ATOM      9  C3' N4B d   1      -5.577   5.635   0.224  0.00  0.00     0.004 C 
ATOM     10  C4' N4B d   1      -5.995   4.205   0.053  0.00  0.00     0.003 C 
ENDBRANCH   8   9
ENDBRANCH   7   8
ENDBRANCH   1   7
TORSDOF 3
ENDMDL
