MODEL 1
REMARK minimizedAffinity 2.86939597
REMARK minimizedRMSD -1
REMARK  3 active torsions:
REMARK  status: ('A' for Active; 'I' for Inactive)
REMARK    1  A    between atoms: C3'_2  and  C2'_3 
REMARK    2  A    between atoms: C2'_3  and  C1'_4 
REMARK    3  A    between atoms: C1'_4  and  C1_5 
ROOT
ATOM      1  C1  N4B d   1      -5.945   4.643   3.247  0.00  0.00    -0.075 A 
ATOM      2  C2  N4B d   1      -5.966   3.495   4.069  0.00  0.00     0.002 A 
ATOM      3  C3  N4B d   1      -5.999   3.629   5.435  0.00  0.00     0.002 A 
ATOM      4  C4  N4B d   1      -5.994   4.895   6.000  0.00  0.00    -0.004 A 
ATOM      5  C5  N4B d   1      -5.999   5.999   5.199  0.00  0.00     0.002 A 
ATOM      6  C6  N4B d   1      -5.969   5.879   3.824  0.00  0.00     0.002 A 
ENDROOT
BRANCH   1   7
ATOM      7  C1' N4B d   1      -5.821   4.546   1.751  0.00  0.00     0.057 C 
BRANCH   7   8
ATOM      8  C2' N4B d   1      -5.767   5.953   1.161  0.00  0.00     0.009 C 
BRANCH   8   9
ATOM      9  C3' N4B d   1      -5.766   5.932  -0.358  0.00  0.00     0.004 C 
ATOM     10  C4' N4B d   1      -4.846   4.892  -0.924  0.00  0.00     0.003 C 
ENDBRANCH   8   9
ENDBRANCH   7   8
ENDBRANCH   1   7
TORSDOF 3
ENDMDL
