MODEL 1
REMARK minimizedAffinity -1.45659506
REMARK minimizedRMSD -1
REMARK  3 active torsions:
REMARK  status: ('A' for Active; 'I' for Inactive)
REMARK    1  A    between atoms: C3'_2  and  C2'_3 
REMARK    2  A    between atoms: C2'_3  and  C1'_4 
REMARK    3  A    between atoms: C1'_4  and  C1_5 
ROOT
ATOM      1  C1  N4B d   1      -5.687   4.756   2.975  0.00  0.00    -0.075 A 
ATOM      2  C2  N4B d   1      -5.924   5.927   2.223  0.00  0.00     0.002 A 
ATOM      3  C3  N4B d   1      -5.954   5.868   0.851  0.00  0.00     0.002 A 
ATOM      4  C4  N4B d   1      -5.732   4.657   0.212  0.00  0.00    -0.004 A 
ATOM      5  C5  N4B d   1      -5.529   3.526   0.947  0.00  0.00     0.002 A 
ATOM      6  C6  N4B d   1      -5.501   3.570   2.326  0.00  0.00     0.002 A 
ENDROOT
BRANCH   1   7
ATOM      7  C1' N4B d   1      -5.561   4.787   4.474  0.00  0.00     0.057 C 
BRANCH   7   8
ATOM      8  C2' N4B d   1      -4.263   4.095   4.881  0.00  0.00     0.009 C 
BRANCH   8   9
ATOM      9  C3' N4B d   1      -4.489   3.053   5.962  0.00  0.00     0.004 C 
ATOM     10  C4' N4B d   1      -5.902   2.553   6.000  0.00  0.00     0.003 C 
ENDBRANCH   8   9
ENDBRANCH   7   8
ENDBRANCH   1   7
TORSDOF 3
ENDMDL
