MODEL 1
REMARK minimizedAffinity 0.0164826363
REMARK minimizedRMSD -1
REMARK  3 active torsions:
REMARK  status: ('A' for Active; 'I' for Inactive)
REMARK    1  A    between atoms: C3'_2  and  C2'_3 
REMARK    2  A    between atoms: C2'_3  and  C1'_4 
REMARK    3  A    between atoms: C1'_4  and  C1_5 
ROOT
ATOM      1  C1  N4B d   1      -5.629   3.675   2.339  0.00  0.00    -0.075 A 
ATOM      2  C2  N4B d   1      -6.000   3.666   3.702  0.00  0.00     0.002 A 
ATOM      3  C3  N4B d   1      -5.937   4.823   4.438  0.00  0.00     0.002 A 
ATOM      4  C4  N4B d   1      -5.490   5.993   3.841  0.00  0.00    -0.004 A 
ATOM      5  C5  N4B d   1      -5.158   5.999   2.518  0.00  0.00     0.002 A 
ATOM      6  C6  N4B d   1      -5.220   4.844   1.765  0.00  0.00     0.002 A 
ENDROOT
BRANCH   1   7
ATOM      7  C1' N4B d   1      -5.599   2.417   1.515  0.00  0.00     0.057 C 
BRANCH   7   8
ATOM      8  C2' N4B d   1      -4.393   1.577   1.927  0.00  0.00     0.009 C 
BRANCH   8   9
ATOM      9  C3' N4B d   1      -4.133   0.442   0.952  0.00  0.00     0.004 C 
ATOM     10  C4' N4B d   1      -3.024  -0.464   1.399  0.00  0.00     0.003 C 
ENDBRANCH   8   9
ENDBRANCH   7   8
ENDBRANCH   1   7
TORSDOF 3
ENDMDL
