MODEL 1
REMARK minimizedAffinity -2.61180592
REMARK minimizedRMSD -1
REMARK  3 active torsions:
REMARK  status: ('A' for Active; 'I' for Inactive)
REMARK    1  A    between atoms: C3'_2  and  C2'_3 
REMARK    2  A    between atoms: C2'_3  and  C1'_4 
REMARK    3  A    between atoms: C1'_4  and  C1_5 
ROOT
ATOM      1  C1  N4B d   1      -5.504   5.030   4.026  0.00  0.00    -0.075 A 
ATOM      2  C2  N4B d   1      -5.927   3.684   4.088  0.00  0.00     0.002 A 
ATOM      3  C3  N4B d   1      -5.449   2.859   5.076  0.00  0.00     0.002 A 
ATOM      4  C4  N4B d   1      -4.537   3.350   5.998  0.00  0.00    -0.004 A 
ATOM      5  C5  N4B d   1      -4.153   4.658   5.947  0.00  0.00     0.002 A 
ATOM      6  C6  N4B d   1      -4.628   5.500   4.962  0.00  0.00     0.002 A 
ENDROOT
BRANCH   1   7
ATOM      7  C1' N4B d   1      -5.932   5.947   2.913  0.00  0.00     0.057 C 
BRANCH   7   8
ATOM      8  C2' N4B d   1      -4.856   5.959   1.832  0.00  0.00     0.009 C 
BRANCH   8   9
ATOM      9  C3' N4B d   1      -5.265   5.149   0.614  0.00  0.00     0.004 C 
ATOM     10  C4' N4B d   1      -5.439   5.993  -0.613  0.00  0.00     0.003 C 
ENDBRANCH   8   9
ENDBRANCH   7   8
ENDBRANCH   1   7
TORSDOF 3
ENDMDL
