MODEL 1
REMARK minimizedAffinity -2.55272627
REMARK minimizedRMSD -1
REMARK  3 active torsions:
REMARK  status: ('A' for Active; 'I' for Inactive)
REMARK    1  A    between atoms: C3'_2  and  C2'_3 
REMARK    2  A    between atoms: C2'_3  and  C1'_4 
REMARK    3  A    between atoms: C1'_4  and  C1_5 
ROOT
ATOM      1  C1  N4B d   1      -5.325   3.956   4.491  0.00  0.00    -0.075 A 
ATOM      2  C2  N4B d   1      -4.795   3.510   3.260  0.00  0.00     0.002 A 
ATOM      3  C3  N4B d   1      -4.882   4.307   2.146  0.00  0.00     0.002 A 
ATOM      4  C4  N4B d   1      -5.509   5.541   2.232  0.00  0.00    -0.004 A 
ATOM      5  C5  N4B d   1      -5.996   5.975   3.430  0.00  0.00     0.002 A 
ATOM      6  C6  N4B d   1      -5.912   5.186   4.560  0.00  0.00     0.002 A 
ENDROOT
BRANCH   1   7
ATOM      7  C1' N4B d   1      -5.330   3.084   5.717  0.00  0.00     0.057 C 
BRANCH   7   8
ATOM      8  C2' N4B d   1      -3.982   2.378   5.834  0.00  0.00     0.009 C 
BRANCH   8   9
ATOM      9  C3' N4B d   1      -4.134   0.867   5.878  0.00  0.00     0.004 C 
ATOM     10  C4' N4B d   1      -5.568   0.427   5.862  0.00  0.00     0.003 C 
ENDBRANCH   8   9
ENDBRANCH   7   8
ENDBRANCH   1   7
TORSDOF 3
ENDMDL
