MODEL 1
REMARK minimizedAffinity -1.82537425
REMARK minimizedRMSD -1
REMARK  3 active torsions:
REMARK  status: ('A' for Active; 'I' for Inactive)
REMARK    1  A    between atoms: C3'_2  and  C2'_3 
REMARK    2  A    between atoms: C2'_3  and  C1'_4 
REMARK    3  A    between atoms: C1'_4  and  C1_5 
ROOT
ATOM      1  C1  N4B d   1      -5.820   4.407   3.907  0.00  0.00    -0.075 A 
ATOM      2  C2  N4B d   1      -5.750   3.336   2.989  0.00  0.00     0.002 A 
ATOM      3  C3  N4B d   1      -5.692   3.589   1.641  0.00  0.00     0.002 A 
ATOM      4  C4  N4B d   1      -5.723   4.900   1.187  0.00  0.00    -0.004 A 
ATOM      5  C5  N4B d   1      -5.765   5.929   2.081  0.00  0.00     0.002 A 
ATOM      6  C6  N4B d   1      -5.819   5.690   3.439  0.00  0.00     0.002 A 
ENDROOT
BRANCH   1   7
ATOM      7  C1' N4B d   1      -5.971   4.178   5.386  0.00  0.00     0.057 C 
BRANCH   7   8
ATOM      8  C2' N4B d   1      -4.595   3.931   5.997  0.00  0.00     0.009 C 
BRANCH   8   9
ATOM      9  C3' N4B d   1      -4.228   2.457   5.993  0.00  0.00     0.004 C 
ATOM     10  C4' N4B d   1      -5.427   1.559   5.932  0.00  0.00     0.003 C 
ENDBRANCH   8   9
ENDBRANCH   7   8
ENDBRANCH   1   7
TORSDOF 3
ENDMDL
