MODEL 1
REMARK minimizedAffinity 4.40448236
REMARK minimizedRMSD -1
REMARK  0 active torsions:
REMARK  status: ('A' for Active; 'I' for Inactive)
ROOT
ATOM      1  C   UNL d   1      -4.417   0.162  -4.928  0.00  0.00     0.020 A 
ATOM      2  C1  UNL d   1      -3.192   0.716  -5.298  0.00  0.00     0.020 A 
ATOM      3  C2  UNL d   1      -2.183   0.877  -4.346  0.00  0.00     0.034 A 
ATOM      4  C3  UNL d   1      -2.397   0.484  -3.020  0.00  0.00     0.017 A 
ATOM      5  C4  UNL d   1      -3.627  -0.072  -2.650  0.00  0.00     0.017 A 
ATOM      6  C5  UNL d   1      -4.634  -0.231  -3.607  0.00  0.00     0.034 A 
ATOM      7 Cl   UNL d   1      -3.966  -0.580  -1.033  0.00  0.00    -0.070 Cl
ATOM      8 Cl1  UNL d   1      -1.105   0.712  -1.896  0.00  0.00    -0.070 Cl
ENDROOT
TORSDOF 0
ENDMDL
