MODEL 1
REMARK minimizedAffinity 6.49424219
REMARK minimizedRMSD -1
REMARK  0 active torsions:
REMARK  status: ('A' for Active; 'I' for Inactive)
ROOT
ATOM      1  C   UNL d   1       4.481   0.366  -1.508  0.00  0.00     0.020 A 
ATOM      2  C1  UNL d   1       3.643   0.260  -0.398  0.00  0.00     0.020 A 
ATOM      3  C2  UNL d   1       2.838  -0.869  -0.237  0.00  0.00     0.034 A 
ATOM      4  C3  UNL d   1       2.868  -1.897  -1.187  0.00  0.00     0.017 A 
ATOM      5  C4  UNL d   1       3.709  -1.789  -2.300  0.00  0.00     0.017 A 
ATOM      6  C5  UNL d   1       4.513  -0.657  -2.457  0.00  0.00     0.034 A 
ATOM      7 Cl   UNL d   1       3.800  -3.016  -3.514  0.00  0.00    -0.070 Cl
ATOM      8 Cl1  UNL d   1       1.845  -3.264  -0.924  0.00  0.00    -0.070 Cl
ENDROOT
TORSDOF 0
ENDMDL
