MODEL 1
REMARK minimizedAffinity 8.7269783
REMARK minimizedRMSD -1
REMARK  0 active torsions:
REMARK  status: ('A' for Active; 'I' for Inactive)
ROOT
ATOM      1  C   UNL d   1       3.728   0.510  -1.544  0.00  0.00     0.020 A 
ATOM      2  C1  UNL d   1       4.872   1.295  -1.411  0.00  0.00     0.020 A 
ATOM      3  C2  UNL d   1       5.232   1.798  -0.158  0.00  0.00     0.034 A 
ATOM      4  C3  UNL d   1       4.446   1.517   0.965  0.00  0.00     0.017 A 
ATOM      5  C4  UNL d   1       3.298   0.728   0.830  0.00  0.00     0.017 A 
ATOM      6  C5  UNL d   1       2.943   0.227  -0.426  0.00  0.00     0.034 A 
ATOM      7 Cl   UNL d   1       2.279   0.338   2.171  0.00  0.00    -0.070 Cl
ATOM      8 Cl1  UNL d   1       4.951   2.171   2.483  0.00  0.00    -0.070 Cl
ENDROOT
TORSDOF 0
ENDMDL
