MODEL 1
REMARK minimizedAffinity 7.31962729
REMARK minimizedRMSD -1
REMARK  0 active torsions:
REMARK  status: ('A' for Active; 'I' for Inactive)
ROOT
ATOM      1  C   UNL d   1       4.622   0.925  -1.043  0.00  0.00     0.020 A 
ATOM      2  C1  UNL d   1       3.370   0.391  -1.342  0.00  0.00     0.020 A 
ATOM      3  C2  UNL d   1       2.897  -0.717  -0.635  0.00  0.00     0.034 A 
ATOM      4  C3  UNL d   1       3.676  -1.294   0.374  0.00  0.00     0.017 A 
ATOM      5  C4  UNL d   1       4.934  -0.756   0.673  0.00  0.00     0.017 A 
ATOM      6  C5  UNL d   1       5.403   0.353  -0.037  0.00  0.00     0.034 A 
ATOM      7 Cl   UNL d   1       5.953  -1.414   1.904  0.00  0.00    -0.070 Cl
ATOM      8 Cl1  UNL d   1       3.028  -2.661   1.207  0.00  0.00    -0.070 Cl
ENDROOT
TORSDOF 0
ENDMDL
