MODEL 1
REMARK minimizedAffinity 7.25197601
REMARK minimizedRMSD -1
REMARK  0 active torsions:
REMARK  status: ('A' for Active; 'I' for Inactive)
ROOT
ATOM      1  C   UNL d   1       6.000   0.387  -0.648  0.00  0.00     0.020 A 
ATOM      2  C1  UNL d   1       5.299   1.546  -0.977  0.00  0.00     0.020 A 
ATOM      3  C2  UNL d   1       3.903   1.540  -0.985  0.00  0.00     0.034 A 
ATOM      4  C3  UNL d   1       3.203   0.371  -0.663  0.00  0.00     0.017 A 
ATOM      5  C4  UNL d   1       3.907  -0.792  -0.332  0.00  0.00     0.017 A 
ATOM      6  C5  UNL d   1       5.305  -0.780  -0.326  0.00  0.00     0.034 A 
ATOM      7 Cl   UNL d   1       3.113  -2.272   0.077  0.00  0.00    -0.070 Cl
ATOM      8 Cl1  UNL d   1       1.476   0.435  -0.692  0.00  0.00    -0.070 Cl
ENDROOT
TORSDOF 0
ENDMDL
