MODEL 1
REMARK minimizedAffinity 12.8963518
REMARK minimizedRMSD -1
REMARK  0 active torsions:
REMARK  status: ('A' for Active; 'I' for Inactive)
ROOT
ATOM      1  C   UNL d   1      -2.441   1.774  -5.736  0.00  0.00     0.020 A 
ATOM      2  C1  UNL d   1      -3.707   1.193  -5.679  0.00  0.00     0.020 A 
ATOM      3  C2  UNL d   1      -4.037   0.342  -4.622  0.00  0.00     0.034 A 
ATOM      4  C3  UNL d   1      -3.101   0.070  -3.618  0.00  0.00     0.017 A 
ATOM      5  C4  UNL d   1      -1.830   0.655  -3.676  0.00  0.00     0.017 A 
ATOM      6  C5  UNL d   1      -1.505   1.506  -4.737  0.00  0.00     0.034 A 
ATOM      7 Cl   UNL d   1      -0.622   0.367  -2.474  0.00  0.00    -0.070 Cl
ATOM      8 Cl1  UNL d   1      -3.577  -0.991  -2.340  0.00  0.00    -0.070 Cl
ENDROOT
TORSDOF 0
ENDMDL
