MODEL 1
REMARK minimizedAffinity 3.00952578
REMARK minimizedRMSD -1
REMARK  0 active torsions:
REMARK  status: ('A' for Active; 'I' for Inactive)
ROOT
ATOM      1  C   UNL d   1      -0.138  -2.538  -1.839  0.00  0.00     0.020 A 
ATOM      2  C1  UNL d   1      -0.043  -3.732  -1.125  0.00  0.00     0.020 A 
ATOM      3  C2  UNL d   1       0.967  -3.899  -0.175  0.00  0.00     0.034 A 
ATOM      4  C3  UNL d   1       1.885  -2.870   0.064  0.00  0.00     0.017 A 
ATOM      5  C4  UNL d   1       1.789  -1.672  -0.653  0.00  0.00     0.017 A 
ATOM      6  C5  UNL d   1       0.776  -1.510  -1.603  0.00  0.00     0.034 A 
ATOM      7 Cl   UNL d   1       2.886  -0.357  -0.413  0.00  0.00    -0.070 Cl
ATOM      8 Cl1  UNL d   1       3.108  -3.145   1.254  0.00  0.00    -0.070 Cl
ENDROOT
TORSDOF 0
ENDMDL
