MODEL 1
REMARK minimizedAffinity -3.94335413
REMARK minimizedRMSD -1
REMARK  0 active torsions:
REMARK  status: ('A' for Active; 'I' for Inactive)
ROOT
ATOM      1  C2' OXE d   1      -1.135   0.011  -1.519  0.00  0.00     0.078 C 
ATOM      2  C1' OXE d   1       1.354  -1.248  -1.199  0.00  0.00     0.078 C 
ATOM      3  C1  OXE d   1       0.451  -1.158   0.006  0.00  0.00    -0.078 A 
ATOM      4  C2  OXE d   1      -0.745  -0.499  -0.149  0.00  0.00    -0.078 A 
ATOM      5  C3  OXE d   1      -1.639  -0.435   0.917  0.00  0.00     0.003 A 
ATOM      6  C4  OXE d   1      -1.266  -0.900   2.184  0.00  0.00    -0.002 A 
ATOM      7  C5  OXE d   1      -0.036  -1.539   2.372  0.00  0.00    -0.002 A 
ATOM      8  C6  OXE d   1       0.814  -1.714   1.286  0.00  0.00     0.003 A 
ENDROOT
TORSDOF 0
ENDMDL
