MODEL 1
REMARK minimizedAffinity -3.95816207
REMARK minimizedRMSD -1
REMARK  0 active torsions:
REMARK  status: ('A' for Active; 'I' for Inactive)
ROOT
ATOM      1  C2' OXE d   1      -1.008  -0.403   1.724  0.00  0.00     0.078 C 
ATOM      2  C1' OXE d   1       0.912  -0.705  -0.302  0.00  0.00     0.078 C 
ATOM      3  C1  OXE d   1       0.794  -1.803   0.725  0.00  0.00    -0.078 A 
ATOM      4  C2  OXE d   1      -0.115  -1.626   1.739  0.00  0.00    -0.078 A 
ATOM      5  C3  OXE d   1      -0.303  -2.633   2.681  0.00  0.00     0.003 A 
ATOM      6  C4  OXE d   1       0.534  -3.756   2.694  0.00  0.00    -0.002 A 
ATOM      7  C5  OXE d   1       1.494  -3.938   1.693  0.00  0.00    -0.002 A 
ATOM      8  C6  OXE d   1       1.608  -2.993   0.679  0.00  0.00     0.003 A 
ENDROOT
TORSDOF 0
ENDMDL
