MODEL 1
REMARK minimizedAffinity 2.51206231
REMARK minimizedRMSD -1
REMARK  0 active torsions:
REMARK  status: ('A' for Active; 'I' for Inactive)
ROOT
ATOM      1  C2' OXE d   1       1.494   2.291   2.252  0.00  0.00     0.078 C 
ATOM      2  C1' OXE d   1       2.887   4.527   1.284  0.00  0.00     0.078 C 
ATOM      3  C1  OXE d   1       2.127   4.678   2.578  0.00  0.00    -0.078 A 
ATOM      4  C2  OXE d   1       1.410   3.592   3.020  0.00  0.00    -0.078 A 
ATOM      5  C3  OXE d   1       0.736   3.660   4.236  0.00  0.00     0.003 A 
ATOM      6  C4  OXE d   1       0.655   4.871   4.935  0.00  0.00    -0.002 A 
ATOM      7  C5  OXE d   1       1.345   6.000   4.482  0.00  0.00    -0.002 A 
ATOM      8  C6  OXE d   1       2.119   5.909   3.330  0.00  0.00     0.003 A 
ENDROOT
TORSDOF 0
ENDMDL
