MODEL 1
REMARK minimizedAffinity -1.65673542
REMARK minimizedRMSD -1
REMARK  0 active torsions:
REMARK  status: ('A' for Active; 'I' for Inactive)
ROOT
ATOM      1  C2' OXE d   1       1.558  -2.936   1.226  0.00  0.00     0.078 C 
ATOM      2  C1' OXE d   1       0.973  -1.181  -0.885  0.00  0.00     0.078 C 
ATOM      3  C1  OXE d   1       0.135  -1.082   0.365  0.00  0.00    -0.078 A 
ATOM      4  C2  OXE d   1       0.398  -1.976   1.375  0.00  0.00    -0.078 A 
ATOM      5  C3  OXE d   1      -0.309  -1.892   2.571  0.00  0.00     0.003 A 
ATOM      6  C4  OXE d   1      -1.387  -1.008   2.697  0.00  0.00    -0.002 A 
ATOM      7  C5  OXE d   1      -1.697  -0.115   1.666  0.00  0.00    -0.002 A 
ATOM      8  C6  OXE d   1      -0.920  -0.110   0.512  0.00  0.00     0.003 A 
ENDROOT
TORSDOF 0
ENDMDL
