MODEL 1
REMARK minimizedAffinity -1.46061087
REMARK minimizedRMSD -1
REMARK  0 active torsions:
REMARK  status: ('A' for Active; 'I' for Inactive)
ROOT
ATOM      1  C2' OXE d   1       0.396   5.921   4.570  0.00  0.00     0.078 C 
ATOM      2  C1' OXE d   1       2.811   5.932   6.000  0.00  0.00     0.078 C 
ATOM      3  C1  OXE d   1       2.886   5.951   4.494  0.00  0.00    -0.078 A 
ATOM      4  C2  OXE d   1       1.700   5.898   3.802  0.00  0.00    -0.078 A 
ATOM      5  C3  OXE d   1       1.709   5.969   2.411  0.00  0.00     0.003 A 
ATOM      6  C4  OXE d   1       2.919   5.937   1.708  0.00  0.00    -0.002 A 
ATOM      7  C5  OXE d   1       4.139   5.950   2.393  0.00  0.00    -0.002 A 
ATOM      8  C6  OXE d   1       4.139   6.000   3.783  0.00  0.00     0.003 A 
ENDROOT
TORSDOF 0
ENDMDL
