MODEL 1
REMARK minimizedAffinity -1.08597815
REMARK minimizedRMSD -1
REMARK  0 active torsions:
REMARK  status: ('A' for Active; 'I' for Inactive)
ROOT
ATOM      1  C2' OXE d   1       0.059  -5.774   2.925  0.00  0.00     0.078 C 
ATOM      2  C1' OXE d   1       2.054  -4.083   1.904  0.00  0.00     0.078 C 
ATOM      3  C1  OXE d   1       0.804  -3.443   2.456  0.00  0.00    -0.078 A 
ATOM      4  C2  OXE d   1      -0.187  -4.280   2.911  0.00  0.00    -0.078 A 
ATOM      5  C3  OXE d   1      -1.337  -3.742   3.480  0.00  0.00     0.003 A 
ATOM      6  C4  OXE d   1      -1.561  -2.360   3.454  0.00  0.00    -0.002 A 
ATOM      7  C5  OXE d   1      -0.581  -1.491   2.959  0.00  0.00    -0.002 A 
ATOM      8  C6  OXE d   1       0.622  -2.013   2.497  0.00  0.00     0.003 A 
ENDROOT
TORSDOF 0
ENDMDL
