MODEL 1
REMARK minimizedAffinity 3.10224557
REMARK minimizedRMSD -1
REMARK  0 active torsions:
REMARK  status: ('A' for Active; 'I' for Inactive)
ROOT
ATOM      1  C2' OXE d   1      -1.917   0.390  -0.910  0.00  0.00     0.078 C 
ATOM      2  C1' OXE d   1      -3.665  -0.596   1.053  0.00  0.00     0.078 C 
ATOM      3  C1  OXE d   1      -2.205  -0.958   1.165  0.00  0.00    -0.078 A 
ATOM      4  C2  OXE d   1      -1.365  -0.510   0.174  0.00  0.00    -0.078 A 
ATOM      5  C3  OXE d   1      -0.000  -0.770   0.258  0.00  0.00     0.003 A 
ATOM      6  C4  OXE d   1       0.501  -1.612   1.259  0.00  0.00    -0.002 A 
ATOM      7  C5  OXE d   1      -0.344  -2.111   2.255  0.00  0.00    -0.002 A 
ATOM      8  C6  OXE d   1      -1.690  -1.760   2.247  0.00  0.00     0.003 A 
ENDROOT
TORSDOF 0
ENDMDL
