MODEL 1
REMARK minimizedAffinity 1.24368358
REMARK minimizedRMSD -1
REMARK  0 active torsions:
REMARK  status: ('A' for Active; 'I' for Inactive)
ROOT
ATOM      1  C2' OXE d   1      -0.785  -0.205   0.795  0.00  0.00     0.078 C 
ATOM      2  C1' OXE d   1       1.160  -1.179  -0.980  0.00  0.00     0.078 C 
ATOM      3  C1  OXE d   1       1.019  -1.866   0.355  0.00  0.00    -0.078 A 
ATOM      4  C2  OXE d   1       0.097  -1.353   1.236  0.00  0.00    -0.078 A 
ATOM      5  C3  OXE d   1      -0.111  -1.982   2.460  0.00  0.00     0.003 A 
ATOM      6  C4  OXE d   1       0.715  -3.038   2.864  0.00  0.00    -0.002 A 
ATOM      7  C5  OXE d   1       1.688  -3.550   1.998  0.00  0.00    -0.002 A 
ATOM      8  C6  OXE d   1       1.823  -3.004   0.727  0.00  0.00     0.003 A 
ENDROOT
TORSDOF 0
ENDMDL
