MODEL 1
REMARK minimizedAffinity -2.14527392
REMARK minimizedRMSD -1
REMARK  0 active torsions:
REMARK  status: ('A' for Active; 'I' for Inactive)
ROOT
ATOM      1  C2' OXE d   1      -1.152  -1.093   2.371  0.00  0.00     0.078 C 
ATOM      2  C1' OXE d   1       0.045  -0.548  -0.109  0.00  0.00     0.078 C 
ATOM      3  C1  OXE d   1       0.492  -1.784   0.631  0.00  0.00    -0.078 A 
ATOM      4  C2  OXE d   1      -0.065  -2.017   1.866  0.00  0.00    -0.078 A 
ATOM      5  C3  OXE d   1       0.272  -3.171   2.567  0.00  0.00     0.003 A 
ATOM      6  C4  OXE d   1       1.285  -4.016   2.097  0.00  0.00    -0.002 A 
ATOM      7  C5  OXE d   1       1.894  -3.775   0.861  0.00  0.00    -0.002 A 
ATOM      8  C6  OXE d   1       1.480  -2.689   0.098  0.00  0.00     0.003 A 
ENDROOT
TORSDOF 0
ENDMDL
