MODEL 1
REMARK minimizedAffinity -2.45990324
REMARK minimizedRMSD -1
REMARK  0 active torsions:
REMARK  status: ('A' for Active; 'I' for Inactive)
ROOT
ATOM      1  C2' OXE d   1       2.322  -0.867  -2.755  0.00  0.00     0.078 C 
ATOM      2  C1' OXE d   1       3.042   0.333  -0.321  0.00  0.00     0.078 C 
ATOM      3  C1  OXE d   1       1.599  -0.066  -0.510  0.00  0.00    -0.078 A 
ATOM      4  C2  OXE d   1       1.247  -0.610  -1.721  0.00  0.00    -0.078 A 
ATOM      5  C3  OXE d   1      -0.059  -1.045  -1.928  0.00  0.00     0.003 A 
ATOM      6  C4  OXE d   1      -1.050  -0.794  -0.970  0.00  0.00    -0.002 A 
ATOM      7  C5  OXE d   1      -0.720  -0.205   0.255  0.00  0.00    -0.002 A 
ATOM      8  C6  OXE d   1       0.605   0.125   0.517  0.00  0.00     0.003 A 
ENDROOT
TORSDOF 0
ENDMDL
