MODEL 1
REMARK minimizedAffinity -3.71419525
REMARK minimizedRMSD -1
REMARK  0 active torsions:
REMARK  status: ('A' for Active; 'I' for Inactive)
ROOT
ATOM      1  C   UNL d   1      -0.133   0.800  -5.028  0.00  0.00     0.023 A 
ATOM      2  C1  UNL d   1       1.118   0.980  -4.438  0.00  0.00     0.003 A 
ATOM      3  C2  UNL d   1       1.389   0.421  -3.187  0.00  0.00     0.048 A 
ATOM      4  C3  UNL d   1       0.405  -0.317  -2.532  0.00  0.00     0.023 A 
ATOM      5  C4  UNL d   1      -0.849  -0.500  -3.118  0.00  0.00     0.048 A 
ATOM      6  C5  UNL d   1      -1.115   0.061  -4.368  0.00  0.00     0.003 A 
ATOM      7  I   UNL d   1       0.806  -1.149  -0.670  0.00  0.00    -0.146 I 
ENDROOT
TORSDOF 0
ENDMDL
