MODEL 1
REMARK minimizedAffinity 0.474226862
REMARK minimizedRMSD -1
REMARK  0 active torsions:
REMARK  status: ('A' for Active; 'I' for Inactive)
ROOT
ATOM      1  C   UNL d   1      -0.240   0.325   3.735  0.00  0.00     0.023 A 
ATOM      2  C1  UNL d   1      -1.197   0.640   2.771  0.00  0.00     0.003 A 
ATOM      3  C2  UNL d   1      -0.919   0.440   1.418  0.00  0.00     0.048 A 
ATOM      4  C3  UNL d   1       0.318  -0.076   1.035  0.00  0.00     0.023 A 
ATOM      5  C4  UNL d   1       1.279  -0.394   1.996  0.00  0.00     0.048 A 
ATOM      6  C5  UNL d   1       0.997  -0.192   3.348  0.00  0.00     0.003 A 
ATOM      7  I   UNL d   1       0.734  -0.375  -0.979  0.00  0.00    -0.146 I 
ENDROOT
TORSDOF 0
ENDMDL
