MODEL 1
REMARK minimizedAffinity -2.69285226
REMARK minimizedRMSD -1
REMARK  0 active torsions:
REMARK  status: ('A' for Active; 'I' for Inactive)
ROOT
ATOM      1  C   UNL d   1       0.056   0.202   3.423  0.00  0.00     0.023 A 
ATOM      2  C1  UNL d   1      -0.914   0.423   2.445  0.00  0.00     0.003 A 
ATOM      3  C2  UNL d   1      -0.644   0.115   1.110  0.00  0.00     0.048 A 
ATOM      4  C3  UNL d   1       0.597  -0.415   0.760  0.00  0.00     0.023 A 
ATOM      5  C4  UNL d   1       1.571  -0.638   1.735  0.00  0.00     0.048 A 
ATOM      6  C5  UNL d   1       1.297  -0.328   3.068  0.00  0.00     0.003 A 
ATOM      7  I   UNL d   1       1.001  -0.874  -1.227  0.00  0.00    -0.146 I 
ENDROOT
TORSDOF 0
ENDMDL
