MODEL 1
REMARK minimizedAffinity -2.86837649
REMARK minimizedRMSD -1
REMARK  0 active torsions:
REMARK  status: ('A' for Active; 'I' for Inactive)
ROOT
ATOM      1  C   UNL d   1      -0.977   0.899   3.045  0.00  0.00     0.023 A 
ATOM      2  C1  UNL d   1       0.279   1.390   2.689  0.00  0.00     0.003 A 
ATOM      3  C2  UNL d   1       0.743   1.242   1.380  0.00  0.00     0.048 A 
ATOM      4  C3  UNL d   1      -0.055   0.602   0.432  0.00  0.00     0.023 A 
ATOM      5  C4  UNL d   1      -1.313   0.109   0.784  0.00  0.00     0.048 A 
ATOM      6  C5  UNL d   1      -1.772   0.259   2.094  0.00  0.00     0.003 A 
ATOM      7  I   UNL d   1       0.633   0.380  -1.516  0.00  0.00    -0.146 I 
ENDROOT
TORSDOF 0
ENDMDL
