MODEL 1
REMARK minimizedAffinity -1.81419802
REMARK minimizedRMSD -1
REMARK  0 active torsions:
REMARK  status: ('A' for Active; 'I' for Inactive)
ROOT
ATOM      1  C   UNL d   1      -1.164   1.317   2.254  0.00  0.00     0.023 A 
ATOM      2  C1  UNL d   1      -1.336  -0.008   1.853  0.00  0.00     0.003 A 
ATOM      3  C2  UNL d   1      -0.243  -0.747   1.392  0.00  0.00     0.048 A 
ATOM      4  C3  UNL d   1       1.018  -0.154   1.337  0.00  0.00     0.023 A 
ATOM      5  C4  UNL d   1       1.194   1.171   1.739  0.00  0.00     0.048 A 
ATOM      6  C5  UNL d   1       0.099   1.906   2.197  0.00  0.00     0.003 A 
ATOM      7  I   UNL d   1       2.645  -1.251   0.653  0.00  0.00    -0.146 I 
ENDROOT
TORSDOF 0
ENDMDL
