MODEL 1
REMARK minimizedAffinity -2.20724654
REMARK minimizedRMSD -1
REMARK  0 active torsions:
REMARK  status: ('A' for Active; 'I' for Inactive)
ROOT
ATOM      1  C   UNL d   1      -0.168   1.363   3.003  0.00  0.00     0.023 A 
ATOM      2  C1  UNL d   1       1.013   1.324   2.261  0.00  0.00     0.003 A 
ATOM      3  C2  UNL d   1       1.028   0.724   1.001  0.00  0.00     0.048 A 
ATOM      4  C3  UNL d   1      -0.141   0.164   0.487  0.00  0.00     0.023 A 
ATOM      5  C4  UNL d   1      -1.326   0.202   1.225  0.00  0.00     0.048 A 
ATOM      6  C5  UNL d   1      -1.336   0.803   2.485  0.00  0.00     0.003 A 
ATOM      7  I   UNL d   1      -0.121  -0.731  -1.388  0.00  0.00    -0.146 I 
ENDROOT
TORSDOF 0
ENDMDL
