MODEL 1
REMARK minimizedAffinity -1.56893802
REMARK minimizedRMSD -1
REMARK  0 active torsions:
REMARK  status: ('A' for Active; 'I' for Inactive)
ROOT
ATOM      1  C   UNL d   1       0.254   0.261   5.693  0.00  0.00     0.023 A 
ATOM      2  C1  UNL d   1       1.038  -0.741   5.121  0.00  0.00     0.003 A 
ATOM      3  C2  UNL d   1       1.095  -0.876   3.732  0.00  0.00     0.048 A 
ATOM      4  C3  UNL d   1       0.368  -0.005   2.922  0.00  0.00     0.023 A 
ATOM      5  C4  UNL d   1      -0.417   1.000   3.490  0.00  0.00     0.048 A 
ATOM      6  C5  UNL d   1      -0.472   1.130   4.879  0.00  0.00     0.003 A 
ATOM      7  I   UNL d   1       0.452  -0.204   0.855  0.00  0.00    -0.146 I 
ENDROOT
TORSDOF 0
ENDMDL
