MODEL 1
REMARK minimizedAffinity 0.560064852
REMARK minimizedRMSD -1
REMARK  0 active torsions:
REMARK  status: ('A' for Active; 'I' for Inactive)
ROOT
ATOM      1  C1  BNZ d   1       1.320  -3.848   0.459  0.00  0.00     0.000 A 
ATOM      2  C2  BNZ d   1       0.675  -2.642   0.523  0.00  0.00     0.000 A 
ATOM      3  C3  BNZ d   1       1.367  -1.491   0.776  0.00  0.00     0.000 A 
ATOM      4  C4  BNZ d   1       2.695  -1.552   1.005  0.00  0.00     0.000 A 
ATOM      5  C5  BNZ d   1       3.358  -2.761   0.953  0.00  0.00     0.000 A 
ATOM      6  C6  BNZ d   1       2.665  -3.913   0.659  0.00  0.00     0.000 A 
ENDROOT
TORSDOF 0
ENDMDL
