MODEL 1
REMARK minimizedAffinity 4.15347338
REMARK minimizedRMSD -1
REMARK  0 active torsions:
REMARK  status: ('A' for Active; 'I' for Inactive)
ROOT
ATOM      1  C1  BNZ d   1       5.826  -4.554   5.998  0.00  0.00     0.000 A 
ATOM      2  C2  BNZ d   1       5.290  -5.815   5.997  0.00  0.00     0.000 A 
ATOM      3  C3  BNZ d   1       3.936  -6.000   5.972  0.00  0.00     0.000 A 
ATOM      4  C4  BNZ d   1       3.120  -4.926   5.988  0.00  0.00     0.000 A 
ATOM      5  C5  BNZ d   1       3.644  -3.649   5.998  0.00  0.00     0.000 A 
ATOM      6  C6  BNZ d   1       5.008  -3.467   5.984  0.00  0.00     0.000 A 
ENDROOT
TORSDOF 0
ENDMDL
