MODEL 1
REMARK minimizedAffinity 6.99842834
REMARK minimizedRMSD -1
REMARK  0 active torsions:
REMARK  status: ('A' for Active; 'I' for Inactive)
ROOT
ATOM      1  C1  BNZ d   1       1.692  -1.207   2.129  0.00  0.00     0.000 A 
ATOM      2  C2  BNZ d   1       2.801  -1.807   1.595  0.00  0.00     0.000 A 
ATOM      3  C3  BNZ d   1       2.686  -2.925   0.817  0.00  0.00     0.000 A 
ATOM      4  C4  BNZ d   1       1.467  -3.464   0.607  0.00  0.00     0.000 A 
ATOM      5  C5  BNZ d   1       0.341  -2.876   1.146  0.00  0.00     0.000 A 
ATOM      6  C6  BNZ d   1       0.457  -1.728   1.897  0.00  0.00     0.000 A 
ENDROOT
TORSDOF 0
ENDMDL
