MODEL 1
REMARK minimizedAffinity 4.20350027
REMARK minimizedRMSD -1
REMARK  0 active torsions:
REMARK  status: ('A' for Active; 'I' for Inactive)
ROOT
ATOM      1  C1  BNZ d   1      -4.501  -1.875  -2.281  0.00  0.00     0.000 A 
ATOM      2  C2  BNZ d   1      -5.266  -2.458  -3.256  0.00  0.00     0.000 A 
ATOM      3  C3  BNZ d   1      -6.000  -1.695  -4.120  0.00  0.00     0.000 A 
ATOM      4  C4  BNZ d   1      -6.000  -0.353  -3.984  0.00  0.00     0.000 A 
ATOM      5  C5  BNZ d   1      -5.241   0.249  -3.000  0.00  0.00     0.000 A 
ATOM      6  C6  BNZ d   1      -4.473  -0.520  -2.157  0.00  0.00     0.000 A 
ENDROOT
TORSDOF 0
ENDMDL
