MODEL 1
REMARK minimizedAffinity -2.32710147
REMARK minimizedRMSD -1
REMARK  0 active torsions:
REMARK  status: ('A' for Active; 'I' for Inactive)
ROOT
ATOM      1  C1  BNZ d   1      -5.040   4.470  -5.884  0.00  0.00     0.000 A 
ATOM      2  C2  BNZ d   1      -4.745   3.135  -5.967  0.00  0.00     0.000 A 
ATOM      3  C3  BNZ d   1      -3.448   2.705  -5.999  0.00  0.00     0.000 A 
ATOM      4  C4  BNZ d   1      -2.449   3.611  -5.989  0.00  0.00     0.000 A 
ATOM      5  C5  BNZ d   1      -2.730   4.960  -5.915  0.00  0.00     0.000 A 
ATOM      6  C6  BNZ d   1      -4.036   5.388  -5.844  0.00  0.00     0.000 A 
ENDROOT
TORSDOF 0
ENDMDL
