MODEL 1
REMARK minimizedAffinity 6.91169453
REMARK minimizedRMSD -1
REMARK  0 active torsions:
REMARK  status: ('A' for Active; 'I' for Inactive)
ROOT
ATOM      1  C1  BNZ d   1       1.536  -1.554   1.530  0.00  0.00     0.000 A 
ATOM      2  C2  BNZ d   1       1.174  -2.622   0.753  0.00  0.00     0.000 A 
ATOM      3  C3  BNZ d   1       2.105  -3.531   0.333  0.00  0.00     0.000 A 
ATOM      4  C4  BNZ d   1       3.402  -3.348   0.657  0.00  0.00     0.000 A 
ATOM      5  C5  BNZ d   1       3.784  -2.271   1.431  0.00  0.00     0.000 A 
ATOM      6  C6  BNZ d   1       2.838  -1.381   1.885  0.00  0.00     0.000 A 
ENDROOT
TORSDOF 0
ENDMDL
