MODEL 1
REMARK minimizedAffinity 5.1047039
REMARK minimizedRMSD -1
REMARK  0 active torsions:
REMARK  status: ('A' for Active; 'I' for Inactive)
ROOT
ATOM      1  C1  BNZ d   1       3.920  -3.581   5.929  0.00  0.00     0.000 A 
ATOM      2  C2  BNZ d   1       3.204  -4.749   5.950  0.00  0.00     0.000 A 
ATOM      3  C3  BNZ d   1       3.840  -5.958   5.999  0.00  0.00     0.000 A 
ATOM      4  C4  BNZ d   1       5.188  -6.000   5.987  0.00  0.00     0.000 A 
ATOM      5  C5  BNZ d   1       5.923  -4.832   5.957  0.00  0.00     0.000 A 
ATOM      6  C6  BNZ d   1       5.280  -3.615   5.947  0.00  0.00     0.000 A 
ENDROOT
TORSDOF 0
ENDMDL
