MODEL 1
REMARK minimizedAffinity 6.39256096
REMARK minimizedRMSD -1
REMARK  0 active torsions:
REMARK  status: ('A' for Active; 'I' for Inactive)
ROOT
ATOM      1  C1  BNZ d   1      -0.458   2.931  -3.715  0.00  0.00     0.000 A 
ATOM      2  C2  BNZ d   1      -0.348   2.108  -2.626  0.00  0.00     0.000 A 
ATOM      3  C3  BNZ d   1      -1.462   1.605  -2.013  0.00  0.00     0.000 A 
ATOM      4  C4  BNZ d   1      -2.683   1.958  -2.464  0.00  0.00     0.000 A 
ATOM      5  C5  BNZ d   1      -2.810   2.795  -3.555  0.00  0.00     0.000 A 
ATOM      6  C6  BNZ d   1      -1.687   3.268  -4.193  0.00  0.00     0.000 A 
ENDROOT
TORSDOF 0
ENDMDL
