MODEL 1
REMARK minimizedAffinity -1.58075929
REMARK minimizedRMSD -1
REMARK  1 active torsions:
REMARK  status: ('A' for Active; 'I' for Inactive)
REMARK    1  A    between atoms: C1_2  and  C2_3 
ROOT
ATOM      1  C2  UNL d   1       4.985   4.941  -3.694  0.00  0.00    -0.076 A 
ATOM      2  C3  UNL d   1       5.962   3.931  -3.653  0.00  0.00     0.004 A 
ATOM      3  C4  UNL d   1       5.986   2.917  -4.609  0.00  0.00    -0.003 A 
ATOM      4  C5  UNL d   1       5.034   2.897  -5.623  0.00  0.00     0.000 A 
ATOM      5  C6  UNL d   1       4.069   3.901  -5.689  0.00  0.00     0.000 A 
ATOM      6  C7  UNL d   1       4.040   4.940  -4.743  0.00  0.00    -0.073 A 
ATOM      7  C8  UNL d   1       2.973   5.993  -4.859  0.00  0.00     0.078 C 
ENDROOT
BRANCH   1   8
ATOM      8  C1  UNL d   1       4.992   6.000  -2.615  0.00  0.00     0.053 C 
ATOM      9  C   UNL d   1       5.938   5.661  -1.473  0.00  0.00     0.018 C 
ENDBRANCH   1   8
TORSDOF 1
ENDMDL
