MODEL 1
REMARK minimizedAffinity -5.00865078
REMARK minimizedRMSD -1
REMARK  1 active torsions:
REMARK  status: ('A' for Active; 'I' for Inactive)
REMARK    1  A    between atoms: C1_2  and  C2_3 
ROOT
ATOM      1  C2  UNL d   1       4.854   3.899  -4.394  0.00  0.00    -0.076 A 
ATOM      2  C3  UNL d   1       5.999   4.409  -3.758  0.00  0.00     0.004 A 
ATOM      3  C4  UNL d   1       5.892   5.229  -2.636  0.00  0.00    -0.003 A 
ATOM      4  C5  UNL d   1       4.637   5.553  -2.132  0.00  0.00     0.000 A 
ATOM      5  C6  UNL d   1       3.491   5.042  -2.740  0.00  0.00     0.000 A 
ATOM      6  C7  UNL d   1       3.582   4.200  -3.862  0.00  0.00    -0.073 A 
ATOM      7  C8  UNL d   1       2.313   3.682  -4.481  0.00  0.00     0.078 C 
ENDROOT
BRANCH   1   8
ATOM      8  C1  UNL d   1       5.031   3.037  -5.623  0.00  0.00     0.053 C 
ATOM      9  C   UNL d   1       5.245   1.570  -5.280  0.00  0.00     0.018 C 
ENDBRANCH   1   8
TORSDOF 1
ENDMDL
