MODEL 1
REMARK minimizedAffinity 9.4623003
REMARK minimizedRMSD -1
REMARK  1 active torsions:
REMARK  status: ('A' for Active; 'I' for Inactive)
REMARK    1  A    between atoms: C1_2  and  C2_3 
ROOT
ATOM      1  C2  UNL d   1       4.714   3.880  -3.047  0.00  0.00    -0.076 A 
ATOM      2  C3  UNL d   1       3.519   3.269  -3.462  0.00  0.00     0.004 A 
ATOM      3  C4  UNL d   1       2.345   4.008  -3.598  0.00  0.00    -0.003 A 
ATOM      4  C5  UNL d   1       2.348   5.371  -3.322  0.00  0.00     0.000 A 
ATOM      5  C6  UNL d   1       3.529   5.997  -2.926  0.00  0.00     0.000 A 
ATOM      6  C7  UNL d   1       4.725   5.270  -2.799  0.00  0.00    -0.073 A 
ATOM      7  C8  UNL d   1       5.968   5.995  -2.363  0.00  0.00     0.078 C 
ENDROOT
BRANCH   1   8
ATOM      8  C1  UNL d   1       5.950   3.023  -2.890  0.00  0.00     0.053 C 
ATOM      9  C   UNL d   1       5.755   1.616  -3.435  0.00  0.00     0.018 C 
ENDBRANCH   1   8
TORSDOF 1
ENDMDL
