MODEL 1
REMARK minimizedAffinity 10.5956516
REMARK minimizedRMSD -1
REMARK  1 active torsions:
REMARK  status: ('A' for Active; 'I' for Inactive)
REMARK    1  A    between atoms: C1_2  and  C2_3 
ROOT
ATOM      1  C2  UNL d   1       1.299  -3.581  -3.902  0.00  0.00    -0.076 A 
ATOM      2  C3  UNL d   1       1.204  -2.897  -2.678  0.00  0.00     0.004 A 
ATOM      3  C4  UNL d   1      -0.009  -2.361  -2.248  0.00  0.00    -0.003 A 
ATOM      4  C5  UNL d   1      -1.146  -2.501  -3.036  0.00  0.00     0.000 A 
ATOM      5  C6  UNL d   1      -1.074  -3.192  -4.245  0.00  0.00     0.000 A 
ATOM      6  C7  UNL d   1       0.137  -3.753  -4.685  0.00  0.00    -0.073 A 
ATOM      7  C8  UNL d   1       0.159  -4.482  -6.000  0.00  0.00     0.078 C 
ENDROOT
BRANCH   1   8
ATOM      8  C1  UNL d   1       2.647  -4.118  -4.329  0.00  0.00     0.053 C 
ATOM      9  C   UNL d   1       3.002  -3.731  -5.756  0.00  0.00     0.018 C 
ENDBRANCH   1   8
TORSDOF 1
ENDMDL
