MODEL 1
REMARK minimizedAffinity 1.76417184
REMARK minimizedRMSD -1
REMARK  1 active torsions:
REMARK  status: ('A' for Active; 'I' for Inactive)
REMARK    1  A    between atoms: C1_2  and  C2_3 
ROOT
ATOM      1  C2  UNL d   1       1.056  -1.256  -1.859  0.00  0.00    -0.076 A 
ATOM      2  C3  UNL d   1       2.133  -2.154  -1.968  0.00  0.00     0.004 A 
ATOM      3  C4  UNL d   1       3.424  -1.773  -1.606  0.00  0.00    -0.003 A 
ATOM      4  C5  UNL d   1       3.659  -0.489  -1.128  0.00  0.00     0.000 A 
ATOM      5  C6  UNL d   1       2.600   0.409  -0.997  0.00  0.00     0.000 A 
ATOM      6  C7  UNL d   1       1.290   0.036  -1.342  0.00  0.00    -0.073 A 
ATOM      7  C8  UNL d   1       0.187   1.046  -1.186  0.00  0.00     0.078 C 
ENDROOT
BRANCH   1   8
ATOM      8  C1  UNL d   1      -0.317  -1.717  -2.293  0.00  0.00     0.053 C 
ATOM      9  C   UNL d   1      -0.502  -3.219  -2.144  0.00  0.00     0.018 C 
ENDBRANCH   1   8
TORSDOF 1
ENDMDL
