MODEL 1
REMARK minimizedAffinity 12.9778385
REMARK minimizedRMSD -1
REMARK  1 active torsions:
REMARK  status: ('A' for Active; 'I' for Inactive)
REMARK    1  A    between atoms: C1_2  and  C2_3 
ROOT
ATOM      1  C2  UNL d   1       4.741  -1.409  -3.825  0.00  0.00    -0.076 A 
ATOM      2  C3  UNL d   1       5.780  -1.145  -2.916  0.00  0.00     0.004 A 
ATOM      3  C4  UNL d   1       5.997  -1.973  -1.816  0.00  0.00    -0.003 A 
ATOM      4  C5  UNL d   1       5.180  -3.079  -1.608  0.00  0.00     0.000 A 
ATOM      5  C6  UNL d   1       4.155  -3.365  -2.510  0.00  0.00     0.000 A 
ATOM      6  C7  UNL d   1       3.933  -2.550  -3.633  0.00  0.00    -0.073 A 
ATOM      7  C8  UNL d   1       2.810  -2.902  -4.570  0.00  0.00     0.078 C 
ENDROOT
BRANCH   1   8
ATOM      8  C1  UNL d   1       4.536  -0.460  -4.985  0.00  0.00     0.053 C 
ATOM      9  C   UNL d   1       4.592   0.999  -4.561  0.00  0.00     0.018 C 
ENDBRANCH   1   8
TORSDOF 1
ENDMDL
