MODEL 1
REMARK minimizedAffinity 5.57396603
REMARK minimizedRMSD -1
REMARK  1 active torsions:
REMARK  status: ('A' for Active; 'I' for Inactive)
REMARK    1  A    between atoms: C1_2  and  C2_3 
ROOT
ATOM      1  C2  UNL d   1       3.286  -2.504  -3.839  0.00  0.00    -0.076 A 
ATOM      2  C3  UNL d   1       3.963  -1.391  -4.367  0.00  0.00     0.004 A 
ATOM      3  C4  UNL d   1       5.309  -1.169  -4.080  0.00  0.00    -0.003 A 
ATOM      4  C5  UNL d   1       6.000  -2.056  -3.262  0.00  0.00     0.000 A 
ATOM      5  C6  UNL d   1       5.348  -3.175  -2.744  0.00  0.00     0.000 A 
ATOM      6  C7  UNL d   1       3.996  -3.422  -3.036  0.00  0.00    -0.073 A 
ATOM      7  C8  UNL d   1       3.342  -4.641  -2.446  0.00  0.00     0.078 C 
ENDROOT
BRANCH   1   8
ATOM      8  C1  UNL d   1       1.819  -2.679  -4.161  0.00  0.00     0.053 C 
ATOM      9  C   UNL d   1       0.917  -1.912  -3.207  0.00  0.00     0.018 C 
ENDBRANCH   1   8
TORSDOF 1
ENDMDL
