MODEL 1
REMARK minimizedAffinity 1.71759987
REMARK minimizedRMSD -1
REMARK  1 active torsions:
REMARK  status: ('A' for Active; 'I' for Inactive)
REMARK    1  A    between atoms: C1_2  and  C2_3 
ROOT
ATOM      1  C2  UNL d   1       4.258  -2.989  -3.267  0.00  0.00    -0.076 A 
ATOM      2  C3  UNL d   1       3.786  -2.157  -2.237  0.00  0.00     0.004 A 
ATOM      3  C4  UNL d   1       4.405  -2.141  -0.988  0.00  0.00    -0.003 A 
ATOM      4  C5  UNL d   1       5.507  -2.956  -0.750  0.00  0.00     0.000 A 
ATOM      5  C6  UNL d   1       5.998  -3.774  -1.766  0.00  0.00     0.000 A 
ATOM      6  C7  UNL d   1       5.396  -3.791  -3.036  0.00  0.00    -0.073 A 
ATOM      7  C8  UNL d   1       5.964  -4.697  -4.093  0.00  0.00     0.078 C 
ENDROOT
BRANCH   1   8
ATOM      8  C1  UNL d   1       3.529  -2.985  -4.592  0.00  0.00     0.053 C 
ATOM      9  C   UNL d   1       2.174  -3.671  -4.514  0.00  0.00     0.018 C 
ENDBRANCH   1   8
TORSDOF 1
ENDMDL
