MODEL 1
REMARK minimizedAffinity 10.0765123
REMARK minimizedRMSD -1
REMARK  1 active torsions:
REMARK  status: ('A' for Active; 'I' for Inactive)
REMARK    1  A    between atoms: C1_2  and  C2_3 
ROOT
ATOM      1  C2  UNL d   1       0.732  -3.613  -3.618  0.00  0.00    -0.076 A 
ATOM      2  C3  UNL d   1       0.983  -3.071  -2.345  0.00  0.00     0.004 A 
ATOM      3  C4  UNL d   1       0.047  -2.252  -1.717  0.00  0.00    -0.003 A 
ATOM      4  C5  UNL d   1      -1.156  -1.961  -2.352  0.00  0.00     0.000 A 
ATOM      5  C6  UNL d   1      -1.429  -2.505  -3.607  0.00  0.00     0.000 A 
ATOM      6  C7  UNL d   1      -0.503  -3.346  -4.246  0.00  0.00    -0.073 A 
ATOM      7  C8  UNL d   1      -0.847  -3.899  -5.602  0.00  0.00     0.078 C 
ENDROOT
BRANCH   1   8
ATOM      8  C1  UNL d   1       1.796  -4.473  -4.261  0.00  0.00     0.053 C 
ATOM      9  C   UNL d   1       2.507  -3.764  -5.404  0.00  0.00     0.018 C 
ENDBRANCH   1   8
TORSDOF 1
ENDMDL
