MODEL 1
REMARK minimizedAffinity 8.5867939
REMARK minimizedRMSD -1
REMARK  1 active torsions:
REMARK  status: ('A' for Active; 'I' for Inactive)
REMARK    1  A    between atoms: C1_2  and  C2_3 
ROOT
ATOM      1  C2  UNL d   1       5.160   0.312  -4.659  0.00  0.00    -0.076 A 
ATOM      2  C3  UNL d   1       5.979  -0.698  -4.124  0.00  0.00     0.004 A 
ATOM      3  C4  UNL d   1       5.427  -1.867  -3.602  0.00  0.00    -0.003 A 
ATOM      4  C5  UNL d   1       4.048  -2.045  -3.607  0.00  0.00     0.000 A 
ATOM      5  C6  UNL d   1       3.222  -1.062  -4.150  0.00  0.00     0.000 A 
ATOM      6  C7  UNL d   1       3.763   0.115  -4.695  0.00  0.00    -0.073 A 
ATOM      7  C8  UNL d   1       2.826   1.146  -5.262  0.00  0.00     0.078 C 
ENDROOT
BRANCH   1   8
ATOM      8  C1  UNL d   1       5.813   1.569  -5.187  0.00  0.00     0.053 C 
ATOM      9  C   UNL d   1       5.999   2.625  -4.108  0.00  0.00     0.018 C 
ENDBRANCH   1   8
TORSDOF 1
ENDMDL
