MODEL 1
REMARK minimizedAffinity 6.18419075
REMARK minimizedRMSD -1
REMARK  1 active torsions:
REMARK  status: ('A' for Active; 'I' for Inactive)
REMARK    1  A    between atoms: C1_2  and  C2_3 
ROOT
ATOM      1  C2  UNL d   1       3.982   4.722  -2.574  0.00  0.00    -0.076 A 
ATOM      2  C3  UNL d   1       3.423   4.694  -1.284  0.00  0.00     0.004 A 
ATOM      3  C4  UNL d   1       4.144   5.146  -0.180  0.00  0.00    -0.003 A 
ATOM      4  C5  UNL d   1       5.435   5.633  -0.347  0.00  0.00     0.000 A 
ATOM      5  C6  UNL d   1       5.999   5.684  -1.622  0.00  0.00     0.000 A 
ATOM      6  C7  UNL d   1       5.280   5.248  -2.748  0.00  0.00    -0.073 A 
ATOM      7  C8  UNL d   1       5.939   5.320  -4.098  0.00  0.00     0.078 C 
ENDROOT
BRANCH   1   8
ATOM      8  C1  UNL d   1       3.163   4.194  -3.729  0.00  0.00     0.053 C 
ATOM      9  C   UNL d   1       2.245   5.250  -4.324  0.00  0.00     0.018 C 
ENDBRANCH   1   8
TORSDOF 1
ENDMDL
