MODEL 1
REMARK minimizedAffinity 8.57984924
REMARK minimizedRMSD -1
REMARK  1 active torsions:
REMARK  status: ('A' for Active; 'I' for Inactive)
REMARK    1  A    between atoms: C1_2  and  C2_3 
ROOT
ATOM      1  C2  UNL d   1       3.680   4.884  -1.509  0.00  0.00    -0.076 A 
ATOM      2  C3  UNL d   1       3.563   4.446  -0.178  0.00  0.00     0.004 A 
ATOM      3  C4  UNL d   1       2.314   4.209   0.392  0.00  0.00    -0.003 A 
ATOM      4  C5  UNL d   1       1.161   4.406  -0.359  0.00  0.00     0.000 A 
ATOM      5  C6  UNL d   1       1.258   4.823  -1.686  0.00  0.00     0.000 A 
ATOM      6  C7  UNL d   1       2.511   5.051  -2.282  0.00  0.00    -0.073 A 
ATOM      7  C8  UNL d   1       2.557   5.506  -3.715  0.00  0.00     0.078 C 
ENDROOT
BRANCH   1   8
ATOM      8  C1  UNL d   1       5.061   5.150  -2.065  0.00  0.00     0.053 C 
ATOM      9  C   UNL d   1       5.911   5.999  -1.133  0.00  0.00     0.018 C 
ENDBRANCH   1   8
TORSDOF 1
ENDMDL
