MODEL 1
REMARK minimizedAffinity 3.38641
REMARK minimizedRMSD -1
REMARK  1 active torsions:
REMARK  status: ('A' for Active; 'I' for Inactive)
REMARK    1  A    between atoms: C1_2  and  C2_3 
ROOT
ATOM      1  C2  UNL d   1       4.837   4.902  -2.535  0.00  0.00    -0.076 A 
ATOM      2  C3  UNL d   1       6.000   4.600  -3.266  0.00  0.00     0.004 A 
ATOM      3  C4  UNL d   1       5.997   3.602  -4.238  0.00  0.00    -0.003 A 
ATOM      4  C5  UNL d   1       4.831   2.889  -4.496  0.00  0.00     0.000 A 
ATOM      5  C6  UNL d   1       3.664   3.187  -3.793  0.00  0.00     0.000 A 
ATOM      6  C7  UNL d   1       3.646   4.202  -2.821  0.00  0.00    -0.073 A 
ATOM      7  C8  UNL d   1       2.361   4.478  -2.089  0.00  0.00     0.078 C 
ENDROOT
BRANCH   1   8
ATOM      8  C1  UNL d   1       4.908   5.977  -1.474  0.00  0.00     0.053 C 
ATOM      9  C   UNL d   1       5.995   5.710  -0.445  0.00  0.00     0.018 C 
ENDBRANCH   1   8
TORSDOF 1
ENDMDL
