MODEL 1
REMARK minimizedAffinity 10.1422234
REMARK minimizedRMSD -1
REMARK  1 active torsions:
REMARK  status: ('A' for Active; 'I' for Inactive)
REMARK    1  A    between atoms: C1_2  and  C2_3 
ROOT
ATOM      1  C2  UNL d   1       4.797   4.749  -2.580  0.00  0.00    -0.076 A 
ATOM      2  C3  UNL d   1       5.998   4.230  -3.094  0.00  0.00     0.004 A 
ATOM      3  C4  UNL d   1       5.999   3.109  -3.922  0.00  0.00    -0.003 A 
ATOM      4  C5  UNL d   1       4.798   2.489  -4.250  0.00  0.00     0.000 A 
ATOM      5  C6  UNL d   1       3.596   3.001  -3.763  0.00  0.00     0.000 A 
ATOM      6  C7  UNL d   1       3.576   4.140  -2.941  0.00  0.00    -0.073 A 
ATOM      7  C8  UNL d   1       2.252   4.646  -2.439  0.00  0.00     0.078 C 
ENDROOT
BRANCH   1   8
ATOM      8  C1  UNL d   1       4.861   5.951  -1.665  0.00  0.00     0.053 C 
ATOM      9  C   UNL d   1       5.995   5.856  -0.656  0.00  0.00     0.018 C 
ENDBRANCH   1   8
TORSDOF 1
ENDMDL
