MODEL 1
REMARK minimizedAffinity -4.36062431
REMARK minimizedRMSD -1
REMARK  3 active torsions:
REMARK  status: ('A' for Active; 'I' for Inactive)
REMARK    1  A    between atoms: C3'_2  and  C2'_3 
REMARK    2  A    between atoms: C2'_3  and  C1'_4 
REMARK    3  A    between atoms: C1'_4  and  C1_5 
ROOT
ATOM      1  C1  N4B d   1       0.535   0.035  -0.010  0.00  0.00    -0.075 A 
ATOM      2  C2  N4B d   1       0.003   1.342  -0.039  0.00  0.00     0.002 A 
ATOM      3  C3  N4B d   1      -0.841   1.763   0.959  0.00  0.00     0.002 A 
ATOM      4  C4  N4B d   1      -1.180   0.891   1.983  0.00  0.00    -0.004 A 
ATOM      5  C5  N4B d   1      -0.641  -0.362   2.018  0.00  0.00     0.002 A 
ATOM      6  C6  N4B d   1       0.211  -0.796   1.023  0.00  0.00     0.002 A 
ENDROOT
BRANCH   1   7
ATOM      7  C1' N4B d   1       1.393  -0.499  -1.124  0.00  0.00     0.057 C 
BRANCH   7   8
ATOM      8  C2' N4B d   1       1.238  -2.015  -1.194  0.00  0.00     0.009 C 
BRANCH   8   9
ATOM      9  C3' N4B d   1       0.630  -2.464  -2.512  0.00  0.00     0.004 C 
ATOM     10  C4' N4B d   1      -0.058  -3.792  -2.412  0.00  0.00     0.003 C 
ENDBRANCH   8   9
ENDBRANCH   7   8
ENDBRANCH   1   7
TORSDOF 3
ENDMDL
