MODEL 1
REMARK minimizedAffinity -5.07931089
REMARK minimizedRMSD -1
REMARK  3 active torsions:
REMARK  status: ('A' for Active; 'I' for Inactive)
REMARK    1  A    between atoms: C3'_2  and  C2'_3 
REMARK    2  A    between atoms: C2'_3  and  C1'_4 
REMARK    3  A    between atoms: C1'_4  and  C1_5 
ROOT
ATOM      1  C1  N4B d   1       0.085  -0.974  -0.928  0.00  0.00    -0.075 A 
ATOM      2  C2  N4B d   1       1.354  -1.595  -0.916  0.00  0.00     0.002 A 
ATOM      3  C3  N4B d   1       1.568  -2.732  -1.655  0.00  0.00     0.002 A 
ATOM      4  C4  N4B d   1       0.528  -3.275  -2.395  0.00  0.00    -0.004 A 
ATOM      5  C5  N4B d   1      -0.687  -2.655  -2.421  0.00  0.00     0.002 A 
ATOM      6  C6  N4B d   1      -0.915  -1.509  -1.686  0.00  0.00     0.002 A 
ENDROOT
BRANCH   1   7
ATOM      7  C1' N4B d   1      -0.221   0.223  -0.068  0.00  0.00     0.057 C 
BRANCH   7   8
ATOM      8  C2' N4B d   1      -1.003  -0.230   1.160  0.00  0.00     0.009 C 
BRANCH   8   9
ATOM      9  C3' N4B d   1      -1.374   0.936   2.060  0.00  0.00     0.004 C 
ATOM     10  C4' N4B d   1      -0.895   2.254   1.529  0.00  0.00     0.003 C 
ENDBRANCH   8   9
ENDBRANCH   7   8
ENDBRANCH   1   7
TORSDOF 3
ENDMDL
