MODEL 1
REMARK minimizedAffinity -2.08287454
REMARK minimizedRMSD -1
REMARK  3 active torsions:
REMARK  status: ('A' for Active; 'I' for Inactive)
REMARK    1  A    between atoms: C3'_2  and  C2'_3 
REMARK    2  A    between atoms: C2'_3  and  C1'_4 
REMARK    3  A    between atoms: C1'_4  and  C1_5 
ROOT
ATOM      1  C1  N4B d   1       0.041  -1.628  -1.204  0.00  0.00    -0.075 A 
ATOM      2  C2  N4B d   1       0.899  -2.710  -0.909  0.00  0.00     0.002 A 
ATOM      3  C3  N4B d   1       0.778  -3.890  -1.602  0.00  0.00     0.002 A 
ATOM      4  C4  N4B d   1      -0.201  -4.016  -2.576  0.00  0.00    -0.004 A 
ATOM      5  C5  N4B d   1      -1.008  -2.958  -2.872  0.00  0.00     0.002 A 
ATOM      6  C6  N4B d   1      -0.896  -1.765  -2.187  0.00  0.00     0.002 A 
ENDROOT
BRANCH   1   7
ATOM      7  C1' N4B d   1       0.078  -0.347  -0.415  0.00  0.00     0.057 C 
BRANCH   7   8
ATOM      8  C2' N4B d   1      -0.832  -0.483   0.802  0.00  0.00     0.009 C 
BRANCH   8   9
ATOM      9  C3' N4B d   1      -0.380   0.403   1.951  0.00  0.00     0.004 C 
ATOM     10  C4' N4B d   1      -1.230   1.629   2.108  0.00  0.00     0.003 C 
ENDBRANCH   8   9
ENDBRANCH   7   8
ENDBRANCH   1   7
TORSDOF 3
ENDMDL
