MODEL 1
REMARK minimizedAffinity -3.01308012
REMARK minimizedRMSD -1
REMARK  3 active torsions:
REMARK  status: ('A' for Active; 'I' for Inactive)
REMARK    1  A    between atoms: C3'_2  and  C2'_3 
REMARK    2  A    between atoms: C2'_3  and  C1'_4 
REMARK    3  A    between atoms: C1'_4  and  C1_5 
ROOT
ATOM      1  C1  N4B d   1       0.367  -0.034  -0.667  0.00  0.00    -0.075 A 
ATOM      2  C2  N4B d   1      -0.329   1.131  -1.056  0.00  0.00     0.002 A 
ATOM      3  C3  N4B d   1      -1.154   1.769  -0.163  0.00  0.00     0.002 A 
ATOM      4  C4  N4B d   1      -1.312   1.252   1.114  0.00  0.00    -0.004 A 
ATOM      5  C5  N4B d   1      -0.616   0.141   1.491  0.00  0.00     0.002 A 
ATOM      6  C6  N4B d   1       0.219  -0.509   0.605  0.00  0.00     0.002 A 
ENDROOT
BRANCH   1   7
ATOM      7  C1' N4B d   1       1.213  -0.815  -1.635  0.00  0.00     0.057 C 
BRANCH   7   8
ATOM      8  C2' N4B d   1       1.214  -2.285  -1.227  0.00  0.00     0.009 C 
BRANCH   8   9
ATOM      9  C3' N4B d   1       0.519  -3.161  -2.257  0.00  0.00     0.004 C 
ATOM     10  C4' N4B d   1       0.207  -2.427  -3.527  0.00  0.00     0.003 C 
ENDBRANCH   8   9
ENDBRANCH   7   8
ENDBRANCH   1   7
TORSDOF 3
ENDMDL
