MODEL 1
REMARK minimizedAffinity -3.30141616
REMARK minimizedRMSD -1
REMARK  3 active torsions:
REMARK  status: ('A' for Active; 'I' for Inactive)
REMARK    1  A    between atoms: C3'_2  and  C2'_3 
REMARK    2  A    between atoms: C2'_3  and  C1'_4 
REMARK    3  A    between atoms: C1'_4  and  C1_5 
ROOT
ATOM      1  C1  N4B d   1       0.746  -1.852  -0.998  0.00  0.00    -0.075 A 
ATOM      2  C2  N4B d   1       1.526  -3.030  -1.003  0.00  0.00     0.002 A 
ATOM      3  C3  N4B d   1       1.287  -4.007  -1.939  0.00  0.00     0.002 A 
ATOM      4  C4  N4B d   1       0.267  -3.837  -2.863  0.00  0.00    -0.004 A 
ATOM      5  C5  N4B d   1      -0.464  -2.686  -2.867  0.00  0.00     0.002 A 
ATOM      6  C6  N4B d   1      -0.233  -1.694  -1.936  0.00  0.00     0.002 A 
ENDROOT
BRANCH   1   7
ATOM      7  C1' N4B d   1       0.913  -0.794   0.058  0.00  0.00     0.057 C 
BRANCH   7   8
ATOM      8  C2' N4B d   1      -0.328   0.093   0.078  0.00  0.00     0.009 C 
BRANCH   8   9
ATOM      9  C3' N4B d   1       0.021   1.561  -0.098  0.00  0.00     0.004 C 
ATOM     10  C4' N4B d   1       0.768   1.833  -1.369  0.00  0.00     0.003 C 
ENDBRANCH   8   9
ENDBRANCH   7   8
ENDBRANCH   1   7
TORSDOF 3
ENDMDL
