MODEL 1
REMARK minimizedAffinity -3.93995905
REMARK minimizedRMSD -1
REMARK  3 active torsions:
REMARK  status: ('A' for Active; 'I' for Inactive)
REMARK    1  A    between atoms: C3'_2  and  C2'_3 
REMARK    2  A    between atoms: C2'_3  and  C1'_4 
REMARK    3  A    between atoms: C1'_4  and  C1_5 
ROOT
ATOM      1  C1  N4B d   1       0.077   0.772   0.208  0.00  0.00    -0.075 A 
ATOM      2  C2  N4B d   1      -0.650   1.371   1.261  0.00  0.00     0.002 A 
ATOM      3  C3  N4B d   1      -0.977   2.703   1.198  0.00  0.00     0.002 A 
ATOM      4  C4  N4B d   1      -0.575   3.457   0.105  0.00  0.00    -0.004 A 
ATOM      5  C5  N4B d   1       0.104   2.865  -0.919  0.00  0.00     0.002 A 
ATOM      6  C6  N4B d   1       0.437   1.526  -0.871  0.00  0.00     0.002 A 
ENDROOT
BRANCH   1   7
ATOM      7  C1' N4B d   1       0.532  -0.661   0.273  0.00  0.00     0.057 C 
BRANCH   7   8
ATOM      8  C2' N4B d   1       0.796  -1.166  -1.143  0.00  0.00     0.009 C 
BRANCH   8   9
ATOM      9  C3' N4B d   1       1.292  -2.602  -1.150  0.00  0.00     0.004 C 
ATOM     10  C4' N4B d   1       0.600  -3.450  -2.176  0.00  0.00     0.003 C 
ENDBRANCH   8   9
ENDBRANCH   7   8
ENDBRANCH   1   7
TORSDOF 3
ENDMDL
