MODEL 1
REMARK minimizedAffinity -4.18382406
REMARK minimizedRMSD -1
REMARK  3 active torsions:
REMARK  status: ('A' for Active; 'I' for Inactive)
REMARK    1  A    between atoms: C3'_2  and  C2'_3 
REMARK    2  A    between atoms: C2'_3  and  C1'_4 
REMARK    3  A    between atoms: C1'_4  and  C1_5 
ROOT
ATOM      1  C1  N4B d   1       0.355   0.219  -0.224  0.00  0.00    -0.075 A 
ATOM      2  C2  N4B d   1       0.263   1.622  -0.089  0.00  0.00     0.002 A 
ATOM      3  C3  N4B d   1      -0.476   2.166   0.933  0.00  0.00     0.002 A 
ATOM      4  C4  N4B d   1      -1.144   1.331   1.817  0.00  0.00    -0.004 A 
ATOM      5  C5  N4B d   1      -1.029  -0.023   1.694  0.00  0.00     0.002 A 
ATOM      6  C6  N4B d   1      -0.286  -0.583   0.675  0.00  0.00     0.002 A 
ENDROOT
BRANCH   1   7
ATOM      7  C1' N4B d   1       1.080  -0.421  -1.376  0.00  0.00     0.057 C 
BRANCH   7   8
ATOM      8  C2' N4B d   1       0.810  -1.923  -1.364  0.00  0.00     0.009 C 
BRANCH   8   9
ATOM      9  C3' N4B d   1       0.413  -2.439  -2.736  0.00  0.00     0.004 C 
ATOM     10  C4' N4B d   1      -0.304  -3.755  -2.676  0.00  0.00     0.003 C 
ENDBRANCH   8   9
ENDBRANCH   7   8
ENDBRANCH   1   7
TORSDOF 3
ENDMDL
