MODEL 1
REMARK minimizedAffinity -4.58846807
REMARK minimizedRMSD -1
REMARK  1 active torsions:
REMARK  status: ('A' for Active; 'I' for Inactive)
REMARK    1  A    between atoms: C1_2  and  C2_3 
ROOT
ATOM      1  C2  UNL d   1       0.440   0.111  -1.059  0.00  0.00    -0.077 A 
ATOM      2  C3  UNL d   1      -0.871  -0.372  -0.948  0.00  0.00     0.002 A 
ATOM      3  C4  UNL d   1      -1.394  -1.225  -1.921  0.00  0.00     0.002 A 
ATOM      4  C5  UNL d   1      -0.611  -1.606  -3.009  0.00  0.00    -0.004 A 
ATOM      5  C6  UNL d   1       0.693  -1.130  -3.129  0.00  0.00     0.002 A 
ATOM      6  C7  UNL d   1       1.217  -0.276  -2.158  0.00  0.00     0.002 A 
ENDROOT
BRANCH   1   7
ATOM      7  C1  UNL d   1       1.023   0.992   0.015  0.00  0.00     0.055 C 
ATOM      8  C   UNL d   1       1.430   0.181   1.237  0.00  0.00     0.019 C 
ENDBRANCH   1   7
TORSDOF 1
ENDMDL
