MODEL 1
REMARK minimizedAffinity 0.105878346
REMARK minimizedRMSD -1
REMARK  1 active torsions:
REMARK  status: ('A' for Active; 'I' for Inactive)
REMARK    1  A    between atoms: C1_2  and  C2_3 
ROOT
ATOM      1  C2  UNL d   1      -0.236   0.281  -0.700  0.00  0.00    -0.077 A 
ATOM      2  C3  UNL d   1      -1.375   0.925  -0.198  0.00  0.00     0.002 A 
ATOM      3  C4  UNL d   1      -2.650   0.498  -0.571  0.00  0.00     0.002 A 
ATOM      4  C5  UNL d   1      -2.799  -0.578  -1.444  0.00  0.00    -0.004 A 
ATOM      5  C6  UNL d   1      -1.672  -1.224  -1.951  0.00  0.00     0.002 A 
ATOM      6  C7  UNL d   1      -0.396  -0.797  -1.580  0.00  0.00     0.002 A 
ENDROOT
BRANCH   1   7
ATOM      7  C1  UNL d   1       1.140   0.709  -0.261  0.00  0.00     0.055 C 
ATOM      8  C   UNL d   1       1.375   0.391   1.209  0.00  0.00     0.019 C 
ENDBRANCH   1   7
TORSDOF 1
ENDMDL
