MODEL 1
REMARK minimizedAffinity -5.28830147
REMARK minimizedRMSD -1
REMARK  1 active torsions:
REMARK  status: ('A' for Active; 'I' for Inactive)
REMARK    1  A    between atoms: C1_2  and  C2_3 
ROOT
ATOM      1  C2  UNL d   1      -1.061  -0.512   0.762  0.00  0.00    -0.077 A 
ATOM      2  C3  UNL d   1      -1.187  -0.915   2.099  0.00  0.00     0.002 A 
ATOM      3  C4  UNL d   1      -0.162  -0.662   3.012  0.00  0.00     0.002 A 
ATOM      4  C5  UNL d   1       0.994  -0.002   2.601  0.00  0.00    -0.004 A 
ATOM      5  C6  UNL d   1       1.130   0.401   1.273  0.00  0.00     0.002 A 
ATOM      6  C7  UNL d   1       0.107   0.148   0.358  0.00  0.00     0.002 A 
ENDROOT
BRANCH   1   7
ATOM      7  C1  UNL d   1      -2.186  -0.740  -0.214  0.00  0.00     0.055 C 
ATOM      8  C   UNL d   1      -2.844   0.572  -0.615  0.00  0.00     0.019 C 
ENDBRANCH   1   7
TORSDOF 1
ENDMDL
