MODEL 1
REMARK minimizedAffinity -6.31187963
REMARK minimizedRMSD -1
REMARK  1 active torsions:
REMARK  status: ('A' for Active; 'I' for Inactive)
REMARK    1  A    between atoms: C1_2  and  C2_3 
ROOT
ATOM      1  C2  UNL d   1      -0.947  -0.159   0.268  0.00  0.00    -0.077 A 
ATOM      2  C3  UNL d   1      -2.318   0.133   0.242  0.00  0.00     0.002 A 
ATOM      3  C4  UNL d   1      -3.029   0.285   1.434  0.00  0.00     0.002 A 
ATOM      4  C5  UNL d   1      -2.378   0.151   2.658  0.00  0.00    -0.004 A 
ATOM      5  C6  UNL d   1      -1.015  -0.141   2.694  0.00  0.00     0.002 A 
ATOM      6  C7  UNL d   1      -0.303  -0.295   1.504  0.00  0.00     0.002 A 
ENDROOT
BRANCH   1   7
ATOM      7  C1  UNL d   1      -0.167  -0.275  -1.016  0.00  0.00     0.055 C 
ATOM      8  C   UNL d   1      -0.717   0.659  -2.084  0.00  0.00     0.019 C 
ENDBRANCH   1   7
TORSDOF 1
ENDMDL
