MODEL 1
REMARK minimizedAffinity -6.23173523
REMARK minimizedRMSD -1
REMARK  1 active torsions:
REMARK  status: ('A' for Active; 'I' for Inactive)
REMARK    1  A    between atoms: C1_2  and  C2_3 
ROOT
ATOM      1  C2  UNL d   1      -1.410   0.049  -0.195  0.00  0.00    -0.077 A 
ATOM      2  C3  UNL d   1      -2.655   0.177   0.437  0.00  0.00     0.002 A 
ATOM      3  C4  UNL d   1      -2.761   0.038   1.822  0.00  0.00     0.002 A 
ATOM      4  C5  UNL d   1      -1.627  -0.227   2.587  0.00  0.00    -0.004 A 
ATOM      5  C6  UNL d   1      -0.385  -0.359   1.968  0.00  0.00     0.002 A 
ATOM      6  C7  UNL d   1      -0.276  -0.221   0.583  0.00  0.00     0.002 A 
ENDROOT
BRANCH   1   7
ATOM      7  C1  UNL d   1      -1.285   0.248  -1.683  0.00  0.00     0.055 C 
ATOM      8  C   UNL d   1       0.093  -0.162  -2.182  0.00  0.00     0.019 C 
ENDBRANCH   1   7
TORSDOF 1
ENDMDL
