MODEL 1
REMARK minimizedAffinity -3.98328209
REMARK minimizedRMSD -1
REMARK  1 active torsions:
REMARK  status: ('A' for Active; 'I' for Inactive)
REMARK    1  A    between atoms: C1_2  and  C2_3 
ROOT
ATOM      1  C2  UNL d   1      -1.565  -1.201   0.558  0.00  0.00    -0.077 A 
ATOM      2  C3  UNL d   1      -1.997  -0.682  -0.671  0.00  0.00     0.002 A 
ATOM      3  C4  UNL d   1      -1.260   0.312  -1.316  0.00  0.00     0.002 A 
ATOM      4  C5  UNL d   1      -0.084   0.792  -0.744  0.00  0.00    -0.004 A 
ATOM      5  C6  UNL d   1       0.354   0.284   0.478  0.00  0.00     0.002 A 
ATOM      6  C7  UNL d   1      -0.383  -0.709   1.126  0.00  0.00     0.002 A 
ENDROOT
BRANCH   1   7
ATOM      7  C1  UNL d   1      -2.333  -2.307   1.232  0.00  0.00     0.055 C 
ATOM      8  C   UNL d   1      -1.493  -2.993   2.300  0.00  0.00     0.019 C 
ENDBRANCH   1   7
TORSDOF 1
ENDMDL
