MODEL 1
REMARK minimizedAffinity -6.50239515
REMARK minimizedRMSD -1
REMARK  1 active torsions:
REMARK  status: ('A' for Active; 'I' for Inactive)
REMARK    1  A    between atoms: C1_2  and  C2_3 
ROOT
ATOM      1  C2  UNL d   1      -0.797  -0.174   1.039  0.00  0.00    -0.077 A 
ATOM      2  C3  UNL d   1      -2.150   0.100   0.796  0.00  0.00     0.002 A 
ATOM      3  C4  UNL d   1      -3.090  -0.016   1.822  0.00  0.00     0.002 A 
ATOM      4  C5  UNL d   1      -2.685  -0.402   3.098  0.00  0.00    -0.004 A 
ATOM      5  C6  UNL d   1      -1.342  -0.679   3.349  0.00  0.00     0.002 A 
ATOM      6  C7  UNL d   1      -0.402  -0.564   2.324  0.00  0.00     0.002 A 
ENDROOT
BRANCH   1   7
ATOM      7  C1  UNL d   1       0.225  -0.001  -0.055  0.00  0.00     0.055 C 
ATOM      8  C   UNL d   1      -0.424  -0.042  -1.431  0.00  0.00     0.019 C 
ENDBRANCH   1   7
TORSDOF 1
ENDMDL
