MODEL 1
REMARK minimizedAffinity -3.03153682
REMARK minimizedRMSD -1
REMARK  1 active torsions:
REMARK  status: ('A' for Active; 'I' for Inactive)
REMARK    1  A    between atoms: C1_2  and  C2_3 
ROOT
ATOM      1  C2  UNL d   1       0.304  -0.063  -1.498  0.00  0.00    -0.077 A 
ATOM      2  C3  UNL d   1      -1.053  -0.076  -1.145  0.00  0.00     0.002 A 
ATOM      3  C4  UNL d   1      -1.963  -0.853  -1.864  0.00  0.00     0.002 A 
ATOM      4  C5  UNL d   1      -1.526  -1.626  -2.938  0.00  0.00    -0.004 A 
ATOM      5  C6  UNL d   1      -0.179  -1.619  -3.298  0.00  0.00     0.002 A 
ATOM      6  C7  UNL d   1       0.732  -0.842  -2.581  0.00  0.00     0.002 A 
ENDROOT
BRANCH   1   7
ATOM      7  C1  UNL d   1       1.295   0.736  -0.693  0.00  0.00     0.055 C 
ATOM      8  C   UNL d   1       1.545   0.099   0.666  0.00  0.00     0.019 C 
ENDBRANCH   1   7
TORSDOF 1
ENDMDL
