MODEL 1
REMARK minimizedAffinity -4.02332592
REMARK minimizedRMSD -1
REMARK  1 active torsions:
REMARK  status: ('A' for Active; 'I' for Inactive)
REMARK    1  A    between atoms: C1_2  and  C2_3 
ROOT
ATOM      1  C2  UNL d   1       0.373  -0.603  -1.920  0.00  0.00    -0.077 A 
ATOM      2  C3  UNL d   1      -0.985  -0.934  -2.022  0.00  0.00     0.002 A 
ATOM      3  C4  UNL d   1      -1.918  -0.364  -1.154  0.00  0.00     0.002 A 
ATOM      4  C5  UNL d   1      -1.504   0.543  -0.181  0.00  0.00    -0.004 A 
ATOM      5  C6  UNL d   1      -0.155   0.877  -0.070  0.00  0.00     0.002 A 
ATOM      6  C7  UNL d   1       0.780   0.307  -0.936  0.00  0.00     0.002 A 
ENDROOT
BRANCH   1   7
ATOM      7  C1  UNL d   1       1.374  -1.178  -2.888  0.00  0.00     0.055 C 
ATOM      8  C   UNL d   1       2.221  -0.086  -3.524  0.00  0.00     0.019 C 
ENDBRANCH   1   7
TORSDOF 1
ENDMDL
