MODEL 1
REMARK minimizedAffinity -2.63570428
REMARK minimizedRMSD -1
REMARK  1 active torsions:
REMARK  status: ('A' for Active; 'I' for Inactive)
REMARK    1  A    between atoms: C1_2  and  C2_3 
ROOT
ATOM      1  C2  UNL d   1       0.661   0.099  -1.216  0.00  0.00    -0.077 A 
ATOM      2  C3  UNL d   1       1.490   0.216  -0.092  0.00  0.00     0.002 A 
ATOM      3  C4  UNL d   1       0.937   0.317   1.186  0.00  0.00     0.002 A 
ATOM      4  C5  UNL d   1      -0.446   0.297   1.352  0.00  0.00    -0.004 A 
ATOM      5  C6  UNL d   1      -1.279   0.183   0.240  0.00  0.00     0.002 A 
ATOM      6  C7  UNL d   1      -0.728   0.084  -1.038  0.00  0.00     0.002 A 
ENDROOT
BRANCH   1   7
ATOM      7  C1  UNL d   1       1.257  -0.058  -2.591  0.00  0.00     0.055 C 
ATOM      8  C   UNL d   1       1.044  -1.466  -3.128  0.00  0.00     0.019 C 
ENDBRANCH   1   7
TORSDOF 1
ENDMDL
