MODEL 1
REMARK minimizedAffinity -4.71609974
REMARK minimizedRMSD -1
REMARK  1 active torsions:
REMARK  status: ('A' for Active; 'I' for Inactive)
REMARK    1  A    between atoms: C1_2  and  C2_3 
ROOT
ATOM      1  C2  UNL d   1      -0.744  -0.052  -1.928  0.00  0.00    -0.077 A 
ATOM      2  C3  UNL d   1       0.542   0.403  -2.249  0.00  0.00     0.002 A 
ATOM      3  C4  UNL d   1       1.413  -0.403  -2.985  0.00  0.00     0.002 A 
ATOM      4  C5  UNL d   1       1.005  -1.666  -3.410  0.00  0.00    -0.004 A 
ATOM      5  C6  UNL d   1      -0.272  -2.128  -3.094  0.00  0.00     0.002 A 
ATOM      6  C7  UNL d   1      -1.143  -1.324  -2.357  0.00  0.00     0.002 A 
ENDROOT
BRANCH   1   7
ATOM      7  C1  UNL d   1      -1.702   0.835  -1.176  0.00  0.00     0.055 C 
ATOM      8  C   UNL d   1      -2.455   0.056  -0.108  0.00  0.00     0.019 C 
ENDBRANCH   1   7
TORSDOF 1
ENDMDL
