MODEL 1
REMARK minimizedAffinity -4.75180197
REMARK minimizedRMSD -1
REMARK  1 active torsions:
REMARK  status: ('A' for Active; 'I' for Inactive)
REMARK    1  A    between atoms: C1_2  and  C2_3 
ROOT
ATOM      1  C2  UNL d   1      -0.456  -0.037   0.649  0.00  0.00    -0.077 A 
ATOM      2  C3  UNL d   1      -1.186   0.101   1.838  0.00  0.00     0.002 A 
ATOM      3  C4  UNL d   1      -0.528   0.169   3.067  0.00  0.00     0.002 A 
ATOM      4  C5  UNL d   1       0.863   0.104   3.119  0.00  0.00    -0.004 A 
ATOM      5  C6  UNL d   1       1.598  -0.035   1.943  0.00  0.00     0.002 A 
ATOM      6  C7  UNL d   1       0.942  -0.104   0.713  0.00  0.00     0.002 A 
ENDROOT
BRANCH   1   7
ATOM      7  C1  UNL d   1      -1.161  -0.061  -0.682  0.00  0.00     0.055 C 
ATOM      8  C   UNL d   1      -0.396  -0.896  -1.699  0.00  0.00     0.019 C 
ENDBRANCH   1   7
TORSDOF 1
ENDMDL
