MODEL 1
REMARK minimizedAffinity 10.1476793
REMARK minimizedRMSD -1
REMARK  0 active torsions:
REMARK  status: ('A' for Active; 'I' for Inactive)
ROOT
ATOM      1  C2' OXE d   1      -1.374  -0.021   2.391  0.00  0.00     0.078 C 
ATOM      2  C1' OXE d   1      -3.507  -1.751   1.810  0.00  0.00     0.078 C 
ATOM      3  C1  OXE d   1      -3.773  -0.268   1.765  0.00  0.00    -0.078 A 
ATOM      4  C2  OXE d   1      -2.736   0.571   2.096  0.00  0.00    -0.078 A 
ATOM      5  C3  OXE d   1      -2.912   1.950   2.018  0.00  0.00     0.003 A 
ATOM      6  C4  OXE d   1      -4.177   2.489   1.754  0.00  0.00    -0.002 A 
ATOM      7  C5  OXE d   1      -5.257   1.652   1.453  0.00  0.00    -0.002 A 
ATOM      8  C6  OXE d   1      -5.061   0.275   1.412  0.00  0.00     0.003 A 
ENDROOT
TORSDOF 0
ENDMDL
