MODEL 1
REMARK minimizedAffinity 10.003005
REMARK minimizedRMSD -1
REMARK  0 active torsions:
REMARK  status: ('A' for Active; 'I' for Inactive)
ROOT
ATOM      1  C2' OXE d   1      -4.628   0.502   3.585  0.00  0.00     0.078 C 
ATOM      2  C1' OXE d   1      -2.236   1.242   2.317  0.00  0.00     0.078 C 
ATOM      3  C1  OXE d   1      -3.508   1.916   1.867  0.00  0.00    -0.078 A 
ATOM      4  C2  OXE d   1      -4.680   1.513   2.461  0.00  0.00    -0.078 A 
ATOM      5  C3  OXE d   1      -5.876   2.141   2.122  0.00  0.00     0.003 A 
ATOM      6  C4  OXE d   1      -5.917   3.069   1.074  0.00  0.00    -0.002 A 
ATOM      7  C5  OXE d   1      -4.740   3.464   0.429  0.00  0.00    -0.002 A 
ATOM      8  C6  OXE d   1      -3.524   2.929   0.841  0.00  0.00     0.003 A 
ENDROOT
TORSDOF 0
ENDMDL
