MODEL 1
REMARK minimizedAffinity 4.28720808
REMARK minimizedRMSD -1
REMARK  0 active torsions:
REMARK  status: ('A' for Active; 'I' for Inactive)
ROOT
ATOM      1  C2' OXE d   1      -1.451   1.905  -4.172  0.00  0.00     0.078 C 
ATOM      2  C1' OXE d   1      -3.775   3.189  -3.261  0.00  0.00     0.078 C 
ATOM      3  C1  OXE d   1      -2.453   3.875  -3.022  0.00  0.00    -0.078 A 
ATOM      4  C2  OXE d   1      -1.318   3.217  -3.429  0.00  0.00    -0.078 A 
ATOM      5  C3  OXE d   1      -0.076   3.830  -3.283  0.00  0.00     0.003 A 
ATOM      6  C4  OXE d   1       0.040   5.039  -2.586  0.00  0.00    -0.002 A 
ATOM      7  C5  OXE d   1      -1.101   5.706  -2.128  0.00  0.00    -0.002 A 
ATOM      8  C6  OXE d   1      -2.356   5.159  -2.375  0.00  0.00     0.003 A 
ENDROOT
TORSDOF 0
ENDMDL
