MODEL 1
REMARK minimizedAffinity 5.0089798
REMARK minimizedRMSD -1
REMARK  0 active torsions:
REMARK  status: ('A' for Active; 'I' for Inactive)
ROOT
ATOM      1  C2' OXE d   1       5.959   0.064  -2.958  0.00  0.00     0.078 C 
ATOM      2  C1' OXE d   1       4.080   1.848  -1.877  0.00  0.00     0.078 C 
ATOM      3  C1  OXE d   1       3.862   0.373  -1.650  0.00  0.00    -0.078 A 
ATOM      4  C2  OXE d   1       4.760  -0.495  -2.223  0.00  0.00    -0.078 A 
ATOM      5  C3  OXE d   1       4.636  -1.863  -1.999  0.00  0.00     0.003 A 
ATOM      6  C4  OXE d   1       3.519  -2.373  -1.325  0.00  0.00    -0.002 A 
ATOM      7  C5  OXE d   1       2.571  -1.508  -0.768  0.00  0.00    -0.002 A 
ATOM      8  C6  OXE d   1       2.749  -0.134  -0.885  0.00  0.00     0.003 A 
ENDROOT
TORSDOF 0
ENDMDL
