MODEL 1
REMARK minimizedAffinity 8.49880409
REMARK minimizedRMSD -1
REMARK  0 active torsions:
REMARK  status: ('A' for Active; 'I' for Inactive)
ROOT
ATOM      1  C2' OXE d   1       0.389   2.586   1.100  0.00  0.00     0.078 C 
ATOM      2  C1' OXE d   1      -2.276   1.889   1.642  0.00  0.00     0.078 C 
ATOM      3  C1  OXE d   1      -1.971   3.340   1.361  0.00  0.00    -0.078 A 
ATOM      4  C2  OXE d   1      -0.658   3.679   1.143  0.00  0.00    -0.078 A 
ATOM      5  C3  OXE d   1      -0.329   4.994   0.825  0.00  0.00     0.003 A 
ATOM      6  C4  OXE d   1      -1.301   6.000   0.877  0.00  0.00    -0.002 A 
ATOM      7  C5  OXE d   1      -2.639   5.682   1.137  0.00  0.00    -0.002 A 
ATOM      8  C6  OXE d   1      -2.997   4.353   1.339  0.00  0.00     0.003 A 
ENDROOT
TORSDOF 0
ENDMDL
