MODEL 1
REMARK minimizedAffinity 9.63863564
REMARK minimizedRMSD -1
REMARK  0 active torsions:
REMARK  status: ('A' for Active; 'I' for Inactive)
ROOT
ATOM      1  C2' OXE d   1       0.214   4.511   1.247  0.00  0.00     0.078 C 
ATOM      2  C1' OXE d   1      -2.083   6.000   1.867  0.00  0.00     0.078 C 
ATOM      3  C1  OXE d   1      -1.850   5.634   0.423  0.00  0.00    -0.078 A 
ATOM      4  C2  OXE d   1      -0.700   4.946   0.122  0.00  0.00    -0.078 A 
ATOM      5  C3  OXE d   1      -0.463   4.537  -1.187  0.00  0.00     0.003 A 
ATOM      6  C4  OXE d   1      -1.308   4.952  -2.223  0.00  0.00    -0.002 A 
ATOM      7  C5  OXE d   1      -2.465   5.688  -1.944  0.00  0.00    -0.002 A 
ATOM      8  C6  OXE d   1      -2.772   6.000  -0.624  0.00  0.00     0.003 A 
ENDROOT
TORSDOF 0
ENDMDL
