MODEL 1
REMARK minimizedAffinity 5.66014242
REMARK minimizedRMSD -1
REMARK  0 active torsions:
REMARK  status: ('A' for Active; 'I' for Inactive)
ROOT
ATOM      1  C2' OXE d   1      -0.959   1.066  -4.678  0.00  0.00     0.078 C 
ATOM      2  C1' OXE d   1      -3.212   2.641  -4.108  0.00  0.00     0.078 C 
ATOM      3  C1  OXE d   1      -1.853   3.216  -3.794  0.00  0.00    -0.078 A 
ATOM      4  C2  OXE d   1      -0.759   2.420  -4.033  0.00  0.00    -0.078 A 
ATOM      5  C3  OXE d   1       0.520   2.922  -3.812  0.00  0.00     0.003 A 
ATOM      6  C4  OXE d   1       0.696   4.172  -3.205  0.00  0.00    -0.002 A 
ATOM      7  C5  OXE d   1      -0.407   4.983  -2.917  0.00  0.00    -0.002 A 
ATOM      8  C6  OXE d   1      -1.683   4.538  -3.244  0.00  0.00     0.003 A 
ENDROOT
TORSDOF 0
ENDMDL
