MODEL 1
REMARK minimizedAffinity 4.63156605
REMARK minimizedRMSD -1
REMARK  0 active torsions:
REMARK  status: ('A' for Active; 'I' for Inactive)
ROOT
ATOM      1  C2' OXE d   1      -3.720   5.991  -1.254  0.00  0.00     0.078 C 
ATOM      2  C1' OXE d   1      -1.119   5.700  -2.266  0.00  0.00     0.078 C 
ATOM      3  C1  OXE d   1      -1.286   5.782  -0.770  0.00  0.00    -0.078 A 
ATOM      4  C2  OXE d   1      -2.558   5.972  -0.285  0.00  0.00    -0.078 A 
ATOM      5  C3  OXE d   1      -2.774   6.000   1.090  0.00  0.00     0.003 A 
ATOM      6  C4  OXE d   1      -1.692   5.991   1.978  0.00  0.00    -0.002 A 
ATOM      7  C5  OXE d   1      -0.385   5.838   1.504  0.00  0.00    -0.002 A 
ATOM      8  C6  OXE d   1      -0.169   5.690   0.138  0.00  0.00     0.003 A 
ENDROOT
TORSDOF 0
ENDMDL
