MODEL 1
REMARK minimizedAffinity 9.85121632
REMARK minimizedRMSD -1
REMARK  0 active torsions:
REMARK  status: ('A' for Active; 'I' for Inactive)
ROOT
ATOM      1  C2' OXE d   1      -3.016  -5.946  -0.292  0.00  0.00     0.078 C 
ATOM      2  C1' OXE d   1      -4.803  -6.000   1.872  0.00  0.00     0.078 C 
ATOM      3  C1  OXE d   1      -4.218  -4.667   1.476  0.00  0.00    -0.078 A 
ATOM      4  C2  OXE d   1      -3.309  -4.657   0.446  0.00  0.00    -0.078 A 
ATOM      5  C3  OXE d   1      -2.781  -3.447   0.005  0.00  0.00     0.003 A 
ATOM      6  C4  OXE d   1      -3.049  -2.261   0.699  0.00  0.00    -0.002 A 
ATOM      7  C5  OXE d   1      -3.941  -2.256   1.776  0.00  0.00    -0.002 A 
ATOM      8  C6  OXE d   1      -4.566  -3.441   2.150  0.00  0.00     0.003 A 
ENDROOT
TORSDOF 0
ENDMDL
