MODEL 1
REMARK minimizedAffinity -1.93829036
REMARK minimizedRMSD -1
REMARK  0 active torsions:
REMARK  status: ('A' for Active; 'I' for Inactive)
ROOT
ATOM      1  C2' OXE d   1      -4.621   2.620  -0.588  0.00  0.00     0.078 C 
ATOM      2  C1' OXE d   1      -3.029   1.967   1.630  0.00  0.00     0.078 C 
ATOM      3  C1  OXE d   1      -3.011   3.396   1.148  0.00  0.00    -0.078 A 
ATOM      4  C2  OXE d   1      -3.757   3.697   0.033  0.00  0.00    -0.078 A 
ATOM      5  C3  OXE d   1      -3.819   5.011  -0.420  0.00  0.00     0.003 A 
ATOM      6  C4  OXE d   1      -3.010   5.999   0.154  0.00  0.00    -0.002 A 
ATOM      7  C5  OXE d   1      -2.212   5.705   1.265  0.00  0.00    -0.002 A 
ATOM      8  C6  OXE d   1      -2.234   4.421   1.800  0.00  0.00     0.003 A 
ENDROOT
TORSDOF 0
ENDMDL
