MODEL 1
REMARK minimizedAffinity 6.8746295
REMARK minimizedRMSD -1
REMARK  0 active torsions:
REMARK  status: ('A' for Active; 'I' for Inactive)
ROOT
ATOM      1  C2' OXE d   1       0.846   3.830  -4.129  0.00  0.00     0.078 C 
ATOM      2  C1' OXE d   1      -1.503   2.293  -4.151  0.00  0.00     0.078 C 
ATOM      3  C1  OXE d   1      -1.523   3.598  -3.394  0.00  0.00    -0.078 A 
ATOM      4  C2  OXE d   1      -0.355   4.321  -3.350  0.00  0.00    -0.078 A 
ATOM      5  C3  OXE d   1      -0.334   5.558  -2.712  0.00  0.00     0.003 A 
ATOM      6  C4  OXE d   1      -1.446   6.000  -1.985  0.00  0.00    -0.002 A 
ATOM      7  C5  OXE d   1      -2.633   5.260  -1.984  0.00  0.00    -0.002 A 
ATOM      8  C6  OXE d   1      -2.702   4.080  -2.717  0.00  0.00     0.003 A 
ENDROOT
TORSDOF 0
ENDMDL
