MODEL 1
REMARK minimizedAffinity 12.470026
REMARK minimizedRMSD -1
REMARK  0 active torsions:
REMARK  status: ('A' for Active; 'I' for Inactive)
ROOT
ATOM      1  C2' OXE d   1      -1.204   4.321  -1.922  0.00  0.00     0.078 C 
ATOM      2  C1' OXE d   1      -2.740   2.213  -2.962  0.00  0.00     0.078 C 
ATOM      3  C1  OXE d   1      -1.315   2.347  -3.439  0.00  0.00    -0.078 A 
ATOM      4  C2  OXE d   1      -0.585   3.409  -2.960  0.00  0.00    -0.078 A 
ATOM      5  C3  OXE d   1       0.751   3.548  -3.325  0.00  0.00     0.003 A 
ATOM      6  C4  OXE d   1       1.312   2.706  -4.293  0.00  0.00    -0.002 A 
ATOM      7  C5  OXE d   1       0.574   1.642  -4.823  0.00  0.00    -0.002 A 
ATOM      8  C6  OXE d   1      -0.724   1.424  -4.376  0.00  0.00     0.003 A 
ENDROOT
TORSDOF 0
ENDMDL
