MODEL 1
REMARK minimizedAffinity 7.52486229
REMARK minimizedRMSD -1
REMARK  0 active torsions:
REMARK  status: ('A' for Active; 'I' for Inactive)
ROOT
ATOM      1  C2' OXE d   1       0.004   4.578  -1.554  0.00  0.00     0.078 C 
ATOM      2  C1' OXE d   1       2.032   3.695  -3.283  0.00  0.00     0.078 C 
ATOM      3  C1  OXE d   1       0.706   2.977  -3.328  0.00  0.00    -0.078 A 
ATOM      4  C2  OXE d   1      -0.265   3.385  -2.446  0.00  0.00    -0.078 A 
ATOM      5  C3  OXE d   1      -1.524   2.793  -2.484  0.00  0.00     0.003 A 
ATOM      6  C4  OXE d   1      -1.761   1.684  -3.305  0.00  0.00    -0.002 A 
ATOM      7  C5  OXE d   1      -0.772   1.226  -4.183  0.00  0.00    -0.002 A 
ATOM      8  C6  OXE d   1       0.450   1.887  -4.237  0.00  0.00     0.003 A 
ENDROOT
TORSDOF 0
ENDMDL
