MODEL 1
REMARK minimizedAffinity 15.6181393
REMARK minimizedRMSD -1
REMARK  0 active torsions:
REMARK  status: ('A' for Active; 'I' for Inactive)
ROOT
ATOM      1  C2' OXE d   1      -1.413   4.637  -2.238  0.00  0.00     0.078 C 
ATOM      2  C1' OXE d   1      -2.809   2.255  -2.740  0.00  0.00     0.078 C 
ATOM      3  C1  OXE d   1      -1.369   2.332  -3.180  0.00  0.00    -0.078 A 
ATOM      4  C2  OXE d   1      -0.707   3.518  -2.973  0.00  0.00    -0.078 A 
ATOM      5  C3  OXE d   1       0.639   3.625  -3.310  0.00  0.00     0.003 A 
ATOM      6  C4  OXE d   1       1.282   2.588  -3.998  0.00  0.00    -0.002 A 
ATOM      7  C5  OXE d   1       0.614   1.386  -4.255  0.00  0.00    -0.002 A 
ATOM      8  C6  OXE d   1      -0.695   1.226  -3.816  0.00  0.00     0.003 A 
ENDROOT
TORSDOF 0
ENDMDL
