MODEL 1
REMARK minimizedAffinity 5.91362095
REMARK minimizedRMSD -1
REMARK  0 active torsions:
REMARK  status: ('A' for Active; 'I' for Inactive)
ROOT
ATOM      1  C2' OXE d   1       5.881  -0.301  -2.932  0.00  0.00     0.078 C 
ATOM      2  C1' OXE d   1       4.510  -2.266  -4.394  0.00  0.00     0.078 C 
ATOM      3  C1  OXE d   1       3.983  -1.911  -3.026  0.00  0.00    -0.078 A 
ATOM      4  C2  OXE d   1       4.688  -0.982  -2.298  0.00  0.00    -0.078 A 
ATOM      5  C3  OXE d   1       4.215  -0.579  -1.053  0.00  0.00     0.003 A 
ATOM      6  C4  OXE d   1       3.116  -1.222  -0.470  0.00  0.00    -0.002 A 
ATOM      7  C5  OXE d   1       2.407  -2.199  -1.178  0.00  0.00    -0.002 A 
ATOM      8  C6  OXE d   1       2.802  -2.524  -2.471  0.00  0.00     0.003 A 
ENDROOT
TORSDOF 0
ENDMDL
