MODEL 1
REMARK minimizedAffinity 3.78026128
REMARK minimizedRMSD -1
REMARK  0 active torsions:
REMARK  status: ('A' for Active; 'I' for Inactive)
ROOT
ATOM      1  C2' OXE d   1       2.042  -0.170   2.340  0.00  0.00     0.078 C 
ATOM      2  C1' OXE d   1       1.077  -2.696   1.584  0.00  0.00     0.078 C 
ATOM      3  C1  OXE d   1       2.165  -2.078   0.742  0.00  0.00    -0.078 A 
ATOM      4  C2  OXE d   1       2.598  -0.821   1.092  0.00  0.00    -0.078 A 
ATOM      5  C3  OXE d   1       3.637  -0.228   0.381  0.00  0.00     0.003 A 
ATOM      6  C4  OXE d   1       4.139  -0.832  -0.778  0.00  0.00    -0.002 A 
ATOM      7  C5  OXE d   1       3.684  -2.094  -1.174  0.00  0.00    -0.002 A 
ATOM      8  C6  OXE d   1       2.729  -2.748  -0.403  0.00  0.00     0.003 A 
ENDROOT
TORSDOF 0
ENDMDL
