MODEL 1
REMARK minimizedAffinity 7.49917507
REMARK minimizedRMSD -1
REMARK  0 active torsions:
REMARK  status: ('A' for Active; 'I' for Inactive)
ROOT
ATOM      1  C2' OXE d   1       2.519  -1.577  -0.765  0.00  0.00     0.078 C 
ATOM      2  C1' OXE d   1       3.154   1.149  -0.556  0.00  0.00     0.078 C 
ATOM      3  C1  OXE d   1       4.045   0.283  -1.411  0.00  0.00    -0.078 A 
ATOM      4  C2  OXE d   1       3.754  -1.059  -1.469  0.00  0.00    -0.078 A 
ATOM      5  C3  OXE d   1       4.512  -1.894  -2.286  0.00  0.00     0.003 A 
ATOM      6  C4  OXE d   1       5.659  -1.408  -2.926  0.00  0.00    -0.002 A 
ATOM      7  C5  OXE d   1       5.996  -0.053  -2.847  0.00  0.00    -0.002 A 
ATOM      8  C6  OXE d   1       5.177   0.812  -2.130  0.00  0.00     0.003 A 
ENDROOT
TORSDOF 0
ENDMDL
