MODEL 1
REMARK minimizedAffinity 12.0677643
REMARK minimizedRMSD -1
REMARK  0 active torsions:
REMARK  status: ('A' for Active; 'I' for Inactive)
ROOT
ATOM      1  C2' OXE d   1       2.921   1.690  -0.642  0.00  0.00     0.078 C 
ATOM      2  C1' OXE d   1       3.165  -1.060  -0.132  0.00  0.00     0.078 C 
ATOM      3  C1  OXE d   1       4.132  -0.437  -1.107  0.00  0.00    -0.078 A 
ATOM      4  C2  OXE d   1       3.976   0.899  -1.386  0.00  0.00    -0.078 A 
ATOM      5  C3  OXE d   1       4.875   1.535  -2.237  0.00  0.00     0.003 A 
ATOM      6  C4  OXE d   1       5.841   0.795  -2.929  0.00  0.00    -0.002 A 
ATOM      7  C5  OXE d   1       5.991  -0.575  -2.690  0.00  0.00    -0.002 A 
ATOM      8  C6  OXE d   1       5.174  -1.197  -1.752  0.00  0.00     0.003 A 
ENDROOT
TORSDOF 0
ENDMDL
