MODEL 1
REMARK minimizedAffinity 10.3062716
REMARK minimizedRMSD -1
REMARK  0 active torsions:
REMARK  status: ('A' for Active; 'I' for Inactive)
ROOT
ATOM      1  C2' OXE d   1      -0.979   4.575  -1.949  0.00  0.00     0.078 C 
ATOM      2  C1' OXE d   1      -2.811   2.527  -2.524  0.00  0.00     0.078 C 
ATOM      3  C1  OXE d   1      -1.381   2.337  -2.965  0.00  0.00    -0.078 A 
ATOM      4  C2  OXE d   1      -0.502   3.364  -2.721  0.00  0.00    -0.078 A 
ATOM      5  C3  OXE d   1       0.841   3.218  -3.058  0.00  0.00     0.003 A 
ATOM      6  C4  OXE d   1       1.272   2.099  -3.781  0.00  0.00    -0.002 A 
ATOM      7  C5  OXE d   1       0.384   1.058  -4.075  0.00  0.00    -0.002 A 
ATOM      8  C6  OXE d   1      -0.933   1.142  -3.638  0.00  0.00     0.003 A 
ENDROOT
TORSDOF 0
ENDMDL
