MODEL 1
REMARK minimizedAffinity 0.461916447
REMARK minimizedRMSD -1
REMARK  1 active torsions:
REMARK  status: ('A' for Active; 'I' for Inactive)
REMARK    1  A    between atoms: N_2  and  C1_3 
ROOT
ATOM      1  C1  UNL d   1       3.630   4.310   5.454  0.00  0.00     0.143 A 
ATOM      2  C2  UNL d   1       2.826   5.455   5.444  0.00  0.00    -0.057 A 
ATOM      3  C3  UNL d   1       1.456   5.382   5.725  0.00  0.00     0.033 A 
ATOM      4  C4  UNL d   1       0.859   4.154   5.993  0.00  0.00    -0.042 A 
ATOM      5  C5  UNL d   1       1.635   3.000   5.983  0.00  0.00     0.033 A 
ATOM      6  C6  UNL d   1       3.003   3.081   5.709  0.00  0.00    -0.057 A 
ENDROOT
BRANCH   1   7
ATOM      7  N   UNL d   1       4.978   4.304   5.086  0.00  0.00    -0.732 N 
ATOM      8  C   UNL d   1       5.987   3.800   5.992  0.00  0.00     0.284 C 
ATOM      9  H3  UNL d   1       5.115   4.028   4.116  0.00  0.00     0.395 HD
ENDBRANCH   1   7
TORSDOF 1
ENDMDL
