MODEL 1
REMARK minimizedAffinity 5.45802641
REMARK minimizedRMSD -1
REMARK  1 active torsions:
REMARK  status: ('A' for Active; 'I' for Inactive)
REMARK    1  A    between atoms: N_2  and  C1_3 
ROOT
ATOM      1  C1  UNL d   1       4.128   1.343  -0.397  0.00  0.00     0.143 A 
ATOM      2  C2  UNL d   1       3.041   0.490  -0.178  0.00  0.00    -0.057 A 
ATOM      3  C3  UNL d   1       2.540  -0.325  -1.200  0.00  0.00     0.033 A 
ATOM      4  C4  UNL d   1       3.101  -0.279  -2.472  0.00  0.00    -0.042 A 
ATOM      5  C5  UNL d   1       4.166   0.580  -2.720  0.00  0.00     0.033 A 
ATOM      6  C6  UNL d   1       4.666   1.387  -1.692  0.00  0.00    -0.057 A 
ENDROOT
BRANCH   1   7
ATOM      7  N   UNL d   1       4.609   2.249   0.552  0.00  0.00    -0.732 N 
ATOM      8  C   UNL d   1       5.997   2.222   0.960  0.00  0.00     0.284 C 
ATOM      9  H3  UNL d   1       4.233   3.186   0.420  0.00  0.00     0.395 HD
ENDBRANCH   1   7
TORSDOF 1
ENDMDL
