MODEL 1
REMARK minimizedAffinity 4.25586653
REMARK minimizedRMSD -1
REMARK  1 active torsions:
REMARK  status: ('A' for Active; 'I' for Inactive)
REMARK    1  A    between atoms: N_2  and  C1_3 
ROOT
ATOM      1  C1  UNL d   1      -3.634   1.177   0.801  0.00  0.00     0.143 A 
ATOM      2  C2  UNL d   1      -4.699   0.592   0.108  0.00  0.00    -0.057 A 
ATOM      3  C3  UNL d   1      -4.481  -0.174  -1.044  0.00  0.00     0.033 A 
ATOM      4  C4  UNL d   1      -3.193  -0.345  -1.540  0.00  0.00    -0.042 A 
ATOM      5  C5  UNL d   1      -2.122   0.249  -0.881  0.00  0.00     0.033 A 
ATOM      6  C6  UNL d   1      -2.345   1.007   0.272  0.00  0.00    -0.057 A 
ENDROOT
BRANCH   1   7
ATOM      7  N   UNL d   1      -3.795   2.031   1.895  0.00  0.00    -0.732 N 
ATOM      8  C   UNL d   1      -3.451   3.433   1.793  0.00  0.00     0.284 C 
ATOM      9  H3  UNL d   1      -4.656   1.851   2.406  0.00  0.00     0.395 HD
ENDBRANCH   1   7
TORSDOF 1
ENDMDL
