MODEL 1
REMARK minimizedAffinity 1.8962301
REMARK minimizedRMSD -1
REMARK  1 active torsions:
REMARK  status: ('A' for Active; 'I' for Inactive)
REMARK    1  A    between atoms: N_2  and  C1_3 
ROOT
ATOM      1  C1  UNL d   1       3.104   3.866   5.636  0.00  0.00     0.143 A 
ATOM      2  C2  UNL d   1       2.466   2.675   6.000  0.00  0.00    -0.057 A 
ATOM      3  C3  UNL d   1       3.151   1.454   5.993  0.00  0.00     0.033 A 
ATOM      4  C4  UNL d   1       4.482   1.398   5.593  0.00  0.00    -0.042 A 
ATOM      5  C5  UNL d   1       5.129   2.566   5.204  0.00  0.00     0.033 A 
ATOM      6  C6  UNL d   1       4.441   3.783   5.219  0.00  0.00    -0.057 A 
ENDROOT
BRANCH   1   7
ATOM      7  N   UNL d   1       2.450   5.096   5.528  0.00  0.00    -0.732 N 
ATOM      8  C   UNL d   1       1.090   5.252   5.998  0.00  0.00     0.284 C 
ATOM      9  H3  UNL d   1       3.059   5.880   5.750  0.00  0.00     0.395 HD
ENDBRANCH   1   7
TORSDOF 1
ENDMDL
