MODEL 1
REMARK minimizedAffinity 1.46050847
REMARK minimizedRMSD -1
REMARK  1 active torsions:
REMARK  status: ('A' for Active; 'I' for Inactive)
REMARK    1  A    between atoms: N_2  and  C1_3 
ROOT
ATOM      1  C1  UNL d   1       3.875  -0.062  -0.662  0.00  0.00     0.143 A 
ATOM      2  C2  UNL d   1       5.101  -0.022   0.012  0.00  0.00    -0.057 A 
ATOM      3  C3  UNL d   1       5.363   0.950   0.985  0.00  0.00     0.033 A 
ATOM      4  C4  UNL d   1       4.411   1.920   1.281  0.00  0.00    -0.042 A 
ATOM      5  C5  UNL d   1       3.196   1.915   0.606  0.00  0.00     0.033 A 
ATOM      6  C6  UNL d   1       2.937   0.937  -0.359  0.00  0.00    -0.057 A 
ENDROOT
BRANCH   1   7
ATOM      7  N   UNL d   1       3.591  -0.943  -1.709  0.00  0.00    -0.732 N 
ATOM      8  C   UNL d   1       2.954  -2.216  -1.449  0.00  0.00     0.284 C 
ATOM      9  H3  UNL d   1       3.242  -0.464  -2.535  0.00  0.00     0.395 HD
ENDBRANCH   1   7
TORSDOF 1
ENDMDL
