MODEL 1
REMARK minimizedAffinity 7.61710501
REMARK minimizedRMSD -1
REMARK  1 active torsions:
REMARK  status: ('A' for Active; 'I' for Inactive)
REMARK    1  A    between atoms: N_2  and  C1_3 
ROOT
ATOM      1  C1  UNL d   1       3.649   1.296  -0.191  0.00  0.00     0.143 A 
ATOM      2  C2  UNL d   1       3.452   2.512   0.472  0.00  0.00    -0.057 A 
ATOM      3  C3  UNL d   1       4.511   3.174   1.105  0.00  0.00     0.033 A 
ATOM      4  C4  UNL d   1       5.785   2.614   1.111  0.00  0.00    -0.042 A 
ATOM      5  C5  UNL d   1       5.999   1.394   0.480  0.00  0.00     0.033 A 
ATOM      6  C6  UNL d   1       4.938   0.741  -0.156  0.00  0.00    -0.057 A 
ENDROOT
BRANCH   1   7
ATOM      7  N   UNL d   1       2.618   0.541  -0.755  0.00  0.00    -0.732 N 
ATOM      8  C   UNL d   1       2.434  -0.847  -0.388  0.00  0.00     0.284 C 
ATOM      9  H3  UNL d   1       1.751   1.068  -0.836  0.00  0.00     0.395 HD
ENDBRANCH   1   7
TORSDOF 1
ENDMDL
