MODEL 1
REMARK minimizedAffinity 12.4492664
REMARK minimizedRMSD -1
REMARK  1 active torsions:
REMARK  status: ('A' for Active; 'I' for Inactive)
REMARK    1  A    between atoms: N_2  and  C1_3 
ROOT
ATOM      1  C1  UNL d   1      -5.650   2.419  -1.713  0.00  0.00     0.143 A 
ATOM      2  C2  UNL d   1      -6.000   1.128  -1.304  0.00  0.00    -0.057 A 
ATOM      3  C3  UNL d   1      -5.535   0.598  -0.094  0.00  0.00     0.033 A 
ATOM      4  C4  UNL d   1      -4.685   1.343   0.717  0.00  0.00    -0.042 A 
ATOM      5  C5  UNL d   1      -4.303   2.619   0.318  0.00  0.00     0.033 A 
ATOM      6  C6  UNL d   1      -4.776   3.145  -0.888  0.00  0.00    -0.057 A 
ENDROOT
BRANCH   1   7
ATOM      7  N   UNL d   1      -5.999   2.964  -2.951  0.00  0.00    -0.732 N 
ATOM      8  C   UNL d   1      -5.932   4.393  -3.172  0.00  0.00     0.284 C 
ATOM      9  H3  UNL d   1      -5.661   2.406  -3.731  0.00  0.00     0.395 HD
ENDBRANCH   1   7
TORSDOF 1
ENDMDL
