MODEL 1
REMARK minimizedAffinity 5.6281004
REMARK minimizedRMSD -1
REMARK  0 active torsions:
REMARK  status: ('A' for Active; 'I' for Inactive)
ROOT
ATOM      1  C1  BNZ d   1       4.186  -3.752   1.932  0.00  0.00     0.000 A 
ATOM      2  C2  BNZ d   1       5.462  -3.743   2.429  0.00  0.00     0.000 A 
ATOM      3  C3  BNZ d   1       5.999  -4.863   2.999  0.00  0.00     0.000 A 
ATOM      4  C4  BNZ d   1       5.248  -5.978   3.107  0.00  0.00     0.000 A 
ATOM      5  C5  BNZ d   1       3.956  -6.000   2.620  0.00  0.00     0.000 A 
ATOM      6  C6  BNZ d   1       3.432  -4.882   2.012  0.00  0.00     0.000 A 
ENDROOT
TORSDOF 0
ENDMDL
