MODEL 1
REMARK minimizedAffinity -1.86126685
REMARK minimizedRMSD -1
REMARK  0 active torsions:
REMARK  status: ('A' for Active; 'I' for Inactive)
ROOT
ATOM      1  C1  BNZ d   1      -3.654   5.964   4.819  0.00  0.00     0.000 A 
ATOM      2  C2  BNZ d   1      -4.440   5.996   5.940  0.00  0.00     0.000 A 
ATOM      3  C3  BNZ d   1      -5.604   5.281   5.999  0.00  0.00     0.000 A 
ATOM      4  C4  BNZ d   1      -5.999   4.568   4.925  0.00  0.00     0.000 A 
ATOM      5  C5  BNZ d   1      -5.223   4.533   3.784  0.00  0.00     0.000 A 
ATOM      6  C6  BNZ d   1      -4.033   5.223   3.742  0.00  0.00     0.000 A 
ENDROOT
TORSDOF 0
ENDMDL
