MODEL 1
REMARK minimizedAffinity -1.36557567
REMARK minimizedRMSD -1
REMARK  0 active torsions:
REMARK  status: ('A' for Active; 'I' for Inactive)
ROOT
ATOM      1  C1  BNZ d   1      -3.826  -4.516  -5.997  0.00  0.00     0.000 A 
ATOM      2  C2  BNZ d   1      -4.796  -3.550  -5.992  0.00  0.00     0.000 A 
ATOM      3  C3  BNZ d   1      -4.465  -2.224  -6.000  0.00  0.00     0.000 A 
ATOM      4  C4  BNZ d   1      -3.165  -1.866  -5.973  0.00  0.00     0.000 A 
ATOM      5  C5  BNZ d   1      -2.174  -2.828  -5.969  0.00  0.00     0.000 A 
ATOM      6  C6  BNZ d   1      -2.512  -4.162  -6.000  0.00  0.00     0.000 A 
ENDROOT
TORSDOF 0
ENDMDL
