MODEL 1
REMARK minimizedAffinity 5.30136108
REMARK minimizedRMSD -1
REMARK  0 active torsions:
REMARK  status: ('A' for Active; 'I' for Inactive)
ROOT
ATOM      1  C1  BNZ d   1      -1.795  -1.284  -5.996  0.00  0.00     0.000 A 
ATOM      2  C2  BNZ d   1      -3.054  -0.747  -5.972  0.00  0.00     0.000 A 
ATOM      3  C3  BNZ d   1      -4.158  -1.552  -5.936  0.00  0.00     0.000 A 
ATOM      4  C4  BNZ d   1      -4.004  -2.891  -5.966  0.00  0.00     0.000 A 
ATOM      5  C5  BNZ d   1      -2.741  -3.448  -5.999  0.00  0.00     0.000 A 
ATOM      6  C6  BNZ d   1      -1.631  -2.635  -5.996  0.00  0.00     0.000 A 
ENDROOT
TORSDOF 0
ENDMDL
