MODEL 1
REMARK minimizedAffinity -0.712036192
REMARK minimizedRMSD -1
REMARK  0 active torsions:
REMARK  status: ('A' for Active; 'I' for Inactive)
ROOT
ATOM      1  C1  BNZ d   1      -5.279   3.854   3.953  0.00  0.00     0.000 A 
ATOM      2  C2  BNZ d   1      -5.997   3.789   5.117  0.00  0.00     0.000 A 
ATOM      3  C3  BNZ d   1      -5.995   4.833   6.000  0.00  0.00     0.000 A 
ATOM      4  C4  BNZ d   1      -5.244   5.922   5.737  0.00  0.00     0.000 A 
ATOM      5  C5  BNZ d   1      -4.507   5.998   4.573  0.00  0.00     0.000 A 
ATOM      6  C6  BNZ d   1      -4.543   4.962   3.668  0.00  0.00     0.000 A 
ENDROOT
TORSDOF 0
ENDMDL
