MODEL 1
REMARK minimizedAffinity 3.9812994
REMARK minimizedRMSD -1
REMARK  0 active torsions:
REMARK  status: ('A' for Active; 'I' for Inactive)
ROOT
ATOM      1  C1  BNZ d   1      -5.496   1.174   3.675  0.00  0.00     0.000 A 
ATOM      2  C2  BNZ d   1      -4.895  -0.057   3.693  0.00  0.00     0.000 A 
ATOM      3  C3  BNZ d   1      -4.802  -0.774   4.853  0.00  0.00     0.000 A 
ATOM      4  C4  BNZ d   1      -5.273  -0.243   6.000  0.00  0.00     0.000 A 
ATOM      5  C5  BNZ d   1      -5.873   1.000   6.000  0.00  0.00     0.000 A 
ATOM      6  C6  BNZ d   1      -6.000   1.702   4.823  0.00  0.00     0.000 A 
ENDROOT
TORSDOF 0
ENDMDL
