MODEL 1
REMARK minimizedAffinity 5.38585281
REMARK minimizedRMSD -1
REMARK  0 active torsions:
REMARK  status: ('A' for Active; 'I' for Inactive)
ROOT
ATOM      1  C1  BNZ d   1      -4.709   3.869   4.170  0.00  0.00     0.000 A 
ATOM      2  C2  BNZ d   1      -3.976   5.026   4.178  0.00  0.00     0.000 A 
ATOM      3  C3  BNZ d   1      -4.216   6.000   5.106  0.00  0.00     0.000 A 
ATOM      4  C4  BNZ d   1      -5.214   5.834   5.998  0.00  0.00     0.000 A 
ATOM      5  C5  BNZ d   1      -5.967   4.678   5.998  0.00  0.00     0.000 A 
ATOM      6  C6  BNZ d   1      -5.697   3.682   5.087  0.00  0.00     0.000 A 
ENDROOT
TORSDOF 0
ENDMDL
