MODEL 1
REMARK minimizedAffinity -2.5751946
REMARK minimizedRMSD -1
REMARK  0 active torsions:
REMARK  status: ('A' for Active; 'I' for Inactive)
ROOT
ATOM      1  C1  BNZ d   1       0.033   0.999   3.712  0.00  0.00     0.000 A 
ATOM      2  C2  BNZ d   1      -0.680   0.046   3.034  0.00  0.00     0.000 A 
ATOM      3  C3  BNZ d   1      -1.851   0.364   2.405  0.00  0.00     0.000 A 
ATOM      4  C4  BNZ d   1      -2.328   1.623   2.488  0.00  0.00     0.000 A 
ATOM      5  C5  BNZ d   1      -1.625   2.593   3.175  0.00  0.00     0.000 A 
ATOM      6  C6  BNZ d   1      -0.427   2.278   3.775  0.00  0.00     0.000 A 
ENDROOT
TORSDOF 0
ENDMDL
