MODEL 1
REMARK minimizedAffinity 1.66737247
REMARK minimizedRMSD -1
REMARK  0 active torsions:
REMARK  status: ('A' for Active; 'I' for Inactive)
ROOT
ATOM      1  C1  BNZ d   1       4.049  -3.642   1.879  0.00  0.00     0.000 A 
ATOM      2  C2  BNZ d   1       5.356  -3.654   2.289  0.00  0.00     0.000 A 
ATOM      3  C3  BNZ d   1       6.000  -4.834   2.538  0.00  0.00     0.000 A 
ATOM      4  C4  BNZ d   1       5.326  -5.996   2.416  0.00  0.00     0.000 A 
ATOM      5  C5  BNZ d   1       4.005  -5.999   2.013  0.00  0.00     0.000 A 
ATOM      6  C6  BNZ d   1       3.372  -4.812   1.726  0.00  0.00     0.000 A 
ENDROOT
TORSDOF 0
ENDMDL
