MODEL 1
REMARK minimizedAffinity 1.74422204
REMARK minimizedRMSD -1
REMARK  0 active torsions:
REMARK  status: ('A' for Active; 'I' for Inactive)
ROOT
ATOM      1  C1  BNZ d   1       1.395  -0.911  -4.393  0.00  0.00     0.000 A 
ATOM      2  C2  BNZ d   1       2.019  -0.869  -5.612  0.00  0.00     0.000 A 
ATOM      3  C3  BNZ d   1       3.280  -0.356  -5.736  0.00  0.00     0.000 A 
ATOM      4  C4  BNZ d   1       3.899   0.150  -4.650  0.00  0.00     0.000 A 
ATOM      5  C5  BNZ d   1       3.280   0.123  -3.416  0.00  0.00     0.000 A 
ATOM      6  C6  BNZ d   1       2.027  -0.429  -3.288  0.00  0.00     0.000 A 
ENDROOT
TORSDOF 0
ENDMDL
