MODEL 1
REMARK minimizedAffinity 7.33165979
REMARK minimizedRMSD -1
REMARK  0 active torsions:
REMARK  status: ('A' for Active; 'I' for Inactive)
ROOT
ATOM      1  C1  BNZ d   1      -2.079   2.454   1.570  0.00  0.00     0.000 A 
ATOM      2  C2  BNZ d   1      -3.068   1.592   1.962  0.00  0.00     0.000 A 
ATOM      3  C3  BNZ d   1      -2.770   0.457   2.662  0.00  0.00     0.000 A 
ATOM      4  C4  BNZ d   1      -1.482   0.164   2.934  0.00  0.00     0.000 A 
ATOM      5  C5  BNZ d   1      -0.472   1.018   2.536  0.00  0.00     0.000 A 
ATOM      6  C6  BNZ d   1      -0.779   2.180   1.866  0.00  0.00     0.000 A 
ENDROOT
TORSDOF 0
ENDMDL
