MODEL 1
REMARK minimizedAffinity 1.71186662
REMARK minimizedRMSD -1
REMARK  0 active torsions:
REMARK  status: ('A' for Active; 'I' for Inactive)
ROOT
ATOM      1  C1  BNZ d   1      -4.012   5.956   3.565  0.00  0.00     0.000 A 
ATOM      2  C2  BNZ d   1      -5.378   5.985   3.654  0.00  0.00     0.000 A 
ATOM      3  C3  BNZ d   1      -5.999   5.999   4.872  0.00  0.00     0.000 A 
ATOM      4  C4  BNZ d   1      -5.256   5.943   5.996  0.00  0.00     0.000 A 
ATOM      5  C5  BNZ d   1      -3.878   5.903   5.922  0.00  0.00     0.000 A 
ATOM      6  C6  BNZ d   1      -3.255   5.929   4.695  0.00  0.00     0.000 A 
ENDROOT
TORSDOF 0
ENDMDL
