MODEL 1
REMARK minimizedAffinity 2.52725601
REMARK minimizedRMSD -1
REMARK  0 active torsions:
REMARK  status: ('A' for Active; 'I' for Inactive)
ROOT
ATOM      1  C1  BNZ d   1       0.330   0.419   1.716  0.00  0.00     0.000 A 
ATOM      2  C2  BNZ d   1      -0.506  -0.041   0.734  0.00  0.00     0.000 A 
ATOM      3  C3  BNZ d   1      -1.857   0.152   0.817  0.00  0.00     0.000 A 
ATOM      4  C4  BNZ d   1      -2.373   0.769   1.899  0.00  0.00     0.000 A 
ATOM      5  C5  BNZ d   1      -1.544   1.230   2.902  0.00  0.00     0.000 A 
ATOM      6  C6  BNZ d   1      -0.182   1.068   2.797  0.00  0.00     0.000 A 
ENDROOT
TORSDOF 0
ENDMDL
