MODEL 1
REMARK minimizedAffinity -0.518324792
REMARK minimizedRMSD -1
REMARK  0 active torsions:
REMARK  status: ('A' for Active; 'I' for Inactive)
ROOT
ATOM      1  C1  BNZ d   1      -4.256   0.183   3.166  0.00  0.00     0.000 A 
ATOM      2  C2  BNZ d   1      -3.030   0.345   3.754  0.00  0.00     0.000 A 
ATOM      3  C3  BNZ d   1      -1.916   0.578   2.997  0.00  0.00     0.000 A 
ATOM      4  C4  BNZ d   1      -2.022   0.608   1.653  0.00  0.00     0.000 A 
ATOM      5  C5  BNZ d   1      -3.250   0.437   1.044  0.00  0.00     0.000 A 
ATOM      6  C6  BNZ d   1      -4.375   0.242   1.812  0.00  0.00     0.000 A 
ENDROOT
TORSDOF 0
ENDMDL
