MODEL 1
REMARK minimizedAffinity 1.57001901
REMARK minimizedRMSD -1
REMARK  0 active torsions:
REMARK  status: ('A' for Active; 'I' for Inactive)
ROOT
ATOM      1  C1  BNZ d   1      -1.503  -1.655  -6.000  0.00  0.00     0.000 A 
ATOM      2  C2  BNZ d   1      -1.748  -3.003  -5.999  0.00  0.00     0.000 A 
ATOM      3  C3  BNZ d   1      -3.028  -3.482  -6.000  0.00  0.00     0.000 A 
ATOM      4  C4  BNZ d   1      -4.060  -2.615  -5.962  0.00  0.00     0.000 A 
ATOM      5  C5  BNZ d   1      -3.830  -1.254  -5.953  0.00  0.00     0.000 A 
ATOM      6  C6  BNZ d   1      -2.541  -0.775  -5.991  0.00  0.00     0.000 A 
ENDROOT
TORSDOF 0
ENDMDL
