MODEL 1
REMARK minimizedAffinity 6.65800285
REMARK minimizedRMSD -1
REMARK  0 active torsions:
REMARK  status: ('A' for Active; 'I' for Inactive)
ROOT
ATOM      1  C1  BNZ d   1      -2.563  -0.356  -5.969  0.00  0.00     0.000 A 
ATOM      2  C2  BNZ d   1      -1.580  -1.311  -5.966  0.00  0.00     0.000 A 
ATOM      3  C3  BNZ d   1      -1.896  -2.640  -5.993  0.00  0.00     0.000 A 
ATOM      4  C4  BNZ d   1      -3.191  -3.015  -5.981  0.00  0.00     0.000 A 
ATOM      5  C5  BNZ d   1      -4.193  -2.065  -5.974  0.00  0.00     0.000 A 
ATOM      6  C6  BNZ d   1      -3.872  -0.727  -5.987  0.00  0.00     0.000 A 
ENDROOT
TORSDOF 0
ENDMDL
