MODEL 1
REMARK minimizedAffinity -3.71545267
REMARK minimizedRMSD -1
REMARK  2 active torsions:
REMARK  status: ('A' for Active; 'I' for Inactive)
REMARK    1  A    between atoms: C1_2  and  C2_3 
REMARK    2  A    between atoms: C2_3  and  C3_4 
ROOT
ATOM      1  C3  UNL d   1       0.217  -0.505   0.193  0.00  0.00    -0.075 A 
ATOM      2  C4  UNL d   1       0.351  -1.131  -1.055  0.00  0.00     0.002 A 
ATOM      3  C5  UNL d   1       0.135  -2.502  -1.187  0.00  0.00     0.002 A 
ATOM      4  C6  UNL d   1      -0.207  -3.267  -0.074  0.00  0.00    -0.004 A 
ATOM      5  C7  UNL d   1      -0.327  -2.659   1.174  0.00  0.00     0.002 A 
ATOM      6  C8  UNL d   1      -0.115  -1.286   1.308  0.00  0.00     0.002 A 
ENDROOT
BRANCH   1   7
ATOM      7  C2  UNL d   1       0.421   0.984   0.337  0.00  0.00     0.056 C 
BRANCH   7   8
ATOM      8  C1  UNL d   1       1.892   1.414   0.348  0.00  0.00     0.007 C 
ATOM      9  C   UNL d   1       2.080   2.903   0.607  0.00  0.00     0.009 C 
ENDBRANCH   7   8
ENDBRANCH   1   7
TORSDOF 2
ENDMDL
