MODEL 1
REMARK minimizedAffinity -4.85490274
REMARK minimizedRMSD -1
REMARK  2 active torsions:
REMARK  status: ('A' for Active; 'I' for Inactive)
REMARK    1  A    between atoms: C1_2  and  C2_3 
REMARK    2  A    between atoms: C2_3  and  C3_4 
ROOT
ATOM      1  C3  UNL d   1       0.098   0.450  -0.294  0.00  0.00    -0.075 A 
ATOM      2  C4  UNL d   1      -0.756   0.013   0.730  0.00  0.00     0.002 A 
ATOM      3  C5  UNL d   1      -0.757  -1.324   1.129  0.00  0.00     0.002 A 
ATOM      4  C6  UNL d   1       0.086  -2.241   0.504  0.00  0.00    -0.004 A 
ATOM      5  C7  UNL d   1       0.926  -1.822  -0.525  0.00  0.00     0.002 A 
ATOM      6  C8  UNL d   1       0.932  -0.484  -0.923  0.00  0.00     0.002 A 
ENDROOT
BRANCH   1   7
ATOM      7  C2  UNL d   1       0.125   1.901  -0.710  0.00  0.00     0.056 C 
BRANCH   7   8
ATOM      8  C1  UNL d   1       0.527   2.864   0.411  0.00  0.00     0.007 C 
ATOM      9  C   UNL d   1       2.034   3.040   0.541  0.00  0.00     0.009 C 
ENDBRANCH   7   8
ENDBRANCH   1   7
TORSDOF 2
ENDMDL
