MODEL 1
REMARK minimizedAffinity -5.02857685
REMARK minimizedRMSD -1
REMARK  2 active torsions:
REMARK  status: ('A' for Active; 'I' for Inactive)
REMARK    1  A    between atoms: C1_2  and  C2_3 
REMARK    2  A    between atoms: C2_3  and  C3_4 
ROOT
ATOM      1  C3  UNL d   1       0.001   0.020   0.274  0.00  0.00    -0.075 A 
ATOM      2  C4  UNL d   1      -0.810  -0.451   1.316  0.00  0.00     0.002 A 
ATOM      3  C5  UNL d   1      -0.943  -1.820   1.547  0.00  0.00     0.002 A 
ATOM      4  C6  UNL d   1      -0.277  -2.734   0.734  0.00  0.00    -0.004 A 
ATOM      5  C7  UNL d   1       0.519  -2.278  -0.314  0.00  0.00     0.002 A 
ATOM      6  C8  UNL d   1       0.658  -0.908  -0.544  0.00  0.00     0.002 A 
ENDROOT
BRANCH   1   7
ATOM      7  C2  UNL d   1       0.173   1.502   0.038  0.00  0.00     0.056 C 
BRANCH   7   8
ATOM      8  C1  UNL d   1       1.634   1.956  -0.040  0.00  0.00     0.007 C 
ATOM      9  C   UNL d   1       1.917   3.212   0.774  0.00  0.00     0.009 C 
ENDBRANCH   7   8
ENDBRANCH   1   7
TORSDOF 2
ENDMDL
