MODEL 1
REMARK minimizedAffinity 0.177976891
REMARK minimizedRMSD -1
REMARK  2 active torsions:
REMARK  status: ('A' for Active; 'I' for Inactive)
REMARK    1  A    between atoms: C1_2  and  C2_3 
REMARK    2  A    between atoms: C2_3  and  C3_4 
ROOT
ATOM      1  C3  UNL d   1      -0.680  -0.815   0.517  0.00  0.00    -0.075 A 
ATOM      2  C4  UNL d   1      -1.165   0.383   1.062  0.00  0.00     0.002 A 
ATOM      3  C5  UNL d   1      -0.922   1.600   0.425  0.00  0.00     0.002 A 
ATOM      4  C6  UNL d   1      -0.184   1.637  -0.756  0.00  0.00    -0.004 A 
ATOM      5  C7  UNL d   1       0.317   0.455  -1.298  0.00  0.00     0.002 A 
ATOM      6  C8  UNL d   1       0.071  -0.765  -0.665  0.00  0.00     0.002 A 
ENDROOT
BRANCH   1   7
ATOM      7  C2  UNL d   1      -0.964  -2.139   1.185  0.00  0.00     0.056 C 
BRANCH   7   8
ATOM      8  C1  UNL d   1      -1.033  -3.325   0.217  0.00  0.00     0.007 C 
ATOM      9  C   UNL d   1       0.232  -4.173   0.216  0.00  0.00     0.009 C 
ENDBRANCH   7   8
ENDBRANCH   1   7
TORSDOF 2
ENDMDL
