MODEL 1
REMARK minimizedAffinity -4.52508068
REMARK minimizedRMSD -1
REMARK  2 active torsions:
REMARK  status: ('A' for Active; 'I' for Inactive)
REMARK    1  A    between atoms: C1_2  and  C2_3 
REMARK    2  A    between atoms: C2_3  and  C3_4 
ROOT
ATOM      1  C3  UNL d   1       0.057   0.258   0.234  0.00  0.00    -0.075 A 
ATOM      2  C4  UNL d   1      -0.779  -0.294   1.216  0.00  0.00     0.002 A 
ATOM      3  C5  UNL d   1      -0.910  -1.677   1.339  0.00  0.00     0.002 A 
ATOM      4  C6  UNL d   1      -0.218  -2.525   0.477  0.00  0.00    -0.004 A 
ATOM      5  C7  UNL d   1       0.602  -1.988  -0.513  0.00  0.00     0.002 A 
ATOM      6  C8  UNL d   1       0.739  -0.604  -0.635  0.00  0.00     0.002 A 
ENDROOT
BRANCH   1   7
ATOM      7  C2  UNL d   1       0.226   1.754   0.115  0.00  0.00     0.056 C 
BRANCH   7   8
ATOM      8  C1  UNL d   1       1.680   2.227   0.216  0.00  0.00     0.007 C 
ATOM      9  C   UNL d   1       1.848   3.477   1.069  0.00  0.00     0.009 C 
ENDBRANCH   7   8
ENDBRANCH   1   7
TORSDOF 2
ENDMDL
