MODEL 1
REMARK minimizedAffinity -5.83385277
REMARK minimizedRMSD -1
REMARK  2 active torsions:
REMARK  status: ('A' for Active; 'I' for Inactive)
REMARK    1  A    between atoms: C1_2  and  C2_3 
REMARK    2  A    between atoms: C2_3  and  C3_4 
ROOT
ATOM      1  C3  UNL d   1      -0.043  -0.739   0.105  0.00  0.00    -0.075 A 
ATOM      2  C4  UNL d   1       0.392  -0.835  -1.225  0.00  0.00     0.002 A 
ATOM      3  C5  UNL d   1       0.481  -2.077  -1.853  0.00  0.00     0.002 A 
ATOM      4  C6  UNL d   1       0.146  -3.238  -1.158  0.00  0.00    -0.004 A 
ATOM      5  C7  UNL d   1      -0.271  -3.156   0.168  0.00  0.00     0.002 A 
ATOM      6  C8  UNL d   1      -0.365  -1.913   0.798  0.00  0.00     0.002 A 
ENDROOT
BRANCH   1   7
ATOM      7  C2  UNL d   1      -0.170   0.606   0.781  0.00  0.00     0.056 C 
BRANCH   7   8
ATOM      8  C1  UNL d   1       0.291   1.784  -0.083  0.00  0.00     0.007 C 
ATOM      9  C   UNL d   1       0.859   2.939   0.731  0.00  0.00     0.009 C 
ENDBRANCH   7   8
ENDBRANCH   1   7
TORSDOF 2
ENDMDL
