MODEL 1
REMARK minimizedAffinity -4.14258289
REMARK minimizedRMSD -1
REMARK  2 active torsions:
REMARK  status: ('A' for Active; 'I' for Inactive)
REMARK    1  A    between atoms: C1_2  and  C2_3 
REMARK    2  A    between atoms: C2_3  and  C3_4 
ROOT
ATOM      1  C3  UNL d   1      -0.271   0.285  -0.102  0.00  0.00    -0.075 A 
ATOM      2  C4  UNL d   1      -0.871   0.060   1.146  0.00  0.00     0.002 A 
ATOM      3  C5  UNL d   1      -1.406  -1.189   1.460  0.00  0.00     0.002 A 
ATOM      4  C6  UNL d   1      -1.357  -2.225   0.530  0.00  0.00    -0.004 A 
ATOM      5  C7  UNL d   1      -0.778  -2.009  -0.719  0.00  0.00     0.002 A 
ATOM      6  C8  UNL d   1      -0.238  -0.761  -1.034  0.00  0.00     0.002 A 
ENDROOT
BRANCH   1   7
ATOM      7  C2  UNL d   1       0.336   1.626  -0.437  0.00  0.00     0.056 C 
BRANCH   7   8
ATOM      8  C1  UNL d   1       0.298   2.634   0.717  0.00  0.00     0.007 C 
ATOM      9  C   UNL d   1       1.609   3.386   0.900  0.00  0.00     0.009 C 
ENDBRANCH   7   8
ENDBRANCH   1   7
TORSDOF 2
ENDMDL
