MODEL 1
REMARK minimizedAffinity -6.26433659
REMARK minimizedRMSD -1
REMARK  2 active torsions:
REMARK  status: ('A' for Active; 'I' for Inactive)
REMARK    1  A    between atoms: C1_2  and  C2_3 
REMARK    2  A    between atoms: C2_3  and  C3_4 
ROOT
ATOM      1  C3  UNL d   1       1.072  -1.361  -0.753  0.00  0.00    -0.075 A 
ATOM      2  C4  UNL d   1       0.698  -2.164   0.334  0.00  0.00     0.002 A 
ATOM      3  C5  UNL d   1       0.058  -3.386   0.125  0.00  0.00     0.002 A 
ATOM      4  C6  UNL d   1      -0.225  -3.815  -1.170  0.00  0.00    -0.004 A 
ATOM      5  C7  UNL d   1       0.127  -3.017  -2.257  0.00  0.00     0.002 A 
ATOM      6  C8  UNL d   1       0.771  -1.796  -2.050  0.00  0.00     0.002 A 
ENDROOT
BRANCH   1   7
ATOM      7  C2  UNL d   1       1.791  -0.051  -0.534  0.00  0.00     0.056 C 
BRANCH   7   8
ATOM      8  C1  UNL d   1       0.914   1.186  -0.755  0.00  0.00     0.007 C 
ATOM      9  C   UNL d   1      -0.309   1.225   0.151  0.00  0.00     0.009 C 
ENDBRANCH   7   8
ENDBRANCH   1   7
TORSDOF 2
ENDMDL
