MODEL 1
REMARK minimizedAffinity -1.22655404
REMARK minimizedRMSD -1
REMARK  2 active torsions:
REMARK  status: ('A' for Active; 'I' for Inactive)
REMARK    1  A    between atoms: C1_2  and  C2_3 
REMARK    2  A    between atoms: C2_3  and  C3_4 
ROOT
ATOM      1  C3  UNL d   1       0.295   1.250   0.080  0.00  0.00    -0.075 A 
ATOM      2  C4  UNL d   1      -0.316   0.698  -1.055  0.00  0.00     0.002 A 
ATOM      3  C5  UNL d   1      -0.828  -0.599  -1.024  0.00  0.00     0.002 A 
ATOM      4  C6  UNL d   1      -0.727  -1.363   0.137  0.00  0.00    -0.004 A 
ATOM      5  C7  UNL d   1      -0.106  -0.831   1.265  0.00  0.00     0.002 A 
ATOM      6  C8  UNL d   1       0.403   0.468   1.238  0.00  0.00     0.002 A 
ENDROOT
BRANCH   1   7
ATOM      7  C2  UNL d   1       0.825   2.664   0.061  0.00  0.00     0.056 C 
BRANCH   7   8
ATOM      8  C1  UNL d   1       2.276   2.793   0.537  0.00  0.00     0.007 C 
ATOM      9  C   UNL d   1       2.404   3.471   1.894  0.00  0.00     0.009 C 
ENDBRANCH   7   8
ENDBRANCH   1   7
TORSDOF 2
ENDMDL
