MODEL 1
REMARK minimizedAffinity -5.11270857
REMARK minimizedRMSD -1
REMARK  2 active torsions:
REMARK  status: ('A' for Active; 'I' for Inactive)
REMARK    1  A    between atoms: C1_2  and  C2_3 
REMARK    2  A    between atoms: C2_3  and  C3_4 
ROOT
ATOM      1  C3  UNL d   1      -0.010  -0.106  -0.068  0.00  0.00    -0.075 A 
ATOM      2  C4  UNL d   1      -0.465  -0.940   0.963  0.00  0.00     0.002 A 
ATOM      3  C5  UNL d   1      -0.458  -2.326   0.809  0.00  0.00     0.002 A 
ATOM      4  C6  UNL d   1      -0.007  -2.896  -0.380  0.00  0.00    -0.004 A 
ATOM      5  C7  UNL d   1       0.433  -2.076  -1.417  0.00  0.00     0.002 A 
ATOM      6  C8  UNL d   1       0.431  -0.689  -1.264  0.00  0.00     0.002 A 
ENDROOT
BRANCH   1   7
ATOM      7  C2  UNL d   1       0.013   1.394   0.104  0.00  0.00     0.056 C 
BRANCH   7   8
ATOM      8  C1  UNL d   1       1.406   1.969   0.379  0.00  0.00     0.007 C 
ATOM      9  C   UNL d   1       1.391   3.463   0.675  0.00  0.00     0.009 C 
ENDBRANCH   7   8
ENDBRANCH   1   7
TORSDOF 2
ENDMDL
