MODEL 1
REMARK minimizedAffinity -4.42407656
REMARK minimizedRMSD -1
REMARK  2 active torsions:
REMARK  status: ('A' for Active; 'I' for Inactive)
REMARK    1  A    between atoms: C1_2  and  C2_3 
REMARK    2  A    between atoms: C2_3  and  C3_4 
ROOT
ATOM      1  C3  UNL d   1       0.672   1.412  -0.027  0.00  0.00    -0.075 A 
ATOM      2  C4  UNL d   1       1.983   1.235  -0.492  0.00  0.00     0.002 A 
ATOM      3  C5  UNL d   1       2.919   2.263  -0.381  0.00  0.00     0.002 A 
ATOM      4  C6  UNL d   1       2.555   3.483   0.186  0.00  0.00    -0.004 A 
ATOM      5  C7  UNL d   1       1.251   3.676   0.637  0.00  0.00     0.002 A 
ATOM      6  C8  UNL d   1       0.314   2.647   0.531  0.00  0.00     0.002 A 
ENDROOT
BRANCH   1   7
ATOM      7  C2  UNL d   1      -0.338   0.293  -0.117  0.00  0.00     0.056 C 
BRANCH   7   8
ATOM      8  C1  UNL d   1      -0.627  -0.395   1.221  0.00  0.00     0.007 C 
ATOM      9  C   UNL d   1      -1.134  -1.823   1.064  0.00  0.00     0.009 C 
ENDBRANCH   7   8
ENDBRANCH   1   7
TORSDOF 2
ENDMDL
