MODEL 1
REMARK minimizedAffinity -4.23473358
REMARK minimizedRMSD -1
REMARK  2 active torsions:
REMARK  status: ('A' for Active; 'I' for Inactive)
REMARK    1  A    between atoms: C1_2  and  C2_3 
REMARK    2  A    between atoms: C2_3  and  C3_4 
ROOT
ATOM      1  C3  UNL d   1       0.085   1.415   0.187  0.00  0.00    -0.075 A 
ATOM      2  C4  UNL d   1      -0.027   0.748  -1.042  0.00  0.00     0.002 A 
ATOM      3  C5  UNL d   1      -0.558  -0.540  -1.103  0.00  0.00     0.002 A 
ATOM      4  C6  UNL d   1      -0.974  -1.181   0.062  0.00  0.00    -0.004 A 
ATOM      5  C7  UNL d   1      -0.852  -0.535   1.290  0.00  0.00     0.002 A 
ATOM      6  C8  UNL d   1      -0.325   0.756   1.354  0.00  0.00     0.002 A 
ENDROOT
BRANCH   1   7
ATOM      7  C2  UNL d   1       0.632   2.821   0.256  0.00  0.00     0.056 C 
BRANCH   7   8
ATOM      8  C1  UNL d   1       2.109   2.935  -0.134  0.00  0.00     0.007 C 
ATOM      9  C   UNL d   1       3.035   3.107   1.063  0.00  0.00     0.009 C 
ENDBRANCH   7   8
ENDBRANCH   1   7
TORSDOF 2
ENDMDL
