MODEL 1
REMARK minimizedAffinity 0.622284353
REMARK minimizedRMSD -1
REMARK  0 active torsions:
REMARK  status: ('A' for Active; 'I' for Inactive)
ROOT
ATOM      1  N1  IND d   1       0.820   0.658  -0.630  0.00  0.00    -0.196 N 
ATOM      2  C2  IND d   1       0.115  -0.148   0.219  0.00  0.00     0.054 A 
ATOM      3  C3  IND d   1       0.516   0.048   1.495  0.00  0.00    -0.031 A 
ATOM      4  C4  IND d   1       2.241   1.715   2.430  0.00  0.00     0.051 A 
ATOM      5  C5  IND d   1       3.169   2.638   2.037  0.00  0.00    -0.031 A 
ATOM      6  C6  IND d   1       3.364   2.957   0.709  0.00  0.00     0.015 A 
ATOM      7  C7  IND d   1       2.626   2.370  -0.280  0.00  0.00    -0.016 A 
ATOM      8  C8  IND d   1       1.687   1.427   0.114  0.00  0.00    -0.047 A 
ATOM      9  C9  IND d   1       1.515   1.068   1.457  0.00  0.00    -0.096 A 
ATOM     10  HN1 IND d   1       0.735   0.682  -1.485  0.00  0.00     0.298 HD
ENDROOT
TORSDOF 0
ENDMDL
