MODEL 1
REMARK minimizedAffinity -1.65513837
REMARK minimizedRMSD -1
REMARK  0 active torsions:
REMARK  status: ('A' for Active; 'I' for Inactive)
ROOT
ATOM      1  N1  IND d   1       1.644   0.345  -0.335  0.00  0.00    -0.196 N 
ATOM      2  C2  IND d   1       0.818  -0.291   0.550  0.00  0.00     0.054 A 
ATOM      3  C3  IND d   1       0.740   0.407   1.705  0.00  0.00    -0.031 A 
ATOM      4  C4  IND d   1       1.803   2.669   2.324  0.00  0.00     0.051 A 
ATOM      5  C5  IND d   1       2.668   3.617   1.855  0.00  0.00    -0.031 A 
ATOM      6  C6  IND d   1       3.247   3.522   0.606  0.00  0.00     0.015 A 
ATOM      7  C7  IND d   1       2.970   2.476  -0.229  0.00  0.00    -0.016 A 
ATOM      8  C8  IND d   1       2.097   1.509   0.246  0.00  0.00    -0.047 A 
ATOM      9  C9  IND d   1       1.540   1.578   1.530  0.00  0.00    -0.096 A 
ATOM     10  HN1 IND d   1       1.846   0.065  -1.123  0.00  0.00     0.298 HD
ENDROOT
TORSDOF 0
ENDMDL
