MODEL 1
REMARK minimizedAffinity 2.95138383
REMARK minimizedRMSD -1
REMARK  0 active torsions:
REMARK  status: ('A' for Active; 'I' for Inactive)
ROOT
ATOM      1  N1  IND d   1      -0.349   0.008  -0.753  0.00  0.00    -0.196 N 
ATOM      2  C2  IND d   1       0.181   0.037   0.507  0.00  0.00     0.054 A 
ATOM      3  C3  IND d   1       1.520  -0.144   0.459  0.00  0.00    -0.031 A 
ATOM      4  C4  IND d   1       3.062  -0.405  -1.585  0.00  0.00     0.051 A 
ATOM      5  C5  IND d   1       3.035  -0.530  -2.946  0.00  0.00    -0.031 A 
ATOM      6  C6  IND d   1       1.856  -0.479  -3.660  0.00  0.00     0.015 A 
ATOM      7  C7  IND d   1       0.654  -0.288  -3.038  0.00  0.00    -0.016 A 
ATOM      8  C8  IND d   1       0.677  -0.167  -1.655  0.00  0.00    -0.047 A 
ATOM      9  C9  IND d   1       1.867  -0.261  -0.922  0.00  0.00    -0.096 A 
ATOM     10  HN1 IND d   1      -1.182   0.086  -0.949  0.00  0.00     0.298 HD
ENDROOT
TORSDOF 0
ENDMDL
