MODEL 1
REMARK minimizedAffinity -5.17395735
REMARK minimizedRMSD -1
REMARK  0 active torsions:
REMARK  status: ('A' for Active; 'I' for Inactive)
ROOT
ATOM      1  N1  IND d   1       3.526   1.834   1.446  0.00  0.00    -0.196 N 
ATOM      2  C2  IND d   1       3.513   3.186   1.239  0.00  0.00     0.054 A 
ATOM      3  C3  IND d   1       2.271   3.598   0.901  0.00  0.00    -0.031 A 
ATOM      4  C4  IND d   1       0.088   2.244   0.729  0.00  0.00     0.051 A 
ATOM      5  C5  IND d   1      -0.395   0.967   0.793  0.00  0.00    -0.031 A 
ATOM      6  C6  IND d   1       0.419  -0.107   1.086  0.00  0.00     0.015 A 
ATOM      7  C7  IND d   1       1.752   0.058   1.339  0.00  0.00    -0.016 A 
ATOM      8  C8  IND d   1       2.248   1.352   1.269  0.00  0.00    -0.047 A 
ATOM      9  C9  IND d   1       1.434   2.441   0.930  0.00  0.00    -0.096 A 
ATOM     10  HN1 IND d   1       4.216   1.365   1.653  0.00  0.00     0.298 HD
ENDROOT
TORSDOF 0
ENDMDL
