MODEL 1
REMARK minimizedAffinity -1.01933515
REMARK minimizedRMSD -1
REMARK  0 active torsions:
REMARK  status: ('A' for Active; 'I' for Inactive)
ROOT
ATOM      1  N1  IND d   1       1.396   0.659  -0.871  0.00  0.00    -0.196 N 
ATOM      2  C2  IND d   1       0.359   0.156  -0.136  0.00  0.00     0.054 A 
ATOM      3  C3  IND d   1       0.226   0.843   1.021  0.00  0.00    -0.031 A 
ATOM      4  C4  IND d   1       1.533   2.894   1.864  0.00  0.00     0.051 A 
ATOM      5  C5  IND d   1       2.598   3.694   1.557  0.00  0.00    -0.031 A 
ATOM      6  C6  IND d   1       3.330   3.521   0.399  0.00  0.00     0.015 A 
ATOM      7  C7  IND d   1       3.015   2.545  -0.503  0.00  0.00    -0.016 A 
ATOM      8  C8  IND d   1       1.939   1.726  -0.191  0.00  0.00    -0.047 A 
ATOM      9  C9  IND d   1       1.219   1.870   1.003  0.00  0.00    -0.096 A 
ATOM     10  HN1 IND d   1       1.664   0.359  -1.632  0.00  0.00     0.298 HD
ENDROOT
TORSDOF 0
ENDMDL
