MODEL 1
REMARK minimizedAffinity 0.374641418
REMARK minimizedRMSD -1
REMARK  0 active torsions:
REMARK  status: ('A' for Active; 'I' for Inactive)
ROOT
ATOM      1  N1  IND d   1       1.419  -0.561  -3.672  0.00  0.00    -0.196 N 
ATOM      2  C2  IND d   1       2.773  -0.727  -3.597  0.00  0.00     0.054 A 
ATOM      3  C3  IND d   1       3.217  -0.420  -2.358  0.00  0.00    -0.031 A 
ATOM      4  C4  IND d   1       1.883   0.279  -0.270  0.00  0.00     0.051 A 
ATOM      5  C5  IND d   1       0.621   0.601   0.144  0.00  0.00    -0.031 A 
ATOM      6  C6  IND d   1      -0.462   0.548  -0.709  0.00  0.00     0.015 A 
ATOM      7  C7  IND d   1      -0.324   0.159  -2.012  0.00  0.00    -0.016 A 
ATOM      8  C8  IND d   1       0.957  -0.162  -2.437  0.00  0.00    -0.047 A 
ATOM      9  C9  IND d   1       2.066  -0.069  -1.587  0.00  0.00    -0.096 A 
ATOM     10  HN1 IND d   1       0.936  -0.685  -4.373  0.00  0.00     0.298 HD
ENDROOT
TORSDOF 0
ENDMDL
