MODEL 1
REMARK minimizedAffinity -3.26971102
REMARK minimizedRMSD -1
REMARK  0 active torsions:
REMARK  status: ('A' for Active; 'I' for Inactive)
ROOT
ATOM      1  N1  IND d   1       4.251   5.304   1.033  0.00  0.00    -0.196 N 
ATOM      2  C2  IND d   1       4.334   5.535  -0.311  0.00  0.00     0.054 A 
ATOM      3  C3  IND d   1       3.863   4.472  -1.001  0.00  0.00    -0.031 A 
ATOM      4  C4  IND d   1       2.815   2.289  -0.127  0.00  0.00     0.051 A 
ATOM      5  C5  IND d   1       2.557   1.605   1.027  0.00  0.00    -0.031 A 
ATOM      6  C6  IND d   1       2.853   2.131   2.268  0.00  0.00     0.015 A 
ATOM      7  C7  IND d   1       3.412   3.371   2.401  0.00  0.00    -0.016 A 
ATOM      8  C8  IND d   1       3.682   4.065   1.231  0.00  0.00    -0.047 A 
ATOM      9  C9  IND d   1       3.422   3.519  -0.033  0.00  0.00    -0.096 A 
ATOM     10  HN1 IND d   1       4.511   5.842   1.652  0.00  0.00     0.298 HD
ENDROOT
TORSDOF 0
ENDMDL
