MODEL 1
REMARK minimizedAffinity -1.77783346
REMARK minimizedRMSD -1
REMARK  0 active torsions:
REMARK  status: ('A' for Active; 'I' for Inactive)
ROOT
ATOM      1  N1  IND d   1       0.894   0.196  -0.268  0.00  0.00    -0.196 N 
ATOM      2  C2  IND d   1       0.562   0.805  -1.446  0.00  0.00     0.054 A 
ATOM      3  C3  IND d   1      -0.707   0.495  -1.794  0.00  0.00    -0.031 A 
ATOM      4  C4  IND d   1      -2.453  -0.910  -0.529  0.00  0.00     0.051 A 
ATOM      5  C5  IND d   1      -2.604  -1.702   0.575  0.00  0.00    -0.031 A 
ATOM      6  C6  IND d   1      -1.576  -1.903   1.474  0.00  0.00     0.015 A 
ATOM      7  C7  IND d   1      -0.358  -1.308   1.308  0.00  0.00    -0.016 A 
ATOM      8  C8  IND d   1      -0.199  -0.509   0.184  0.00  0.00    -0.047 A 
ATOM      9  C9  IND d   1      -1.225  -0.336  -0.754  0.00  0.00    -0.096 A 
ATOM     10  HN1 IND d   1       1.658   0.246   0.125  0.00  0.00     0.298 HD
ENDROOT
TORSDOF 0
ENDMDL
