MODEL 1
REMARK minimizedAffinity -2.95135379
REMARK minimizedRMSD -1
REMARK  0 active torsions:
REMARK  status: ('A' for Active; 'I' for Inactive)
ROOT
ATOM      1  N1  IND d   1       0.707  -0.345   0.537  0.00  0.00    -0.196 N 
ATOM      2  C2  IND d   1       1.083   0.379  -0.560  0.00  0.00     0.054 A 
ATOM      3  C3  IND d   1       0.029   0.563  -1.386  0.00  0.00    -0.031 A 
ATOM      4  C4  IND d   1      -2.427  -0.148  -1.087  0.00  0.00     0.051 A 
ATOM      5  C5  IND d   1      -3.248  -0.864  -0.262  0.00  0.00    -0.031 A 
ATOM      6  C6  IND d   1      -2.785  -1.453   0.896  0.00  0.00     0.015 A 
ATOM      7  C7  IND d   1      -1.478  -1.338   1.280  0.00  0.00    -0.016 A 
ATOM      8  C8  IND d   1      -0.640  -0.618   0.441  0.00  0.00    -0.047 A 
ATOM      9  C9  IND d   1      -1.096  -0.054  -0.757  0.00  0.00    -0.096 A 
ATOM     10  HN1 IND d   1       1.225  -0.589   1.179  0.00  0.00     0.298 HD
ENDROOT
TORSDOF 0
ENDMDL
