MODEL 1
REMARK minimizedAffinity -6.00127697
REMARK minimizedRMSD -1
REMARK  0 active torsions:
REMARK  status: ('A' for Active; 'I' for Inactive)
ROOT
ATOM      1  N1  IND d   1       0.405  -1.831   1.018  0.00  0.00    -0.196 N 
ATOM      2  C2  IND d   1       1.040  -0.788   0.403  0.00  0.00     0.054 A 
ATOM      3  C3  IND d   1       0.155  -0.045  -0.297  0.00  0.00    -0.031 A 
ATOM      4  C4  IND d   1      -2.400  -0.298  -0.491  0.00  0.00     0.051 A 
ATOM      5  C5  IND d   1      -3.431  -1.122  -0.136  0.00  0.00    -0.031 A 
ATOM      6  C6  IND d   1      -3.232  -2.245   0.640  0.00  0.00     0.015 A 
ATOM      7  C7  IND d   1      -1.991  -2.582   1.102  0.00  0.00    -0.016 A 
ATOM      8  C8  IND d   1      -0.941  -1.752   0.737  0.00  0.00    -0.047 A 
ATOM      9  C9  IND d   1      -1.130  -0.634  -0.086  0.00  0.00    -0.096 A 
ATOM     10  HN1 IND d   1       0.783  -2.435   1.500  0.00  0.00     0.298 HD
ENDROOT
TORSDOF 0
ENDMDL
