MODEL 1
REMARK minimizedAffinity -4.75211573
REMARK minimizedRMSD -1
REMARK  0 active torsions:
REMARK  status: ('A' for Active; 'I' for Inactive)
ROOT
ATOM      1  N1  IND d   1       0.118  -0.541   0.695  0.00  0.00    -0.196 N 
ATOM      2  C2  IND d   1       0.326  -1.510   1.637  0.00  0.00     0.054 A 
ATOM      3  C3  IND d   1      -0.784  -2.267   1.785  0.00  0.00    -0.031 A 
ATOM      4  C4  IND d   1      -3.020  -2.158   0.515  0.00  0.00     0.051 A 
ATOM      5  C5  IND d   1      -3.697  -1.417  -0.413  0.00  0.00    -0.031 A 
ATOM      6  C6  IND d   1      -3.124  -0.326  -1.033  0.00  0.00     0.015 A 
ATOM      7  C7  IND d   1      -1.843   0.060  -0.756  0.00  0.00    -0.016 A 
ATOM      8  C8  IND d   1      -1.156  -0.686   0.191  0.00  0.00    -0.047 A 
ATOM      9  C9  IND d   1      -1.746  -1.769   0.855  0.00  0.00    -0.096 A 
ATOM     10  HN1 IND d   1       0.687   0.058   0.458  0.00  0.00     0.298 HD
ENDROOT
TORSDOF 0
ENDMDL
