MODEL 1
REMARK minimizedAffinity -3.32878709
REMARK minimizedRMSD -1
REMARK  0 active torsions:
REMARK  status: ('A' for Active; 'I' for Inactive)
ROOT
ATOM      1  N1  IND d   1      -3.303  -1.062  -0.083  0.00  0.00    -0.196 N 
ATOM      2  C2  IND d   1      -3.156  -1.371   1.241  0.00  0.00     0.054 A 
ATOM      3  C3  IND d   1      -1.897  -1.097   1.651  0.00  0.00    -0.031 A 
ATOM      4  C4  IND d   1       0.055  -0.042   0.345  0.00  0.00     0.051 A 
ATOM      5  C5  IND d   1       0.413   0.377  -0.905  0.00  0.00    -0.031 A 
ATOM      6  C6  IND d   1      -0.468   0.340  -1.966  0.00  0.00     0.015 A 
ATOM      7  C7  IND d   1      -1.749  -0.109  -1.813  0.00  0.00    -0.016 A 
ATOM      8  C8  IND d   1      -2.114  -0.543  -0.546  0.00  0.00    -0.047 A 
ATOM      9  C9  IND d   1      -1.211  -0.547   0.525  0.00  0.00    -0.096 A 
ATOM     10  HN1 IND d   1      -4.017  -1.174  -0.548  0.00  0.00     0.298 HD
ENDROOT
TORSDOF 0
ENDMDL
