MODEL 1
REMARK minimizedAffinity -1.78061759
REMARK minimizedRMSD -1
REMARK  0 active torsions:
REMARK  status: ('A' for Active; 'I' for Inactive)
ROOT
ATOM      1  N1  IND d   1       4.436   4.601  -0.043  0.00  0.00    -0.196 N 
ATOM      2  C2  IND d   1       4.590   3.811  -1.147  0.00  0.00     0.054 A 
ATOM      3  C3  IND d   1       4.155   2.557  -0.892  0.00  0.00    -0.031 A 
ATOM      4  C4  IND d   1       3.059   1.606   1.234  0.00  0.00     0.051 A 
ATOM      5  C5  IND d   1       2.739   1.937   2.521  0.00  0.00    -0.031 A 
ATOM      6  C6  IND d   1       2.971   3.199   3.029  0.00  0.00     0.015 A 
ATOM      7  C7  IND d   1       3.523   4.185   2.261  0.00  0.00    -0.016 A 
ATOM      8  C8  IND d   1       3.856   3.851   0.956  0.00  0.00    -0.047 A 
ATOM      9  C9  IND d   1       3.662   2.560   0.448  0.00  0.00    -0.096 A 
ATOM     10  HN1 IND d   1       4.664   5.428   0.018  0.00  0.00     0.298 HD
ENDROOT
TORSDOF 0
ENDMDL
