MODEL 1
REMARK minimizedAffinity -3.17145538
REMARK minimizedRMSD -1
REMARK  0 active torsions:
REMARK  status: ('A' for Active; 'I' for Inactive)
ROOT
ATOM      1  N1  IND d   1       0.438   0.017  -1.600  0.00  0.00    -0.196 N 
ATOM      2  C2  IND d   1       1.386   0.224  -0.638  0.00  0.00     0.054 A 
ATOM      3  C3  IND d   1       0.844   0.089   0.593  0.00  0.00    -0.031 A 
ATOM      4  C4  IND d   1      -1.554  -0.568   1.261  0.00  0.00     0.051 A 
ATOM      5  C5  IND d   1      -2.788  -0.821   0.731  0.00  0.00    -0.031 A 
ATOM      6  C6  IND d   1      -3.014  -0.811  -0.630  0.00  0.00     0.015 A 
ATOM      7  C7  IND d   1      -2.007  -0.556  -1.517  0.00  0.00    -0.016 A 
ATOM      8  C8  IND d   1      -0.754  -0.292  -0.983  0.00  0.00    -0.047 A 
ATOM      9  C9  IND d   1      -0.528  -0.259   0.399  0.00  0.00    -0.096 A 
ATOM     10  HN1 IND d   1       0.565   0.070  -2.449  0.00  0.00     0.298 HD
ENDROOT
TORSDOF 0
ENDMDL
