MODEL 1
REMARK minimizedAffinity -1.25959539
REMARK minimizedRMSD -1
REMARK  0 active torsions:
REMARK  status: ('A' for Active; 'I' for Inactive)
ROOT
ATOM      1  N1  IND d   1       1.028   0.071  -0.873  0.00  0.00    -0.196 N 
ATOM      2  C2  IND d   1      -0.307   0.338  -0.998  0.00  0.00     0.054 A 
ATOM      3  C3  IND d   1      -0.647   0.435  -2.303  0.00  0.00    -0.031 A 
ATOM      4  C4  IND d   1       0.804   0.089  -4.401  0.00  0.00     0.051 A 
ATOM      5  C5  IND d   1       2.093  -0.135  -4.794  0.00  0.00    -0.031 A 
ATOM      6  C6  IND d   1       3.114  -0.308  -3.882  0.00  0.00     0.015 A 
ATOM      7  C7  IND d   1       2.880  -0.274  -2.536  0.00  0.00    -0.016 A 
ATOM      8  C8  IND d   1       1.573  -0.040  -2.134  0.00  0.00    -0.047 A 
ATOM      9  C9  IND d   1       0.540   0.179  -3.055  0.00  0.00    -0.096 A 
ATOM     10  HN1 IND d   1       1.456  -0.013  -0.132  0.00  0.00     0.298 HD
ENDROOT
TORSDOF 0
ENDMDL
