MODEL 1
REMARK minimizedAffinity 0.45640099
REMARK minimizedRMSD -1
REMARK  0 active torsions:
REMARK  status: ('A' for Active; 'I' for Inactive)
ROOT
ATOM      1  C   UNL d   1      -5.079  -5.999   0.799  0.00  0.00     0.020 A 
ATOM      2  C1  UNL d   1      -5.925  -4.891   0.787  0.00  0.00     0.020 A 
ATOM      3  C2  UNL d   1      -5.583  -3.760   0.043  0.00  0.00     0.034 A 
ATOM      4  C3  UNL d   1      -4.393  -3.734  -0.693  0.00  0.00     0.017 A 
ATOM      5  C4  UNL d   1      -3.544  -4.847  -0.680  0.00  0.00     0.017 A 
ATOM      6  C5  UNL d   1      -3.891  -5.977   0.066  0.00  0.00     0.034 A 
ATOM      7 Cl   UNL d   1      -2.059  -4.890  -1.563  0.00  0.00    -0.070 Cl
ATOM      8 Cl1  UNL d   1      -4.034  -2.303  -1.591  0.00  0.00    -0.070 Cl
ENDROOT
TORSDOF 0
ENDMDL
