MODEL 1
REMARK minimizedAffinity 0.363952905
REMARK minimizedRMSD -1
REMARK  0 active torsions:
REMARK  status: ('A' for Active; 'I' for Inactive)
ROOT
ATOM      1  C   UNL d   1       0.777   1.496   1.010  0.00  0.00     0.020 A 
ATOM      2  C1  UNL d   1       0.676   0.116   0.843  0.00  0.00     0.020 A 
ATOM      3  C2  UNL d   1      -0.502  -0.546   1.199  0.00  0.00     0.034 A 
ATOM      4  C3  UNL d   1      -1.582   0.174   1.723  0.00  0.00     0.017 A 
ATOM      5  C4  UNL d   1      -1.479   1.559   1.890  0.00  0.00     0.017 A 
ATOM      6  C5  UNL d   1      -0.298   2.216   1.532  0.00  0.00     0.034 A 
ATOM      7 Cl   UNL d   1      -2.769   2.515   2.530  0.00  0.00    -0.070 Cl
ATOM      8 Cl1  UNL d   1      -3.008  -0.709   2.141  0.00  0.00    -0.070 Cl
ENDROOT
TORSDOF 0
ENDMDL
