MODEL 1
REMARK minimizedAffinity 9.48364067
REMARK minimizedRMSD -1
REMARK  0 active torsions:
REMARK  status: ('A' for Active; 'I' for Inactive)
ROOT
ATOM      1  C   UNL d   1      -2.316   3.427   1.360  0.00  0.00     0.020 A 
ATOM      2  C1  UNL d   1      -2.581   2.448   2.318  0.00  0.00     0.020 A 
ATOM      3  C2  UNL d   1      -1.642   1.445   2.568  0.00  0.00     0.034 A 
ATOM      4  C3  UNL d   1      -0.435   1.418   1.860  0.00  0.00     0.017 A 
ATOM      5  C4  UNL d   1      -0.171   2.401   0.899  0.00  0.00     0.017 A 
ATOM      6  C5  UNL d   1      -1.114   3.403   0.653  0.00  0.00     0.034 A 
ATOM      7 Cl   UNL d   1       1.296   2.433  -0.014  0.00  0.00    -0.070 Cl
ATOM      8 Cl1  UNL d   1       0.680   0.148   2.221  0.00  0.00    -0.070 Cl
ENDROOT
TORSDOF 0
ENDMDL
