MODEL 1
REMARK minimizedAffinity -3.61620688
REMARK minimizedRMSD -1
REMARK  0 active torsions:
REMARK  status: ('A' for Active; 'I' for Inactive)
ROOT
ATOM      1  C   UNL d   1      -1.462   0.526   0.513  0.00  0.00     0.020 A 
ATOM      2  C1  UNL d   1      -1.154  -0.628   1.233  0.00  0.00     0.020 A 
ATOM      3  C2  UNL d   1      -0.076  -0.631   2.120  0.00  0.00     0.034 A 
ATOM      4  C3  UNL d   1       0.699   0.522   2.289  0.00  0.00     0.017 A 
ATOM      5  C4  UNL d   1       0.390   1.680   1.566  0.00  0.00     0.017 A 
ATOM      6  C5  UNL d   1      -0.691   1.677   0.679  0.00  0.00     0.034 A 
ATOM      7 Cl   UNL d   1       1.300   3.141   1.721  0.00  0.00    -0.070 Cl
ATOM      8 Cl1  UNL d   1       2.018   0.448   3.403  0.00  0.00    -0.070 Cl
ENDROOT
TORSDOF 0
ENDMDL
