MODEL 1
REMARK minimizedAffinity -0.606015742
REMARK minimizedRMSD -1
REMARK  0 active torsions:
REMARK  status: ('A' for Active; 'I' for Inactive)
ROOT
ATOM      1  C   UNL d   1      -2.275   2.303   1.936  0.00  0.00     0.020 A 
ATOM      2  C1  UNL d   1      -2.994   1.127   2.151  0.00  0.00     0.020 A 
ATOM      3  C2  UNL d   1      -2.412  -0.109   1.863  0.00  0.00     0.034 A 
ATOM      4  C3  UNL d   1      -1.107  -0.173   1.359  0.00  0.00     0.017 A 
ATOM      5  C4  UNL d   1      -0.387   1.008   1.144  0.00  0.00     0.017 A 
ATOM      6  C5  UNL d   1      -0.975   2.243   1.434  0.00  0.00     0.034 A 
ATOM      7 Cl   UNL d   1       1.227   1.010   0.525  0.00  0.00    -0.070 Cl
ATOM      8 Cl1  UNL d   1      -0.450  -1.735   1.026  0.00  0.00    -0.070 Cl
ENDROOT
TORSDOF 0
ENDMDL
