MODEL 1
REMARK minimizedAffinity -0.890709519
REMARK minimizedRMSD -1
REMARK  0 active torsions:
REMARK  status: ('A' for Active; 'I' for Inactive)
ROOT
ATOM      1  C   UNL d   1      -2.439   2.315   2.036  0.00  0.00     0.020 A 
ATOM      2  C1  UNL d   1      -2.615   0.935   1.930  0.00  0.00     0.020 A 
ATOM      3  C2  UNL d   1      -1.530   0.115   1.613  0.00  0.00     0.034 A 
ATOM      4  C3  UNL d   1      -0.264   0.673   1.401  0.00  0.00     0.017 A 
ATOM      5  C4  UNL d   1      -0.088   2.058   1.508  0.00  0.00     0.017 A 
ATOM      6  C5  UNL d   1      -1.178   2.874   1.825  0.00  0.00     0.034 A 
ATOM      7 Cl   UNL d   1       1.443   2.820   1.260  0.00  0.00    -0.070 Cl
ATOM      8 Cl1  UNL d   1       1.033  -0.400   1.014  0.00  0.00    -0.070 Cl
ENDROOT
TORSDOF 0
ENDMDL
