MODEL 1
REMARK minimizedAffinity 0.479662061
REMARK minimizedRMSD -1
REMARK  0 active torsions:
REMARK  status: ('A' for Active; 'I' for Inactive)
ROOT
ATOM      1  C   UNL d   1       0.899   0.859   1.057  0.00  0.00     0.020 A 
ATOM      2  C1  UNL d   1       0.634  -0.426   1.529  0.00  0.00     0.020 A 
ATOM      3  C2  UNL d   1      -0.598  -0.711   2.121  0.00  0.00     0.034 A 
ATOM      4  C3  UNL d   1      -1.569   0.290   2.243  0.00  0.00     0.017 A 
ATOM      5  C4  UNL d   1      -1.302   1.579   1.769  0.00  0.00     0.017 A 
ATOM      6  C5  UNL d   1      -0.066   1.859   1.177  0.00  0.00     0.034 A 
ATOM      7 Cl   UNL d   1      -2.450   2.866   1.885  0.00  0.00    -0.070 Cl
ATOM      8 Cl1  UNL d   1      -3.070  -0.134   2.986  0.00  0.00    -0.070 Cl
ENDROOT
TORSDOF 0
ENDMDL
