MODEL 1
REMARK minimizedAffinity 4.78129864
REMARK minimizedRMSD -1
REMARK  0 active torsions:
REMARK  status: ('A' for Active; 'I' for Inactive)
ROOT
ATOM      1  C   UNL d   1      -1.763   0.899   1.480  0.00  0.00     0.020 A 
ATOM      2  C1  UNL d   1      -1.028   1.664   0.574  0.00  0.00     0.020 A 
ATOM      3  C2  UNL d   1       0.229   1.228   0.150  0.00  0.00     0.034 A 
ATOM      4  C3  UNL d   1       0.755   0.023   0.631  0.00  0.00     0.017 A 
ATOM      5  C4  UNL d   1       0.017  -0.744   1.540  0.00  0.00     0.017 A 
ATOM      6  C5  UNL d   1      -1.241  -0.302   1.961  0.00  0.00     0.034 A 
ATOM      7 Cl   UNL d   1       0.601  -2.241   2.177  0.00  0.00    -0.070 Cl
ATOM      8 Cl1  UNL d   1       2.315  -0.455   0.063  0.00  0.00    -0.070 Cl
ENDROOT
TORSDOF 0
ENDMDL
