MODEL 1
REMARK minimizedAffinity 0.483269036
REMARK minimizedRMSD -1
REMARK  0 active torsions:
REMARK  status: ('A' for Active; 'I' for Inactive)
ROOT
ATOM      1  C   UNL d   1       0.338   1.299   0.476  0.00  0.00     0.020 A 
ATOM      2  C1  UNL d   1      -0.928   1.884   0.490  0.00  0.00     0.020 A 
ATOM      3  C2  UNL d   1      -1.968   1.281   1.201  0.00  0.00     0.034 A 
ATOM      4  C3  UNL d   1      -1.743   0.089   1.901  0.00  0.00     0.017 A 
ATOM      5  C4  UNL d   1      -0.472  -0.496   1.887  0.00  0.00     0.017 A 
ATOM      6  C5  UNL d   1       0.565   0.112   1.173  0.00  0.00     0.034 A 
ATOM      7 Cl   UNL d   1      -0.119  -1.965   2.726  0.00  0.00    -0.070 Cl
ATOM      8 Cl1  UNL d   1      -3.074  -0.601   2.760  0.00  0.00    -0.070 Cl
ENDROOT
TORSDOF 0
ENDMDL
