MODEL 1
REMARK minimizedAffinity 1.39875722
REMARK minimizedRMSD -1
REMARK  0 active torsions:
REMARK  status: ('A' for Active; 'I' for Inactive)
ROOT
ATOM      1  C   UNL d   1      -0.215   1.762   0.663  0.00  0.00     0.020 A 
ATOM      2  C1  UNL d   1       0.950   1.193   1.174  0.00  0.00     0.020 A 
ATOM      3  C2  UNL d   1       0.957  -0.146   1.570  0.00  0.00     0.034 A 
ATOM      4  C3  UNL d   1      -0.204  -0.920   1.456  0.00  0.00     0.017 A 
ATOM      5  C4  UNL d   1      -1.373  -0.347   0.943  0.00  0.00     0.017 A 
ATOM      6  C5  UNL d   1      -1.374   0.994   0.548  0.00  0.00     0.034 A 
ATOM      7 Cl   UNL d   1      -2.844  -1.239   0.772  0.00  0.00    -0.070 Cl
ATOM      8 Cl1  UNL d   1      -0.123  -2.570   1.965  0.00  0.00    -0.070 Cl
ENDROOT
TORSDOF 0
ENDMDL
