MODEL 1
REMARK minimizedAffinity 4.6092267
REMARK minimizedRMSD -1
REMARK  0 active torsions:
REMARK  status: ('A' for Active; 'I' for Inactive)
ROOT
ATOM      1  C   UNL d   1      -2.129   1.329   1.578  0.00  0.00     0.020 A 
ATOM      2  C1  UNL d   1      -2.003  -0.059   1.616  0.00  0.00     0.020 A 
ATOM      3  C2  UNL d   1      -0.762  -0.654   1.377  0.00  0.00     0.034 A 
ATOM      4  C3  UNL d   1       0.357   0.139   1.099  0.00  0.00     0.017 A 
ATOM      5  C4  UNL d   1       0.229   1.533   1.062  0.00  0.00     0.017 A 
ATOM      6  C5  UNL d   1      -1.015   2.123   1.302  0.00  0.00     0.034 A 
ATOM      7 Cl   UNL d   1       1.565   2.577   0.726  0.00  0.00    -0.070 Cl
ATOM      8 Cl1  UNL d   1       1.860  -0.664   0.814  0.00  0.00    -0.070 Cl
ENDROOT
TORSDOF 0
ENDMDL
