MODEL 1
REMARK minimizedAffinity 5.08562756
REMARK minimizedRMSD -1
REMARK  0 active torsions:
REMARK  status: ('A' for Active; 'I' for Inactive)
ROOT
ATOM      1  C   UNL d   1       3.304  -0.581  -1.554  0.00  0.00     0.020 A 
ATOM      2  C1  UNL d   1       2.896   0.577  -2.215  0.00  0.00     0.020 A 
ATOM      3  C2  UNL d   1       2.127   1.530  -1.544  0.00  0.00     0.034 A 
ATOM      4  C3  UNL d   1       1.763   1.327  -0.207  0.00  0.00     0.017 A 
ATOM      5  C4  UNL d   1       2.173   0.164   0.455  0.00  0.00     0.017 A 
ATOM      6  C5  UNL d   1       2.943  -0.786  -0.221  0.00  0.00     0.034 A 
ATOM      7 Cl   UNL d   1       1.764  -0.156   2.104  0.00  0.00    -0.070 Cl
ATOM      8 Cl1  UNL d   1       0.811   2.547   0.561  0.00  0.00    -0.070 Cl
ENDROOT
TORSDOF 0
ENDMDL
