MODEL 1
REMARK minimizedAffinity 6.03275299
REMARK minimizedRMSD -1
REMARK  0 active torsions:
REMARK  status: ('A' for Active; 'I' for Inactive)
ROOT
ATOM      1  C   UNL d   1       0.956   1.335   1.313  0.00  0.00     0.020 A 
ATOM      2  C1  UNL d   1       0.844   0.022   1.767  0.00  0.00     0.020 A 
ATOM      3  C2  UNL d   1      -0.363  -0.429   2.307  0.00  0.00     0.034 A 
ATOM      4  C3  UNL d   1      -1.462   0.433   2.393  0.00  0.00     0.017 A 
ATOM      5  C4  UNL d   1      -1.348   1.751   1.936  0.00  0.00     0.017 A 
ATOM      6  C5  UNL d   1      -0.138   2.198   1.397  0.00  0.00     0.034 A 
ATOM      7 Cl   UNL d   1      -2.660   2.874   2.008  0.00  0.00    -0.070 Cl
ATOM      8 Cl1  UNL d   1      -2.923  -0.193   3.070  0.00  0.00    -0.070 Cl
ENDROOT
TORSDOF 0
ENDMDL
