MODEL 1
REMARK minimizedAffinity 2.39777517
REMARK minimizedRMSD -1
REMARK  0 active torsions:
REMARK  status: ('A' for Active; 'I' for Inactive)
ROOT
ATOM      1  C   UNL d   1      -3.419  -4.210  -2.160  0.00  0.00     0.020 A 
ATOM      2  C1  UNL d   1      -3.192  -3.396  -3.269  0.00  0.00     0.020 A 
ATOM      3  C2  UNL d   1      -3.544  -2.045  -3.228  0.00  0.00     0.034 A 
ATOM      4  C3  UNL d   1      -4.126  -1.504  -2.076  0.00  0.00     0.017 A 
ATOM      5  C4  UNL d   1      -4.354  -2.321  -0.963  0.00  0.00     0.017 A 
ATOM      6  C5  UNL d   1      -3.999  -3.673  -1.009  0.00  0.00     0.034 A 
ATOM      7 Cl   UNL d   1      -5.068  -1.725   0.493  0.00  0.00    -0.070 Cl
ATOM      8 Cl1  UNL d   1      -4.535   0.174  -2.096  0.00  0.00    -0.070 Cl
ENDROOT
TORSDOF 0
ENDMDL
