MODEL 1
REMARK minimizedAffinity -2.10618353
REMARK minimizedRMSD -1
REMARK  0 active torsions:
REMARK  status: ('A' for Active; 'I' for Inactive)
ROOT
ATOM      1  C   UNL d   1      -2.559   0.993   1.966  0.00  0.00     0.020 A 
ATOM      2  C1  UNL d   1      -2.266  -0.358   1.782  0.00  0.00     0.020 A 
ATOM      3  C2  UNL d   1      -0.995  -0.745   1.353  0.00  0.00     0.034 A 
ATOM      4  C3  UNL d   1      -0.011   0.220   1.108  0.00  0.00     0.017 A 
ATOM      5  C4  UNL d   1      -0.306   1.576   1.293  0.00  0.00     0.017 A 
ATOM      6  C5  UNL d   1      -1.581   1.957   1.722  0.00  0.00     0.034 A 
ATOM      7 Cl   UNL d   1       0.856   2.824   1.011  0.00  0.00    -0.070 Cl
ATOM      8 Cl1  UNL d   1       1.540  -0.329   0.580  0.00  0.00    -0.070 Cl
ENDROOT
TORSDOF 0
ENDMDL
