MODEL 1
REMARK minimizedAffinity -1.4341737
REMARK minimizedRMSD -1
REMARK  0 active torsions:
REMARK  status: ('A' for Active; 'I' for Inactive)
ROOT
ATOM      1  C   UNL d   1       1.876   1.844   1.076  0.00  0.00     0.020 A 
ATOM      2  C1  UNL d   1       2.007   0.465   0.912  0.00  0.00     0.020 A 
ATOM      3  C2  UNL d   1       0.911  -0.371   1.136  0.00  0.00     0.034 A 
ATOM      4  C3  UNL d   1      -0.320   0.170   1.525  0.00  0.00     0.017 A 
ATOM      5  C4  UNL d   1      -0.450   1.553   1.689  0.00  0.00     0.017 A 
ATOM      6  C5  UNL d   1       0.650   2.387   1.464  0.00  0.00     0.034 A 
ATOM      7 Cl   UNL d   1      -1.937   2.294   2.167  0.00  0.00    -0.070 Cl
ATOM      8 Cl1  UNL d   1      -1.632  -0.924   1.784  0.00  0.00    -0.070 Cl
ENDROOT
TORSDOF 0
ENDMDL
