MODEL 1
REMARK minimizedAffinity -0.260618925
REMARK minimizedRMSD -1
REMARK  0 active torsions:
REMARK  status: ('A' for Active; 'I' for Inactive)
ROOT
ATOM      1  C   UNL d   1       1.906   0.383   0.486  0.00  0.00     0.020 A 
ATOM      2  C1  UNL d   1       1.817   1.775   0.488  0.00  0.00     0.020 A 
ATOM      3  C2  UNL d   1       0.659   2.400   0.956  0.00  0.00     0.034 A 
ATOM      4  C3  UNL d   1      -0.415   1.633   1.423  0.00  0.00     0.017 A 
ATOM      5  C4  UNL d   1      -0.325   0.237   1.420  0.00  0.00     0.017 A 
ATOM      6  C5  UNL d   1       0.837  -0.384   0.951  0.00  0.00     0.034 A 
ATOM      7 Cl   UNL d   1      -1.609  -0.776   1.980  0.00  0.00    -0.070 Cl
ATOM      8 Cl1  UNL d   1      -1.816   2.473   1.986  0.00  0.00    -0.070 Cl
ENDROOT
TORSDOF 0
ENDMDL
