MODEL 1
REMARK minimizedAffinity 3.16120243
REMARK minimizedRMSD -1
REMARK  0 active torsions:
REMARK  status: ('A' for Active; 'I' for Inactive)
ROOT
ATOM      1  C   UNL d   1       1.060   1.346   1.149  0.00  0.00     0.020 A 
ATOM      2  C1  UNL d   1      -0.021   2.206   1.333  0.00  0.00     0.020 A 
ATOM      3  C2  UNL d   1      -1.292   1.686   1.586  0.00  0.00     0.034 A 
ATOM      4  C3  UNL d   1      -1.485   0.302   1.656  0.00  0.00     0.017 A 
ATOM      5  C4  UNL d   1      -0.399  -0.561   1.471  0.00  0.00     0.017 A 
ATOM      6  C5  UNL d   1       0.872  -0.035   1.218  0.00  0.00     0.034 A 
ATOM      7 Cl   UNL d   1      -0.559  -2.281   1.542  0.00  0.00    -0.070 Cl
ATOM      8 Cl1  UNL d   1      -3.084  -0.272   1.972  0.00  0.00    -0.070 Cl
ENDROOT
TORSDOF 0
ENDMDL
