MODEL 1
REMARK minimizedAffinity -5.97066689
REMARK minimizedRMSD -1
REMARK  3 active torsions:
REMARK  status: ('A' for Active; 'I' for Inactive)
REMARK    1  A    between atoms: C3'_2  and  C2'_3 
REMARK    2  A    between atoms: C2'_3  and  C1'_4 
REMARK    3  A    between atoms: C1'_4  and  C1_5 
ROOT
ATOM      1  C1  N4B d   1      -0.613  -0.654   0.206  0.00  0.00    -0.075 A 
ATOM      2  C2  N4B d   1      -1.658   0.042   0.852  0.00  0.00     0.002 A 
ATOM      3  C3  N4B d   1      -2.461  -0.610   1.756  0.00  0.00     0.002 A 
ATOM      4  C4  N4B d   1      -2.250  -1.956   2.014  0.00  0.00    -0.004 A 
ATOM      5  C5  N4B d   1      -1.222  -2.614   1.405  0.00  0.00     0.002 A 
ATOM      6  C6  N4B d   1      -0.405  -1.971   0.498  0.00  0.00     0.002 A 
ENDROOT
BRANCH   1   7
ATOM      7  C1' N4B d   1       0.237  -0.006  -0.853  0.00  0.00     0.057 C 
BRANCH   7   8
ATOM      8  C2' N4B d   1       0.684   1.369  -0.365  0.00  0.00     0.009 C 
BRANCH   8   9
ATOM      9  C3' N4B d   1       1.468   2.121  -1.426  0.00  0.00     0.004 C 
ATOM     10  C4' N4B d   1       0.834   2.041  -2.782  0.00  0.00     0.003 C 
ENDBRANCH   8   9
ENDBRANCH   7   8
ENDBRANCH   1   7
TORSDOF 3
ENDMDL
