MODEL 1
REMARK minimizedAffinity -1.58653784
REMARK minimizedRMSD -1
REMARK  3 active torsions:
REMARK  status: ('A' for Active; 'I' for Inactive)
REMARK    1  A    between atoms: C3'_2  and  C2'_3 
REMARK    2  A    between atoms: C2'_3  and  C1'_4 
REMARK    3  A    between atoms: C1'_4  and  C1_5 
ROOT
ATOM      1  C1  N4B d   1      -0.163  -0.787   0.025  0.00  0.00    -0.075 A 
ATOM      2  C2  N4B d   1      -1.345  -1.038  -0.704  0.00  0.00     0.002 A 
ATOM      3  C3  N4B d   1      -2.259  -1.951  -0.238  0.00  0.00     0.002 A 
ATOM      4  C4  N4B d   1      -2.003  -2.637   0.940  0.00  0.00    -0.004 A 
ATOM      5  C5  N4B d   1      -0.870  -2.370   1.652  0.00  0.00     0.002 A 
ATOM      6  C6  N4B d   1       0.054  -1.452   1.198  0.00  0.00     0.002 A 
ENDROOT
BRANCH   1   7
ATOM      7  C1' N4B d   1       0.906   0.140  -0.488  0.00  0.00     0.057 C 
BRANCH   7   8
ATOM      8  C2' N4B d   1       0.293   1.512  -0.753  0.00  0.00     0.009 C 
BRANCH   8   9
ATOM      9  C3' N4B d   1       0.320   1.871  -2.229  0.00  0.00     0.004 C 
ATOM     10  C4' N4B d   1       1.694   2.226  -2.715  0.00  0.00     0.003 C 
ENDBRANCH   8   9
ENDBRANCH   7   8
ENDBRANCH   1   7
TORSDOF 3
ENDMDL
