MODEL 1
REMARK minimizedAffinity -5.89996433
REMARK minimizedRMSD -1
REMARK  3 active torsions:
REMARK  status: ('A' for Active; 'I' for Inactive)
REMARK    1  A    between atoms: C3'_2  and  C2'_3 
REMARK    2  A    between atoms: C2'_3  and  C1'_4 
REMARK    3  A    between atoms: C1'_4  and  C1_5 
ROOT
ATOM      1  C1  N4B d   1      -0.273  -0.284   0.364  0.00  0.00    -0.075 A 
ATOM      2  C2  N4B d   1       0.619  -1.372   0.486  0.00  0.00     0.002 A 
ATOM      3  C3  N4B d   1       0.200  -2.541   1.073  0.00  0.00     0.002 A 
ATOM      4  C4  N4B d   1      -1.094  -2.637   1.562  0.00  0.00    -0.004 A 
ATOM      5  C5  N4B d   1      -1.957  -1.590   1.417  0.00  0.00     0.002 A 
ATOM      6  C6  N4B d   1      -1.551  -0.411   0.825  0.00  0.00     0.002 A 
ENDROOT
BRANCH   1   7
ATOM      7  C1' N4B d   1       0.165   1.043  -0.194  0.00  0.00     0.057 C 
BRANCH   7   8
ATOM      8  C2' N4B d   1       1.380   0.832  -1.093  0.00  0.00     0.009 C 
BRANCH   8   9
ATOM      9  C3' N4B d   1       1.463   1.879  -2.190  0.00  0.00     0.004 C 
ATOM     10  C4' N4B d   1       0.259   1.883  -3.083  0.00  0.00     0.003 C 
ENDBRANCH   8   9
ENDBRANCH   7   8
ENDBRANCH   1   7
TORSDOF 3
ENDMDL
