MODEL 1
REMARK minimizedAffinity -3.18522048
REMARK minimizedRMSD -1
REMARK  3 active torsions:
REMARK  status: ('A' for Active; 'I' for Inactive)
REMARK    1  A    between atoms: C3'_2  and  C2'_3 
REMARK    2  A    between atoms: C2'_3  and  C1'_4 
REMARK    3  A    between atoms: C1'_4  and  C1_5 
ROOT
ATOM      1  C1  N4B d   1      -0.432   0.142  -0.043  0.00  0.00    -0.075 A 
ATOM      2  C2  N4B d   1      -1.204   1.080   0.677  0.00  0.00     0.002 A 
ATOM      3  C3  N4B d   1      -2.396   0.698   1.242  0.00  0.00     0.002 A 
ATOM      4  C4  N4B d   1      -2.844  -0.605   1.085  0.00  0.00    -0.004 A 
ATOM      5  C5  N4B d   1      -2.080  -1.511   0.410  0.00  0.00     0.002 A 
ATOM      6  C6  N4B d   1      -0.878  -1.143  -0.160  0.00  0.00     0.002 A 
ENDROOT
BRANCH   1   7
ATOM      7  C1' N4B d   1       0.836   0.534  -0.751  0.00  0.00     0.057 C 
BRANCH   7   8
ATOM      8  C2' N4B d   1       0.482   1.283  -2.033  0.00  0.00     0.009 C 
BRANCH   8   9
ATOM      9  C3' N4B d   1       1.709   1.563  -2.884  0.00  0.00     0.004 C 
ATOM     10  C4' N4B d   1       1.364   1.938  -4.294  0.00  0.00     0.003 C 
ENDBRANCH   8   9
ENDBRANCH   7   8
ENDBRANCH   1   7
TORSDOF 3
ENDMDL
