MODEL 1
REMARK minimizedAffinity -2.46844935
REMARK minimizedRMSD -1
REMARK  3 active torsions:
REMARK  status: ('A' for Active; 'I' for Inactive)
REMARK    1  A    between atoms: C3'_2  and  C2'_3 
REMARK    2  A    between atoms: C2'_3  and  C1'_4 
REMARK    3  A    between atoms: C1'_4  and  C1_5 
ROOT
ATOM      1  C1  N4B d   1      -0.607  -0.806   0.418  0.00  0.00    -0.075 A 
ATOM      2  C2  N4B d   1      -1.535   0.188   0.800  0.00  0.00     0.002 A 
ATOM      3  C3  N4B d   1      -1.227   1.516   0.630  0.00  0.00     0.002 A 
ATOM      4  C4  N4B d   1       0.004   1.873   0.101  0.00  0.00    -0.004 A 
ATOM      5  C5  N4B d   1       0.884   0.906  -0.290  0.00  0.00     0.002 A 
ATOM      6  C6  N4B d   1       0.587  -0.432  -0.129  0.00  0.00     0.002 A 
ENDROOT
BRANCH   1   7
ATOM      7  C1' N4B d   1      -0.863  -2.268   0.663  0.00  0.00     0.057 C 
BRANCH   7   8
ATOM      8  C2' N4B d   1      -0.671  -2.568   2.146  0.00  0.00     0.009 C 
BRANCH   8   9
ATOM      9  C3' N4B d   1       0.757  -2.979   2.463  0.00  0.00     0.004 C 
ATOM     10  C4' N4B d   1       0.964  -3.288   3.916  0.00  0.00     0.003 C 
ENDBRANCH   8   9
ENDBRANCH   7   8
ENDBRANCH   1   7
TORSDOF 3
ENDMDL
