MODEL 1
REMARK minimizedAffinity -2.52135348
REMARK minimizedRMSD -1
REMARK  3 active torsions:
REMARK  status: ('A' for Active; 'I' for Inactive)
REMARK    1  A    between atoms: C3'_2  and  C2'_3 
REMARK    2  A    between atoms: C2'_3  and  C1'_4 
REMARK    3  A    between atoms: C1'_4  and  C1_5 
ROOT
ATOM      1  C1  N4B d   1       0.327  -0.834   0.403  0.00  0.00    -0.075 A 
ATOM      2  C2  N4B d   1       0.879  -1.826   1.243  0.00  0.00     0.002 A 
ATOM      3  C3  N4B d   1       0.064  -2.775   1.810  0.00  0.00     0.002 A 
ATOM      4  C4  N4B d   1      -1.301  -2.742   1.567  0.00  0.00    -0.004 A 
ATOM      5  C5  N4B d   1      -1.822  -1.796   0.733  0.00  0.00     0.002 A 
ATOM      6  C6  N4B d   1      -1.014  -0.838   0.154  0.00  0.00     0.002 A 
ENDROOT
BRANCH   1   7
ATOM      7  C1' N4B d   1       1.165   0.276  -0.171  0.00  0.00     0.057 C 
BRANCH   7   8
ATOM      8  C2' N4B d   1       0.247   1.371  -0.706  0.00  0.00     0.009 C 
BRANCH   8   9
ATOM      9  C3' N4B d   1       0.935   2.225  -1.757  0.00  0.00     0.004 C 
ATOM     10  C4' N4B d   1       0.005   2.661  -2.850  0.00  0.00     0.003 C 
ENDBRANCH   8   9
ENDBRANCH   7   8
ENDBRANCH   1   7
TORSDOF 3
ENDMDL
