MODEL 1
REMARK minimizedAffinity -5.42766619
REMARK minimizedRMSD -1
REMARK  3 active torsions:
REMARK  status: ('A' for Active; 'I' for Inactive)
REMARK    1  A    between atoms: C3'_2  and  C2'_3 
REMARK    2  A    between atoms: C2'_3  and  C1'_4 
REMARK    3  A    between atoms: C1'_4  and  C1_5 
ROOT
ATOM      1  C1  N4B d   1       0.137   0.483   0.004  0.00  0.00    -0.075 A 
ATOM      2  C2  N4B d   1       1.234  -0.398  -0.120  0.00  0.00     0.002 A 
ATOM      3  C3  N4B d   1       1.079  -1.732   0.168  0.00  0.00     0.002 A 
ATOM      4  C4  N4B d   1      -0.153  -2.202   0.598  0.00  0.00    -0.004 A 
ATOM      5  C5  N4B d   1      -1.213  -1.349   0.691  0.00  0.00     0.002 A 
ATOM      6  C6  N4B d   1      -1.073  -0.007   0.400  0.00  0.00     0.002 A 
ENDROOT
BRANCH   1   7
ATOM      7  C1' N4B d   1       0.279   1.964  -0.217  0.00  0.00     0.057 C 
BRANCH   7   8
ATOM      8  C2' N4B d   1       1.272   2.209  -1.350  0.00  0.00     0.009 C 
BRANCH   8   9
ATOM      9  C3' N4B d   1       0.583   2.291  -2.701  0.00  0.00     0.004 C 
ATOM     10  C4' N4B d   1       1.329   1.561  -3.779  0.00  0.00     0.003 C 
ENDBRANCH   8   9
ENDBRANCH   7   8
ENDBRANCH   1   7
TORSDOF 3
ENDMDL
