MODEL 1
REMARK minimizedAffinity -5.34660673
REMARK minimizedRMSD -1
REMARK  3 active torsions:
REMARK  status: ('A' for Active; 'I' for Inactive)
REMARK    1  A    between atoms: C3'_2  and  C2'_3 
REMARK    2  A    between atoms: C2'_3  and  C1'_4 
REMARK    3  A    between atoms: C1'_4  and  C1_5 
ROOT
ATOM      1  C1  N4B d   1      -0.013   0.095   0.691  0.00  0.00    -0.075 A 
ATOM      2  C2  N4B d   1      -1.165   0.695   1.246  0.00  0.00     0.002 A 
ATOM      3  C3  N4B d   1      -2.008  -0.043   2.040  0.00  0.00     0.002 A 
ATOM      4  C4  N4B d   1      -1.731  -1.381   2.277  0.00  0.00    -0.004 A 
ATOM      5  C5  N4B d   1      -0.602  -1.946   1.758  0.00  0.00     0.002 A 
ATOM      6  C6  N4B d   1       0.256  -1.215   0.961  0.00  0.00     0.002 A 
ENDROOT
BRANCH   1   7
ATOM      7  C1' N4B d   1       0.893   0.838  -0.253  0.00  0.00     0.057 C 
BRANCH   7   8
ATOM      8  C2' N4B d   1       0.345   0.716  -1.672  0.00  0.00     0.009 C 
BRANCH   8   9
ATOM      9  C3' N4B d   1       0.784   1.874  -2.552  0.00  0.00     0.004 C 
ATOM     10  C4' N4B d   1       0.806   1.521  -4.009  0.00  0.00     0.003 C 
ENDBRANCH   8   9
ENDBRANCH   7   8
ENDBRANCH   1   7
TORSDOF 3
ENDMDL
