MODEL 1
REMARK minimizedAffinity -2.54371667
REMARK minimizedRMSD -1
REMARK  3 active torsions:
REMARK  status: ('A' for Active; 'I' for Inactive)
REMARK    1  A    between atoms: C3'_2  and  C2'_3 
REMARK    2  A    between atoms: C2'_3  and  C1'_4 
REMARK    3  A    between atoms: C1'_4  and  C1_5 
ROOT
ATOM      1  C1  N4B d   1       0.546   0.025   0.060  0.00  0.00    -0.075 A 
ATOM      2  C2  N4B d   1      -0.573  -0.554   0.698  0.00  0.00     0.002 A 
ATOM      3  C3  N4B d   1      -0.535  -1.870   1.088  0.00  0.00     0.002 A 
ATOM      4  C4  N4B d   1       0.599  -2.628   0.837  0.00  0.00    -0.004 A 
ATOM      5  C5  N4B d   1       1.685  -2.054   0.244  0.00  0.00     0.002 A 
ATOM      6  C6  N4B d   1       1.663  -0.731  -0.151  0.00  0.00     0.002 A 
ENDROOT
BRANCH   1   7
ATOM      7  C1' N4B d   1       0.520   1.436  -0.462  0.00  0.00     0.057 C 
BRANCH   7   8
ATOM      8  C2' N4B d   1       1.593   1.592  -1.536  0.00  0.00     0.009 C 
BRANCH   8   9
ATOM      9  C3' N4B d   1       0.990   1.794  -2.916  0.00  0.00     0.004 C 
ATOM     10  C4' N4B d   1      -0.286   2.580  -2.883  0.00  0.00     0.003 C 
ENDBRANCH   8   9
ENDBRANCH   7   8
ENDBRANCH   1   7
TORSDOF 3
ENDMDL
