MODEL 1
REMARK minimizedAffinity -4.89102983
REMARK minimizedRMSD -1
REMARK  3 active torsions:
REMARK  status: ('A' for Active; 'I' for Inactive)
REMARK    1  A    between atoms: C3'_2  and  C2'_3 
REMARK    2  A    between atoms: C2'_3  and  C1'_4 
REMARK    3  A    between atoms: C1'_4  and  C1_5 
ROOT
ATOM      1  C1  N4B d   1      -0.064  -0.383   0.161  0.00  0.00    -0.075 A 
ATOM      2  C2  N4B d   1       1.266  -0.696   0.516  0.00  0.00     0.002 A 
ATOM      3  C3  N4B d   1       1.537  -1.845   1.217  0.00  0.00     0.002 A 
ATOM      4  C4  N4B d   1       0.497  -2.683   1.590  0.00  0.00    -0.004 A 
ATOM      5  C5  N4B d   1      -0.782  -2.387   1.221  0.00  0.00     0.002 A 
ATOM      6  C6  N4B d   1      -1.069  -1.237   0.512  0.00  0.00     0.002 A 
ENDROOT
BRANCH   1   7
ATOM      7  C1' N4B d   1      -0.420   0.904  -0.531  0.00  0.00     0.057 C 
BRANCH   7   8
ATOM      8  C2' N4B d   1       0.695   1.921  -0.301  0.00  0.00     0.009 C 
BRANCH   8   9
ATOM      9  C3' N4B d   1       1.145   2.574  -1.597  0.00  0.00     0.004 C 
ATOM     10  C4' N4B d   1       0.340   2.129  -2.781  0.00  0.00     0.003 C 
ENDBRANCH   8   9
ENDBRANCH   7   8
ENDBRANCH   1   7
TORSDOF 3
ENDMDL
