MODEL 1
REMARK minimizedAffinity 11.7802658
REMARK minimizedRMSD -1
REMARK  3 active torsions:
REMARK  status: ('A' for Active; 'I' for Inactive)
REMARK    1  A    between atoms: C3'_2  and  C2'_3 
REMARK    2  A    between atoms: C2'_3  and  C1'_4 
REMARK    3  A    between atoms: C1'_4  and  C1_5 
ROOT
ATOM      1  C1  N4B d   1      -4.096   2.706   0.052  0.00  0.00    -0.075 A 
ATOM      2  C2  N4B d   1      -5.252   3.509  -0.069  0.00  0.00     0.002 A 
ATOM      3  C3  N4B d   1      -5.996   3.813   1.045  0.00  0.00     0.002 A 
ATOM      4  C4  N4B d   1      -5.616   3.312   2.281  0.00  0.00    -0.004 A 
ATOM      5  C5  N4B d   1      -4.485   2.559   2.393  0.00  0.00     0.002 A 
ATOM      6  C6  N4B d   1      -3.725   2.248   1.283  0.00  0.00     0.002 A 
ENDROOT
BRANCH   1   7
ATOM      7  C1' N4B d   1      -3.299   2.276  -1.149  0.00  0.00     0.057 C 
BRANCH   7   8
ATOM      8  C2' N4B d   1      -4.245   1.695  -2.196  0.00  0.00     0.009 C 
BRANCH   8   9
ATOM      9  C3' N4B d   1      -3.721   1.894  -3.608  0.00  0.00     0.004 C 
ATOM     10  C4' N4B d   1      -4.682   2.641  -4.484  0.00  0.00     0.003 C 
ENDBRANCH   8   9
ENDBRANCH   7   8
ENDBRANCH   1   7
TORSDOF 3
ENDMDL
