MODEL 1
REMARK minimizedAffinity 2.31726313
REMARK minimizedRMSD -1
REMARK  3 active torsions:
REMARK  status: ('A' for Active; 'I' for Inactive)
REMARK    1  A    between atoms: C3'_2  and  C2'_3 
REMARK    2  A    between atoms: C2'_3  and  C1'_4 
REMARK    3  A    between atoms: C1'_4  and  C1_5 
ROOT
ATOM      1  C1  N4B d   1       3.442   5.208  -1.112  0.00  0.00    -0.075 A 
ATOM      2  C2  N4B d   1       3.610   3.975  -0.444  0.00  0.00     0.002 A 
ATOM      3  C3  N4B d   1       2.521   3.322   0.078  0.00  0.00     0.002 A 
ATOM      4  C4  N4B d   1       1.261   3.890  -0.038  0.00  0.00    -0.004 A 
ATOM      5  C5  N4B d   1       1.103   5.069  -0.707  0.00  0.00     0.002 A 
ATOM      6  C6  N4B d   1       2.189   5.734  -1.240  0.00  0.00     0.002 A 
ENDROOT
BRANCH   1   7
ATOM      7  C1' N4B d   1       4.614   6.000  -1.625  0.00  0.00     0.057 C 
BRANCH   7   8
ATOM      8  C2' N4B d   1       4.590   5.998  -3.150  0.00  0.00     0.009 C 
BRANCH   8   9
ATOM      9  C3' N4B d   1       5.990   5.996  -3.740  0.00  0.00     0.004 C 
ATOM     10  C4' N4B d   1       5.997   5.748  -5.219  0.00  0.00     0.003 C 
ENDBRANCH   8   9
ENDBRANCH   7   8
ENDBRANCH   1   7
TORSDOF 3
ENDMDL
