MODEL 1
REMARK minimizedAffinity 8.22101021
REMARK minimizedRMSD -1
REMARK  3 active torsions:
REMARK  status: ('A' for Active; 'I' for Inactive)
REMARK    1  A    between atoms: C3'_2  and  C2'_3 
REMARK    2  A    between atoms: C2'_3  and  C1'_4 
REMARK    3  A    between atoms: C1'_4  and  C1_5 
ROOT
ATOM      1  C1  N4B d   1       3.087  -3.340   4.504  0.00  0.00    -0.075 A 
ATOM      2  C2  N4B d   1       4.036  -4.063   5.260  0.00  0.00     0.002 A 
ATOM      3  C3  N4B d   1       3.642  -5.157   5.990  0.00  0.00     0.002 A 
ATOM      4  C4  N4B d   1       2.307  -5.534   5.996  0.00  0.00    -0.004 A 
ATOM      5  C5  N4B d   1       1.401  -4.845   5.243  0.00  0.00     0.002 A 
ATOM      6  C6  N4B d   1       1.784  -3.746   4.501  0.00  0.00     0.002 A 
ENDROOT
BRANCH   1   7
ATOM      7  C1' N4B d   1       3.454  -2.086   3.758  0.00  0.00     0.057 C 
BRANCH   7   8
ATOM      8  C2' N4B d   1       2.224  -1.191   3.646  0.00  0.00     0.009 C 
BRANCH   8   9
ATOM      9  C3' N4B d   1       2.264  -0.323   2.400  0.00  0.00     0.004 C 
ATOM     10  C4' N4B d   1       1.243  -0.726   1.378  0.00  0.00     0.003 C 
ENDBRANCH   8   9
ENDBRANCH   7   8
ENDBRANCH   1   7
TORSDOF 3
ENDMDL
