MODEL 1
REMARK minimizedAffinity 8.45858288
REMARK minimizedRMSD -1
REMARK  3 active torsions:
REMARK  status: ('A' for Active; 'I' for Inactive)
REMARK    1  A    between atoms: C3'_2  and  C2'_3 
REMARK    2  A    between atoms: C2'_3  and  C1'_4 
REMARK    3  A    between atoms: C1'_4  and  C1_5 
ROOT
ATOM      1  C1  N4B d   1       3.736   5.131  -3.336  0.00  0.00    -0.075 A 
ATOM      2  C2  N4B d   1       3.786   5.105  -4.747  0.00  0.00     0.002 A 
ATOM      3  C3  N4B d   1       4.917   5.527  -5.402  0.00  0.00     0.002 A 
ATOM      4  C4  N4B d   1       5.999   5.995  -4.671  0.00  0.00    -0.004 A 
ATOM      5  C5  N4B d   1       5.952   5.993  -3.308  0.00  0.00     0.002 A 
ATOM      6  C6  N4B d   1       4.824   5.568  -2.636  0.00  0.00     0.002 A 
ENDROOT
BRANCH   1   7
ATOM      7  C1' N4B d   1       2.491   4.761  -2.578  0.00  0.00     0.057 C 
BRANCH   7   8
ATOM      8  C2' N4B d   1       2.849   4.513  -1.116  0.00  0.00     0.009 C 
BRANCH   8   9
ATOM      9  C3' N4B d   1       1.633   4.601  -0.210  0.00  0.00     0.004 C 
ATOM     10  C4' N4B d   1       1.875   4.009   1.146  0.00  0.00     0.003 C 
ENDBRANCH   8   9
ENDBRANCH   7   8
ENDBRANCH   1   7
TORSDOF 3
ENDMDL
