MODEL 1
REMARK minimizedAffinity 2.59352875
REMARK minimizedRMSD -1
REMARK  0 active torsions:
REMARK  status: ('A' for Active; 'I' for Inactive)
ROOT
ATOM      1  C1  BNZ d   1       0.975   2.290  -2.110  0.00  0.00     0.000 A 
ATOM      2  C2  BNZ d   1       0.610   3.328  -1.294  0.00  0.00     0.000 A 
ATOM      3  C3  BNZ d   1       0.768   3.242   0.061  0.00  0.00     0.000 A 
ATOM      4  C4  BNZ d   1       1.252   2.105   0.601  0.00  0.00     0.000 A 
ATOM      5  C5  BNZ d   1       1.615   1.047  -0.207  0.00  0.00     0.000 A 
ATOM      6  C6  BNZ d   1       1.492   1.152  -1.573  0.00  0.00     0.000 A 
ENDROOT
TORSDOF 0
ENDMDL
