MODEL 1
REMARK minimizedAffinity 0.253141373
REMARK minimizedRMSD -1
REMARK  0 active torsions:
REMARK  status: ('A' for Active; 'I' for Inactive)
ROOT
ATOM      1  C1  BNZ d   1       0.336   1.756  -0.498  0.00  0.00     0.000 A 
ATOM      2  C2  BNZ d   1       0.688   0.701  -1.296  0.00  0.00     0.000 A 
ATOM      3  C3  BNZ d   1       1.398  -0.352  -0.791  0.00  0.00     0.000 A 
ATOM      4  C4  BNZ d   1       1.788  -0.331   0.500  0.00  0.00     0.000 A 
ATOM      5  C5  BNZ d   1       1.448   0.730   1.315  0.00  0.00     0.000 A 
ATOM      6  C6  BNZ d   1       0.700   1.771   0.813  0.00  0.00     0.000 A 
ENDROOT
TORSDOF 0
ENDMDL
