MODEL 1
REMARK minimizedAffinity -1.63449299
REMARK minimizedRMSD -1
REMARK  0 active torsions:
REMARK  status: ('A' for Active; 'I' for Inactive)
ROOT
ATOM      1  C1  BNZ d   1       0.617   1.414  -0.740  0.00  0.00     0.000 A 
ATOM      2  C2  BNZ d   1       0.433   0.377  -1.616  0.00  0.00     0.000 A 
ATOM      3  C3  BNZ d   1       0.810  -0.894  -1.285  0.00  0.00     0.000 A 
ATOM      4  C4  BNZ d   1       1.407  -1.120  -0.097  0.00  0.00     0.000 A 
ATOM      5  C5  BNZ d   1       1.609  -0.084   0.793  0.00  0.00     0.000 A 
ATOM      6  C6  BNZ d   1       1.192   1.188   0.472  0.00  0.00     0.000 A 
ENDROOT
TORSDOF 0
ENDMDL
