MODEL 1
REMARK minimizedAffinity -3.37219
REMARK minimizedRMSD -1
REMARK  0 active torsions:
REMARK  status: ('A' for Active; 'I' for Inactive)
ROOT
ATOM      1  C1  BNZ d   1       0.910   2.275  -1.253  0.00  0.00     0.000 A 
ATOM      2  C2  BNZ d   1       1.163   1.256  -2.133  0.00  0.00     0.000 A 
ATOM      3  C3  BNZ d   1       1.350  -0.023  -1.688  0.00  0.00     0.000 A 
ATOM      4  C4  BNZ d   1       1.324  -0.275  -0.363  0.00  0.00     0.000 A 
ATOM      5  C5  BNZ d   1       1.080   0.743   0.537  0.00  0.00     0.000 A 
ATOM      6  C6  BNZ d   1       0.853   2.022   0.083  0.00  0.00     0.000 A 
ENDROOT
TORSDOF 0
ENDMDL
