MODEL 1
REMARK minimizedAffinity -3.46205854
REMARK minimizedRMSD -1
REMARK  0 active torsions:
REMARK  status: ('A' for Active; 'I' for Inactive)
ROOT
ATOM      1  C1  BNZ d   1       1.094   1.860  -1.862  0.00  0.00     0.000 A 
ATOM      2  C2  BNZ d   1       0.735   0.708  -1.215  0.00  0.00     0.000 A 
ATOM      3  C3  BNZ d   1       0.640   0.672   0.148  0.00  0.00     0.000 A 
ATOM      4  C4  BNZ d   1       0.942   1.774   0.864  0.00  0.00     0.000 A 
ATOM      5  C5  BNZ d   1       1.315   2.941   0.226  0.00  0.00     0.000 A 
ATOM      6  C6  BNZ d   1       1.372   2.985  -1.148  0.00  0.00     0.000 A 
ENDROOT
TORSDOF 0
ENDMDL
