MODEL 1
REMARK minimizedAffinity -5.06561804
REMARK minimizedRMSD -1
REMARK  0 active torsions:
REMARK  status: ('A' for Active; 'I' for Inactive)
ROOT
ATOM      1  C1  BNZ d   1       0.617   1.031   0.455  0.00  0.00     0.000 A 
ATOM      2  C2  BNZ d   1       0.571   2.399   0.412  0.00  0.00     0.000 A 
ATOM      3  C3  BNZ d   1       0.823   3.071  -0.751  0.00  0.00     0.000 A 
ATOM      4  C4  BNZ d   1       1.159   2.378  -1.858  0.00  0.00     0.000 A 
ATOM      5  C5  BNZ d   1       1.218   0.999  -1.828  0.00  0.00     0.000 A 
ATOM      6  C6  BNZ d   1       0.926   0.324  -0.665  0.00  0.00     0.000 A 
ENDROOT
TORSDOF 0
ENDMDL
