MODEL 1
REMARK minimizedAffinity 1.96064699
REMARK minimizedRMSD -1
REMARK  0 active torsions:
REMARK  status: ('A' for Active; 'I' for Inactive)
ROOT
ATOM      1  C1  BNZ d   1       0.358   2.795  -2.036  0.00  0.00     0.000 A 
ATOM      2  C2  BNZ d   1       0.390   1.657  -2.796  0.00  0.00     0.000 A 
ATOM      3  C3  BNZ d   1       0.909   0.495  -2.296  0.00  0.00     0.000 A 
ATOM      4  C4  BNZ d   1       1.431   0.484  -1.053  0.00  0.00     0.000 A 
ATOM      5  C5  BNZ d   1       1.416   1.626  -0.278  0.00  0.00     0.000 A 
ATOM      6  C6  BNZ d   1       0.857   2.783  -0.770  0.00  0.00     0.000 A 
ENDROOT
TORSDOF 0
ENDMDL
