MODEL 1
REMARK minimizedAffinity -4.01413488
REMARK minimizedRMSD -1
REMARK  0 active torsions:
REMARK  status: ('A' for Active; 'I' for Inactive)
ROOT
ATOM      1  C1  BNZ d   1       1.238   0.096   0.242  0.00  0.00     0.000 A 
ATOM      2  C2  BNZ d   1       1.157   1.003   1.265  0.00  0.00     0.000 A 
ATOM      3  C3  BNZ d   1       0.863   2.314   1.016  0.00  0.00     0.000 A 
ATOM      4  C4  BNZ d   1       0.690   2.725  -0.256  0.00  0.00     0.000 A 
ATOM      5  C5  BNZ d   1       0.778   1.825  -1.300  0.00  0.00     0.000 A 
ATOM      6  C6  BNZ d   1       1.035   0.498  -1.042  0.00  0.00     0.000 A 
ENDROOT
TORSDOF 0
ENDMDL
