MODEL 1
REMARK minimizedAffinity -3.83024788
REMARK minimizedRMSD -1
REMARK  0 active torsions:
REMARK  status: ('A' for Active; 'I' for Inactive)
ROOT
ATOM      1  C1  BNZ d   1      -2.350   1.544   2.983  0.00  0.00     0.000 A 
ATOM      2  C2  BNZ d   1      -1.595   1.709   4.113  0.00  0.00     0.000 A 
ATOM      3  C3  BNZ d   1      -2.158   2.166   5.271  0.00  0.00     0.000 A 
ATOM      4  C4  BNZ d   1      -3.466   2.496   5.287  0.00  0.00     0.000 A 
ATOM      5  C5  BNZ d   1      -4.239   2.345   4.153  0.00  0.00     0.000 A 
ATOM      6  C6  BNZ d   1      -3.677   1.847   3.000  0.00  0.00     0.000 A 
ENDROOT
TORSDOF 0
ENDMDL
