MODEL 1
REMARK minimizedAffinity -2.74242473
REMARK minimizedRMSD -1
REMARK  0 active torsions:
REMARK  status: ('A' for Active; 'I' for Inactive)
ROOT
ATOM      1  C1  BNZ d   1       3.003  -0.101  -0.077  0.00  0.00     0.000 A 
ATOM      2  C2  BNZ d   1       3.614  -1.310   0.125  0.00  0.00     0.000 A 
ATOM      3  C3  BNZ d   1       2.906  -2.476   0.037  0.00  0.00     0.000 A 
ATOM      4  C4  BNZ d   1       1.581  -2.429  -0.214  0.00  0.00     0.000 A 
ATOM      5  C5  BNZ d   1       0.949  -1.218  -0.411  0.00  0.00     0.000 A 
ATOM      6  C6  BNZ d   1       1.673  -0.049  -0.359  0.00  0.00     0.000 A 
ENDROOT
TORSDOF 0
ENDMDL
