MODEL 1
REMARK minimizedAffinity -4.59296274
REMARK minimizedRMSD -1
REMARK  0 active torsions:
REMARK  status: ('A' for Active; 'I' for Inactive)
ROOT
ATOM      1  C1  BNZ d   1       1.056   2.545  -1.834  0.00  0.00     0.000 A 
ATOM      2  C2  BNZ d   1       0.929   2.212  -0.511  0.00  0.00     0.000 A 
ATOM      3  C3  BNZ d   1       0.930   0.904  -0.115  0.00  0.00     0.000 A 
ATOM      4  C4  BNZ d   1       1.017  -0.070  -1.044  0.00  0.00     0.000 A 
ATOM      5  C5  BNZ d   1       1.135   0.249  -2.382  0.00  0.00     0.000 A 
ATOM      6  C6  BNZ d   1       1.173   1.568  -2.774  0.00  0.00     0.000 A 
ENDROOT
TORSDOF 0
ENDMDL
