MODEL 1
REMARK minimizedAffinity -0.148144096
REMARK minimizedRMSD -1
REMARK  0 active torsions:
REMARK  status: ('A' for Active; 'I' for Inactive)
ROOT
ATOM      1  C1  BNZ d   1       0.900   1.916   1.400  0.00  0.00     0.000 A 
ATOM      2  C2  BNZ d   1       0.399   1.745   0.137  0.00  0.00     0.000 A 
ATOM      3  C3  BNZ d   1       0.856   0.738  -0.666  0.00  0.00     0.000 A 
ATOM      4  C4  BNZ d   1       1.839  -0.071  -0.222  0.00  0.00     0.000 A 
ATOM      5  C5  BNZ d   1       2.360   0.094   1.046  0.00  0.00     0.000 A 
ATOM      6  C6  BNZ d   1       1.871   1.084   1.867  0.00  0.00     0.000 A 
ENDROOT
TORSDOF 0
ENDMDL
