MODEL 1
REMARK minimizedAffinity -3.31619287
REMARK minimizedRMSD -1
REMARK  0 active torsions:
REMARK  status: ('A' for Active; 'I' for Inactive)
ROOT
ATOM      1  C1  BNZ d   1       1.444   1.173  -0.687  0.00  0.00     0.000 A 
ATOM      2  C2  BNZ d   1       2.142   0.307  -1.486  0.00  0.00     0.000 A 
ATOM      3  C3  BNZ d   1       1.608  -0.146  -2.660  0.00  0.00     0.000 A 
ATOM      4  C4  BNZ d   1       0.364   0.236  -3.014  0.00  0.00     0.000 A 
ATOM      5  C5  BNZ d   1      -0.355   1.101  -2.214  0.00  0.00     0.000 A 
ATOM      6  C6  BNZ d   1       0.200   1.586  -1.052  0.00  0.00     0.000 A 
ENDROOT
TORSDOF 0
ENDMDL
