MODEL 1
REMARK minimizedAffinity -2.83355641
REMARK minimizedRMSD -1
REMARK  0 active torsions:
REMARK  status: ('A' for Active; 'I' for Inactive)
ROOT
ATOM      1  C1  BNZ d   1       1.126  -0.028   0.091  0.00  0.00     0.000 A 
ATOM      2  C2  BNZ d   1       0.975   0.937   1.050  0.00  0.00     0.000 A 
ATOM      3  C3  BNZ d   1       0.902   2.259   0.708  0.00  0.00     0.000 A 
ATOM      4  C4  BNZ d   1       1.021   2.615  -0.587  0.00  0.00     0.000 A 
ATOM      5  C5  BNZ d   1       1.183   1.654  -1.565  0.00  0.00     0.000 A 
ATOM      6  C6  BNZ d   1       1.217   0.322  -1.220  0.00  0.00     0.000 A 
ENDROOT
TORSDOF 0
ENDMDL
