MODEL 1
REMARK minimizedAffinity -5.03092527
REMARK minimizedRMSD -1
REMARK  0 active torsions:
REMARK  status: ('A' for Active; 'I' for Inactive)
ROOT
ATOM      1  C1  BNZ d   1       1.293  -0.113  -0.658  0.00  0.00     0.000 A 
ATOM      2  C2  BNZ d   1       1.352   0.709  -1.751  0.00  0.00     0.000 A 
ATOM      3  C3  BNZ d   1       0.911   2.002  -1.679  0.00  0.00     0.000 A 
ATOM      4  C4  BNZ d   1       0.377   2.457  -0.528  0.00  0.00     0.000 A 
ATOM      5  C5  BNZ d   1       0.302   1.637   0.581  0.00  0.00     0.000 A 
ATOM      6  C6  BNZ d   1       0.782   0.349   0.516  0.00  0.00     0.000 A 
ENDROOT
TORSDOF 0
ENDMDL
