MODEL 1
REMARK minimizedAffinity -4.55538654
REMARK minimizedRMSD -1
REMARK  0 active torsions:
REMARK  status: ('A' for Active; 'I' for Inactive)
ROOT
ATOM      1  C1  BNZ d   1       0.854   1.670   0.830  0.00  0.00     0.000 A 
ATOM      2  C2  BNZ d   1       0.729   0.386   0.373  0.00  0.00     0.000 A 
ATOM      3  C3  BNZ d   1       0.889   0.096  -0.954  0.00  0.00     0.000 A 
ATOM      4  C4  BNZ d   1       1.134   1.095  -1.826  0.00  0.00     0.000 A 
ATOM      5  C5  BNZ d   1       1.253   2.397  -1.382  0.00  0.00     0.000 A 
ATOM      6  C6  BNZ d   1       1.130   2.679  -0.041  0.00  0.00     0.000 A 
ENDROOT
TORSDOF 0
ENDMDL
