MODEL 1
REMARK minimizedAffinity 0.697492301
REMARK minimizedRMSD -1
REMARK  0 active torsions:
REMARK  status: ('A' for Active; 'I' for Inactive)
ROOT
ATOM      1  C1  BNZ d   1       1.221  -0.764   0.328  0.00  0.00     0.000 A 
ATOM      2  C2  BNZ d   1       1.624   0.328   1.049  0.00  0.00     0.000 A 
ATOM      3  C3  BNZ d   1       1.360   1.595   0.607  0.00  0.00     0.000 A 
ATOM      4  C4  BNZ d   1       0.729   1.767  -0.573  0.00  0.00     0.000 A 
ATOM      5  C5  BNZ d   1       0.325   0.676  -1.316  0.00  0.00     0.000 A 
ATOM      6  C6  BNZ d   1       0.558  -0.597  -0.849  0.00  0.00     0.000 A 
ENDROOT
TORSDOF 0
ENDMDL
