MODEL 1
REMARK minimizedAffinity -1.74299538
REMARK minimizedRMSD -1
REMARK  0 active torsions:
REMARK  status: ('A' for Active; 'I' for Inactive)
ROOT
ATOM      1  C1  BNZ d   1       0.845  -0.056  -1.425  0.00  0.00     0.000 A 
ATOM      2  C2  BNZ d   1       0.496  -1.339  -1.750  0.00  0.00     0.000 A 
ATOM      3  C3  BNZ d   1       0.827  -2.383  -0.932  0.00  0.00     0.000 A 
ATOM      4  C4  BNZ d   1       1.540  -2.148   0.188  0.00  0.00     0.000 A 
ATOM      5  C5  BNZ d   1       1.907  -0.860   0.525  0.00  0.00     0.000 A 
ATOM      6  C6  BNZ d   1       1.539   0.192  -0.280  0.00  0.00     0.000 A 
ENDROOT
TORSDOF 0
ENDMDL
