MODEL 1
REMARK minimizedAffinity -2.7614181
REMARK minimizedRMSD -1
REMARK  0 active torsions:
REMARK  status: ('A' for Active; 'I' for Inactive)
ROOT
ATOM      1  C1  BNZ d   1       1.298   1.919  -1.932  0.00  0.00     0.000 A 
ATOM      2  C2  BNZ d   1       1.622   0.591  -1.852  0.00  0.00     0.000 A 
ATOM      3  C3  BNZ d   1       1.271  -0.151  -0.759  0.00  0.00     0.000 A 
ATOM      4  C4  BNZ d   1       0.632   0.444   0.269  0.00  0.00     0.000 A 
ATOM      5  C5  BNZ d   1       0.307   1.784   0.208  0.00  0.00     0.000 A 
ATOM      6  C6  BNZ d   1       0.627   2.519  -0.911  0.00  0.00     0.000 A 
ENDROOT
TORSDOF 0
ENDMDL
