MODEL 1
REMARK minimizedAffinity -1.51229632
REMARK minimizedRMSD -1
REMARK  0 active torsions:
REMARK  status: ('A' for Active; 'I' for Inactive)
ROOT
ATOM      1  C   UNL d   1       0.415  -1.107   0.759  0.00  0.00     0.023 A 
ATOM      2  C1  UNL d   1       0.505   0.271   0.959  0.00  0.00     0.003 A 
ATOM      3  C2  UNL d   1       0.570   1.134  -0.137  0.00  0.00     0.048 A 
ATOM      4  C3  UNL d   1       0.543   0.613  -1.430  0.00  0.00     0.023 A 
ATOM      5  C4  UNL d   1       0.451  -0.765  -1.635  0.00  0.00     0.048 A 
ATOM      6  C5  UNL d   1       0.388  -1.624  -0.536  0.00  0.00     0.003 A 
ATOM      7  I   UNL d   1       0.639   1.896  -3.062  0.00  0.00    -0.146 I 
ENDROOT
TORSDOF 0
ENDMDL
