MODEL 1
REMARK minimizedAffinity -0.276179969
REMARK minimizedRMSD -1
REMARK  0 active torsions:
REMARK  status: ('A' for Active; 'I' for Inactive)
ROOT
ATOM      1  C   UNL d   1       0.602  -2.470   2.315  0.00  0.00     0.023 A 
ATOM      2  C1  UNL d   1      -0.596  -2.263   1.632  0.00  0.00     0.003 A 
ATOM      3  C2  UNL d   1      -0.692  -1.246   0.680  0.00  0.00     0.048 A 
ATOM      4  C3  UNL d   1       0.415  -0.440   0.414  0.00  0.00     0.023 A 
ATOM      5  C4  UNL d   1       1.616  -0.644   1.095  0.00  0.00     0.048 A 
ATOM      6  C5  UNL d   1       1.707  -1.661   2.047  0.00  0.00     0.003 A 
ATOM      7  I   UNL d   1       0.274   1.074  -1.003  0.00  0.00    -0.146 I 
ENDROOT
TORSDOF 0
ENDMDL
