MODEL 1
REMARK minimizedAffinity -0.897545993
REMARK minimizedRMSD -1
REMARK  0 active torsions:
REMARK  status: ('A' for Active; 'I' for Inactive)
ROOT
ATOM      1  C   UNL d   1       0.098  -0.919   1.119  0.00  0.00     0.023 A 
ATOM      2  C1  UNL d   1       1.044  -1.324   0.177  0.00  0.00     0.003 A 
ATOM      3  C2  UNL d   1       1.350  -0.498  -0.906  0.00  0.00     0.048 A 
ATOM      4  C3  UNL d   1       0.709   0.733  -1.040  0.00  0.00     0.023 A 
ATOM      5  C4  UNL d   1      -0.237   1.143  -0.099  0.00  0.00     0.048 A 
ATOM      6  C5  UNL d   1      -0.541   0.314   0.982  0.00  0.00     0.003 A 
ATOM      7  I   UNL d   1       1.164   1.965  -2.651  0.00  0.00    -0.146 I 
ENDROOT
TORSDOF 0
ENDMDL
