MODEL 1
REMARK minimizedAffinity -1.6009413
REMARK minimizedRMSD -1
REMARK  0 active torsions:
REMARK  status: ('A' for Active; 'I' for Inactive)
ROOT
ATOM      1  C   UNL d   1       0.763  -1.819   0.318  0.00  0.00     0.023 A 
ATOM      2  C1  UNL d   1       0.502  -0.495  -0.037  0.00  0.00     0.003 A 
ATOM      3  C2  UNL d   1      -0.594   0.173   0.513  0.00  0.00     0.048 A 
ATOM      4  C3  UNL d   1      -1.423  -0.487   1.419  0.00  0.00     0.023 A 
ATOM      5  C4  UNL d   1      -1.165  -1.811   1.778  0.00  0.00     0.048 A 
ATOM      6  C5  UNL d   1      -0.069  -2.476   1.224  0.00  0.00     0.003 A 
ATOM      7  I   UNL d   1      -3.054   0.506   2.241  0.00  0.00    -0.146 I 
ENDROOT
TORSDOF 0
ENDMDL
