MODEL 1
REMARK minimizedAffinity -2.08385801
REMARK minimizedRMSD -1
REMARK  0 active torsions:
REMARK  status: ('A' for Active; 'I' for Inactive)
ROOT
ATOM      1  C   UNL d   1      -1.210  -1.666   2.043  0.00  0.00     0.023 A 
ATOM      2  C1  UNL d   1      -1.623  -0.335   1.993  0.00  0.00     0.003 A 
ATOM      3  C2  UNL d   1      -1.071   0.533   1.049  0.00  0.00     0.048 A 
ATOM      4  C3  UNL d   1      -0.107   0.063   0.158  0.00  0.00     0.023 A 
ATOM      5  C4  UNL d   1       0.309  -1.269   0.204  0.00  0.00     0.048 A 
ATOM      6  C5  UNL d   1      -0.245  -2.133   1.150  0.00  0.00     0.003 A 
ATOM      7  I   UNL d   1       0.717   1.353  -1.249  0.00  0.00    -0.146 I 
ENDROOT
TORSDOF 0
ENDMDL
