MODEL 1
REMARK minimizedAffinity -1.9749223
REMARK minimizedRMSD -1
REMARK  0 active torsions:
REMARK  status: ('A' for Active; 'I' for Inactive)
ROOT
ATOM      1  C   UNL d   1       1.004  -0.910   0.014  0.00  0.00     0.023 A 
ATOM      2  C1  UNL d   1       0.419   0.355   0.071  0.00  0.00     0.003 A 
ATOM      3  C2  UNL d   1      -0.722   0.564   0.848  0.00  0.00     0.048 A 
ATOM      4  C3  UNL d   1      -1.273  -0.497   1.567  0.00  0.00     0.023 A 
ATOM      5  C4  UNL d   1      -0.691  -1.764   1.514  0.00  0.00     0.048 A 
ATOM      6  C5  UNL d   1       0.450  -1.968   0.734  0.00  0.00     0.003 A 
ATOM      7  I   UNL d   1      -2.971  -0.189   2.724  0.00  0.00    -0.146 I 
ENDROOT
TORSDOF 0
ENDMDL
