MODEL 1
REMARK minimizedAffinity -3.38687897
REMARK minimizedRMSD -1
REMARK  0 active torsions:
REMARK  status: ('A' for Active; 'I' for Inactive)
ROOT
ATOM      1  C   UNL d   1       1.068  -1.610  -0.197  0.00  0.00     0.023 A 
ATOM      2  C1  UNL d   1       0.763  -0.254  -0.087  0.00  0.00     0.003 A 
ATOM      3  C2  UNL d   1      -0.309   0.160   0.706  0.00  0.00     0.048 A 
ATOM      4  C3  UNL d   1      -1.071  -0.789   1.387  0.00  0.00     0.023 A 
ATOM      5  C4  UNL d   1      -0.769  -2.147   1.281  0.00  0.00     0.048 A 
ATOM      6  C5  UNL d   1       0.303  -2.556   0.486  0.00  0.00     0.003 A 
ATOM      7  I   UNL d   1      -2.668  -0.176   2.569  0.00  0.00    -0.146 I 
ENDROOT
TORSDOF 0
ENDMDL
