MODEL 1
REMARK minimizedAffinity -3.51259542
REMARK minimizedRMSD -1
REMARK  0 active torsions:
REMARK  status: ('A' for Active; 'I' for Inactive)
ROOT
ATOM      1  C   UNL d   1       0.219  -1.522   1.131  0.00  0.00     0.023 A 
ATOM      2  C1  UNL d   1      -0.320  -0.239   1.215  0.00  0.00     0.003 A 
ATOM      3  C2  UNL d   1      -0.188   0.647   0.143  0.00  0.00     0.048 A 
ATOM      4  C3  UNL d   1       0.484   0.241  -1.010  0.00  0.00     0.023 A 
ATOM      5  C4  UNL d   1       1.025  -1.043  -1.098  0.00  0.00     0.048 A 
ATOM      6  C5  UNL d   1       0.891  -1.924  -0.023  0.00  0.00     0.003 A 
ATOM      7  I   UNL d   1       0.682   1.557  -2.606  0.00  0.00    -0.146 I 
ENDROOT
TORSDOF 0
ENDMDL
