MODEL 1
REMARK minimizedAffinity -0.98198992
REMARK minimizedRMSD -1
REMARK  0 active torsions:
REMARK  status: ('A' for Active; 'I' for Inactive)
ROOT
ATOM      1  C   UNL d   1      -0.690  -2.141   1.750  0.00  0.00     0.023 A 
ATOM      2  C1  UNL d   1       0.490  -2.356   1.037  0.00  0.00     0.003 A 
ATOM      3  C2  UNL d   1       0.958  -1.385   0.150  0.00  0.00     0.048 A 
ATOM      4  C3  UNL d   1       0.242  -0.201  -0.019  0.00  0.00     0.023 A 
ATOM      5  C4  UNL d   1      -0.938   0.019   0.693  0.00  0.00     0.048 A 
ATOM      6  C5  UNL d   1      -1.403  -0.955   1.578  0.00  0.00     0.003 A 
ATOM      7  I   UNL d   1       0.936   1.246  -1.340  0.00  0.00    -0.146 I 
ENDROOT
TORSDOF 0
ENDMDL
