MODEL 1
REMARK minimizedAffinity -1.0759244
REMARK minimizedRMSD -1
REMARK  0 active torsions:
REMARK  status: ('A' for Active; 'I' for Inactive)
ROOT
ATOM      1  C   UNL d   1       0.564  -1.105   0.773  0.00  0.00     0.023 A 
ATOM      2  C1  UNL d   1       0.894   0.208   1.108  0.00  0.00     0.003 A 
ATOM      3  C2  UNL d   1       0.925   1.196   0.121  0.00  0.00     0.048 A 
ATOM      4  C3  UNL d   1       0.625   0.863  -1.199  0.00  0.00     0.023 A 
ATOM      5  C4  UNL d   1       0.293  -0.450  -1.540  0.00  0.00     0.048 A 
ATOM      6  C5  UNL d   1       0.264  -1.433  -0.550  0.00  0.00     0.003 A 
ATOM      7  I   UNL d   1       0.671   2.331  -2.670  0.00  0.00    -0.146 I 
ENDROOT
TORSDOF 0
ENDMDL
