MODEL 1
REMARK minimizedAffinity 5.8439436
REMARK minimizedRMSD -1
REMARK  0 active torsions:
REMARK  status: ('A' for Active; 'I' for Inactive)
ROOT
ATOM      1  C   UNL d   1       5.022   5.127   0.691  0.00  0.00     0.023 A 
ATOM      2  C1  UNL d   1       4.672   5.734  -0.515  0.00  0.00     0.003 A 
ATOM      3  C2  UNL d   1       4.303   4.950  -1.611  0.00  0.00     0.048 A 
ATOM      4  C3  UNL d   1       4.285   3.561  -1.492  0.00  0.00     0.023 A 
ATOM      5  C4  UNL d   1       4.634   2.950  -0.287  0.00  0.00     0.048 A 
ATOM      6  C5  UNL d   1       5.003   3.737   0.805  0.00  0.00     0.003 A 
ATOM      7  I   UNL d   1       3.736   2.393  -3.121  0.00  0.00    -0.146 I 
ENDROOT
TORSDOF 0
ENDMDL
