MODEL 1
REMARK minimizedAffinity -1.54603636
REMARK minimizedRMSD -1
REMARK  0 active torsions:
REMARK  status: ('A' for Active; 'I' for Inactive)
ROOT
ATOM      1  C   UNL d   1       0.065  -1.045   0.818  0.00  0.00     0.023 A 
ATOM      2  C1  UNL d   1       1.155  -1.225  -0.034  0.00  0.00     0.003 A 
ATOM      3  C2  UNL d   1       1.387  -0.323  -1.074  0.00  0.00     0.048 A 
ATOM      4  C3  UNL d   1       0.525   0.759  -1.256  0.00  0.00     0.023 A 
ATOM      5  C4  UNL d   1      -0.566   0.944  -0.405  0.00  0.00     0.048 A 
ATOM      6  C5  UNL d   1      -0.794   0.038   0.633  0.00  0.00     0.003 A 
ATOM      7  I   UNL d   1       0.868   2.104  -2.803  0.00  0.00    -0.146 I 
ENDROOT
TORSDOF 0
ENDMDL
