MODEL 1
REMARK minimizedAffinity -1.46617329
REMARK minimizedRMSD -1
REMARK  0 active torsions:
REMARK  status: ('A' for Active; 'I' for Inactive)
ROOT
ATOM      1  C   UNL d   1      -2.913  -0.208   2.288  0.00  0.00     0.023 A 
ATOM      2  C1  UNL d   1      -2.464   0.736   1.365  0.00  0.00     0.003 A 
ATOM      3  C2  UNL d   1      -1.252   0.542   0.699  0.00  0.00     0.048 A 
ATOM      4  C3  UNL d   1      -0.495  -0.599   0.961  0.00  0.00     0.023 A 
ATOM      5  C4  UNL d   1      -0.941  -1.547   1.883  0.00  0.00     0.048 A 
ATOM      6  C5  UNL d   1      -2.153  -1.348   2.547  0.00  0.00     0.003 A 
ATOM      7  I   UNL d   1       1.310  -0.891  -0.029  0.00  0.00    -0.146 I 
ENDROOT
TORSDOF 0
ENDMDL
