MODEL 1
REMARK minimizedAffinity -2.81494522
REMARK minimizedRMSD -1
REMARK  0 active torsions:
REMARK  status: ('A' for Active; 'I' for Inactive)
ROOT
ATOM      1  C   UNL d   1      -1.539  -1.722   2.120  0.00  0.00     0.023 A 
ATOM      2  C1  UNL d   1      -0.401  -2.097   1.408  0.00  0.00     0.003 A 
ATOM      3  C2  UNL d   1       0.216  -1.188   0.545  0.00  0.00     0.048 A 
ATOM      4  C3  UNL d   1      -0.310   0.095   0.402  0.00  0.00     0.023 A 
ATOM      5  C4  UNL d   1      -1.449   0.475   1.113  0.00  0.00     0.048 A 
ATOM      6  C5  UNL d   1      -2.063  -0.437   1.973  0.00  0.00     0.003 A 
ATOM      7  I   UNL d   1       0.606   1.449  -0.881  0.00  0.00    -0.146 I 
ENDROOT
TORSDOF 0
ENDMDL
