MODEL 1
REMARK minimizedAffinity -0.5789904
REMARK minimizedRMSD -1
REMARK  0 active torsions:
REMARK  status: ('A' for Active; 'I' for Inactive)
ROOT
ATOM      1  C   UNL d   1       1.135   1.490  -1.135  0.00  0.00     0.023 A 
ATOM      2  C1  UNL d   1       0.974   1.744   0.227  0.00  0.00     0.003 A 
ATOM      3  C2  UNL d   1       0.387   0.783   1.053  0.00  0.00     0.048 A 
ATOM      4  C3  UNL d   1      -0.036  -0.430   0.509  0.00  0.00     0.023 A 
ATOM      5  C4  UNL d   1       0.124  -0.688  -0.853  0.00  0.00     0.048 A 
ATOM      6  C5  UNL d   1       0.711   0.276  -1.674  0.00  0.00     0.003 A 
ATOM      7  I   UNL d   1      -0.911  -1.862   1.736  0.00  0.00    -0.146 I 
ENDROOT
TORSDOF 0
ENDMDL
