MODEL 1
REMARK minimizedAffinity -1.57471824
REMARK minimizedRMSD -1
REMARK  0 active torsions:
REMARK  status: ('A' for Active; 'I' for Inactive)
ROOT
ATOM      1  C   UNL d   1       0.801   1.882  -2.305  0.00  0.00     0.023 A 
ATOM      2  C1  UNL d   1       0.267   0.681  -2.773  0.00  0.00     0.003 A 
ATOM      3  C2  UNL d   1       0.085  -0.391  -1.897  0.00  0.00     0.048 A 
ATOM      4  C3  UNL d   1       0.439  -0.256  -0.555  0.00  0.00     0.023 A 
ATOM      5  C4  UNL d   1       0.973   0.944  -0.083  0.00  0.00     0.048 A 
ATOM      6  C5  UNL d   1       1.154   2.013  -0.962  0.00  0.00     0.003 A 
ATOM      7  I   UNL d   1       0.169  -1.851   0.749  0.00  0.00    -0.146 I 
ENDROOT
TORSDOF 0
ENDMDL
