MODEL 1
REMARK minimizedAffinity 5.56014824
REMARK minimizedRMSD -1
REMARK  0 active torsions:
REMARK  status: ('A' for Active; 'I' for Inactive)
ROOT
ATOM      1  C   UNL d   1      -1.756   1.457   0.834  0.00  0.00    -0.002 A 
ATOM      2  C1  UNL d   1      -1.506   0.194   0.317  0.00  0.00     0.010 A 
ATOM      3  C2  UNL d   1      -0.199  -0.292   0.231  0.00  0.00     0.041 A 
ATOM      4  C3  UNL d   1       0.861   0.520   0.680  0.00  0.00    -0.075 A 
ATOM      5  S   UNL d   1       2.541   0.134   0.674  0.00  0.00     0.015 SA
ATOM      6  C4  UNL d   1       2.965   1.636   1.358  0.00  0.00     0.022 A 
ATOM      7  C5  UNL d   1       1.864   2.426   1.592  0.00  0.00     0.026 A 
ATOM      8  C6  UNL d   1       0.633   1.795   1.205  0.00  0.00    -0.082 A 
ATOM      9  C7  UNL d   1      -0.702   2.260   1.278  0.00  0.00     0.045 A 
ENDROOT
TORSDOF 0
ENDMDL
