MODEL 1
REMARK minimizedAffinity -4.60968018
REMARK minimizedRMSD -1
REMARK  0 active torsions:
REMARK  status: ('A' for Active; 'I' for Inactive)
ROOT
ATOM      1  C   UNL d   1      -0.782   1.530   0.521  0.00  0.00    -0.002 A 
ATOM      2  C1  UNL d   1      -1.498   1.475  -0.666  0.00  0.00     0.010 A 
ATOM      3  C2  UNL d   1      -1.515   0.307  -1.432  0.00  0.00     0.041 A 
ATOM      4  C3  UNL d   1      -0.794  -0.815  -0.979  0.00  0.00    -0.075 A 
ATOM      5  S   UNL d   1      -0.670  -2.352  -1.750  0.00  0.00     0.015 SA
ATOM      6  C4  UNL d   1       0.335  -2.972  -0.521  0.00  0.00     0.022 A 
ATOM      7  C5  UNL d   1       0.581  -2.042   0.462  0.00  0.00     0.026 A 
ATOM      8  C6  UNL d   1      -0.066  -0.784   0.214  0.00  0.00    -0.082 A 
ATOM      9  C7  UNL d   1      -0.069   0.415   0.968  0.00  0.00     0.045 A 
ENDROOT
TORSDOF 0
ENDMDL
