MODEL 1
REMARK minimizedAffinity -0.963112712
REMARK minimizedRMSD -1
REMARK  0 active torsions:
REMARK  status: ('A' for Active; 'I' for Inactive)
ROOT
ATOM      1  C   UNL d   1       0.552   3.793   1.001  0.00  0.00    -0.002 A 
ATOM      2  C1  UNL d   1       1.880   3.427   1.174  0.00  0.00     0.010 A 
ATOM      3  C2  UNL d   1       2.314   2.146   0.827  0.00  0.00     0.041 A 
ATOM      4  C3  UNL d   1       1.384   1.231   0.296  0.00  0.00    -0.075 A 
ATOM      5  S   UNL d   1       1.689  -0.392  -0.200  0.00  0.00     0.015 SA
ATOM      6  C4  UNL d   1       0.065  -0.637  -0.655  0.00  0.00     0.022 A 
ATOM      7  C5  UNL d   1      -0.706   0.482  -0.440  0.00  0.00     0.026 A 
ATOM      8  C6  UNL d   1       0.042   1.577   0.112  0.00  0.00    -0.082 A 
ATOM      9  C7  UNL d   1      -0.368   2.882   0.474  0.00  0.00     0.045 A 
ENDROOT
TORSDOF 0
ENDMDL
