MODEL 1
REMARK minimizedAffinity -4.6149869
REMARK minimizedRMSD -1
REMARK  0 active torsions:
REMARK  status: ('A' for Active; 'I' for Inactive)
ROOT
ATOM      1  C   UNL d   1       0.480   3.440   0.216  0.00  0.00    -0.002 A 
ATOM      2  C1  UNL d   1      -0.763   2.830   0.129  0.00  0.00     0.010 A 
ATOM      3  C2  UNL d   1      -0.873   1.438   0.126  0.00  0.00     0.041 A 
ATOM      4  C3  UNL d   1       0.299   0.662   0.216  0.00  0.00    -0.075 A 
ATOM      5  S   UNL d   1       0.408  -1.058   0.232  0.00  0.00     0.015 SA
ATOM      6  C4  UNL d   1       2.107  -1.024   0.355  0.00  0.00     0.022 A 
ATOM      7  C5  UNL d   1       2.597   0.260   0.385  0.00  0.00     0.026 A 
ATOM      8  C6  UNL d   1       1.563   1.253   0.305  0.00  0.00    -0.082 A 
ATOM      9  C7  UNL d   1       1.641   2.667   0.304  0.00  0.00     0.045 A 
ENDROOT
TORSDOF 0
ENDMDL
