MODEL 1
REMARK minimizedAffinity -4.03899288
REMARK minimizedRMSD -1
REMARK  0 active torsions:
REMARK  status: ('A' for Active; 'I' for Inactive)
ROOT
ATOM      1  C   UNL d   1      -0.359   3.001   0.369  0.00  0.00    -0.002 A 
ATOM      2  C1  UNL d   1       1.004   3.256   0.322  0.00  0.00     0.010 A 
ATOM      3  C2  UNL d   1       1.923   2.206   0.287  0.00  0.00     0.041 A 
ATOM      4  C3  UNL d   1       1.445   0.881   0.299  0.00  0.00    -0.075 A 
ATOM      5  S   UNL d   1       2.384  -0.564   0.262  0.00  0.00     0.015 SA
ATOM      6  C4  UNL d   1       0.998  -1.555   0.306  0.00  0.00     0.022 A 
ATOM      7  C5  UNL d   1      -0.161  -0.818   0.349  0.00  0.00     0.026 A 
ATOM      8  C6  UNL d   1       0.077   0.598   0.345  0.00  0.00    -0.082 A 
ATOM      9  C7  UNL d   1      -0.830   1.685   0.381  0.00  0.00     0.045 A 
ENDROOT
TORSDOF 0
ENDMDL
