MODEL 1
REMARK minimizedAffinity -1.28075814
REMARK minimizedRMSD -1
REMARK  0 active torsions:
REMARK  status: ('A' for Active; 'I' for Inactive)
ROOT
ATOM      1  C   UNL d   1      -1.290  -3.181  -2.806  0.00  0.00    -0.002 A 
ATOM      2  C1  UNL d   1      -1.464  -3.887  -1.624  0.00  0.00     0.010 A 
ATOM      3  C2  UNL d   1      -1.221  -3.279  -0.391  0.00  0.00     0.041 A 
ATOM      4  C3  UNL d   1      -0.799  -1.935  -0.365  0.00  0.00    -0.075 A 
ATOM      5  S   UNL d   1      -0.443  -0.983   1.028  0.00  0.00     0.015 SA
ATOM      6  C4  UNL d   1      -0.052   0.383   0.087  0.00  0.00     0.022 A 
ATOM      7  C5  UNL d   1      -0.184   0.137  -1.259  0.00  0.00     0.026 A 
ATOM      8  C6  UNL d   1      -0.617  -1.203  -1.542  0.00  0.00    -0.082 A 
ATOM      9  C7  UNL d   1      -0.870  -1.848  -2.777  0.00  0.00     0.045 A 
ENDROOT
TORSDOF 0
ENDMDL
