MODEL 1
REMARK minimizedAffinity 0.858805418
REMARK minimizedRMSD -1
REMARK  0 active torsions:
REMARK  status: ('A' for Active; 'I' for Inactive)
ROOT
ATOM      1  C   UNL d   1      -1.295  -3.330  -2.287  0.00  0.00    -0.002 A 
ATOM      2  C1  UNL d   1      -0.024  -3.076  -2.781  0.00  0.00     0.010 A 
ATOM      3  C2  UNL d   1       0.793  -2.116  -2.180  0.00  0.00     0.041 A 
ATOM      4  C3  UNL d   1       0.307  -1.411  -1.062  0.00  0.00    -0.075 A 
ATOM      5  S   UNL d   1       1.130  -0.192  -0.163  0.00  0.00     0.015 SA
ATOM      6  C4  UNL d   1      -0.186   0.019   0.899  0.00  0.00     0.022 A 
ATOM      7  C5  UNL d   1      -1.237  -0.812   0.590  0.00  0.00     0.026 A 
ATOM      8  C6  UNL d   1      -0.970  -1.650  -0.545  0.00  0.00    -0.082 A 
ATOM      9  C7  UNL d   1      -1.774  -2.629  -1.177  0.00  0.00     0.045 A 
ENDROOT
TORSDOF 0
ENDMDL
