MODEL 1
REMARK minimizedAffinity -5.25405931
REMARK minimizedRMSD -1
REMARK  0 active torsions:
REMARK  status: ('A' for Active; 'I' for Inactive)
ROOT
ATOM      1  C   UNL d   1       0.527   3.531   0.147  0.00  0.00    -0.002 A 
ATOM      2  C1  UNL d   1       1.856   3.201   0.376  0.00  0.00     0.010 A 
ATOM      3  C2  UNL d   1       2.243   1.867   0.517  0.00  0.00     0.041 A 
ATOM      4  C3  UNL d   1       1.263   0.860   0.423  0.00  0.00    -0.075 A 
ATOM      5  S   UNL d   1       1.504  -0.842   0.563  0.00  0.00     0.015 SA
ATOM      6  C4  UNL d   1      -0.151  -1.172   0.321  0.00  0.00     0.022 A 
ATOM      7  C5  UNL d   1      -0.884  -0.023   0.137  0.00  0.00     0.026 A 
ATOM      8  C6  UNL d   1      -0.081   1.166   0.192  0.00  0.00    -0.082 A 
ATOM      9  C7  UNL d   1      -0.442   2.528   0.054  0.00  0.00     0.045 A 
ENDROOT
TORSDOF 0
ENDMDL
