MODEL 1
REMARK minimizedAffinity -5.25382805
REMARK minimizedRMSD -1
REMARK  0 active torsions:
REMARK  status: ('A' for Active; 'I' for Inactive)
ROOT
ATOM      1  C   UNL d   1       2.357   2.935   0.075  0.00  0.00    -0.002 A 
ATOM      2  C1  UNL d   1       1.246   3.754   0.208  0.00  0.00     0.010 A 
ATOM      3  C2  UNL d   1      -0.043   3.218   0.154  0.00  0.00     0.041 A 
ATOM      4  C3  UNL d   1      -0.196   1.831  -0.035  0.00  0.00    -0.075 A 
ATOM      5  S   UNL d   1      -1.676   0.952  -0.131  0.00  0.00     0.015 SA
ATOM      6  C4  UNL d   1      -0.868  -0.532  -0.350  0.00  0.00     0.022 A 
ATOM      7  C5  UNL d   1       0.499  -0.380  -0.352  0.00  0.00     0.026 A 
ATOM      8  C6  UNL d   1       0.908   0.985  -0.170  0.00  0.00    -0.082 A 
ATOM      9  C7  UNL d   1       2.201   1.559  -0.112  0.00  0.00     0.045 A 
ENDROOT
TORSDOF 0
ENDMDL
