MODEL 1
REMARK minimizedAffinity -6.61046028
REMARK minimizedRMSD -1
REMARK  0 active torsions:
REMARK  status: ('A' for Active; 'I' for Inactive)
ROOT
ATOM      1  C   UNL d   1       1.143   3.408   0.585  0.00  0.00    -0.002 A 
ATOM      2  C1  UNL d   1      -0.137   2.991   0.250  0.00  0.00     0.010 A 
ATOM      3  C2  UNL d   1      -0.385   1.661  -0.093  0.00  0.00     0.041 A 
ATOM      4  C3  UNL d   1       0.687   0.746  -0.092  0.00  0.00    -0.075 A 
ATOM      5  S   UNL d   1       0.621  -0.933  -0.478  0.00  0.00     0.015 SA
ATOM      6  C4  UNL d   1       2.291  -1.137  -0.206  0.00  0.00     0.022 A 
ATOM      7  C5  UNL d   1       2.900   0.036   0.170  0.00  0.00     0.026 A 
ATOM      8  C6  UNL d   1       1.985   1.141   0.242  0.00  0.00    -0.082 A 
ATOM      9  C7  UNL d   1       2.204   2.498   0.585  0.00  0.00     0.045 A 
ENDROOT
TORSDOF 0
ENDMDL
