MODEL 1
REMARK minimizedAffinity -1.93676841
REMARK minimizedRMSD -1
REMARK  0 active torsions:
REMARK  status: ('A' for Active; 'I' for Inactive)
ROOT
ATOM      1  C   UNL d   1      -1.751   1.411   0.881  0.00  0.00    -0.002 A 
ATOM      2  C1  UNL d   1      -1.624   0.031   0.811  0.00  0.00     0.010 A 
ATOM      3  C2  UNL d   1      -0.362  -0.566   0.788  0.00  0.00     0.041 A 
ATOM      4  C3  UNL d   1       0.782   0.256   0.839  0.00  0.00    -0.075 A 
ATOM      5  S   UNL d   1       2.429  -0.252   0.824  0.00  0.00     0.015 SA
ATOM      6  C4  UNL d   1       3.002   1.350   0.910  0.00  0.00     0.022 A 
ATOM      7  C5  UNL d   1       1.975   2.264   0.950  0.00  0.00     0.026 A 
ATOM      8  C6  UNL d   1       0.679   1.648   0.910  0.00  0.00    -0.082 A 
ATOM      9  C7  UNL d   1      -0.615   2.223   0.931  0.00  0.00     0.045 A 
ENDROOT
TORSDOF 0
ENDMDL
