MODEL 1
REMARK minimizedAffinity -2.03318286
REMARK minimizedRMSD -1
REMARK  0 active torsions:
REMARK  status: ('A' for Active; 'I' for Inactive)
ROOT
ATOM      1  C1  BNZ d   1      -2.158   3.179  -2.207  0.00  0.00     0.000 A 
ATOM      2  C2  BNZ d   1      -2.175   1.852  -1.870  0.00  0.00     0.000 A 
ATOM      3  C3  BNZ d   1      -1.018   1.125  -1.829  0.00  0.00     0.000 A 
ATOM      4  C4  BNZ d   1       0.148   1.715  -2.164  0.00  0.00     0.000 A 
ATOM      5  C5  BNZ d   1       0.180   3.049  -2.516  0.00  0.00     0.000 A 
ATOM      6  C6  BNZ d   1      -0.981   3.788  -2.518  0.00  0.00     0.000 A 
ENDROOT
TORSDOF 0
ENDMDL
