MODEL 1
REMARK minimizedAffinity -3.97185755
REMARK minimizedRMSD -1
REMARK  0 active torsions:
REMARK  status: ('A' for Active; 'I' for Inactive)
ROOT
ATOM      1  C1  BNZ d   1      -0.307  -0.919   2.368  0.00  0.00     0.000 A 
ATOM      2  C2  BNZ d   1      -1.005  -0.289   1.373  0.00  0.00     0.000 A 
ATOM      3  C3  BNZ d   1      -0.475  -0.162   0.119  0.00  0.00     0.000 A 
ATOM      4  C4  BNZ d   1       0.766  -0.629  -0.127  0.00  0.00     0.000 A 
ATOM      5  C5  BNZ d   1       1.486  -1.259   0.869  0.00  0.00     0.000 A 
ATOM      6  C6  BNZ d   1       0.934  -1.419   2.119  0.00  0.00     0.000 A 
ENDROOT
TORSDOF 0
ENDMDL
