MODEL 1
REMARK minimizedAffinity -1.67836535
REMARK minimizedRMSD -1
REMARK  0 active torsions:
REMARK  status: ('A' for Active; 'I' for Inactive)
ROOT
ATOM      1  C1  BNZ d   1      -0.794   0.121   1.050  0.00  0.00     0.000 A 
ATOM      2  C2  BNZ d   1       0.147   1.049   0.691  0.00  0.00     0.000 A 
ATOM      3  C3  BNZ d   1       0.283   1.440  -0.612  0.00  0.00     0.000 A 
ATOM      4  C4  BNZ d   1      -0.493   0.874  -1.559  0.00  0.00     0.000 A 
ATOM      5  C5  BNZ d   1      -1.439  -0.070  -1.214  0.00  0.00     0.000 A 
ATOM      6  C6  BNZ d   1      -1.600  -0.433   0.103  0.00  0.00     0.000 A 
ENDROOT
TORSDOF 0
ENDMDL
