MODEL 1
REMARK minimizedAffinity -2.61286235
REMARK minimizedRMSD -1
REMARK  0 active torsions:
REMARK  status: ('A' for Active; 'I' for Inactive)
ROOT
ATOM      1  C1  BNZ d   1      -0.533   2.288  -0.339  0.00  0.00     0.000 A 
ATOM      2  C2  BNZ d   1      -0.794   1.770   0.902  0.00  0.00     0.000 A 
ATOM      3  C3  BNZ d   1      -1.006   0.431   1.071  0.00  0.00     0.000 A 
ATOM      4  C4  BNZ d   1      -0.996  -0.383  -0.004  0.00  0.00     0.000 A 
ATOM      5  C5  BNZ d   1      -0.743   0.125  -1.263  0.00  0.00     0.000 A 
ATOM      6  C6  BNZ d   1      -0.491   1.468  -1.424  0.00  0.00     0.000 A 
ENDROOT
TORSDOF 0
ENDMDL
