MODEL 1
REMARK minimizedAffinity -1.26809657
REMARK minimizedRMSD -1
REMARK  0 active torsions:
REMARK  status: ('A' for Active; 'I' for Inactive)
ROOT
ATOM      1  C1  BNZ d   1      -1.947   4.155  -2.340  0.00  0.00     0.000 A 
ATOM      2  C2  BNZ d   1      -0.645   3.965  -2.719  0.00  0.00     0.000 A 
ATOM      3  C3  BNZ d   1      -0.151   2.707  -2.920  0.00  0.00     0.000 A 
ATOM      4  C4  BNZ d   1      -0.947   1.640  -2.704  0.00  0.00     0.000 A 
ATOM      5  C5  BNZ d   1      -2.259   1.814  -2.313  0.00  0.00     0.000 A 
ATOM      6  C6  BNZ d   1      -2.764   3.084  -2.149  0.00  0.00     0.000 A 
ENDROOT
TORSDOF 0
ENDMDL
