MODEL 1
REMARK minimizedAffinity -3.54334307
REMARK minimizedRMSD -1
REMARK  0 active torsions:
REMARK  status: ('A' for Active; 'I' for Inactive)
ROOT
ATOM      1  C1  BNZ d   1      -0.698   0.023  -0.202  0.00  0.00     0.000 A 
ATOM      2  C2  BNZ d   1      -1.063  -0.007   1.118  0.00  0.00     0.000 A 
ATOM      3  C3  BNZ d   1      -0.341  -0.725   2.028  0.00  0.00     0.000 A 
ATOM      4  C4  BNZ d   1       0.721  -1.445   1.613  0.00  0.00     0.000 A 
ATOM      5  C5  BNZ d   1       1.097  -1.433   0.284  0.00  0.00     0.000 A 
ATOM      6  C6  BNZ d   1       0.390  -0.678  -0.623  0.00  0.00     0.000 A 
ENDROOT
TORSDOF 0
ENDMDL
