MODEL 1
REMARK minimizedAffinity -3.85565758
REMARK minimizedRMSD -1
REMARK  0 active torsions:
REMARK  status: ('A' for Active; 'I' for Inactive)
ROOT
ATOM      1  C1  BNZ d   1      -0.111   0.059  -2.555  0.00  0.00     0.000 A 
ATOM      2  C2  BNZ d   1       0.189  -0.106  -1.229  0.00  0.00     0.000 A 
ATOM      3  C3  BNZ d   1      -0.386   0.688  -0.277  0.00  0.00     0.000 A 
ATOM      4  C4  BNZ d   1      -1.229   1.671  -0.655  0.00  0.00     0.000 A 
ATOM      5  C5  BNZ d   1      -1.535   1.856  -1.988  0.00  0.00     0.000 A 
ATOM      6  C6  BNZ d   1      -0.984   1.029  -2.940  0.00  0.00     0.000 A 
ENDROOT
TORSDOF 0
ENDMDL
