MODEL 1
REMARK minimizedAffinity -2.55097938
REMARK minimizedRMSD -1
REMARK  0 active torsions:
REMARK  status: ('A' for Active; 'I' for Inactive)
ROOT
ATOM      1  C1  BNZ d   1      -0.383  -0.153   0.110  0.00  0.00     0.000 A 
ATOM      2  C2  BNZ d   1      -0.835  -0.225   1.401  0.00  0.00     0.000 A 
ATOM      3  C3  BNZ d   1      -0.169  -0.968   2.335  0.00  0.00     0.000 A 
ATOM      4  C4  BNZ d   1       0.923  -1.670   1.968  0.00  0.00     0.000 A 
ATOM      5  C5  BNZ d   1       1.385  -1.615   0.668  0.00  0.00     0.000 A 
ATOM      6  C6  BNZ d   1       0.735  -0.835  -0.260  0.00  0.00     0.000 A 
ENDROOT
TORSDOF 0
ENDMDL
