MODEL 1
REMARK minimizedAffinity -3.09961438
REMARK minimizedRMSD -1
REMARK  0 active torsions:
REMARK  status: ('A' for Active; 'I' for Inactive)
ROOT
ATOM      1  C1  BNZ d   1       0.780  -1.570   0.771  0.00  0.00     0.000 A 
ATOM      2  C2  BNZ d   1       0.306  -0.748  -0.216  0.00  0.00     0.000 A 
ATOM      3  C3  BNZ d   1      -0.655   0.187   0.053  0.00  0.00     0.000 A 
ATOM      4  C4  BNZ d   1      -1.167   0.271   1.297  0.00  0.00     0.000 A 
ATOM      5  C5  BNZ d   1      -0.706  -0.557   2.301  0.00  0.00     0.000 A 
ATOM      6  C6  BNZ d   1       0.288  -1.470   2.036  0.00  0.00     0.000 A 
ENDROOT
TORSDOF 0
ENDMDL
