MODEL 1
REMARK minimizedAffinity -2.17380834
REMARK minimizedRMSD -1
REMARK  0 active torsions:
REMARK  status: ('A' for Active; 'I' for Inactive)
ROOT
ATOM      1  C1  BNZ d   1      -2.130   3.355  -1.596  0.00  0.00     0.000 A 
ATOM      2  C2  BNZ d   1      -1.001   4.043  -1.950  0.00  0.00     0.000 A 
ATOM      3  C3  BNZ d   1       0.137   3.380  -2.317  0.00  0.00     0.000 A 
ATOM      4  C4  BNZ d   1       0.156   2.032  -2.290  0.00  0.00     0.000 A 
ATOM      5  C5  BNZ d   1      -0.972   1.324  -1.926  0.00  0.00     0.000 A 
ATOM      6  C6  BNZ d   1      -2.127   1.994  -1.595  0.00  0.00     0.000 A 
ENDROOT
TORSDOF 0
ENDMDL
