MODEL 1
REMARK minimizedAffinity -0.675710499
REMARK minimizedRMSD -1
REMARK  0 active torsions:
REMARK  status: ('A' for Active; 'I' for Inactive)
ROOT
ATOM      1  C1  BNZ d   1      -1.163  -0.134   1.129  0.00  0.00     0.000 A 
ATOM      2  C2  BNZ d   1      -1.451   0.482  -0.060  0.00  0.00     0.000 A 
ATOM      3  C3  BNZ d   1      -0.596   0.388  -1.122  0.00  0.00     0.000 A 
ATOM      4  C4  BNZ d   1       0.563  -0.286  -0.982  0.00  0.00     0.000 A 
ATOM      5  C5  BNZ d   1       0.873  -0.904   0.213  0.00  0.00     0.000 A 
ATOM      6  C6  BNZ d   1      -0.009  -0.841   1.268  0.00  0.00     0.000 A 
ENDROOT
TORSDOF 0
ENDMDL
