MODEL 1
REMARK minimizedAffinity -3.22428823
REMARK minimizedRMSD -1
REMARK  0 active torsions:
REMARK  status: ('A' for Active; 'I' for Inactive)
ROOT
ATOM      1  C1  BNZ d   1      -1.000  -0.171   0.006  0.00  0.00     0.000 A 
ATOM      2  C2  BNZ d   1      -1.023   0.084   1.351  0.00  0.00     0.000 A 
ATOM      3  C3  BNZ d   1      -0.099  -0.478   2.186  0.00  0.00     0.000 A 
ATOM      4  C4  BNZ d   1       0.822  -1.324   1.682  0.00  0.00     0.000 A 
ATOM      5  C5  BNZ d   1       0.853  -1.599   0.329  0.00  0.00     0.000 A 
ATOM      6  C6  BNZ d   1      -0.055  -1.000  -0.514  0.00  0.00     0.000 A 
ENDROOT
TORSDOF 0
ENDMDL
