MODEL 1
REMARK minimizedAffinity 9.80365944
REMARK minimizedRMSD -1
REMARK  1 active torsions:
REMARK  status: ('A' for Active; 'I' for Inactive)
REMARK    1  A    between atoms: C1_2  and  C2_3 
ROOT
ATOM      1  C2  UNL d   1       1.666  -1.864  -0.577  0.00  0.00    -0.081 A 
ATOM      2  C3  UNL d   1       2.527  -1.300   0.373  0.00  0.00     0.006 A 
ATOM      3  C4  UNL d   1       2.483   0.070   0.644  0.00  0.00     0.002 A 
ATOM      4  C5  UNL d   1       1.574   0.896  -0.024  0.00  0.00    -0.080 A 
ATOM      5  C6  UNL d   1       1.495   2.363   0.279  0.00  0.00     0.076 C 
ATOM      6  C7  UNL d   1       0.726   0.336  -0.986  0.00  0.00     0.002 A 
ATOM      7  C8  UNL d   1       0.770  -1.033  -1.257  0.00  0.00     0.006 A 
ENDROOT
BRANCH   1   8
ATOM      8  C1  UNL d   1       1.667  -3.351  -0.824  0.00  0.00     0.054 C 
ATOM      9  C   UNL d   1       0.316  -3.967  -0.492  0.00  0.00     0.018 C 
ENDBRANCH   1   8
TORSDOF 1
ENDMDL
