MODEL 1
REMARK minimizedAffinity 2.4459188
REMARK minimizedRMSD -1
REMARK  1 active torsions:
REMARK  status: ('A' for Active; 'I' for Inactive)
REMARK    1  A    between atoms: C1_2  and  C2_3 
ROOT
ATOM      1  C2  UNL d   1       0.670   1.823   1.097  0.00  0.00    -0.081 A 
ATOM      2  C3  UNL d   1       0.178   1.631   2.393  0.00  0.00     0.006 A 
ATOM      3  C4  UNL d   1      -1.198   1.626   2.635  0.00  0.00     0.002 A 
ATOM      4  C5  UNL d   1      -2.104   1.805   1.585  0.00  0.00    -0.080 A 
ATOM      5  C6  UNL d   1      -3.584   1.772   1.826  0.00  0.00     0.076 C 
ATOM      6  C7  UNL d   1      -1.612   2.014   0.292  0.00  0.00     0.002 A 
ATOM      7  C8  UNL d   1      -0.237   2.019   0.049  0.00  0.00     0.006 A 
ENDROOT
BRANCH   1   8
ATOM      8  C1  UNL d   1       2.151   1.764   0.822  0.00  0.00     0.054 C 
ATOM      9  C   UNL d   1       2.764   3.156   0.792  0.00  0.00     0.018 C 
ENDBRANCH   1   8
TORSDOF 1
ENDMDL
