MODEL 1
REMARK minimizedAffinity 2.96207047
REMARK minimizedRMSD -1
REMARK  1 active torsions:
REMARK  status: ('A' for Active; 'I' for Inactive)
REMARK    1  A    between atoms: C1_2  and  C2_3 
ROOT
ATOM      1  C2  UNL d   1       0.688  -2.006  -0.818  0.00  0.00    -0.081 A 
ATOM      2  C3  UNL d   1       1.054  -0.659  -0.710  0.00  0.00     0.006 A 
ATOM      3  C4  UNL d   1       2.269  -0.300  -0.122  0.00  0.00     0.002 A 
ATOM      4  C5  UNL d   1       3.142  -1.281   0.360  0.00  0.00    -0.080 A 
ATOM      5  C6  UNL d   1       4.463  -0.911   0.966  0.00  0.00     0.076 C 
ATOM      6  C7  UNL d   1       2.769  -2.627   0.268  0.00  0.00     0.002 A 
ATOM      7  C8  UNL d   1       1.554  -2.986  -0.319  0.00  0.00     0.006 A 
ENDROOT
BRANCH   1   8
ATOM      8  C1  UNL d   1      -0.592  -2.400  -1.510  0.00  0.00     0.054 C 
ATOM      9  C   UNL d   1      -0.906  -3.874  -1.294  0.00  0.00     0.018 C 
ENDBRANCH   1   8
TORSDOF 1
ENDMDL
