MODEL 1
REMARK minimizedAffinity 1.87610984
REMARK minimizedRMSD -1
REMARK  1 active torsions:
REMARK  status: ('A' for Active; 'I' for Inactive)
REMARK    1  A    between atoms: C1_2  and  C2_3 
ROOT
ATOM      1  C2  UNL d   1       3.748   0.496  -0.894  0.00  0.00    -0.081 A 
ATOM      2  C3  UNL d   1       3.801  -0.900  -0.992  0.00  0.00     0.006 A 
ATOM      3  C4  UNL d   1       2.678  -1.674  -0.692  0.00  0.00     0.002 A 
ATOM      4  C5  UNL d   1       1.481  -1.065  -0.298  0.00  0.00    -0.080 A 
ATOM      5  C6  UNL d   1       0.259  -1.883  -0.002  0.00  0.00     0.076 C 
ATOM      6  C7  UNL d   1       1.434   0.328  -0.183  0.00  0.00     0.002 A 
ATOM      7  C8  UNL d   1       2.557   1.103  -0.482  0.00  0.00     0.006 A 
ENDROOT
BRANCH   1   8
ATOM      8  C1  UNL d   1       4.939   1.337  -1.278  0.00  0.00     0.054 C 
ATOM      9  C   UNL d   1       4.740   2.792  -0.880  0.00  0.00     0.018 C 
ENDBRANCH   1   8
TORSDOF 1
ENDMDL
