MODEL 1
REMARK minimizedAffinity 11.68752
REMARK minimizedRMSD -1
REMARK  1 active torsions:
REMARK  status: ('A' for Active; 'I' for Inactive)
REMARK    1  A    between atoms: C1_2  and  C2_3 
ROOT
ATOM      1  C2  UNL d   1      -3.295   1.802   1.717  0.00  0.00    -0.081 A 
ATOM      2  C3  UNL d   1      -4.574   2.275   1.399  0.00  0.00     0.006 A 
ATOM      3  C4  UNL d   1      -5.373   1.591   0.480  0.00  0.00     0.002 A 
ATOM      4  C5  UNL d   1      -4.911   0.420  -0.130  0.00  0.00    -0.080 A 
ATOM      5  C6  UNL d   1      -5.771  -0.341  -1.095  0.00  0.00     0.076 C 
ATOM      6  C7  UNL d   1      -3.626  -0.043   0.175  0.00  0.00     0.002 A 
ATOM      7  C8  UNL d   1      -2.826   0.641   1.094  0.00  0.00     0.006 A 
ENDROOT
BRANCH   1   8
ATOM      8  C1  UNL d   1      -2.456   2.502   2.756  0.00  0.00     0.054 C 
ATOM      9  C   UNL d   1      -1.139   2.988   2.168  0.00  0.00     0.018 C 
ENDBRANCH   1   8
TORSDOF 1
ENDMDL
