MODEL 1
REMARK minimizedAffinity -4.66204119
REMARK minimizedRMSD -1
REMARK  3 active torsions:
REMARK  status: ('A' for Active; 'I' for Inactive)
REMARK    1  A    between atoms: C3'_2  and  C2'_3 
REMARK    2  A    between atoms: C2'_3  and  C1'_4 
REMARK    3  A    between atoms: C1'_4  and  C1_5 
ROOT
ATOM      1  C1  N4B d   1      -0.017   0.547   0.425  0.00  0.00    -0.075 A 
ATOM      2  C2  N4B d   1      -0.550   1.618  -0.326  0.00  0.00     0.002 A 
ATOM      3  C3  N4B d   1      -1.124   2.687   0.316  0.00  0.00     0.002 A 
ATOM      4  C4  N4B d   1      -1.194   2.699   1.701  0.00  0.00    -0.004 A 
ATOM      5  C5  N4B d   1      -0.655   1.673   2.420  0.00  0.00     0.002 A 
ATOM      6  C6  N4B d   1      -0.070   0.593   1.788  0.00  0.00     0.002 A 
ENDROOT
BRANCH   1   7
ATOM      7  C1' N4B d   1       0.544  -0.683  -0.234  0.00  0.00     0.057 C 
BRANCH   7   8
ATOM      8  C2' N4B d   1      -0.569  -1.394  -0.997  0.00  0.00     0.009 C 
BRANCH   8   9
ATOM      9  C3' N4B d   1      -0.231  -2.850  -1.270  0.00  0.00     0.004 C 
ATOM     10  C4' N4B d   1      -1.405  -3.634  -1.776  0.00  0.00     0.003 C 
ENDBRANCH   8   9
ENDBRANCH   7   8
ENDBRANCH   1   7
TORSDOF 3
ENDMDL
