MODEL 1
REMARK minimizedAffinity -3.68686223
REMARK minimizedRMSD -1
REMARK  3 active torsions:
REMARK  status: ('A' for Active; 'I' for Inactive)
REMARK    1  A    between atoms: C3'_2  and  C2'_3 
REMARK    2  A    between atoms: C2'_3  and  C1'_4 
REMARK    3  A    between atoms: C1'_4  and  C1_5 
ROOT
ATOM      1  C1  N4B d   1       0.353  -0.547   0.144  0.00  0.00    -0.075 A 
ATOM      2  C2  N4B d   1       0.025   0.824   0.054  0.00  0.00     0.002 A 
ATOM      3  C3  N4B d   1      -0.027   1.594   1.190  0.00  0.00     0.002 A 
ATOM      4  C4  N4B d   1       0.226   1.013   2.424  0.00  0.00    -0.004 A 
ATOM      5  C5  N4B d   1       0.568  -0.305   2.500  0.00  0.00     0.002 A 
ATOM      6  C6  N4B d   1       0.627  -1.090   1.366  0.00  0.00     0.002 A 
ENDROOT
BRANCH   1   7
ATOM      7  C1' N4B d   1       0.338  -1.448  -1.060  0.00  0.00     0.057 C 
BRANCH   7   8
ATOM      8  C2' N4B d   1       0.614  -2.881  -0.617  0.00  0.00     0.009 C 
BRANCH   8   9
ATOM      9  C3' N4B d   1      -0.120  -3.894  -1.479  0.00  0.00     0.004 C 
ATOM     10  C4' N4B d   1      -1.553  -3.524  -1.718  0.00  0.00     0.003 C 
ENDBRANCH   8   9
ENDBRANCH   7   8
ENDBRANCH   1   7
TORSDOF 3
ENDMDL
