MODEL 1
REMARK minimizedAffinity -4.32630253
REMARK minimizedRMSD -1
REMARK  3 active torsions:
REMARK  status: ('A' for Active; 'I' for Inactive)
REMARK    1  A    between atoms: C3'_2  and  C2'_3 
REMARK    2  A    between atoms: C2'_3  and  C1'_4 
REMARK    3  A    between atoms: C1'_4  and  C1_5 
ROOT
ATOM      1  C1  N4B d   1       0.228   0.573   0.017  0.00  0.00    -0.075 A 
ATOM      2  C2  N4B d   1       0.249   1.099  -1.293  0.00  0.00     0.002 A 
ATOM      3  C3  N4B d   1       0.079   2.447  -1.495  0.00  0.00     0.002 A 
ATOM      4  C4  N4B d   1      -0.132   3.282  -0.409  0.00  0.00    -0.004 A 
ATOM      5  C5  N4B d   1      -0.127   2.770   0.856  0.00  0.00     0.002 A 
ATOM      6  C6  N4B d   1       0.047   1.418   1.074  0.00  0.00     0.002 A 
ENDROOT
BRANCH   1   7
ATOM      7  C1' N4B d   1       0.323  -0.904   0.282  0.00  0.00     0.057 C 
BRANCH   7   8
ATOM      8  C2' N4B d   1       0.686  -1.623  -1.015  0.00  0.00     0.009 C 
BRANCH   8   9
ATOM      9  C3' N4B d   1       0.249  -3.078  -0.999  0.00  0.00     0.004 C 
ATOM     10  C4' N4B d   1      -0.870  -3.358  -1.957  0.00  0.00     0.003 C 
ENDBRANCH   8   9
ENDBRANCH   7   8
ENDBRANCH   1   7
TORSDOF 3
ENDMDL
