MODEL 1
REMARK minimizedAffinity 11.4749556
REMARK minimizedRMSD -1
REMARK  0 active torsions:
REMARK  status: ('A' for Active; 'I' for Inactive)
ROOT
ATOM      1  C2' OXE d   1       0.162  -0.423   4.245  0.00  0.00     0.078 C 
ATOM      2  C1' OXE d   1       1.215  -1.488   1.871  0.00  0.00     0.078 C 
ATOM      3  C1  OXE d   1      -0.116  -2.013   2.347  0.00  0.00    -0.078 A 
ATOM      4  C2  OXE d   1      -0.602  -1.520   3.534  0.00  0.00    -0.078 A 
ATOM      5  C3  OXE d   1      -1.852  -1.929   3.990  0.00  0.00     0.003 A 
ATOM      6  C4  OXE d   1      -2.547  -2.951   3.332  0.00  0.00    -0.002 A 
ATOM      7  C5  OXE d   1      -2.051  -3.495   2.143  0.00  0.00    -0.002 A 
ATOM      8  C6  OXE d   1      -0.860  -3.008   1.615  0.00  0.00     0.003 A 
ENDROOT
TORSDOF 0
ENDMDL
