MODEL 1
REMARK minimizedAffinity 15.4022236
REMARK minimizedRMSD -1
REMARK  0 active torsions:
REMARK  status: ('A' for Active; 'I' for Inactive)
ROOT
ATOM      1  C2' OXE d   1       0.984   2.306  -2.181  0.00  0.00     0.078 C 
ATOM      2  C1' OXE d   1       0.124   3.717   0.088  0.00  0.00     0.078 C 
ATOM      3  C1  OXE d   1      -0.888   3.447  -0.998  0.00  0.00    -0.078 A 
ATOM      4  C2  OXE d   1      -0.447   2.797  -2.125  0.00  0.00    -0.078 A 
ATOM      5  C3  OXE d   1      -1.351   2.474  -3.133  0.00  0.00     0.003 A 
ATOM      6  C4  OXE d   1      -2.670   2.941  -3.078  0.00  0.00    -0.002 A 
ATOM      7  C5  OXE d   1      -3.129   3.640  -1.957  0.00  0.00    -0.002 A 
ATOM      8  C6  OXE d   1      -2.264   3.864  -0.891  0.00  0.00     0.003 A 
ENDROOT
TORSDOF 0
ENDMDL
