MODEL 1
REMARK minimizedAffinity 13.1731997
REMARK minimizedRMSD -1
REMARK  0 active torsions:
REMARK  status: ('A' for Active; 'I' for Inactive)
ROOT
ATOM      1  C2' OXE d   1       0.433  -1.877   1.817  0.00  0.00     0.078 C 
ATOM      2  C1' OXE d   1       0.465  -0.046   3.944  0.00  0.00     0.078 C 
ATOM      3  C1  OXE d   1       1.689  -0.126   3.067  0.00  0.00    -0.078 A 
ATOM      4  C2  OXE d   1       1.683  -1.058   2.056  0.00  0.00    -0.078 A 
ATOM      5  C3  OXE d   1       2.764  -1.136   1.184  0.00  0.00     0.003 A 
ATOM      6  C4  OXE d   1       3.920  -0.382   1.418  0.00  0.00    -0.002 A 
ATOM      7  C5  OXE d   1       3.963   0.544   2.466  0.00  0.00    -0.002 A 
ATOM      8  C6  OXE d   1       2.843   0.715   3.271  0.00  0.00     0.003 A 
ENDROOT
TORSDOF 0
ENDMDL
