MODEL 1
REMARK minimizedAffinity 11.7881403
REMARK minimizedRMSD -1
REMARK  0 active torsions:
REMARK  status: ('A' for Active; 'I' for Inactive)
ROOT
ATOM      1  C2' OXE d   1       0.079  -0.131   3.380  0.00  0.00     0.078 C 
ATOM      2  C1' OXE d   1       0.306  -2.332   1.651  0.00  0.00     0.078 C 
ATOM      3  C1  OXE d   1       1.514  -1.445   1.824  0.00  0.00    -0.078 A 
ATOM      4  C2  OXE d   1       1.379  -0.344   2.635  0.00  0.00    -0.078 A 
ATOM      5  C3  OXE d   1       2.478   0.477   2.872  0.00  0.00     0.003 A 
ATOM      6  C4  OXE d   1       3.674   0.279   2.171  0.00  0.00    -0.002 A 
ATOM      7  C5  OXE d   1       3.820  -0.813   1.309  0.00  0.00    -0.002 A 
ATOM      8  C6  OXE d   1       2.765  -1.707   1.158  0.00  0.00     0.003 A 
ENDROOT
TORSDOF 0
ENDMDL
