MODEL 1
REMARK minimizedAffinity 8.46850109
REMARK minimizedRMSD -1
REMARK  0 active torsions:
REMARK  status: ('A' for Active; 'I' for Inactive)
ROOT
ATOM      1  C2' OXE d   1      -2.634  -2.781   3.047  0.00  0.00     0.078 C 
ATOM      2  C1' OXE d   1      -5.091  -2.250   1.799  0.00  0.00     0.078 C 
ATOM      3  C1  OXE d   1      -4.439  -3.583   1.529  0.00  0.00    -0.078 A 
ATOM      4  C2  OXE d   1      -3.214  -3.815   2.107  0.00  0.00    -0.078 A 
ATOM      5  C3  OXE d   1      -2.594  -5.050   1.935  0.00  0.00     0.003 A 
ATOM      6  C4  OXE d   1      -3.132  -5.997   1.055  0.00  0.00    -0.002 A 
ATOM      7  C5  OXE d   1      -4.359  -5.764   0.425  0.00  0.00    -0.002 A 
ATOM      8  C6  OXE d   1      -5.045  -4.582   0.684  0.00  0.00     0.003 A 
ENDROOT
TORSDOF 0
ENDMDL
