MODEL 1
REMARK minimizedAffinity 18.5106087
REMARK minimizedRMSD -1
REMARK  0 active torsions:
REMARK  status: ('A' for Active; 'I' for Inactive)
ROOT
ATOM      1  C2' OXE d   1      -3.854   3.054  -1.264  0.00  0.00     0.078 C 
ATOM      2  C1' OXE d   1      -2.170   3.282  -3.498  0.00  0.00     0.078 C 
ATOM      3  C1  OXE d   1      -1.531   3.001  -2.162  0.00  0.00    -0.078 A 
ATOM      4  C2  OXE d   1      -2.358   2.937  -1.066  0.00  0.00    -0.078 A 
ATOM      5  C3  OXE d   1      -1.826   2.626   0.182  0.00  0.00     0.003 A 
ATOM      6  C4  OXE d   1      -0.440   2.530   0.358  0.00  0.00    -0.002 A 
ATOM      7  C5  OXE d   1       0.423   2.631  -0.738  0.00  0.00    -0.002 A 
ATOM      8  C6  OXE d   1      -0.108   2.823  -2.008  0.00  0.00     0.003 A 
ENDROOT
TORSDOF 0
ENDMDL
