MODEL 1
REMARK minimizedAffinity 17.0222149
REMARK minimizedRMSD -1
REMARK  0 active torsions:
REMARK  status: ('A' for Active; 'I' for Inactive)
ROOT
ATOM      1  C2' OXE d   1      -3.480   1.667  -3.022  0.00  0.00     0.078 C 
ATOM      2  C1' OXE d   1      -2.064   3.753  -4.257  0.00  0.00     0.078 C 
ATOM      3  C1  OXE d   1      -1.472   3.142  -3.012  0.00  0.00    -0.078 A 
ATOM      4  C2  OXE d   1      -2.195   2.153  -2.388  0.00  0.00    -0.078 A 
ATOM      5  C3  OXE d   1      -1.668   1.518  -1.267  0.00  0.00     0.003 A 
ATOM      6  C4  OXE d   1      -0.484   1.980  -0.681  0.00  0.00    -0.002 A 
ATOM      7  C5  OXE d   1       0.248   3.012  -1.278  0.00  0.00    -0.002 A 
ATOM      8  C6  OXE d   1      -0.210   3.574  -2.465  0.00  0.00     0.003 A 
ENDROOT
TORSDOF 0
ENDMDL
