MODEL 1
REMARK minimizedAffinity 18.8368034
REMARK minimizedRMSD -1
REMARK  0 active torsions:
REMARK  status: ('A' for Active; 'I' for Inactive)
ROOT
ATOM      1  C2' OXE d   1      -1.648   5.986  -5.334  0.00  0.00     0.078 C 
ATOM      2  C1' OXE d   1      -1.890   3.267  -5.989  0.00  0.00     0.078 C 
ATOM      3  C1  OXE d   1      -2.061   3.660  -4.543  0.00  0.00    -0.078 A 
ATOM      4  C2  OXE d   1      -1.895   4.986  -4.224  0.00  0.00    -0.078 A 
ATOM      5  C3  OXE d   1      -2.095   5.411  -2.914  0.00  0.00     0.003 A 
ATOM      6  C4  OXE d   1      -2.313   4.479  -1.892  0.00  0.00    -0.002 A 
ATOM      7  C5  OXE d   1      -2.446   3.118  -2.189  0.00  0.00    -0.002 A 
ATOM      8  C6  OXE d   1      -2.365   2.698  -3.512  0.00  0.00     0.003 A 
ENDROOT
TORSDOF 0
ENDMDL
