MODEL 1
REMARK minimizedAffinity 15.698205
REMARK minimizedRMSD -1
REMARK  0 active torsions:
REMARK  status: ('A' for Active; 'I' for Inactive)
ROOT
ATOM      1  C2' OXE d   1       2.716  -0.640   1.922  0.00  0.00     0.078 C 
ATOM      2  C1' OXE d   1       0.154  -1.457   1.117  0.00  0.00     0.078 C 
ATOM      3  C1  OXE d   1       0.306  -0.886   2.504  0.00  0.00    -0.078 A 
ATOM      4  C2  OXE d   1       1.572  -0.532   2.907  0.00  0.00    -0.078 A 
ATOM      5  C3  OXE d   1       1.759   0.050   4.157  0.00  0.00     0.003 A 
ATOM      6  C4  OXE d   1       0.697   0.137   5.065  0.00  0.00    -0.002 A 
ATOM      7  C5  OXE d   1      -0.592  -0.254   4.690  0.00  0.00    -0.002 A 
ATOM      8  C6  OXE d   1      -0.812  -0.727   3.401  0.00  0.00     0.003 A 
ENDROOT
TORSDOF 0
ENDMDL
