MODEL 1
REMARK minimizedAffinity 20.9870243
REMARK minimizedRMSD -1
REMARK  0 active torsions:
REMARK  status: ('A' for Active; 'I' for Inactive)
ROOT
ATOM      1  C2' OXE d   1      -1.099  -0.374   6.000  0.00  0.00     0.078 C 
ATOM      2  C1' OXE d   1       1.608   0.369   6.000  0.00  0.00     0.078 C 
ATOM      3  C1  OXE d   1       1.019  -0.141   4.709  0.00  0.00    -0.078 A 
ATOM      4  C2  OXE d   1      -0.294  -0.546   4.729  0.00  0.00    -0.078 A 
ATOM      5  C3  OXE d   1      -0.903  -0.973   3.553  0.00  0.00     0.003 A 
ATOM      6  C4  OXE d   1      -0.149  -1.139   2.385  0.00  0.00    -0.002 A 
ATOM      7  C5  OXE d   1       1.200  -0.770   2.352  0.00  0.00    -0.002 A 
ATOM      8  C6  OXE d   1       1.787  -0.230   3.491  0.00  0.00     0.003 A 
ENDROOT
TORSDOF 0
ENDMDL
