MODEL 1
REMARK minimizedAffinity 21.6773701
REMARK minimizedRMSD -1
REMARK  0 active torsions:
REMARK  status: ('A' for Active; 'I' for Inactive)
ROOT
ATOM      1  C2' OXE d   1       3.395  -1.097   0.867  0.00  0.00     0.078 C 
ATOM      2  C1' OXE d   1       0.643  -1.640   0.988  0.00  0.00     0.078 C 
ATOM      3  C1  OXE d   1       1.271  -0.921   2.156  0.00  0.00    -0.078 A 
ATOM      4  C2  OXE d   1       2.626  -0.702   2.109  0.00  0.00    -0.078 A 
ATOM      5  C3  OXE d   1       3.246   0.005   3.136  0.00  0.00     0.003 A 
ATOM      6  C4  OXE d   1       2.530   0.359   4.286  0.00  0.00    -0.002 A 
ATOM      7  C5  OXE d   1       1.156   0.109   4.371  0.00  0.00    -0.002 A 
ATOM      8  C6  OXE d   1       0.504  -0.491   3.299  0.00  0.00     0.003 A 
ENDROOT
TORSDOF 0
ENDMDL
