MODEL 1
REMARK minimizedAffinity 2.36658454
REMARK minimizedRMSD -1
REMARK  0 active torsions:
REMARK  status: ('A' for Active; 'I' for Inactive)
ROOT
ATOM      1  C2' OXE d   1      -2.258  -2.985   2.672  0.00  0.00     0.078 C 
ATOM      2  C1' OXE d   1       0.067  -1.673   1.803  0.00  0.00     0.078 C 
ATOM      3  C1  OXE d   1      -0.394  -1.424   3.217  0.00  0.00    -0.078 A 
ATOM      4  C2  OXE d   1      -1.559  -2.034   3.619  0.00  0.00    -0.078 A 
ATOM      5  C3  OXE d   1      -1.999  -1.882   4.931  0.00  0.00     0.003 A 
ATOM      6  C4  OXE d   1      -1.352  -0.993   5.797  0.00  0.00    -0.002 A 
ATOM      7  C5  OXE d   1      -0.187  -0.331   5.395  0.00  0.00    -0.002 A 
ATOM      8  C6  OXE d   1       0.328  -0.568   4.126  0.00  0.00     0.003 A 
ENDROOT
TORSDOF 0
ENDMDL
