MODEL 1
REMARK minimizedAffinity 8.7710228
REMARK minimizedRMSD -1
REMARK  0 active torsions:
REMARK  status: ('A' for Active; 'I' for Inactive)
ROOT
ATOM      1  C2' OXE d   1       3.629  -1.522   0.696  0.00  0.00     0.078 C 
ATOM      2  C1' OXE d   1       4.567   0.397   2.518  0.00  0.00     0.078 C 
ATOM      3  C1  OXE d   1       3.143  -0.077   2.666  0.00  0.00    -0.078 A 
ATOM      4  C2  OXE d   1       2.678  -0.981   1.742  0.00  0.00    -0.078 A 
ATOM      5  C3  OXE d   1       1.389  -1.492   1.866  0.00  0.00     0.003 A 
ATOM      6  C4  OXE d   1       0.513  -0.979   2.830  0.00  0.00    -0.002 A 
ATOM      7  C5  OXE d   1       0.954  -0.028   3.756  0.00  0.00    -0.002 A 
ATOM      8  C6  OXE d   1       2.276   0.401   3.715  0.00  0.00     0.003 A 
ENDROOT
TORSDOF 0
ENDMDL
