MODEL 1
REMARK minimizedAffinity 10.4246283
REMARK minimizedRMSD -1
REMARK  0 active torsions:
REMARK  status: ('A' for Active; 'I' for Inactive)
ROOT
ATOM      1  C2' OXE d   1      -3.333   2.036  -2.125  0.00  0.00     0.078 C 
ATOM      2  C1' OXE d   1      -1.812   3.473  -3.996  0.00  0.00     0.078 C 
ATOM      3  C1  OXE d   1      -1.141   3.066  -2.708  0.00  0.00    -0.078 A 
ATOM      4  C2  OXE d   1      -1.906   2.404  -1.778  0.00  0.00    -0.078 A 
ATOM      5  C3  OXE d   1      -1.322   1.958  -0.596  0.00  0.00     0.003 A 
ATOM      6  C4  OXE d   1      -0.005   2.311  -0.279  0.00  0.00    -0.002 A 
ATOM      7  C5  OXE d   1       0.780   3.019  -1.195  0.00  0.00    -0.002 A 
ATOM      8  C6  OXE d   1       0.242   3.367  -2.429  0.00  0.00     0.003 A 
ENDROOT
TORSDOF 0
ENDMDL
