MODEL 1
REMARK minimizedAffinity 5.90934753
REMARK minimizedRMSD -1
REMARK  0 active torsions:
REMARK  status: ('A' for Active; 'I' for Inactive)
ROOT
ATOM      1  C2' OXE d   1      -2.278   6.000  -2.678  0.00  0.00     0.078 C 
ATOM      2  C1' OXE d   1      -4.509   5.211  -1.168  0.00  0.00     0.078 C 
ATOM      3  C1  OXE d   1      -3.533   4.142  -1.593  0.00  0.00    -0.078 A 
ATOM      4  C2  OXE d   1      -2.469   4.530  -2.371  0.00  0.00    -0.078 A 
ATOM      5  C3  OXE d   1      -1.510   3.594  -2.744  0.00  0.00     0.003 A 
ATOM      6  C4  OXE d   1      -1.699   2.235  -2.465  0.00  0.00    -0.002 A 
ATOM      7  C5  OXE d   1      -2.797   1.812  -1.707  0.00  0.00    -0.002 A 
ATOM      8  C6  OXE d   1      -3.698   2.756  -1.228  0.00  0.00     0.003 A 
ENDROOT
TORSDOF 0
ENDMDL
