MODEL 1
REMARK minimizedAffinity 12.4187078
REMARK minimizedRMSD -1
REMARK  0 active torsions:
REMARK  status: ('A' for Active; 'I' for Inactive)
ROOT
ATOM      1  C2' OXE d   1      -1.620   5.632  -3.820  0.00  0.00     0.078 C 
ATOM      2  C1' OXE d   1      -3.760   5.648  -2.003  0.00  0.00     0.078 C 
ATOM      3  C1  OXE d   1      -3.012   4.352  -2.199  0.00  0.00    -0.078 A 
ATOM      4  C2  OXE d   1      -1.997   4.342  -3.124  0.00  0.00    -0.078 A 
ATOM      5  C3  OXE d   1      -1.240   3.188  -3.304  0.00  0.00     0.003 A 
ATOM      6  C4  OXE d   1      -1.601   1.996  -2.664  0.00  0.00    -0.002 A 
ATOM      7  C5  OXE d   1      -2.657   1.975  -1.747  0.00  0.00    -0.002 A 
ATOM      8  C6  OXE d   1      -3.344   3.152  -1.472  0.00  0.00     0.003 A 
ENDROOT
TORSDOF 0
ENDMDL
