MODEL 1
REMARK minimizedAffinity 16.8514938
REMARK minimizedRMSD -1
REMARK  0 active torsions:
REMARK  status: ('A' for Active; 'I' for Inactive)
ROOT
ATOM      1  C2' OXE d   1      -4.189   2.169  -2.423  0.00  0.00     0.078 C 
ATOM      2  C1' OXE d   1      -1.437   2.701  -2.280  0.00  0.00     0.078 C 
ATOM      3  C1  OXE d   1      -2.132   2.940  -3.597  0.00  0.00    -0.078 A 
ATOM      4  C2  OXE d   1      -3.469   2.633  -3.671  0.00  0.00    -0.078 A 
ATOM      5  C3  OXE d   1      -4.171   2.886  -4.846  0.00  0.00     0.003 A 
ATOM      6  C4  OXE d   1      -3.496   3.306  -5.999  0.00  0.00    -0.002 A 
ATOM      7  C5  OXE d   1      -2.126   3.587  -5.956  0.00  0.00    -0.002 A 
ATOM      8  C6  OXE d   1      -1.439   3.450  -4.755  0.00  0.00     0.003 A 
ENDROOT
TORSDOF 0
ENDMDL
