MODEL 1
REMARK minimizedAffinity 0.660782337
REMARK minimizedRMSD -1
REMARK  0 active torsions:
REMARK  status: ('A' for Active; 'I' for Inactive)
ROOT
ATOM      1  C2' OXE d   1       2.758  -1.519   0.634  0.00  0.00     0.078 C 
ATOM      2  C1' OXE d   1       2.488   0.947  -0.679  0.00  0.00     0.078 C 
ATOM      3  C1  OXE d   1       1.295   0.418   0.076  0.00  0.00    -0.078 A 
ATOM      4  C2  OXE d   1       1.421  -0.811   0.676  0.00  0.00    -0.078 A 
ATOM      5  C3  OXE d   1       0.369  -1.321   1.431  0.00  0.00     0.003 A 
ATOM      6  C4  OXE d   1      -0.868  -0.665   1.457  0.00  0.00    -0.002 A 
ATOM      7  C5  OXE d   1      -1.030   0.569   0.819  0.00  0.00    -0.002 A 
ATOM      8  C6  OXE d   1       0.051   1.144   0.162  0.00  0.00     0.003 A 
ENDROOT
TORSDOF 0
ENDMDL
