MODEL 1
REMARK minimizedAffinity -6.20889473
REMARK minimizedRMSD -1
REMARK  3 active torsions:
REMARK  status: ('A' for Active; 'I' for Inactive)
REMARK    1  A    between atoms: C3'_2  and  C2'_3 
REMARK    2  A    between atoms: C2'_3  and  C1'_4 
REMARK    3  A    between atoms: C1'_4  and  C1_5 
ROOT
ATOM      1  C1  N4B d   1      -0.032   0.141   0.584  0.00  0.00    -0.075 A 
ATOM      2  C2  N4B d   1      -0.909   0.683   1.548  0.00  0.00     0.002 A 
ATOM      3  C3  N4B d   1      -0.632   0.539   2.886  0.00  0.00     0.002 A 
ATOM      4  C4  N4B d   1       0.502  -0.155   3.281  0.00  0.00    -0.004 A 
ATOM      5  C5  N4B d   1       1.358  -0.653   2.342  0.00  0.00     0.002 A 
ATOM      6  C6  N4B d   1       1.094  -0.513   0.995  0.00  0.00     0.002 A 
ENDROOT
BRANCH   1   7
ATOM      7  C1' N4B d   1      -0.337   0.197  -0.888  0.00  0.00     0.057 C 
BRANCH   7   8
ATOM      8  C2' N4B d   1      -1.229   1.404  -1.169  0.00  0.00     0.009 C 
BRANCH   8   9
ATOM      9  C3' N4B d   1      -1.115   1.872  -2.609  0.00  0.00     0.004 C 
ATOM     10  C4' N4B d   1      -1.691   3.240  -2.823  0.00  0.00     0.003 C 
ENDBRANCH   8   9
ENDBRANCH   7   8
ENDBRANCH   1   7
TORSDOF 3
ENDMDL
