MODEL 1
REMARK minimizedAffinity -4.57917738
REMARK minimizedRMSD -1
REMARK  3 active torsions:
REMARK  status: ('A' for Active; 'I' for Inactive)
REMARK    1  A    between atoms: C3'_2  and  C2'_3 
REMARK    2  A    between atoms: C2'_3  and  C1'_4 
REMARK    3  A    between atoms: C1'_4  and  C1_5 
ROOT
ATOM      1  C1  N4B d   1      -0.616   1.623  -2.442  0.00  0.00    -0.075 A 
ATOM      2  C2  N4B d   1      -0.360   2.273  -3.669  0.00  0.00     0.002 A 
ATOM      3  C3  N4B d   1      -1.096   3.375  -4.029  0.00  0.00     0.002 A 
ATOM      4  C4  N4B d   1      -2.102   3.832  -3.191  0.00  0.00    -0.004 A 
ATOM      5  C5  N4B d   1      -2.326   3.213  -1.996  0.00  0.00     0.002 A 
ATOM      6  C6  N4B d   1      -1.592   2.107  -1.619  0.00  0.00     0.002 A 
ENDROOT
BRANCH   1   7
ATOM      7  C1' N4B d   1       0.104   0.363  -2.045  0.00  0.00     0.057 C 
BRANCH   7   8
ATOM      8  C2' N4B d   1      -0.296  -0.015  -0.622  0.00  0.00     0.009 C 
BRANCH   8   9
ATOM      9  C3' N4B d   1       0.913  -0.309   0.249  0.00  0.00     0.004 C 
ATOM     10  C4' N4B d   1       0.575  -0.370   1.709  0.00  0.00     0.003 C 
ENDBRANCH   8   9
ENDBRANCH   7   8
ENDBRANCH   1   7
TORSDOF 3
ENDMDL
