MODEL 1
REMARK minimizedAffinity -5.66837168
REMARK minimizedRMSD -1
REMARK  3 active torsions:
REMARK  status: ('A' for Active; 'I' for Inactive)
REMARK    1  A    between atoms: C3'_2  and  C2'_3 
REMARK    2  A    between atoms: C2'_3  and  C1'_4 
REMARK    3  A    between atoms: C1'_4  and  C1_5 
ROOT
ATOM      1  C1  N4B d   1      -0.290  -0.202   0.281  0.00  0.00    -0.075 A 
ATOM      2  C2  N4B d   1      -0.926  -0.545   1.494  0.00  0.00     0.002 A 
ATOM      3  C3  N4B d   1      -0.186  -0.673   2.644  0.00  0.00     0.002 A 
ATOM      4  C4  N4B d   1       1.187  -0.481   2.602  0.00  0.00    -0.004 A 
ATOM      5  C5  N4B d   1       1.789  -0.125   1.431  0.00  0.00     0.002 A 
ATOM      6  C6  N4B d   1       1.058   0.011   0.268  0.00  0.00     0.002 A 
ENDROOT
BRANCH   1   7
ATOM      7  C1' N4B d   1      -1.044  -0.134  -1.019  0.00  0.00     0.057 C 
BRANCH   7   8
ATOM      8  C2' N4B d   1      -0.529   1.046  -1.837  0.00  0.00     0.009 C 
BRANCH   8   9
ATOM      9  C3' N4B d   1      -1.654   1.783  -2.543  0.00  0.00     0.004 C 
ATOM     10  C4' N4B d   1      -1.269   3.173  -2.955  0.00  0.00     0.003 C 
ENDBRANCH   8   9
ENDBRANCH   7   8
ENDBRANCH   1   7
TORSDOF 3
ENDMDL
