MODEL 1
REMARK minimizedAffinity -1.82677841
REMARK minimizedRMSD -1
REMARK  3 active torsions:
REMARK  status: ('A' for Active; 'I' for Inactive)
REMARK    1  A    between atoms: C3'_2  and  C2'_3 
REMARK    2  A    between atoms: C2'_3  and  C1'_4 
REMARK    3  A    between atoms: C1'_4  and  C1_5 
ROOT
ATOM      1  C1  N4B d   1      -1.056   0.668  -0.967  0.00  0.00    -0.075 A 
ATOM      2  C2  N4B d   1      -1.586   0.412   0.317  0.00  0.00     0.002 A 
ATOM      3  C3  N4B d   1      -0.802  -0.173   1.280  0.00  0.00     0.002 A 
ATOM      4  C4  N4B d   1       0.505  -0.528   0.978  0.00  0.00    -0.004 A 
ATOM      5  C5  N4B d   1       1.018  -0.254  -0.256  0.00  0.00     0.002 A 
ATOM      6  C6  N4B d   1       0.242   0.338  -1.233  0.00  0.00     0.002 A 
ENDROOT
BRANCH   1   7
ATOM      7  C1' N4B d   1      -1.901   1.228  -2.078  0.00  0.00     0.057 C 
BRANCH   7   8
ATOM      8  C2' N4B d   1      -1.345   2.587  -2.494  0.00  0.00     0.009 C 
BRANCH   8   9
ATOM      9  C3' N4B d   1      -2.269   3.725  -2.095  0.00  0.00     0.004 C 
ATOM     10  C4' N4B d   1      -3.718   3.392  -2.290  0.00  0.00     0.003 C 
ENDBRANCH   8   9
ENDBRANCH   7   8
ENDBRANCH   1   7
TORSDOF 3
ENDMDL
