MODEL 1
REMARK minimizedAffinity -2.8997345
REMARK minimizedRMSD -1
REMARK  3 active torsions:
REMARK  status: ('A' for Active; 'I' for Inactive)
REMARK    1  A    between atoms: C3'_2  and  C2'_3 
REMARK    2  A    between atoms: C2'_3  and  C1'_4 
REMARK    3  A    between atoms: C1'_4  and  C1_5 
ROOT
ATOM      1  C1  N4B d   1      -3.279   2.879  -2.448  0.00  0.00    -0.075 A 
ATOM      2  C2  N4B d   1      -2.718   4.130  -2.788  0.00  0.00     0.002 A 
ATOM      3  C3  N4B d   1      -1.417   4.203  -3.222  0.00  0.00     0.002 A 
ATOM      4  C4  N4B d   1      -0.655   3.048  -3.306  0.00  0.00    -0.004 A 
ATOM      5  C5  N4B d   1      -1.212   1.840  -3.000  0.00  0.00     0.002 A 
ATOM      6  C6  N4B d   1      -2.520   1.751  -2.566  0.00  0.00     0.002 A 
ENDROOT
BRANCH   1   7
ATOM      7  C1' N4B d   1      -4.669   2.758  -1.887  0.00  0.00     0.057 C 
BRANCH   7   8
ATOM      8  C2' N4B d   1      -5.508   1.880  -2.811  0.00  0.00     0.009 C 
BRANCH   8   9
ATOM      9  C3' N4B d   1      -5.519   2.403  -4.237  0.00  0.00     0.004 C 
ATOM     10  C4' N4B d   1      -5.999   1.384  -5.227  0.00  0.00     0.003 C 
ENDBRANCH   8   9
ENDBRANCH   7   8
ENDBRANCH   1   7
TORSDOF 3
ENDMDL
