MODEL 1
REMARK minimizedAffinity -2.08225131
REMARK minimizedRMSD -1
REMARK  3 active torsions:
REMARK  status: ('A' for Active; 'I' for Inactive)
REMARK    1  A    between atoms: C3'_2  and  C2'_3 
REMARK    2  A    between atoms: C2'_3  and  C1'_4 
REMARK    3  A    between atoms: C1'_4  and  C1_5 
ROOT
ATOM      1  C1  N4B d   1      -0.916   1.769  -2.094  0.00  0.00    -0.075 A 
ATOM      2  C2  N4B d   1      -0.001   2.708  -2.620  0.00  0.00     0.002 A 
ATOM      3  C3  N4B d   1      -0.430   3.967  -2.963  0.00  0.00     0.002 A 
ATOM      4  C4  N4B d   1      -1.767   4.302  -2.807  0.00  0.00    -0.004 A 
ATOM      5  C5  N4B d   1      -2.639   3.399  -2.275  0.00  0.00     0.002 A 
ATOM      6  C6  N4B d   1      -2.221   2.131  -1.922  0.00  0.00     0.002 A 
ENDROOT
BRANCH   1   7
ATOM      7  C1' N4B d   1      -0.512   0.354  -1.785  0.00  0.00     0.057 C 
BRANCH   7   8
ATOM      8  C2' N4B d   1      -1.111  -0.056  -0.443  0.00  0.00     0.009 C 
BRANCH   8   9
ATOM      9  C3' N4B d   1      -0.043  -0.493   0.545  0.00  0.00     0.004 C 
ATOM     10  C4' N4B d   1      -0.545  -0.546   1.957  0.00  0.00     0.003 C 
ENDBRANCH   8   9
ENDBRANCH   7   8
ENDBRANCH   1   7
TORSDOF 3
ENDMDL
