MODEL 1
REMARK minimizedAffinity -4.4325304
REMARK minimizedRMSD -1
REMARK  3 active torsions:
REMARK  status: ('A' for Active; 'I' for Inactive)
REMARK    1  A    between atoms: C3'_2  and  C2'_3 
REMARK    2  A    between atoms: C2'_3  and  C1'_4 
REMARK    3  A    between atoms: C1'_4  and  C1_5 
ROOT
ATOM      1  C1  N4B d   1      -0.135  -0.058   0.215  0.00  0.00    -0.075 A 
ATOM      2  C2  N4B d   1       1.199   0.266   0.546  0.00  0.00     0.002 A 
ATOM      3  C3  N4B d   1       1.747  -0.195   1.718  0.00  0.00     0.002 A 
ATOM      4  C4  N4B d   1       0.978  -0.962   2.580  0.00  0.00    -0.004 A 
ATOM      5  C5  N4B d   1      -0.302  -1.292   2.241  0.00  0.00     0.002 A 
ATOM      6  C6  N4B d   1      -0.864  -0.839   1.064  0.00  0.00     0.002 A 
ENDROOT
BRANCH   1   7
ATOM      7  C1' N4B d   1      -0.805   0.493  -1.014  0.00  0.00     0.057 C 
BRANCH   7   8
ATOM      8  C2' N4B d   1      -1.198   1.945  -0.760  0.00  0.00     0.009 C 
BRANCH   8   9
ATOM      9  C3' N4B d   1      -1.864   2.573  -1.973  0.00  0.00     0.004 C 
ATOM     10  C4' N4B d   1      -1.103   3.749  -2.509  0.00  0.00     0.003 C 
ENDBRANCH   8   9
ENDBRANCH   7   8
ENDBRANCH   1   7
TORSDOF 3
ENDMDL
