MODEL 1
REMARK minimizedAffinity 4.55103207
REMARK minimizedRMSD -1
REMARK  3 active torsions:
REMARK  status: ('A' for Active; 'I' for Inactive)
REMARK    1  A    between atoms: C3'_2  and  C2'_3 
REMARK    2  A    between atoms: C2'_3  and  C1'_4 
REMARK    3  A    between atoms: C1'_4  and  C1_5 
ROOT
ATOM      1  C1  N4B d   1      -1.046   3.288  -3.616  0.00  0.00    -0.075 A 
ATOM      2  C2  N4B d   1      -1.351   4.607  -3.215  0.00  0.00     0.002 A 
ATOM      3  C3  N4B d   1      -2.261   4.826  -2.210  0.00  0.00     0.002 A 
ATOM      4  C4  N4B d   1      -2.890   3.748  -1.607  0.00  0.00    -0.004 A 
ATOM      5  C5  N4B d   1      -2.572   2.475  -1.983  0.00  0.00     0.002 A 
ATOM      6  C6  N4B d   1      -1.656   2.240  -2.989  0.00  0.00     0.002 A 
ENDROOT
BRANCH   1   7
ATOM      7  C1' N4B d   1      -0.122   3.001  -4.768  0.00  0.00     0.057 C 
BRANCH   7   8
ATOM      8  C2' N4B d   1      -0.941   2.499  -5.954  0.00  0.00     0.009 C 
BRANCH   8   9
ATOM      9  C3' N4B d   1      -1.618   1.172  -5.656  0.00  0.00     0.004 C 
ATOM     10  C4' N4B d   1      -3.078   1.176  -5.997  0.00  0.00     0.003 C 
ENDBRANCH   8   9
ENDBRANCH   7   8
ENDBRANCH   1   7
TORSDOF 3
ENDMDL
