MODEL 1
REMARK minimizedAffinity -5.14536762
REMARK minimizedRMSD -1
REMARK  1 active torsions:
REMARK  status: ('A' for Active; 'I' for Inactive)
REMARK    1  A    between atoms: N_2  and  C1_3 
ROOT
ATOM      1  C1  UNL d   1      -1.774   3.641   1.978  0.00  0.00     0.143 A 
ATOM      2  C2  UNL d   1      -1.240   2.493   2.573  0.00  0.00    -0.057 A 
ATOM      3  C3  UNL d   1      -0.415   1.620   1.854  0.00  0.00     0.033 A 
ATOM      4  C4  UNL d   1      -0.132   1.865   0.515  0.00  0.00    -0.042 A 
ATOM      5  C5  UNL d   1      -0.672   2.987  -0.104  0.00  0.00     0.033 A 
ATOM      6  C6  UNL d   1      -1.490   3.859   0.621  0.00  0.00    -0.057 A 
ENDROOT
BRANCH   1   7
ATOM      7  N   UNL d   1      -2.681   4.496   2.611  0.00  0.00    -0.732 N 
ATOM      8  C   UNL d   1      -3.118   5.715   1.967  0.00  0.00     0.284 C 
ATOM      9  H3  UNL d   1      -3.422   3.989   3.090  0.00  0.00     0.395 HD
ENDBRANCH   1   7
TORSDOF 1
ENDMDL
