MODEL 1
REMARK minimizedAffinity 2.97512817
REMARK minimizedRMSD -1
REMARK  1 active torsions:
REMARK  status: ('A' for Active; 'I' for Inactive)
REMARK    1  A    between atoms: N_2  and  C1_3 
ROOT
ATOM      1  C1  UNL d   1      -0.845   2.870   0.403  0.00  0.00     0.143 A 
ATOM      2  C2  UNL d   1       0.397   2.251   0.578  0.00  0.00    -0.057 A 
ATOM      3  C3  UNL d   1       0.638   1.401   1.663  0.00  0.00     0.033 A 
ATOM      4  C4  UNL d   1      -0.354   1.176   2.612  0.00  0.00    -0.042 A 
ATOM      5  C5  UNL d   1      -1.588   1.800   2.472  0.00  0.00     0.033 A 
ATOM      6  C6  UNL d   1      -1.825   2.643   1.382  0.00  0.00    -0.057 A 
ENDROOT
BRANCH   1   7
ATOM      7  N   UNL d   1      -1.115   3.803  -0.601  0.00  0.00    -0.732 N 
ATOM      8  C   UNL d   1      -0.062   4.268  -1.478  0.00  0.00     0.284 C 
ATOM      9  H3  UNL d   1      -1.999   3.623  -1.072  0.00  0.00     0.395 HD
ENDBRANCH   1   7
TORSDOF 1
ENDMDL
