MODEL 1
REMARK minimizedAffinity 1.09752321
REMARK minimizedRMSD -1
REMARK  1 active torsions:
REMARK  status: ('A' for Active; 'I' for Inactive)
REMARK    1  A    between atoms: N_2  and  C1_3 
ROOT
ATOM      1  C1  UNL d   1       0.397   0.572  -0.707  0.00  0.00     0.143 A 
ATOM      2  C2  UNL d   1      -0.681   1.420  -0.432  0.00  0.00    -0.057 A 
ATOM      3  C3  UNL d   1      -0.726   2.180   0.743  0.00  0.00     0.033 A 
ATOM      4  C4  UNL d   1       0.297   2.083   1.681  0.00  0.00    -0.042 A 
ATOM      5  C5  UNL d   1       1.366   1.227   1.440  0.00  0.00     0.033 A 
ATOM      6  C6  UNL d   1       1.408   0.475   0.262  0.00  0.00    -0.057 A 
ENDROOT
BRANCH   1   7
ATOM      7  N   UNL d   1       0.452  -0.283  -1.810  0.00  0.00    -0.732 N 
ATOM      8  C   UNL d   1      -0.726  -1.003  -2.245  0.00  0.00     0.284 C 
ATOM      9  H3  UNL d   1       1.009   0.099  -2.571  0.00  0.00     0.395 HD
ENDBRANCH   1   7
TORSDOF 1
ENDMDL
