MODEL 1
REMARK minimizedAffinity -2.16079998
REMARK minimizedRMSD -1
REMARK  1 active torsions:
REMARK  status: ('A' for Active; 'I' for Inactive)
REMARK    1  A    between atoms: N_2  and  C1_3 
ROOT
ATOM      1  C1  UNL d   1      -1.864   4.145   1.440  0.00  0.00     0.143 A 
ATOM      2  C2  UNL d   1      -0.578   4.518   1.034  0.00  0.00    -0.057 A 
ATOM      3  C3  UNL d   1       0.550   3.792   1.436  0.00  0.00     0.033 A 
ATOM      4  C4  UNL d   1       0.413   2.693   2.277  0.00  0.00    -0.042 A 
ATOM      5  C5  UNL d   1      -0.853   2.319   2.713  0.00  0.00     0.033 A 
ATOM      6  C6  UNL d   1      -1.976   3.044   2.303  0.00  0.00    -0.057 A 
ENDROOT
BRANCH   1   7
ATOM      7  N   UNL d   1      -3.015   4.884   1.155  0.00  0.00    -0.732 N 
ATOM      8  C   UNL d   1      -3.402   5.998   1.994  0.00  0.00     0.284 C 
ATOM      9  H3  UNL d   1      -3.130   5.055   0.158  0.00  0.00     0.395 HD
ENDBRANCH   1   7
TORSDOF 1
ENDMDL
