MODEL 1
REMARK minimizedAffinity 9.48728848
REMARK minimizedRMSD -1
REMARK  0 active torsions:
REMARK  status: ('A' for Active; 'I' for Inactive)
ROOT
ATOM      1  C2' OXE d   1       1.488   0.210   0.877  0.00  0.00     0.078 C 
ATOM      2  C1' OXE d   1      -0.103  -1.974   0.115  0.00  0.00     0.078 C 
ATOM      3  C1  OXE d   1       0.667  -2.081   1.407  0.00  0.00    -0.078 A 
ATOM      4  C2  OXE d   1       1.479  -1.027   1.749  0.00  0.00    -0.078 A 
ATOM      5  C3  OXE d   1       2.169  -1.051   2.958  0.00  0.00     0.003 A 
ATOM      6  C4  OXE d   1       2.163  -2.203   3.754  0.00  0.00    -0.002 A 
ATOM      7  C5  OXE d   1       1.374  -3.304   3.404  0.00  0.00    -0.002 A 
ATOM      8  C6  OXE d   1       0.588  -3.243   2.258  0.00  0.00     0.003 A 
ENDROOT
TORSDOF 0
ENDMDL
