MODEL 1
REMARK minimizedAffinity 0.0706871226
REMARK minimizedRMSD -1
REMARK  0 active torsions:
REMARK  status: ('A' for Active; 'I' for Inactive)
ROOT
ATOM      1  C2' OXE d   1       1.130  -3.367   2.907  0.00  0.00     0.078 C 
ATOM      2  C1' OXE d   1       2.267  -5.137   1.048  0.00  0.00     0.078 C 
ATOM      3  C1  OXE d   1       1.307  -4.094   0.531  0.00  0.00    -0.078 A 
ATOM      4  C2  OXE d   1       0.719  -3.263   1.454  0.00  0.00    -0.078 A 
ATOM      5  C3  OXE d   1      -0.132  -2.248   1.025  0.00  0.00     0.003 A 
ATOM      6  C4  OXE d   1      -0.514  -2.166  -0.320  0.00  0.00    -0.002 A 
ATOM      7  C5  OXE d   1       0.042  -3.028  -1.270  0.00  0.00    -0.002 A 
ATOM      8  C6  OXE d   1       0.984  -3.969  -0.868  0.00  0.00     0.003 A 
ENDROOT
TORSDOF 0
ENDMDL
