MODEL 1
REMARK minimizedAffinity 5.6930232
REMARK minimizedRMSD -1
REMARK  0 active torsions:
REMARK  status: ('A' for Active; 'I' for Inactive)
ROOT
ATOM      1  C2' OXE d   1       0.077  -1.587   0.740  0.00  0.00     0.078 C 
ATOM      2  C1' OXE d   1       2.257   0.021   1.473  0.00  0.00     0.078 C 
ATOM      3  C1  OXE d   1       2.013  -1.237   2.268  0.00  0.00    -0.078 A 
ATOM      4  C2  OXE d   1       0.916  -1.994   1.932  0.00  0.00    -0.078 A 
ATOM      5  C3  OXE d   1       0.676  -3.193   2.597  0.00  0.00     0.003 A 
ATOM      6  C4  OXE d   1       1.451  -3.556   3.705  0.00  0.00    -0.002 A 
ATOM      7  C5  OXE d   1       2.549  -2.779   4.089  0.00  0.00    -0.002 A 
ATOM      8  C6  OXE d   1       2.868  -1.642   3.356  0.00  0.00     0.003 A 
ENDROOT
TORSDOF 0
ENDMDL
