MODEL 1
REMARK minimizedAffinity 8.22109604
REMARK minimizedRMSD -1
REMARK  0 active torsions:
REMARK  status: ('A' for Active; 'I' for Inactive)
ROOT
ATOM      1  C2' OXE d   1       0.901  -4.392  -2.148  0.00  0.00     0.078 C 
ATOM      2  C1' OXE d   1       1.946  -5.235   0.317  0.00  0.00     0.078 C 
ATOM      3  C1  OXE d   1       1.075  -4.004   0.306  0.00  0.00    -0.078 A 
ATOM      4  C2  OXE d   1       0.607  -3.571  -0.911  0.00  0.00    -0.078 A 
ATOM      5  C3  OXE d   1      -0.246  -2.472  -0.970  0.00  0.00     0.003 A 
ATOM      6  C4  OXE d   1      -0.505  -1.713   0.177  0.00  0.00    -0.002 A 
ATOM      7  C5  OXE d   1      -0.005  -2.114   1.421  0.00  0.00    -0.002 A 
ATOM      8  C6  OXE d   1       0.750  -3.278   1.509  0.00  0.00     0.003 A 
ENDROOT
TORSDOF 0
ENDMDL
