MODEL 1
REMARK minimizedAffinity 11.6297846
REMARK minimizedRMSD -1
REMARK  0 active torsions:
REMARK  status: ('A' for Active; 'I' for Inactive)
ROOT
ATOM      1  C2' OXE d   1      -1.181   3.518   1.302  0.00  0.00     0.078 C 
ATOM      2  C1' OXE d   1      -1.893   4.516  -1.223  0.00  0.00     0.078 C 
ATOM      3  C1  OXE d   1      -3.004   4.200  -0.253  0.00  0.00    -0.078 A 
ATOM      4  C2  OXE d   1      -2.648   3.668   0.963  0.00  0.00    -0.078 A 
ATOM      5  C3  OXE d   1      -3.630   3.409   1.916  0.00  0.00     0.003 A 
ATOM      6  C4  OXE d   1      -4.985   3.542   1.591  0.00  0.00    -0.002 A 
ATOM      7  C5  OXE d   1      -5.371   4.044   0.343  0.00  0.00    -0.002 A 
ATOM      8  C6  OXE d   1      -4.393   4.418  -0.572  0.00  0.00     0.003 A 
ENDROOT
TORSDOF 0
ENDMDL
