MODEL 1
REMARK minimizedAffinity 4.3384347
REMARK minimizedRMSD -1
REMARK  0 active torsions:
REMARK  status: ('A' for Active; 'I' for Inactive)
ROOT
ATOM      1  C2' OXE d   1       1.812  -1.934   3.375  0.00  0.00     0.078 C 
ATOM      2  C1' OXE d   1       3.672  -1.114   1.439  0.00  0.00     0.078 C 
ATOM      3  C1  OXE d   1       4.188  -1.883   2.629  0.00  0.00    -0.078 A 
ATOM      4  C2  OXE d   1       3.277  -2.240   3.594  0.00  0.00    -0.078 A 
ATOM      5  C3  OXE d   1       3.692  -2.998   4.686  0.00  0.00     0.003 A 
ATOM      6  C4  OXE d   1       5.051  -3.268   4.887  0.00  0.00    -0.002 A 
ATOM      7  C5  OXE d   1       6.000  -2.879   3.935  0.00  0.00    -0.002 A 
ATOM      8  C6  OXE d   1       5.580  -2.225   2.782  0.00  0.00     0.003 A 
ENDROOT
TORSDOF 0
ENDMDL
