MODEL 1
REMARK minimizedAffinity 1.61697948
REMARK minimizedRMSD -1
REMARK  0 active torsions:
REMARK  status: ('A' for Active; 'I' for Inactive)
ROOT
ATOM      1  C2' OXE d   1       2.141  -0.912   3.254  0.00  0.00     0.078 C 
ATOM      2  C1' OXE d   1       0.232  -1.632   1.326  0.00  0.00     0.078 C 
ATOM      3  C1  OXE d   1       0.952  -0.319   1.147  0.00  0.00    -0.078 A 
ATOM      4  C2  OXE d   1       1.851   0.047   2.120  0.00  0.00    -0.078 A 
ATOM      5  C3  OXE d   1       2.582   1.223   1.976  0.00  0.00     0.003 A 
ATOM      6  C4  OXE d   1       2.301   2.109   0.930  0.00  0.00    -0.002 A 
ATOM      7  C5  OXE d   1       1.361   1.775  -0.050  0.00  0.00    -0.002 A 
ATOM      8  C6  OXE d   1       0.710   0.548   0.020  0.00  0.00     0.003 A 
ENDROOT
TORSDOF 0
ENDMDL
