MODEL 1
REMARK minimizedAffinity -0.712840617
REMARK minimizedRMSD -1
REMARK  0 active torsions:
REMARK  status: ('A' for Active; 'I' for Inactive)
ROOT
ATOM      1  C2' OXE d   1       0.772   1.674  -0.474  0.00  0.00     0.078 C 
ATOM      2  C1' OXE d   1       0.202  -0.924   0.425  0.00  0.00     0.078 C 
ATOM      3  C1  OXE d   1       1.180  -0.101   1.226  0.00  0.00    -0.078 A 
ATOM      4  C2  OXE d   1       1.489   1.151   0.753  0.00  0.00    -0.078 A 
ATOM      5  C3  OXE d   1       2.343   1.973   1.482  0.00  0.00     0.003 A 
ATOM      6  C4  OXE d   1       3.010   1.478   2.610  0.00  0.00    -0.002 A 
ATOM      7  C5  OXE d   1       2.740   0.191   3.086  0.00  0.00    -0.002 A 
ATOM      8  C6  OXE d   1       1.798  -0.595   2.432  0.00  0.00     0.003 A 
ENDROOT
TORSDOF 0
ENDMDL
