MODEL 1
REMARK minimizedAffinity -1.88234711
REMARK minimizedRMSD -1
REMARK  0 active torsions:
REMARK  status: ('A' for Active; 'I' for Inactive)
ROOT
ATOM      1  C2' OXE d   1       0.734  -1.256   2.057  0.00  0.00     0.078 C 
ATOM      2  C1' OXE d   1      -1.635  -0.344   0.860  0.00  0.00     0.078 C 
ATOM      3  C1  OXE d   1      -1.024  -1.617   0.330  0.00  0.00    -0.078 A 
ATOM      4  C2  OXE d   1       0.160  -2.031   0.891  0.00  0.00    -0.078 A 
ATOM      5  C3  OXE d   1       0.738  -3.227   0.477  0.00  0.00     0.003 A 
ATOM      6  C4  OXE d   1       0.206  -3.933  -0.610  0.00  0.00    -0.002 A 
ATOM      7  C5  OXE d   1      -0.978  -3.508  -1.221  0.00  0.00    -0.002 A 
ATOM      8  C6  OXE d   1      -1.627  -2.378  -0.736  0.00  0.00     0.003 A 
ENDROOT
TORSDOF 0
ENDMDL
