MODEL 1
REMARK minimizedAffinity -2.66735029
REMARK minimizedRMSD -1
REMARK  1 active torsions:
REMARK  status: ('A' for Active; 'I' for Inactive)
REMARK    1  A    between atoms: C3_4  and  O_7 
ROOT
ATOM      1  C   UNL d   1       1.699  -2.395  -1.198  0.00  0.00    -0.033 A 
ATOM      2  C1  UNL d   1       2.545  -1.461  -1.800  0.00  0.00     0.039 A 
ATOM      3  C2  UNL d   1       2.334  -0.095  -1.601  0.00  0.00    -0.080 A 
ATOM      4  C3  UNL d   1       1.277   0.323  -0.798  0.00  0.00     0.150 A 
ATOM      5  C4  UNL d   1       0.433  -0.602  -0.192  0.00  0.00    -0.007 A 
ATOM      6  C5  UNL d   1       0.644  -1.965  -0.393  0.00  0.00     0.039 A 
ENDROOT
BRANCH   4   7
ATOM      7  O   UNL d   1       1.029   1.645  -0.578  0.00  0.00    -0.526 OA
ATOM      8  H5  UNL d   1       1.674   2.167  -1.083  0.00  0.00     0.418 HD
ENDBRANCH   4   7
TORSDOF 1
ENDMDL
