MODEL 1
REMARK minimizedAffinity -3.41554141
REMARK minimizedRMSD -1
REMARK  1 active torsions:
REMARK  status: ('A' for Active; 'I' for Inactive)
REMARK    1  A    between atoms: C3_4  and  O_7 
ROOT
ATOM      1  C   UNL d   1       1.047   1.517  -0.642  0.00  0.00    -0.033 A 
ATOM      2  C1  UNL d   1       1.958   0.815  -1.434  0.00  0.00     0.039 A 
ATOM      3  C2  UNL d   1       2.022  -0.578  -1.360  0.00  0.00    -0.080 A 
ATOM      4  C3  UNL d   1       1.169  -1.256  -0.494  0.00  0.00     0.150 A 
ATOM      5  C4  UNL d   1       0.256  -0.564   0.294  0.00  0.00    -0.007 A 
ATOM      6  C5  UNL d   1       0.194   0.827   0.221  0.00  0.00     0.039 A 
ENDROOT
BRANCH   4   7
ATOM      7  O   UNL d   1       1.198  -2.614  -0.384  0.00  0.00    -0.526 OA
ATOM      8  H5  UNL d   1       1.897  -2.955  -0.966  0.00  0.00     0.418 HD
ENDBRANCH   4   7
TORSDOF 1
ENDMDL
