MODEL 1
REMARK minimizedAffinity -4.72717905
REMARK minimizedRMSD -1
REMARK  1 active torsions:
REMARK  status: ('A' for Active; 'I' for Inactive)
REMARK    1  A    between atoms: C3_4  and  O_7 
ROOT
ATOM      1  C   UNL d   1       1.901  -0.451  -2.569  0.00  0.00    -0.033 A 
ATOM      2  C1  UNL d   1       1.462   0.627  -1.797  0.00  0.00     0.039 A 
ATOM      3  C2  UNL d   1       0.644   0.405  -0.686  0.00  0.00    -0.080 A 
ATOM      4  C3  UNL d   1       0.275  -0.897  -0.359  0.00  0.00     0.150 A 
ATOM      5  C4  UNL d   1       0.712  -1.975  -1.121  0.00  0.00    -0.007 A 
ATOM      6  C5  UNL d   1       1.527  -1.752  -2.230  0.00  0.00     0.039 A 
ENDROOT
BRANCH   4   7
ATOM      7  O   UNL d   1      -0.525  -1.162   0.713  0.00  0.00    -0.526 OA
ATOM      8  H5  UNL d   1      -0.773  -0.319   1.128  0.00  0.00     0.418 HD
ENDBRANCH   4   7
TORSDOF 1
ENDMDL
