MODEL 1
REMARK minimizedAffinity -2.81421256
REMARK minimizedRMSD -1
REMARK  1 active torsions:
REMARK  status: ('A' for Active; 'I' for Inactive)
REMARK    1  A    between atoms: C3_4  and  O_7 
ROOT
ATOM      1  C   UNL d   1       0.490   1.399  -0.031  0.00  0.00    -0.033 A 
ATOM      2  C1  UNL d   1       1.481   0.978  -0.920  0.00  0.00     0.039 A 
ATOM      3  C2  UNL d   1       1.739  -0.384  -1.087  0.00  0.00    -0.080 A 
ATOM      4  C3  UNL d   1       1.000  -1.314  -0.360  0.00  0.00     0.150 A 
ATOM      5  C4  UNL d   1       0.009  -0.902   0.524  0.00  0.00    -0.007 A 
ATOM      6  C5  UNL d   1      -0.247   0.459   0.690  0.00  0.00     0.039 A 
ENDROOT
BRANCH   4   7
ATOM      7  O   UNL d   1       1.219  -2.653  -0.486  0.00  0.00    -0.526 OA
ATOM      8  H5  UNL d   1       1.952  -2.788  -1.110  0.00  0.00     0.418 HD
ENDBRANCH   4   7
TORSDOF 1
ENDMDL
