MODEL 1
REMARK minimizedAffinity 2.79391932
REMARK minimizedRMSD -1
REMARK  1 active torsions:
REMARK  status: ('A' for Active; 'I' for Inactive)
REMARK    1  A    between atoms: C3_4  and  O_7 
ROOT
ATOM      1  C   UNL d   1      -5.672   3.321  -5.355  0.00  0.00    -0.033 A 
ATOM      2  C1  UNL d   1      -5.957   4.644  -5.699  0.00  0.00     0.039 A 
ATOM      3  C2  UNL d   1      -4.917   5.552  -5.911  0.00  0.00    -0.080 A 
ATOM      4  C3  UNL d   1      -3.599   5.124  -5.777  0.00  0.00     0.150 A 
ATOM      5  C4  UNL d   1      -3.308   3.806  -5.439  0.00  0.00    -0.007 A 
ATOM      6  C5  UNL d   1      -4.348   2.902  -5.226  0.00  0.00     0.039 A 
ENDROOT
BRANCH   4   7
ATOM      7  O   UNL d   1      -2.551   5.974  -5.969  0.00  0.00    -0.526 OA
ATOM      8  H5  UNL d   1      -2.903   6.857  -6.169  0.00  0.00     0.418 HD
ENDBRANCH   4   7
TORSDOF 1
ENDMDL
