MODEL 1
REMARK minimizedAffinity -2.31794524
REMARK minimizedRMSD -1
REMARK  1 active torsions:
REMARK  status: ('A' for Active; 'I' for Inactive)
REMARK    1  A    between atoms: C3_4  and  O_7 
ROOT
ATOM      1  C   UNL d   1       1.068   0.575  -0.008  0.00  0.00    -0.033 A 
ATOM      2  C1  UNL d   1       0.147   1.095  -0.920  0.00  0.00     0.039 A 
ATOM      3  C2  UNL d   1      -1.221   0.893  -0.726  0.00  0.00    -0.080 A 
ATOM      4  C3  UNL d   1      -1.654   0.171   0.383  0.00  0.00     0.150 A 
ATOM      5  C4  UNL d   1      -0.742  -0.347   1.297  0.00  0.00    -0.007 A 
ATOM      6  C5  UNL d   1       0.623  -0.145   1.101  0.00  0.00     0.039 A 
ENDROOT
BRANCH   4   7
ATOM      7  O   UNL d   1      -2.978  -0.057   0.612  0.00  0.00    -0.526 OA
ATOM      8  H5  UNL d   1      -3.488   0.335  -0.117  0.00  0.00     0.418 HD
ENDBRANCH   4   7
TORSDOF 1
ENDMDL
