MODEL 1
REMARK minimizedAffinity -3.25776649
REMARK minimizedRMSD -1
REMARK  1 active torsions:
REMARK  status: ('A' for Active; 'I' for Inactive)
REMARK    1  A    between atoms: C3_4  and  O_7 
ROOT
ATOM      1  C   UNL d   1       1.802   0.283  -1.755  0.00  0.00    -0.033 A 
ATOM      2  C1  UNL d   1       1.565   1.471  -1.061  0.00  0.00     0.039 A 
ATOM      3  C2  UNL d   1       0.646   1.496  -0.010  0.00  0.00    -0.080 A 
ATOM      4  C3  UNL d   1      -0.027   0.328   0.338  0.00  0.00     0.150 A 
ATOM      5  C4  UNL d   1       0.207  -0.860  -0.347  0.00  0.00    -0.007 A 
ATOM      6  C5  UNL d   1       1.124  -0.883  -1.397  0.00  0.00     0.039 A 
ENDROOT
BRANCH   4   7
ATOM      7  O   UNL d   1      -0.935   0.305   1.353  0.00  0.00    -0.526 OA
ATOM      8  H5  UNL d   1      -1.015   1.203   1.716  0.00  0.00     0.418 HD
ENDBRANCH   4   7
TORSDOF 1
ENDMDL
