MODEL 1
REMARK minimizedAffinity -2.96281958
REMARK minimizedRMSD -1
REMARK  1 active torsions:
REMARK  status: ('A' for Active; 'I' for Inactive)
REMARK    1  A    between atoms: C3_4  and  O_7 
ROOT
ATOM      1  C   UNL d   1      -4.142   0.595   2.107  0.00  0.00    -0.033 A 
ATOM      2  C1  UNL d   1      -3.189   1.350   2.794  0.00  0.00     0.039 A 
ATOM      3  C2  UNL d   1      -1.851   1.315   2.397  0.00  0.00    -0.080 A 
ATOM      4  C3  UNL d   1      -1.480   0.524   1.313  0.00  0.00     0.150 A 
ATOM      5  C4  UNL d   1      -2.425  -0.227   0.622  0.00  0.00    -0.007 A 
ATOM      6  C5  UNL d   1      -3.760  -0.192   1.020  0.00  0.00     0.039 A 
ENDROOT
BRANCH   4   7
ATOM      7  O   UNL d   1      -0.185   0.455   0.892  0.00  0.00    -0.526 OA
ATOM      8  H5  UNL d   1       0.360   1.003   1.481  0.00  0.00     0.418 HD
ENDBRANCH   4   7
TORSDOF 1
ENDMDL
