MODEL 1
REMARK minimizedAffinity -3.45412445
REMARK minimizedRMSD -1
REMARK  1 active torsions:
REMARK  status: ('A' for Active; 'I' for Inactive)
REMARK    1  A    between atoms: C3_4  and  O_7 
ROOT
ATOM      1  C   UNL d   1       1.013   0.786  -0.840  0.00  0.00    -0.033 A 
ATOM      2  C1  UNL d   1       2.027   0.401  -1.719  0.00  0.00     0.039 A 
ATOM      3  C2  UNL d   1       2.363  -0.947  -1.854  0.00  0.00    -0.080 A 
ATOM      4  C3  UNL d   1       1.677  -1.900  -1.105  0.00  0.00     0.150 A 
ATOM      5  C4  UNL d   1       0.662  -1.524  -0.231  0.00  0.00    -0.007 A 
ATOM      6  C5  UNL d   1       0.329  -0.177  -0.097  0.00  0.00     0.039 A 
ENDROOT
BRANCH   4   7
ATOM      7  O   UNL d   1       1.972  -3.227  -1.199  0.00  0.00    -0.526 OA
ATOM      8  H5  UNL d   1       2.712  -3.335  -1.820  0.00  0.00     0.418 HD
ENDBRANCH   4   7
TORSDOF 1
ENDMDL
