MODEL 1
REMARK minimizedAffinity -3.59254932
REMARK minimizedRMSD -1
REMARK  1 active torsions:
REMARK  status: ('A' for Active; 'I' for Inactive)
REMARK    1  A    between atoms: C3_4  and  O_7 
ROOT
ATOM      1  C   UNL d   1       2.083  -0.902  -1.664  0.00  0.00    -0.033 A 
ATOM      2  C1  UNL d   1       1.499  -1.954  -0.955  0.00  0.00     0.039 A 
ATOM      3  C2  UNL d   1       0.514  -1.692  -0.000  0.00  0.00    -0.080 A 
ATOM      4  C3  UNL d   1       0.122  -0.377   0.234  0.00  0.00     0.150 A 
ATOM      5  C4  UNL d   1       0.697   0.675  -0.471  0.00  0.00    -0.007 A 
ATOM      6  C5  UNL d   1       1.681   0.412  -1.423  0.00  0.00     0.039 A 
ENDROOT
BRANCH   4   7
ATOM      7  O   UNL d   1      -0.832  -0.072   1.159  0.00  0.00    -0.526 OA
ATOM      8  H5  UNL d   1      -1.118  -0.896   1.589  0.00  0.00     0.418 HD
ENDBRANCH   4   7
TORSDOF 1
ENDMDL
