MODEL 1
REMARK minimizedAffinity -1.50572777
REMARK minimizedRMSD -1
REMARK  1 active torsions:
REMARK  status: ('A' for Active; 'I' for Inactive)
REMARK    1  A    between atoms: C3_4  and  O_7 
ROOT
ATOM      1  C   UNL d   1      -0.381  -1.454   0.763  0.00  0.00    -0.033 A 
ATOM      2  C1  UNL d   1      -0.174  -0.084   0.931  0.00  0.00     0.039 A 
ATOM      3  C2  UNL d   1       0.683   0.605   0.071  0.00  0.00    -0.080 A 
ATOM      4  C3  UNL d   1       1.325  -0.086  -0.953  0.00  0.00     0.150 A 
ATOM      5  C4  UNL d   1       1.120  -1.451  -1.129  0.00  0.00    -0.007 A 
ATOM      6  C5  UNL d   1       0.265  -2.137  -0.268  0.00  0.00     0.039 A 
ENDROOT
BRANCH   4   7
ATOM      7  O   UNL d   1       2.175   0.543  -1.814  0.00  0.00    -0.526 OA
ATOM      8  H5  UNL d   1       2.241   1.476  -1.554  0.00  0.00     0.418 HD
ENDBRANCH   4   7
TORSDOF 1
ENDMDL
