MODEL 1
REMARK minimizedAffinity -2.0016017
REMARK minimizedRMSD -1
REMARK  1 active torsions:
REMARK  status: ('A' for Active; 'I' for Inactive)
REMARK    1  A    between atoms: C3_4  and  O_7 
ROOT
ATOM      1  C   UNL d   1      -4.223   0.911   2.345  0.00  0.00    -0.033 A 
ATOM      2  C1  UNL d   1      -3.085   1.395   2.993  0.00  0.00     0.039 A 
ATOM      3  C2  UNL d   1      -1.816   1.102   2.490  0.00  0.00    -0.080 A 
ATOM      4  C3  UNL d   1      -1.698   0.326   1.340  0.00  0.00     0.150 A 
ATOM      5  C4  UNL d   1      -2.828  -0.156   0.687  0.00  0.00    -0.007 A 
ATOM      6  C5  UNL d   1      -4.095   0.137   1.191  0.00  0.00     0.039 A 
ENDROOT
BRANCH   4   7
ATOM      7  O   UNL d   1      -0.481   0.010   0.815  0.00  0.00    -0.526 OA
ATOM      8  H5  UNL d   1       0.208   0.387   1.387  0.00  0.00     0.418 HD
ENDBRANCH   4   7
TORSDOF 1
ENDMDL
