MODEL 1
REMARK minimizedAffinity -2.09553504
REMARK minimizedRMSD -1
REMARK  1 active torsions:
REMARK  status: ('A' for Active; 'I' for Inactive)
REMARK    1  A    between atoms: C3_4  and  O_7 
ROOT
ATOM      1  C   UNL d   1       2.110   1.208  -2.313  0.00  0.00    -0.033 A 
ATOM      2  C1  UNL d   1       1.877   1.343  -0.943  0.00  0.00     0.039 A 
ATOM      3  C2  UNL d   1       1.630   0.214  -0.159  0.00  0.00    -0.080 A 
ATOM      4  C3  UNL d   1       1.620  -1.043  -0.757  0.00  0.00     0.150 A 
ATOM      5  C4  UNL d   1       1.855  -1.186  -2.121  0.00  0.00    -0.007 A 
ATOM      6  C5  UNL d   1       2.101  -0.057  -2.901  0.00  0.00     0.039 A 
ENDROOT
BRANCH   4   7
ATOM      7  O   UNL d   1       1.379  -2.174  -0.035  0.00  0.00    -0.526 OA
ATOM      8  H5  UNL d   1       1.206  -1.919   0.887  0.00  0.00     0.418 HD
ENDBRANCH   4   7
TORSDOF 1
ENDMDL
