MODEL 1
REMARK minimizedAffinity -2.72738028
REMARK minimizedRMSD -1
REMARK  1 active torsions:
REMARK  status: ('A' for Active; 'I' for Inactive)
REMARK    1  A    between atoms: C3_4  and  O_7 
ROOT
ATOM      1  C   UNL d   1       0.672   0.652  -0.510  0.00  0.00    -0.033 A 
ATOM      2  C1  UNL d   1       0.016   0.469   0.709  0.00  0.00     0.039 A 
ATOM      3  C2  UNL d   1      -0.179  -0.819   1.213  0.00  0.00    -0.080 A 
ATOM      4  C3  UNL d   1       0.287  -1.913   0.489  0.00  0.00     0.150 A 
ATOM      5  C4  UNL d   1       0.945  -1.737  -0.724  0.00  0.00    -0.007 A 
ATOM      6  C5  UNL d   1       1.138  -0.451  -1.225  0.00  0.00     0.039 A 
ENDROOT
BRANCH   4   7
ATOM      7  O   UNL d   1       0.117  -3.189   0.938  0.00  0.00    -0.526 OA
ATOM      8  H5  UNL d   1      -0.379  -3.158   1.773  0.00  0.00     0.418 HD
ENDBRANCH   4   7
TORSDOF 1
ENDMDL
