MODEL 1
REMARK minimizedAffinity 11.1749344
REMARK minimizedRMSD -1
REMARK  1 active torsions:
REMARK  status: ('A' for Active; 'I' for Inactive)
REMARK    1  A    between atoms: C1_2  and  C2_3 
ROOT
ATOM      1  C2  UNL d   1       3.334  -3.291   0.761  0.00  0.00    -0.073 A 
ATOM      2  C3  UNL d   1       4.344  -2.380   1.090  0.00  0.00    -0.002 A 
ATOM      3  C4  UNL d   1       5.670  -2.644   0.747  0.00  0.00     0.004 A 
ATOM      4  C5  UNL d   1       5.999  -3.817   0.067  0.00  0.00    -0.004 A 
ATOM      5  C6  UNL d   1       5.003  -4.733  -0.282  0.00  0.00    -0.075 A 
ATOM      6  C7  UNL d   1       5.340  -6.000  -1.012  0.00  0.00     0.076 C 
ATOM      7  C8  UNL d   1       3.673  -4.462   0.068  0.00  0.00     0.001 A 
ENDROOT
BRANCH   1   8
ATOM      8  C1  UNL d   1       1.899  -3.007   1.123  0.00  0.00     0.053 C 
ATOM      9  C   UNL d   1       1.724  -1.616   1.712  0.00  0.00     0.018 C 
ENDBRANCH   1   8
TORSDOF 1
ENDMDL
