MODEL 1
REMARK minimizedAffinity 12.3394327
REMARK minimizedRMSD -1
REMARK  1 active torsions:
REMARK  status: ('A' for Active; 'I' for Inactive)
REMARK    1  A    between atoms: C1_2  and  C2_3 
ROOT
ATOM      1  C2  UNL d   1       3.991  -4.011   2.476  0.00  0.00    -0.073 A 
ATOM      2  C3  UNL d   1       4.758  -4.285   1.337  0.00  0.00    -0.002 A 
ATOM      3  C4  UNL d   1       4.330  -3.858   0.080  0.00  0.00     0.004 A 
ATOM      4  C5  UNL d   1       3.137  -3.147  -0.052  0.00  0.00    -0.004 A 
ATOM      5  C6  UNL d   1       2.363  -2.853   1.075  0.00  0.00    -0.075 A 
ATOM      6  C7  UNL d   1       1.077  -2.091   0.950  0.00  0.00     0.076 C 
ATOM      7  C8  UNL d   1       2.798  -3.288   2.334  0.00  0.00     0.001 A 
ENDROOT
BRANCH   1   8
ATOM      8  C1  UNL d   1       4.452  -4.465   3.836  0.00  0.00     0.053 C 
ATOM      9  C   UNL d   1       4.586  -3.305   4.809  0.00  0.00     0.018 C 
ENDBRANCH   1   8
TORSDOF 1
ENDMDL
