MODEL 1
REMARK minimizedAffinity 0.52891773
REMARK minimizedRMSD -1
REMARK  1 active torsions:
REMARK  status: ('A' for Active; 'I' for Inactive)
REMARK    1  A    between atoms: C1_2  and  C2_3 
ROOT
ATOM      1  C2  UNL d   1       3.405  -3.054   2.955  0.00  0.00    -0.073 A 
ATOM      2  C3  UNL d   1       3.371  -3.454   1.614  0.00  0.00    -0.002 A 
ATOM      3  C4  UNL d   1       2.368  -2.987   0.764  0.00  0.00     0.004 A 
ATOM      4  C5  UNL d   1       1.394  -2.111   1.242  0.00  0.00    -0.004 A 
ATOM      5  C6  UNL d   1       1.417  -1.690   2.575  0.00  0.00    -0.075 A 
ATOM      6  C7  UNL d   1       0.375  -0.749   3.106  0.00  0.00     0.076 C 
ATOM      7  C8  UNL d   1       2.426  -2.166   3.424  0.00  0.00     0.001 A 
ENDROOT
BRANCH   1   8
ATOM      8  C1  UNL d   1       4.489  -3.550   3.875  0.00  0.00     0.053 C 
ATOM      9  C   UNL d   1       4.834  -2.533   4.951  0.00  0.00     0.018 C 
ENDBRANCH   1   8
TORSDOF 1
ENDMDL
