MODEL 1
REMARK minimizedAffinity -2.09919906
REMARK minimizedRMSD -1
REMARK  1 active torsions:
REMARK  status: ('A' for Active; 'I' for Inactive)
REMARK    1  A    between atoms: C1_2  and  C2_3 
ROOT
ATOM      1  C2  UNL d   1       0.539   3.466   0.841  0.00  0.00    -0.076 A 
ATOM      2  C3  UNL d   1       1.632   4.331   1.022  0.00  0.00     0.004 A 
ATOM      3  C4  UNL d   1       2.850   4.090   0.389  0.00  0.00    -0.003 A 
ATOM      4  C5  UNL d   1       2.995   2.980  -0.436  0.00  0.00     0.000 A 
ATOM      5  C6  UNL d   1       1.916   2.121  -0.641  0.00  0.00     0.000 A 
ATOM      6  C7  UNL d   1       0.676   2.359  -0.023  0.00  0.00    -0.073 A 
ATOM      7  C8  UNL d   1      -0.452   1.396  -0.274  0.00  0.00     0.078 C 
ENDROOT
BRANCH   1   8
ATOM      8  C1  UNL d   1      -0.749   3.764   1.575  0.00  0.00     0.053 C 
ATOM      9  C   UNL d   1      -0.530   4.617   2.814  0.00  0.00     0.018 C 
ENDBRANCH   1   8
TORSDOF 1
ENDMDL
