MODEL 1
REMARK minimizedAffinity -4.9492836
REMARK minimizedRMSD -1
REMARK  1 active torsions:
REMARK  status: ('A' for Active; 'I' for Inactive)
REMARK    1  A    between atoms: C1_2  and  C2_3 
ROOT
ATOM      1  C2  UNL d   1      -1.367  -1.643   0.791  0.00  0.00    -0.076 A 
ATOM      2  C3  UNL d   1      -1.420  -0.247   0.945  0.00  0.00     0.004 A 
ATOM      3  C4  UNL d   1      -0.432   0.573   0.401  0.00  0.00    -0.003 A 
ATOM      4  C5  UNL d   1       0.623   0.009  -0.307  0.00  0.00     0.000 A 
ATOM      5  C6  UNL d   1       0.682  -1.373  -0.485  0.00  0.00     0.000 A 
ATOM      6  C7  UNL d   1      -0.314  -2.212   0.044  0.00  0.00    -0.073 A 
ATOM      7  C8  UNL d   1      -0.197  -3.696  -0.173  0.00  0.00     0.078 C 
ENDROOT
BRANCH   1   8
ATOM      8  C1  UNL d   1      -2.452  -2.483   1.427  0.00  0.00     0.053 C 
ATOM      9  C   UNL d   1      -3.677  -2.624   0.537  0.00  0.00     0.018 C 
ENDBRANCH   1   8
TORSDOF 1
ENDMDL
