MODEL 1
REMARK minimizedAffinity -5.61258841
REMARK minimizedRMSD -1
REMARK  1 active torsions:
REMARK  status: ('A' for Active; 'I' for Inactive)
REMARK    1  A    between atoms: C1_2  and  C2_3 
ROOT
ATOM      1  C2  UNL d   1      -0.188  -0.339   0.249  0.00  0.00    -0.076 A 
ATOM      2  C3  UNL d   1       0.928  -1.115  -0.111  0.00  0.00     0.004 A 
ATOM      3  C4  UNL d   1       0.949  -2.490   0.115  0.00  0.00    -0.003 A 
ATOM      4  C5  UNL d   1      -0.146  -3.112   0.705  0.00  0.00     0.000 A 
ATOM      5  C6  UNL d   1      -1.268  -2.361   1.051  0.00  0.00     0.000 A 
ATOM      6  C7  UNL d   1      -1.313  -0.977   0.815  0.00  0.00    -0.073 A 
ATOM      7  C8  UNL d   1      -2.546  -0.215   1.215  0.00  0.00     0.078 C 
ENDROOT
BRANCH   1   8
ATOM      8  C1  UNL d   1      -0.143   1.152   0.004  0.00  0.00     0.053 C 
ATOM      9  C   UNL d   1       1.272   1.707   0.046  0.00  0.00     0.018 C 
ENDBRANCH   1   8
TORSDOF 1
ENDMDL
