MODEL 1
REMARK minimizedAffinity -3.2780757
REMARK minimizedRMSD -1
REMARK  1 active torsions:
REMARK  status: ('A' for Active; 'I' for Inactive)
REMARK    1  A    between atoms: C1_2  and  C2_3 
ROOT
ATOM      1  C2  UNL d   1      -0.266  -0.244   0.013  0.00  0.00    -0.076 A 
ATOM      2  C3  UNL d   1      -1.342  -0.147   0.913  0.00  0.00     0.004 A 
ATOM      3  C4  UNL d   1      -2.007  -1.286   1.361  0.00  0.00    -0.003 A 
ATOM      4  C5  UNL d   1      -1.608  -2.542   0.917  0.00  0.00     0.000 A 
ATOM      5  C6  UNL d   1      -0.531  -2.658   0.038  0.00  0.00     0.000 A 
ATOM      6  C7  UNL d   1       0.162  -1.520  -0.410  0.00  0.00    -0.073 A 
ATOM      7  C8  UNL d   1       1.312  -1.704  -1.362  0.00  0.00     0.078 C 
ENDROOT
BRANCH   1   8
ATOM      8  C1  UNL d   1       0.401   1.029  -0.459  0.00  0.00     0.053 C 
ATOM      9  C   UNL d   1       1.218   1.699   0.635  0.00  0.00     0.018 C 
ENDBRANCH   1   8
TORSDOF 1
ENDMDL
