MODEL 1
REMARK minimizedAffinity -4.86400318
REMARK minimizedRMSD -1
REMARK  1 active torsions:
REMARK  status: ('A' for Active; 'I' for Inactive)
REMARK    1  A    between atoms: C1_2  and  C2_3 
ROOT
ATOM      1  C2  UNL d   1      -0.952  -1.231   1.151  0.00  0.00    -0.076 A 
ATOM      2  C3  UNL d   1      -1.237  -2.600   1.002  0.00  0.00     0.004 A 
ATOM      3  C4  UNL d   1      -0.562  -3.374   0.060  0.00  0.00    -0.003 A 
ATOM      4  C5  UNL d   1       0.408  -2.793  -0.749  0.00  0.00     0.000 A 
ATOM      5  C6  UNL d   1       0.716  -1.441  -0.602  0.00  0.00     0.000 A 
ATOM      6  C7  UNL d   1       0.057  -0.649   0.354  0.00  0.00    -0.073 A 
ATOM      7  C8  UNL d   1       0.425   0.805   0.465  0.00  0.00     0.078 C 
ENDROOT
BRANCH   1   8
ATOM      8  C1  UNL d   1      -1.734  -0.436   2.171  0.00  0.00     0.053 C 
ATOM      9  C   UNL d   1      -1.950  -1.202   3.467  0.00  0.00     0.018 C 
ENDBRANCH   1   8
TORSDOF 1
ENDMDL
