MODEL 1
REMARK minimizedAffinity -4.08324623
REMARK minimizedRMSD -1
REMARK  1 active torsions:
REMARK  status: ('A' for Active; 'I' for Inactive)
REMARK    1  A    between atoms: C1_2  and  C2_3 
ROOT
ATOM      1  C2  UNL d   1       0.169  -1.043   0.132  0.00  0.00    -0.076 A 
ATOM      2  C3  UNL d   1       0.081  -0.170   1.230  0.00  0.00     0.004 A 
ATOM      3  C4  UNL d   1       0.384   1.184   1.097  0.00  0.00    -0.003 A 
ATOM      4  C5  UNL d   1       0.779   1.687  -0.138  0.00  0.00     0.000 A 
ATOM      5  C6  UNL d   1       0.855   0.839  -1.242  0.00  0.00     0.000 A 
ATOM      6  C7  UNL d   1       0.537  -0.525  -1.128  0.00  0.00    -0.073 A 
ATOM      7  C8  UNL d   1       0.641  -1.395  -2.351  0.00  0.00     0.078 C 
ENDROOT
BRANCH   1   8
ATOM      8  C1  UNL d   1      -0.146  -2.506   0.344  0.00  0.00     0.053 C 
ATOM      9  C   UNL d   1      -1.629  -2.756   0.573  0.00  0.00     0.018 C 
ENDBRANCH   1   8
TORSDOF 1
ENDMDL
