MODEL 1
REMARK minimizedAffinity -3.38160491
REMARK minimizedRMSD -1
REMARK  1 active torsions:
REMARK  status: ('A' for Active; 'I' for Inactive)
REMARK    1  A    between atoms: C1_2  and  C2_3 
ROOT
ATOM      1  C2  UNL d   1      -0.032  -0.310   0.142  0.00  0.00    -0.076 A 
ATOM      2  C3  UNL d   1      -1.035  -0.405   1.123  0.00  0.00     0.004 A 
ATOM      3  C4  UNL d   1      -1.454  -1.645   1.602  0.00  0.00    -0.003 A 
ATOM      4  C5  UNL d   1      -0.876  -2.810   1.109  0.00  0.00     0.000 A 
ATOM      5  C6  UNL d   1       0.133  -2.733   0.149  0.00  0.00     0.000 A 
ATOM      6  C7  UNL d   1       0.578  -1.490  -0.333  0.00  0.00    -0.073 A 
ATOM      7  C8  UNL d   1       1.664  -1.466  -1.373  0.00  0.00     0.078 C 
ENDROOT
BRANCH   1   8
ATOM      8  C1  UNL d   1       0.362   1.061  -0.359  0.00  0.00     0.053 C 
ATOM      9  C   UNL d   1       1.403   1.729   0.526  0.00  0.00     0.018 C 
ENDBRANCH   1   8
TORSDOF 1
ENDMDL
