MODEL 1
REMARK minimizedAffinity -1.45513594
REMARK minimizedRMSD -1
REMARK  1 active torsions:
REMARK  status: ('A' for Active; 'I' for Inactive)
REMARK    1  A    between atoms: C1_2  and  C2_3 
ROOT
ATOM      1  C2  UNL d   1      -1.172  -1.935   0.990  0.00  0.00    -0.076 A 
ATOM      2  C3  UNL d   1      -0.201  -2.939   1.147  0.00  0.00     0.004 A 
ATOM      3  C4  UNL d   1       1.065  -2.807   0.578  0.00  0.00    -0.003 A 
ATOM      4  C5  UNL d   1       1.380  -1.669  -0.156  0.00  0.00     0.000 A 
ATOM      5  C6  UNL d   1       0.435  -0.655  -0.307  0.00  0.00     0.000 A 
ATOM      6  C7  UNL d   1      -0.841  -0.765   0.274  0.00  0.00    -0.073 A 
ATOM      7  C8  UNL d   1      -1.823   0.357   0.075  0.00  0.00     0.078 C 
ENDROOT
BRANCH   1   8
ATOM      8  C1  UNL d   1      -2.537  -2.144   1.607  0.00  0.00     0.053 C 
ATOM      9  C   UNL d   1      -2.623  -1.606   3.027  0.00  0.00     0.018 C 
ENDBRANCH   1   8
TORSDOF 1
ENDMDL
