MODEL 1
REMARK minimizedAffinity -4.32397461
REMARK minimizedRMSD -1
REMARK  1 active torsions:
REMARK  status: ('A' for Active; 'I' for Inactive)
REMARK    1  A    between atoms: C1_2  and  C2_3 
ROOT
ATOM      1  C2  UNL d   1      -0.020  -0.552   0.064  0.00  0.00    -0.076 A 
ATOM      2  C3  UNL d   1       1.025  -1.318  -0.481  0.00  0.00     0.004 A 
ATOM      3  C4  UNL d   1       1.146  -2.676  -0.191  0.00  0.00    -0.003 A 
ATOM      4  C5  UNL d   1       0.224  -3.291   0.649  0.00  0.00     0.000 A 
ATOM      5  C6  UNL d   1      -0.830  -2.550   1.184  0.00  0.00     0.000 A 
ATOM      6  C7  UNL d   1      -0.976  -1.184   0.888  0.00  0.00    -0.073 A 
ATOM      7  C8  UNL d   1      -2.128  -0.433   1.498  0.00  0.00     0.078 C 
ENDROOT
BRANCH   1   8
ATOM      8  C1  UNL d   1      -0.086   0.922  -0.265  0.00  0.00     0.053 C 
ATOM      9  C   UNL d   1       0.100   1.197  -1.749  0.00  0.00     0.018 C 
ENDBRANCH   1   8
TORSDOF 1
ENDMDL
