MODEL 1
REMARK minimizedAffinity 21.9151573
REMARK minimizedRMSD -1
REMARK  2 active torsions:
REMARK  status: ('A' for Active; 'I' for Inactive)
REMARK    1  A    between atoms: C2'_3  and  C1'_4 
REMARK    2  A    between atoms: C1'_4  and  C1_5 
ROOT
ATOM      1  C1  I4B d   1      -0.113  -2.105   2.320  0.00  0.00    -0.075 A 
ATOM      2  C2  I4B d   1      -0.144  -0.840   2.854  0.00  0.00     0.003 A 
ATOM      3  C3  I4B d   1      -1.294  -0.029   2.698  0.00  0.00     0.002 A 
ATOM      4  C4  I4B d   1      -2.363  -0.499   1.962  0.00  0.00    -0.004 A 
ATOM      5  C5  I4B d   1      -2.338  -1.789   1.441  0.00  0.00     0.002 A 
ATOM      6  C6  I4B d   1      -1.212  -2.602   1.632  0.00  0.00     0.003 A 
ENDROOT
BRANCH   1   7
ATOM      7  C1' I4B d   1       1.130  -2.922   2.475  0.00  0.00     0.060 C 
BRANCH   7   8
ATOM      8  C2' I4B d   1       1.833  -2.467   3.738  0.00  0.00    -0.013 C 
ATOM      9  C4' I4B d   1       1.963  -3.596   4.727  0.00  0.00     0.013 C 
ATOM     10  C3' I4B d   1       3.178  -1.929   3.351  0.00  0.00     0.013 C 
ENDBRANCH   7   8
ENDBRANCH   1   7
TORSDOF 2
ENDMDL
