MODEL 1
REMARK minimizedAffinity 6.38771772
REMARK minimizedRMSD -1
REMARK  2 active torsions:
REMARK  status: ('A' for Active; 'I' for Inactive)
REMARK    1  A    between atoms: C2'_3  and  C1'_4 
REMARK    2  A    between atoms: C1'_4  and  C1_5 
ROOT
ATOM      1  C1  I4B d   1       3.601   2.851   0.956  0.00  0.00    -0.075 A 
ATOM      2  C2  I4B d   1       4.559   2.649  -0.006  0.00  0.00     0.003 A 
ATOM      3  C3  I4B d   1       5.790   3.347   0.056  0.00  0.00     0.002 A 
ATOM      4  C4  I4B d   1       5.999   4.268   1.062  0.00  0.00    -0.004 A 
ATOM      5  C5  I4B d   1       5.036   4.454   2.050  0.00  0.00     0.002 A 
ATOM      6  C6  I4B d   1       3.834   3.732   2.004  0.00  0.00     0.003 A 
ENDROOT
BRANCH   1   7
ATOM      7  C1' I4B d   1       2.300   2.122   0.842  0.00  0.00     0.060 C 
BRANCH   7   8
ATOM      8  C2' I4B d   1       2.598   0.699   0.414  0.00  0.00    -0.013 C 
ATOM      9  C4' I4B d   1       1.941  -0.296   1.335  0.00  0.00     0.013 C 
ATOM     10  C3' I4B d   1       2.120   0.529  -0.997  0.00  0.00     0.013 C 
ENDBRANCH   7   8
ENDBRANCH   1   7
TORSDOF 2
ENDMDL
