MODEL 1
REMARK minimizedAffinity 11.4303837
REMARK minimizedRMSD -1
REMARK  2 active torsions:
REMARK  status: ('A' for Active; 'I' for Inactive)
REMARK    1  A    between atoms: C2'_3  and  C1'_4 
REMARK    2  A    between atoms: C1'_4  and  C1_5 
ROOT
ATOM      1  C1  I4B d   1       3.412   3.361  -3.641  0.00  0.00    -0.075 A 
ATOM      2  C2  I4B d   1       3.651   2.977  -4.937  0.00  0.00     0.003 A 
ATOM      3  C3  I4B d   1       4.895   3.265  -5.548  0.00  0.00     0.002 A 
ATOM      4  C4  I4B d   1       5.847   3.978  -4.849  0.00  0.00    -0.004 A 
ATOM      5  C5  I4B d   1       5.612   4.347  -3.527  0.00  0.00     0.002 A 
ATOM      6  C6  I4B d   1       4.392   4.026  -2.915  0.00  0.00     0.003 A 
ENDROOT
BRANCH   1   7
ATOM      7  C1' I4B d   1       2.075   3.069  -3.037  0.00  0.00     0.060 C 
BRANCH   7   8
ATOM      8  C2' I4B d   1       1.119   4.162  -3.470  0.00  0.00    -0.013 C 
ATOM      9  C4' I4B d   1      -0.160   3.584  -4.014  0.00  0.00     0.013 C 
ATOM     10  C3' I4B d   1       0.855   5.043  -2.285  0.00  0.00     0.013 C 
ENDBRANCH   7   8
ENDBRANCH   1   7
TORSDOF 2
ENDMDL
