MODEL 1
REMARK minimizedAffinity 17.7317696
REMARK minimizedRMSD -1
REMARK  2 active torsions:
REMARK  status: ('A' for Active; 'I' for Inactive)
REMARK    1  A    between atoms: C2'_3  and  C1'_4 
REMARK    2  A    between atoms: C1'_4  and  C1_5 
ROOT
ATOM      1  C1  I4B d   1       0.204  -0.981   2.048  0.00  0.00    -0.075 A 
ATOM      2  C2  I4B d   1      -0.579  -1.882   1.369  0.00  0.00     0.003 A 
ATOM      3  C3  I4B d   1      -1.986  -1.863   1.527  0.00  0.00     0.002 A 
ATOM      4  C4  I4B d   1      -2.560  -0.967   2.406  0.00  0.00    -0.004 A 
ATOM      5  C5  I4B d   1      -1.766  -0.040   3.075  0.00  0.00     0.002 A 
ATOM      6  C6  I4B d   1      -0.377  -0.039   2.886  0.00  0.00     0.003 A 
ENDROOT
BRANCH   1   7
ATOM      7  C1' I4B d   1       1.689  -1.050   1.883  0.00  0.00     0.060 C 
BRANCH   7   8
ATOM      8  C2' I4B d   1       2.183   0.335   1.520  0.00  0.00    -0.013 C 
ATOM      9  C4' I4B d   1       3.475   0.656   2.226  0.00  0.00     0.013 C 
ATOM     10  C3' I4B d   1       2.351   0.392   0.031  0.00  0.00     0.013 C 
ENDBRANCH   7   8
ENDBRANCH   1   7
TORSDOF 2
ENDMDL
