MODEL 1
REMARK minimizedAffinity 20.5516357
REMARK minimizedRMSD -1
REMARK  2 active torsions:
REMARK  status: ('A' for Active; 'I' for Inactive)
REMARK    1  A    between atoms: C2'_3  and  C1'_4 
REMARK    2  A    between atoms: C1'_4  and  C1_5 
ROOT
ATOM      1  C1  I4B d   1      -4.292   3.203   5.415  0.00  0.00    -0.075 A 
ATOM      2  C2  I4B d   1      -5.470   3.438   4.752  0.00  0.00     0.003 A 
ATOM      3  C3  I4B d   1      -5.991   4.753   4.667  0.00  0.00     0.002 A 
ATOM      4  C4  I4B d   1      -5.331   5.787   5.300  0.00  0.00    -0.004 A 
ATOM      5  C5  I4B d   1      -4.124   5.550   5.952  0.00  0.00     0.002 A 
ATOM      6  C6  I4B d   1      -3.595   4.252   5.999  0.00  0.00     0.003 A 
ENDROOT
BRANCH   1   7
ATOM      7  C1' I4B d   1      -3.788   1.798   5.512  0.00  0.00     0.060 C 
BRANCH   7   8
ATOM      8  C2' I4B d   1      -2.400   1.757   4.907  0.00  0.00    -0.013 C 
ATOM      9  C4' I4B d   1      -1.594   0.615   5.468  0.00  0.00     0.013 C 
ATOM     10  C3' I4B d   1      -2.547   1.636   3.419  0.00  0.00     0.013 C 
ENDBRANCH   7   8
ENDBRANCH   1   7
TORSDOF 2
ENDMDL
