MODEL 1
REMARK minimizedAffinity 18.4888439
REMARK minimizedRMSD -1
REMARK  2 active torsions:
REMARK  status: ('A' for Active; 'I' for Inactive)
REMARK    1  A    between atoms: C2'_3  and  C1'_4 
REMARK    2  A    between atoms: C1'_4  and  C1_5 
ROOT
ATOM      1  C1  I4B d   1       2.794   1.545  -1.137  0.00  0.00    -0.075 A 
ATOM      2  C2  I4B d   1       3.957   2.197  -0.812  0.00  0.00     0.003 A 
ATOM      3  C3  I4B d   1       4.489   2.095   0.496  0.00  0.00     0.002 A 
ATOM      4  C4  I4B d   1       3.805   1.376   1.455  0.00  0.00    -0.004 A 
ATOM      5  C5  I4B d   1       2.638   0.696   1.117  0.00  0.00     0.002 A 
ATOM      6  C6  I4B d   1       2.135   0.771  -0.190  0.00  0.00     0.003 A 
ENDROOT
BRANCH   1   7
ATOM      7  C1' I4B d   1       2.242   1.701  -2.518  0.00  0.00     0.060 C 
BRANCH   7   8
ATOM      8  C2' I4B d   1       2.454   3.139  -2.946  0.00  0.00    -0.013 C 
ATOM      9  C4' I4B d   1       3.238   3.217  -4.229  0.00  0.00     0.013 C 
ATOM     10  C3' I4B d   1       1.107   3.782  -3.095  0.00  0.00     0.013 C 
ENDBRANCH   7   8
ENDBRANCH   1   7
TORSDOF 2
ENDMDL
