MODEL 1
REMARK minimizedAffinity 15.2783337
REMARK minimizedRMSD -1
REMARK  2 active torsions:
REMARK  status: ('A' for Active; 'I' for Inactive)
REMARK    1  A    between atoms: C2'_3  and  C1'_4 
REMARK    2  A    between atoms: C1'_4  and  C1_5 
ROOT
ATOM      1  C1  I4B d   1      -1.229   0.185   3.038  0.00  0.00    -0.075 A 
ATOM      2  C2  I4B d   1      -0.244  -0.545   2.422  0.00  0.00     0.003 A 
ATOM      3  C3  I4B d   1       0.816  -1.097   3.182  0.00  0.00     0.002 A 
ATOM      4  C4  I4B d   1       0.877  -0.854   4.539  0.00  0.00    -0.004 A 
ATOM      5  C5  I4B d   1      -0.135  -0.133   5.166  0.00  0.00     0.002 A 
ATOM      6  C6  I4B d   1      -1.202   0.380   4.413  0.00  0.00     0.003 A 
ENDROOT
BRANCH   1   7
ATOM      7  C1' I4B d   1      -2.315   0.782   2.200  0.00  0.00     0.060 C 
BRANCH   7   8
ATOM      8  C2' I4B d   1      -2.742  -0.256   1.182  0.00  0.00    -0.013 C 
ATOM      9  C4' I4B d   1      -2.340  -1.641   1.614  0.00  0.00     0.013 C 
ATOM     10  C3' I4B d   1      -4.228  -0.152   1.011  0.00  0.00     0.013 C 
ENDBRANCH   7   8
ENDBRANCH   1   7
TORSDOF 2
ENDMDL
