MODEL 1
REMARK minimizedAffinity 14.3513918
REMARK minimizedRMSD -1
REMARK  2 active torsions:
REMARK  status: ('A' for Active; 'I' for Inactive)
REMARK    1  A    between atoms: C2'_3  and  C1'_4 
REMARK    2  A    between atoms: C1'_4  and  C1_5 
ROOT
ATOM      1  C1  I4B d   1      -1.787   0.542   3.315  0.00  0.00    -0.075 A 
ATOM      2  C2  I4B d   1      -2.110   0.868   4.608  0.00  0.00     0.003 A 
ATOM      3  C3  I4B d   1      -1.285   0.442   5.677  0.00  0.00     0.002 A 
ATOM      4  C4  I4B d   1      -0.182  -0.345   5.413  0.00  0.00    -0.004 A 
ATOM      5  C5  I4B d   1       0.156  -0.655   4.099  0.00  0.00     0.002 A 
ATOM      6  C6  I4B d   1      -0.645  -0.198   3.042  0.00  0.00     0.003 A 
ENDROOT
BRANCH   1   7
ATOM      7  C1' I4B d   1      -2.699   0.980   2.213  0.00  0.00     0.060 C 
BRANCH   7   8
ATOM      8  C2' I4B d   1      -3.498  -0.225   1.761  0.00  0.00    -0.013 C 
ATOM      9  C4' I4B d   1      -4.682   0.188   0.926  0.00  0.00     0.013 C 
ATOM     10  C3' I4B d   1      -2.580  -1.127   0.991  0.00  0.00     0.013 C 
ENDBRANCH   7   8
ENDBRANCH   1   7
TORSDOF 2
ENDMDL
