MODEL 1
REMARK minimizedAffinity 8.65329075
REMARK minimizedRMSD -1
REMARK  2 active torsions:
REMARK  status: ('A' for Active; 'I' for Inactive)
REMARK    1  A    between atoms: C2'_3  and  C1'_4 
REMARK    2  A    between atoms: C1'_4  and  C1_5 
ROOT
ATOM      1  C1  I4B d   1       0.464  -0.128   1.865  0.00  0.00    -0.075 A 
ATOM      2  C2  I4B d   1       0.661   0.860   0.932  0.00  0.00     0.003 A 
ATOM      3  C3  I4B d   1       1.944   1.065   0.370  0.00  0.00     0.002 A 
ATOM      4  C4  I4B d   1       3.006   0.298   0.803  0.00  0.00    -0.004 A 
ATOM      5  C5  I4B d   1       2.800  -0.718   1.732  0.00  0.00     0.002 A 
ATOM      6  C6  I4B d   1       1.519  -0.941   2.257  0.00  0.00     0.003 A 
ENDROOT
BRANCH   1   7
ATOM      7  C1' I4B d   1      -0.897  -0.295   2.462  0.00  0.00     0.060 C 
BRANCH   7   8
ATOM      8  C2' I4B d   1      -1.321   1.041   3.038  0.00  0.00    -0.013 C 
ATOM      9  C4' I4B d   1      -2.668   1.459   2.510  0.00  0.00     0.013 C 
ATOM     10  C3' I4B d   1      -1.341   0.915   4.532  0.00  0.00     0.013 C 
ENDBRANCH   7   8
ENDBRANCH   1   7
TORSDOF 2
ENDMDL
