MODEL 1
REMARK minimizedAffinity 16.8992157
REMARK minimizedRMSD -1
REMARK  2 active torsions:
REMARK  status: ('A' for Active; 'I' for Inactive)
REMARK    1  A    between atoms: C2'_3  and  C1'_4 
REMARK    2  A    between atoms: C1'_4  and  C1_5 
ROOT
ATOM      1  C1  I4B d   1       2.837   4.316  -2.491  0.00  0.00    -0.075 A 
ATOM      2  C2  I4B d   1       2.509   5.519  -1.916  0.00  0.00     0.003 A 
ATOM      3  C3  I4B d   1       1.178   5.997  -1.975  0.00  0.00     0.002 A 
ATOM      4  C4  I4B d   1       0.224   5.271  -2.658  0.00  0.00    -0.004 A 
ATOM      5  C5  I4B d   1       0.553   4.041  -3.220  0.00  0.00     0.002 A 
ATOM      6  C6  I4B d   1       1.865   3.554  -3.126  0.00  0.00     0.003 A 
ENDROOT
BRANCH   1   7
ATOM      7  C1' I4B d   1       4.259   3.856  -2.438  0.00  0.00     0.060 C 
BRANCH   7   8
ATOM      8  C2' I4B d   1       5.149   5.063  -2.655  0.00  0.00    -0.013 C 
ATOM      9  C4' I4B d   1       5.997   5.341  -1.441  0.00  0.00     0.013 C 
ATOM     10  C3' I4B d   1       6.000   4.801  -3.861  0.00  0.00     0.013 C 
ENDBRANCH   7   8
ENDBRANCH   1   7
TORSDOF 2
ENDMDL
