MODEL 1
REMARK minimizedAffinity 0.110919178
REMARK minimizedRMSD -1
REMARK  0 active torsions:
REMARK  status: ('A' for Active; 'I' for Inactive)
ROOT
ATOM      1  C   UNL d   1       5.937  -4.590   4.853  0.00  0.00     0.077 C 
ATOM      2  C1  UNL d   1       4.874  -3.532   4.817  0.00  0.00    -0.074 A 
ATOM      3  C2  UNL d   1       4.338  -3.012   6.000  0.00  0.00    -0.005 A 
ATOM      4  C3  UNL d   1       3.357  -2.021   5.951  0.00  0.00     0.006 A 
ATOM      5  C4  UNL d   1       2.903  -1.542   4.721  0.00  0.00    -0.005 A 
ATOM      6  C5  UNL d   1       3.428  -2.050   3.529  0.00  0.00    -0.074 A 
ATOM      7  C6  UNL d   1       2.958  -1.539   2.199  0.00  0.00     0.077 C 
ATOM      8  C7  UNL d   1       4.418  -3.040   3.586  0.00  0.00    -0.001 A 
ENDROOT
TORSDOF 0
ENDMDL
