MODEL 1
REMARK minimizedAffinity 9.33850384
REMARK minimizedRMSD -1
REMARK  0 active torsions:
REMARK  status: ('A' for Active; 'I' for Inactive)
ROOT
ATOM      1  C   UNL d   1       0.103   0.998  -1.712  0.00  0.00     0.077 C 
ATOM      2  C1  UNL d   1       0.355  -0.451  -1.416  0.00  0.00    -0.074 A 
ATOM      3  C2  UNL d   1       1.379  -1.150  -2.064  0.00  0.00    -0.005 A 
ATOM      4  C3  UNL d   1       1.607  -2.494  -1.771  0.00  0.00     0.006 A 
ATOM      5  C4  UNL d   1       0.816  -3.152  -0.828  0.00  0.00    -0.005 A 
ATOM      6  C5  UNL d   1      -0.211  -2.469  -0.169  0.00  0.00    -0.074 A 
ATOM      7  C6  UNL d   1      -1.064  -3.159   0.854  0.00  0.00     0.077 C 
ATOM      8  C7  UNL d   1      -0.430  -1.117  -0.464  0.00  0.00    -0.001 A 
ENDROOT
TORSDOF 0
ENDMDL
