MODEL 1
REMARK minimizedAffinity 5.49511242
REMARK minimizedRMSD -1
REMARK  0 active torsions:
REMARK  status: ('A' for Active; 'I' for Inactive)
ROOT
ATOM      1  C   UNL d   1       0.599  -0.170  -2.199  0.00  0.00     0.077 C 
ATOM      2  C1  UNL d   1       0.513  -1.370  -1.304  0.00  0.00    -0.074 A 
ATOM      3  C2  UNL d   1       1.505  -2.356  -1.326  0.00  0.00    -0.005 A 
ATOM      4  C3  UNL d   1       1.416  -3.462  -0.481  0.00  0.00     0.006 A 
ATOM      5  C4  UNL d   1       0.337  -3.594   0.393  0.00  0.00    -0.005 A 
ATOM      6  C5  UNL d   1      -0.664  -2.618   0.430  0.00  0.00    -0.074 A 
ATOM      7  C6  UNL d   1      -1.826  -2.739   1.371  0.00  0.00     0.077 C 
ATOM      8  C7  UNL d   1      -0.564  -1.506  -0.417  0.00  0.00    -0.001 A 
ENDROOT
TORSDOF 0
ENDMDL
