MODEL 1
REMARK minimizedAffinity 8.49175167
REMARK minimizedRMSD -1
REMARK  0 active torsions:
REMARK  status: ('A' for Active; 'I' for Inactive)
ROOT
ATOM      1  C   UNL d   1       0.709  -0.756  -1.992  0.00  0.00     0.077 C 
ATOM      2  C1  UNL d   1       0.522  -1.930  -1.078  0.00  0.00    -0.074 A 
ATOM      3  C2  UNL d   1       1.400  -3.018  -1.116  0.00  0.00    -0.005 A 
ATOM      4  C3  UNL d   1       1.219  -4.099  -0.253  0.00  0.00     0.006 A 
ATOM      5  C4  UNL d   1       0.160  -4.103   0.655  0.00  0.00    -0.005 A 
ATOM      6  C5  UNL d   1      -0.728  -3.024   0.708  0.00  0.00    -0.074 A 
ATOM      7  C6  UNL d   1      -1.867  -3.008   1.685  0.00  0.00     0.077 C 
ATOM      8  C7  UNL d   1      -0.536  -1.938  -0.158  0.00  0.00    -0.001 A 
ENDROOT
TORSDOF 0
ENDMDL
