MODEL 1
REMARK minimizedAffinity 8.21890926
REMARK minimizedRMSD -1
REMARK  0 active torsions:
REMARK  status: ('A' for Active; 'I' for Inactive)
ROOT
ATOM      1  C   UNL d   1       1.040  -0.805  -2.948  0.00  0.00     0.077 C 
ATOM      2  C1  UNL d   1       1.636  -0.036  -1.807  0.00  0.00    -0.074 A 
ATOM      3  C2  UNL d   1       2.837  -0.443  -1.216  0.00  0.00    -0.005 A 
ATOM      4  C3  UNL d   1       3.384   0.288  -0.161  0.00  0.00     0.006 A 
ATOM      5  C4  UNL d   1       2.738   1.431   0.312  0.00  0.00    -0.005 A 
ATOM      6  C5  UNL d   1       1.538   1.853  -0.268  0.00  0.00    -0.074 A 
ATOM      7  C6  UNL d   1       0.835   3.085   0.222  0.00  0.00     0.077 C 
ATOM      8  C7  UNL d   1       0.997   1.118  -1.332  0.00  0.00    -0.001 A 
ENDROOT
TORSDOF 0
ENDMDL
