MODEL 1
REMARK minimizedAffinity 8.29547405
REMARK minimizedRMSD -1
REMARK  0 active torsions:
REMARK  status: ('A' for Active; 'I' for Inactive)
ROOT
ATOM      1  C   UNL d   1       0.785  -0.483  -2.481  0.00  0.00     0.077 C 
ATOM      2  C1  UNL d   1       0.674  -1.773  -1.725  0.00  0.00    -0.074 A 
ATOM      3  C2  UNL d   1       1.103  -2.978  -2.292  0.00  0.00    -0.005 A 
ATOM      4  C3  UNL d   1       1.002  -4.169  -1.573  0.00  0.00     0.006 A 
ATOM      5  C4  UNL d   1       0.471  -4.167  -0.283  0.00  0.00    -0.005 A 
ATOM      6  C5  UNL d   1       0.038  -2.973   0.301  0.00  0.00    -0.074 A 
ATOM      7  C6  UNL d   1      -0.526  -2.952   1.691  0.00  0.00     0.077 C 
ATOM      8  C7  UNL d   1       0.149  -1.779  -0.425  0.00  0.00    -0.001 A 
ENDROOT
TORSDOF 0
ENDMDL
