MODEL 1
REMARK minimizedAffinity 0.81535548
REMARK minimizedRMSD -1
REMARK  0 active torsions:
REMARK  status: ('A' for Active; 'I' for Inactive)
ROOT
ATOM      1  C   UNL d   1       0.901  -5.814  -1.257  0.00  0.00     0.077 C 
ATOM      2  C1  UNL d   1       0.674  -4.368  -0.930  0.00  0.00    -0.074 A 
ATOM      3  C2  UNL d   1       0.976  -3.366  -1.858  0.00  0.00    -0.005 A 
ATOM      4  C3  UNL d   1       0.751  -2.026  -1.544  0.00  0.00     0.006 A 
ATOM      5  C4  UNL d   1       0.224  -1.674  -0.301  0.00  0.00    -0.005 A 
ATOM      6  C5  UNL d   1      -0.085  -2.663   0.639  0.00  0.00    -0.074 A 
ATOM      7  C6  UNL d   1      -0.661  -2.303   1.976  0.00  0.00     0.077 C 
ATOM      8  C7  UNL d   1       0.137  -4.008   0.314  0.00  0.00    -0.001 A 
ENDROOT
TORSDOF 0
ENDMDL
