MODEL 1
REMARK minimizedAffinity 5.24367476
REMARK minimizedRMSD -1
REMARK  0 active torsions:
REMARK  status: ('A' for Active; 'I' for Inactive)
ROOT
ATOM      1  C   UNL d   1       3.140   1.554  -1.463  0.00  0.00     0.077 C 
ATOM      2  C1  UNL d   1       3.927   2.554  -2.257  0.00  0.00    -0.074 A 
ATOM      3  C2  UNL d   1       5.247   2.291  -2.638  0.00  0.00    -0.005 A 
ATOM      4  C3  UNL d   1       5.963   3.226  -3.385  0.00  0.00     0.006 A 
ATOM      5  C4  UNL d   1       5.369   4.432  -3.757  0.00  0.00    -0.005 A 
ATOM      6  C5  UNL d   1       4.050   4.713  -3.386  0.00  0.00    -0.074 A 
ATOM      7  C6  UNL d   1       3.393   6.000  -3.787  0.00  0.00     0.077 C 
ATOM      8  C7  UNL d   1       3.334   3.765  -2.642  0.00  0.00    -0.001 A 
ENDROOT
TORSDOF 0
ENDMDL
