MODEL 1
REMARK minimizedAffinity 5.5245657
REMARK minimizedRMSD -1
REMARK  0 active torsions:
REMARK  status: ('A' for Active; 'I' for Inactive)
ROOT
ATOM      1  C   UNL d   1       0.778  -0.417  -1.772  0.00  0.00     0.077 C 
ATOM      2  C1  UNL d   1       0.430  -1.630  -0.962  0.00  0.00    -0.074 A 
ATOM      3  C2  UNL d   1       1.412  -2.554  -0.593  0.00  0.00    -0.005 A 
ATOM      4  C3  UNL d   1       1.075  -3.673   0.169  0.00  0.00     0.006 A 
ATOM      5  C4  UNL d   1      -0.247  -3.879   0.568  0.00  0.00    -0.005 A 
ATOM      6  C5  UNL d   1      -1.242  -2.965   0.208  0.00  0.00    -0.074 A 
ATOM      7  C6  UNL d   1      -2.666  -3.166   0.637  0.00  0.00     0.077 C 
ATOM      8  C7  UNL d   1      -0.894  -1.840  -0.551  0.00  0.00    -0.001 A 
ENDROOT
TORSDOF 0
ENDMDL
