MODEL 1
REMARK minimizedAffinity 0.101478882
REMARK minimizedRMSD -1
REMARK  0 active torsions:
REMARK  status: ('A' for Active; 'I' for Inactive)
ROOT
ATOM      1  C   UNL d   1      -1.355  -0.511   2.746  0.00  0.00     0.077 C 
ATOM      2  C1  UNL d   1      -1.027  -1.241   1.478  0.00  0.00    -0.074 A 
ATOM      3  C2  UNL d   1      -1.084  -2.637   1.416  0.00  0.00    -0.005 A 
ATOM      4  C3  UNL d   1      -0.785  -3.301   0.227  0.00  0.00     0.006 A 
ATOM      5  C4  UNL d   1      -0.428  -2.578  -0.912  0.00  0.00    -0.005 A 
ATOM      6  C5  UNL d   1      -0.367  -1.181  -0.870  0.00  0.00    -0.074 A 
ATOM      7  C6  UNL d   1       0.006  -0.388  -2.087  0.00  0.00     0.077 C 
ATOM      8  C7  UNL d   1      -0.675  -0.521   0.328  0.00  0.00    -0.001 A 
ENDROOT
TORSDOF 0
ENDMDL
