MODEL 1
REMARK minimizedAffinity -4.97774982
REMARK minimizedRMSD -1
REMARK  0 active torsions:
REMARK  status: ('A' for Active; 'I' for Inactive)
ROOT
ATOM      1  C   UNL d   1       0.472  -3.063   0.019  0.00  0.00     0.077 C 
ATOM      2  C1  UNL d   1       0.120  -1.607  -0.049  0.00  0.00    -0.074 A 
ATOM      3  C2  UNL d   1      -0.859  -1.064   0.790  0.00  0.00    -0.005 A 
ATOM      4  C3  UNL d   1      -1.169   0.294   0.722  0.00  0.00     0.006 A 
ATOM      5  C4  UNL d   1      -0.504   1.122  -0.183  0.00  0.00    -0.005 A 
ATOM      6  C5  UNL d   1       0.478   0.598  -1.029  0.00  0.00    -0.074 A 
ATOM      7  C6  UNL d   1       1.209   1.476  -2.001  0.00  0.00     0.077 C 
ATOM      8  C7  UNL d   1       0.789  -0.767  -0.950  0.00  0.00    -0.001 A 
ENDROOT
TORSDOF 0
ENDMDL
