MODEL 1
REMARK minimizedAffinity 12.1344881
REMARK minimizedRMSD -1
REMARK  0 active torsions:
REMARK  status: ('A' for Active; 'I' for Inactive)
ROOT
ATOM      1  C   UNL d   1      -3.612   0.947   1.957  0.00  0.00     0.077 C 
ATOM      2  C1  UNL d   1      -2.205   0.488   1.710  0.00  0.00    -0.074 A 
ATOM      3  C2  UNL d   1      -1.330   0.247   2.774  0.00  0.00    -0.005 A 
ATOM      4  C3  UNL d   1      -0.028  -0.189   2.529  0.00  0.00     0.006 A 
ATOM      5  C4  UNL d   1       0.411  -0.389   1.220  0.00  0.00    -0.005 A 
ATOM      6  C5  UNL d   1      -0.450  -0.154   0.143  0.00  0.00    -0.074 A 
ATOM      7  C6  UNL d   1       0.003  -0.374  -1.269  0.00  0.00     0.077 C 
ATOM      8  C7  UNL d   1      -1.759   0.277   0.398  0.00  0.00    -0.001 A 
ENDROOT
TORSDOF 0
ENDMDL
