MODEL 1
REMARK minimizedAffinity 3.85903978
REMARK minimizedRMSD -1
REMARK  0 active torsions:
REMARK  status: ('A' for Active; 'I' for Inactive)
ROOT
ATOM      1  C   UNL d   1       0.710  -0.158  -1.955  0.00  0.00     0.077 C 
ATOM      2  C1  UNL d   1      -0.139  -0.715  -0.852  0.00  0.00    -0.074 A 
ATOM      3  C2  UNL d   1      -0.765  -1.959  -0.984  0.00  0.00    -0.005 A 
ATOM      4  C3  UNL d   1      -1.545  -2.468   0.054  0.00  0.00     0.006 A 
ATOM      5  C4  UNL d   1      -1.706  -1.740   1.234  0.00  0.00    -0.005 A 
ATOM      6  C5  UNL d   1      -1.088  -0.495   1.384  0.00  0.00    -0.074 A 
ATOM      7  C6  UNL d   1      -1.243   0.296   2.649  0.00  0.00     0.077 C 
ATOM      8  C7  UNL d   1      -0.300   0.007   0.339  0.00  0.00    -0.001 A 
ENDROOT
TORSDOF 0
ENDMDL
