MODEL 1
REMARK minimizedAffinity -0.200806722
REMARK minimizedRMSD -1
REMARK  0 active torsions:
REMARK  status: ('A' for Active; 'I' for Inactive)
ROOT
ATOM      1  C   UNL d   1      -1.707  -3.650  -1.048  0.00  0.00     0.077 C 
ATOM      2  C1  UNL d   1      -0.955  -2.705  -0.158  0.00  0.00    -0.074 A 
ATOM      3  C2  UNL d   1       0.063  -3.165   0.683  0.00  0.00    -0.005 A 
ATOM      4  C3  UNL d   1       0.759  -2.272   1.498  0.00  0.00     0.006 A 
ATOM      5  C4  UNL d   1       0.446  -0.913   1.479  0.00  0.00    -0.005 A 
ATOM      6  C5  UNL d   1      -0.568  -0.434   0.643  0.00  0.00    -0.074 A 
ATOM      7  C6  UNL d   1      -0.911   1.026   0.603  0.00  0.00     0.077 C 
ATOM      8  C7  UNL d   1      -1.259  -1.336  -0.178  0.00  0.00    -0.001 A 
ENDROOT
TORSDOF 0
ENDMDL
