MODEL 1
REMARK minimizedAffinity -3.09249139
REMARK minimizedRMSD -1
REMARK  0 active torsions:
REMARK  status: ('A' for Active; 'I' for Inactive)
ROOT
ATOM      1  C   UNL d   1      -2.263   0.455   1.760  0.00  0.00     0.077 C 
ATOM      2  C1  UNL d   1      -1.190  -0.107   0.876  0.00  0.00    -0.074 A 
ATOM      3  C2  UNL d   1      -0.326   0.735   0.169  0.00  0.00    -0.005 A 
ATOM      4  C3  UNL d   1       0.673   0.198  -0.642  0.00  0.00     0.006 A 
ATOM      5  C4  UNL d   1       0.818  -1.186  -0.755  0.00  0.00    -0.005 A 
ATOM      6  C5  UNL d   1      -0.036  -2.044  -0.055  0.00  0.00    -0.074 A 
ATOM      7  C6  UNL d   1       0.112  -3.533  -0.157  0.00  0.00     0.077 C 
ATOM      8  C7  UNL d   1      -1.033  -1.496   0.764  0.00  0.00    -0.001 A 
ENDROOT
TORSDOF 0
ENDMDL
