MODEL 1
REMARK minimizedAffinity 3.59341121
REMARK minimizedRMSD -1
REMARK  0 active torsions:
REMARK  status: ('A' for Active; 'I' for Inactive)
ROOT
ATOM      1  C   UNL d   1      -1.520   0.714   2.881  0.00  0.00     0.023 A 
ATOM      2  C1  UNL d   1      -0.666  -0.382   3.006  0.00  0.00     0.003 A 
ATOM      3  C2  UNL d   1      -0.594  -1.333   1.987  0.00  0.00     0.048 A 
ATOM      4  C3  UNL d   1      -1.378  -1.182   0.844  0.00  0.00     0.023 A 
ATOM      5  C4  UNL d   1      -2.234  -0.087   0.714  0.00  0.00     0.048 A 
ATOM      6  C5  UNL d   1      -2.304   0.861   1.736  0.00  0.00     0.003 A 
ATOM      7  I   UNL d   1      -1.273  -2.597  -0.675  0.00  0.00    -0.146 I 
ENDROOT
TORSDOF 0
ENDMDL
