MODEL 1
REMARK minimizedAffinity 2.70848036
REMARK minimizedRMSD -1
REMARK  0 active torsions:
REMARK  status: ('A' for Active; 'I' for Inactive)
ROOT
ATOM      1  C   UNL d   1      -0.335   0.057  -6.000  0.00  0.00     0.023 A 
ATOM      2  C1  UNL d   1      -0.774   0.827  -4.923  0.00  0.00     0.003 A 
ATOM      3  C2  UNL d   1      -0.832   0.271  -3.643  0.00  0.00     0.048 A 
ATOM      4  C3  UNL d   1      -0.449  -1.055  -3.447  0.00  0.00     0.023 A 
ATOM      5  C4  UNL d   1      -0.008  -1.830  -4.522  0.00  0.00     0.048 A 
ATOM      6  C5  UNL d   1       0.047  -1.270  -5.800  0.00  0.00     0.003 A 
ATOM      7  I   UNL d   1      -0.535  -1.885  -1.544  0.00  0.00    -0.146 I 
ENDROOT
TORSDOF 0
ENDMDL
