MODEL 1
REMARK minimizedAffinity -3.86834979
REMARK minimizedRMSD -1
REMARK  0 active torsions:
REMARK  status: ('A' for Active; 'I' for Inactive)
ROOT
ATOM      1  C   UNL d   1      -1.887  -0.128  -4.894  0.00  0.00     0.023 A 
ATOM      2  C1  UNL d   1      -0.931  -1.079  -5.253  0.00  0.00     0.003 A 
ATOM      3  C2  UNL d   1       0.368  -0.679  -5.571  0.00  0.00     0.048 A 
ATOM      4  C3  UNL d   1       0.706   0.673  -5.527  0.00  0.00     0.023 A 
ATOM      5  C4  UNL d   1      -0.246   1.628  -5.167  0.00  0.00     0.048 A 
ATOM      6  C5  UNL d   1      -1.545   1.224  -4.851  0.00  0.00     0.003 A 
ATOM      7  I   UNL d   1       2.640   1.270  -5.999  0.00  0.00    -0.146 I 
ENDROOT
TORSDOF 0
ENDMDL
