MODEL 1
REMARK minimizedAffinity 4.05375814
REMARK minimizedRMSD -1
REMARK  0 active torsions:
REMARK  status: ('A' for Active; 'I' for Inactive)
ROOT
ATOM      1  C   UNL d   1      -1.596  -0.596  -5.187  0.00  0.00     0.023 A 
ATOM      2  C1  UNL d   1      -0.543  -1.446  -4.848  0.00  0.00     0.003 A 
ATOM      3  C2  UNL d   1       0.776  -1.052  -5.081  0.00  0.00     0.048 A 
ATOM      4  C3  UNL d   1       1.035   0.193  -5.652  0.00  0.00     0.023 A 
ATOM      5  C4  UNL d   1      -0.015   1.047  -5.992  0.00  0.00     0.048 A 
ATOM      6  C5  UNL d   1      -1.333   0.649  -5.759  0.00  0.00     0.003 A 
ATOM      7  I   UNL d   1       2.998   0.781  -6.000  0.00  0.00    -0.146 I 
ENDROOT
TORSDOF 0
ENDMDL
