MODEL 1
REMARK minimizedAffinity -3.24201846
REMARK minimizedRMSD -1
REMARK  0 active torsions:
REMARK  status: ('A' for Active; 'I' for Inactive)
ROOT
ATOM      1  C   UNL d   1      -0.799  -0.852  -4.057  0.00  0.00     0.023 A 
ATOM      2  C1  UNL d   1      -0.711   0.324  -4.801  0.00  0.00     0.003 A 
ATOM      3  C2  UNL d   1       0.513   0.715  -5.348  0.00  0.00     0.048 A 
ATOM      4  C3  UNL d   1       1.644  -0.075  -5.148  0.00  0.00     0.023 A 
ATOM      5  C4  UNL d   1       1.560  -1.254  -4.405  0.00  0.00     0.048 A 
ATOM      6  C5  UNL d   1       0.335  -1.640  -3.859  0.00  0.00     0.003 A 
ATOM      7  I   UNL d   1       3.467   0.504  -5.962  0.00  0.00    -0.146 I 
ENDROOT
TORSDOF 0
ENDMDL
