MODEL 1
REMARK minimizedAffinity 1.34394825
REMARK minimizedRMSD -1
REMARK  0 active torsions:
REMARK  status: ('A' for Active; 'I' for Inactive)
ROOT
ATOM      1  C   UNL d   1      -0.496  -0.686  -6.000  0.00  0.00     0.023 A 
ATOM      2  C1  UNL d   1      -1.022   0.603  -5.916  0.00  0.00     0.003 A 
ATOM      3  C2  UNL d   1      -2.345   0.795  -5.513  0.00  0.00     0.048 A 
ATOM      4  C3  UNL d   1      -3.137  -0.308  -5.196  0.00  0.00     0.023 A 
ATOM      5  C4  UNL d   1      -2.616  -1.600  -5.278  0.00  0.00     0.048 A 
ATOM      6  C5  UNL d   1      -1.292  -1.786  -5.682  0.00  0.00     0.003 A 
ATOM      7  I   UNL d   1      -5.107  -0.026  -4.597  0.00  0.00    -0.146 I 
ENDROOT
TORSDOF 0
ENDMDL
