MODEL 1
REMARK minimizedAffinity 6.86147738
REMARK minimizedRMSD -1
REMARK  0 active torsions:
REMARK  status: ('A' for Active; 'I' for Inactive)
ROOT
ATOM      1  C   UNL d   1       5.991   1.090   5.927  0.00  0.00     0.023 A 
ATOM      2  C1  UNL d   1       5.999   0.333   4.756  0.00  0.00     0.003 A 
ATOM      3  C2  UNL d   1       5.451   0.854   3.582  0.00  0.00     0.048 A 
ATOM      4  C3  UNL d   1       4.899   2.135   3.586  0.00  0.00     0.023 A 
ATOM      5  C4  UNL d   1       4.890   2.897   4.755  0.00  0.00     0.048 A 
ATOM      6  C5  UNL d   1       5.438   2.371   5.927  0.00  0.00     0.003 A 
ATOM      7  I   UNL d   1       4.085   2.914   1.840  0.00  0.00    -0.146 I 
ENDROOT
TORSDOF 0
ENDMDL
