MODEL 1
REMARK minimizedAffinity -3.39411378
REMARK minimizedRMSD -1
REMARK  0 active torsions:
REMARK  status: ('A' for Active; 'I' for Inactive)
ROOT
ATOM      1  O1  BZF d   1      -2.855  -0.470  -2.112  0.00  0.00    -0.204 OA
ATOM      2  C2  BZF d   1      -2.443  -0.744  -3.402  0.00  0.00     0.174 A 
ATOM      3  C3  BZF d   1      -1.097  -0.735  -3.487  0.00  0.00    -0.012 A 
ATOM      4  C3A BZF d   1      -0.637  -0.529  -2.148  0.00  0.00    -0.107 A 
ATOM      5  C4  BZF d   1       0.604  -0.441  -1.585  0.00  0.00     0.055 A 
ATOM      6  C5  BZF d   1       0.709  -0.161  -0.259  0.00  0.00    -0.016 A 
ATOM      7  C6  BZF d   1      -0.404   0.041   0.531  0.00  0.00     0.022 A 
ATOM      8  C7  BZF d   1      -1.656  -0.041   0.019  0.00  0.00     0.029 A 
ATOM      9  C7A BZF d   1      -1.766  -0.356  -1.314  0.00  0.00     0.058 A 
ENDROOT
TORSDOF 0
ENDMDL
