MODEL 1
REMARK minimizedAffinity -2.84819031
REMARK minimizedRMSD -1
REMARK  0 active torsions:
REMARK  status: ('A' for Active; 'I' for Inactive)
ROOT
ATOM      1  O1  BZF d   1      -0.053  -0.855  -0.682  0.00  0.00    -0.204 OA
ATOM      2  C2  BZF d   1      -1.175  -0.096  -0.410  0.00  0.00     0.174 A 
ATOM      3  C3  BZF d   1      -0.908   0.830   0.533  0.00  0.00    -0.012 A 
ATOM      4  C3A BZF d   1       0.490   0.699   0.805  0.00  0.00    -0.107 A 
ATOM      5  C4  BZF d   1       1.349   1.353   1.641  0.00  0.00     0.055 A 
ATOM      6  C5  BZF d   1       2.639   0.933   1.723  0.00  0.00    -0.016 A 
ATOM      7  C6  BZF d   1       3.101  -0.140   0.990  0.00  0.00     0.022 A 
ATOM      8  C7  BZF d   1       2.287  -0.817   0.144  0.00  0.00     0.029 A 
ATOM      9  C7A BZF d   1       0.992  -0.374   0.033  0.00  0.00     0.058 A 
ENDROOT
TORSDOF 0
ENDMDL
