MODEL 1
REMARK minimizedAffinity -3.78975773
REMARK minimizedRMSD -1
REMARK  0 active torsions:
REMARK  status: ('A' for Active; 'I' for Inactive)
ROOT
ATOM      1  O1  BZF d   1       3.036   0.378   0.469  0.00  0.00    -0.204 OA
ATOM      2  C2  BZF d   1       3.375  -0.961   0.435  0.00  0.00     0.174 A 
ATOM      3  C3  BZF d   1       2.275  -1.730   0.300  0.00  0.00    -0.012 A 
ATOM      4  C3A BZF d   1       1.189  -0.810   0.153  0.00  0.00    -0.107 A 
ATOM      5  C4  BZF d   1      -0.155  -0.966  -0.034  0.00  0.00     0.055 A 
ATOM      6  C5  BZF d   1      -0.950   0.136  -0.065  0.00  0.00    -0.016 A 
ATOM      7  C6  BZF d   1      -0.436   1.406   0.093  0.00  0.00     0.022 A 
ATOM      8  C7  BZF d   1       0.891   1.612   0.276  0.00  0.00     0.029 A 
ATOM      9  C7A BZF d   1       1.701   0.502   0.274  0.00  0.00     0.058 A 
ENDROOT
TORSDOF 0
ENDMDL
