MODEL 1
REMARK minimizedAffinity -4.77732468
REMARK minimizedRMSD -1
REMARK  0 active torsions:
REMARK  status: ('A' for Active; 'I' for Inactive)
ROOT
ATOM      1  O1  BZF d   1       0.625  -1.920   1.510  0.00  0.00    -0.204 OA
ATOM      2  C2  BZF d   1       1.858  -2.340   1.968  0.00  0.00     0.174 A 
ATOM      3  C3  BZF d   1       2.807  -1.419   1.702  0.00  0.00    -0.012 A 
ATOM      4  C3A BZF d   1       2.107  -0.316   1.119  0.00  0.00    -0.107 A 
ATOM      5  C4  BZF d   1       2.501   0.908   0.658  0.00  0.00     0.055 A 
ATOM      6  C5  BZF d   1       1.580   1.724   0.081  0.00  0.00    -0.016 A 
ATOM      7  C6  BZF d   1       0.260   1.347  -0.055  0.00  0.00     0.022 A 
ATOM      8  C7  BZF d   1      -0.179   0.145   0.392  0.00  0.00     0.029 A 
ATOM      9  C7A BZF d   1       0.743  -0.668   1.005  0.00  0.00     0.058 A 
ENDROOT
TORSDOF 0
ENDMDL
