MODEL 1
REMARK minimizedAffinity -3.07792759
REMARK minimizedRMSD -1
REMARK  0 active torsions:
REMARK  status: ('A' for Active; 'I' for Inactive)
ROOT
ATOM      1  O1  BZF d   1      -0.743  -0.673  -0.083  0.00  0.00    -0.204 OA
ATOM      2  C2  BZF d   1      -1.189   0.607  -0.350  0.00  0.00     0.174 A 
ATOM      3  C3  BZF d   1      -0.168   1.487  -0.312  0.00  0.00    -0.012 A 
ATOM      4  C3A BZF d   1       1.003   0.695  -0.092  0.00  0.00    -0.107 A 
ATOM      5  C4  BZF d   1       2.330   0.994   0.025  0.00  0.00     0.055 A 
ATOM      6  C5  BZF d   1       3.209  -0.002   0.310  0.00  0.00    -0.016 A 
ATOM      7  C6  BZF d   1       2.796  -1.306   0.489  0.00  0.00     0.022 A 
ATOM      8  C7  BZF d   1       1.490  -1.652   0.377  0.00  0.00     0.029 A 
ATOM      9  C7A BZF d   1       0.604  -0.653   0.057  0.00  0.00     0.058 A 
ENDROOT
TORSDOF 0
ENDMDL
