MODEL 1
REMARK minimizedAffinity -4.02869558
REMARK minimizedRMSD -1
REMARK  0 active torsions:
REMARK  status: ('A' for Active; 'I' for Inactive)
ROOT
ATOM      1  O1  BZF d   1       0.201  -1.598   1.444  0.00  0.00    -0.204 OA
ATOM      2  C2  BZF d   1       1.154  -2.373   2.076  0.00  0.00     0.174 A 
ATOM      3  C3  BZF d   1       2.364  -1.782   2.022  0.00  0.00    -0.012 A 
ATOM      4  C3A BZF d   1       2.138  -0.517   1.393  0.00  0.00    -0.107 A 
ATOM      5  C4  BZF d   1       2.952   0.531   1.070  0.00  0.00     0.055 A 
ATOM      6  C5  BZF d   1       2.431   1.588   0.394  0.00  0.00    -0.016 A 
ATOM      7  C6  BZF d   1       1.104   1.629   0.021  0.00  0.00     0.022 A 
ATOM      8  C7  BZF d   1       0.256   0.615   0.322  0.00  0.00     0.029 A 
ATOM      9  C7A BZF d   1       0.772  -0.440   1.034  0.00  0.00     0.058 A 
ENDROOT
TORSDOF 0
ENDMDL
