MODEL 1
REMARK minimizedAffinity -5.5188489
REMARK minimizedRMSD -1
REMARK  0 active torsions:
REMARK  status: ('A' for Active; 'I' for Inactive)
ROOT
ATOM      1  O1  BZF d   1      -0.129  -1.058   0.095  0.00  0.00    -0.204 OA
ATOM      2  C2  BZF d   1      -0.963   0.036  -0.026  0.00  0.00     0.174 A 
ATOM      3  C3  BZF d   1      -0.295   1.178   0.239  0.00  0.00    -0.012 A 
ATOM      4  C3A BZF d   1       1.061   0.779   0.454  0.00  0.00    -0.107 A 
ATOM      5  C4  BZF d   1       2.207   1.464   0.742  0.00  0.00     0.055 A 
ATOM      6  C5  BZF d   1       3.354   0.769   0.964  0.00  0.00    -0.016 A 
ATOM      7  C6  BZF d   1       3.390  -0.609   0.911  0.00  0.00     0.022 A 
ATOM      8  C7  BZF d   1       2.280  -1.332   0.624  0.00  0.00     0.029 A 
ATOM      9  C7A BZF d   1       1.127  -0.631   0.367  0.00  0.00     0.058 A 
ENDROOT
TORSDOF 0
ENDMDL
