MODEL 1
REMARK minimizedAffinity -5.27815199
REMARK minimizedRMSD -1
REMARK  0 active torsions:
REMARK  status: ('A' for Active; 'I' for Inactive)
ROOT
ATOM      1  O1  BZF d   1      -0.468  -0.847  -0.306  0.00  0.00    -0.204 OA
ATOM      2  C2  BZF d   1      -1.349   0.215  -0.387  0.00  0.00     0.174 A 
ATOM      3  C3  BZF d   1      -0.766   1.353   0.040  0.00  0.00    -0.012 A 
ATOM      4  C3A BZF d   1       0.591   0.998   0.324  0.00  0.00    -0.107 A 
ATOM      5  C4  BZF d   1       1.673   1.703   0.768  0.00  0.00     0.055 A 
ATOM      6  C5  BZF d   1       2.836   1.044   1.012  0.00  0.00    -0.016 A 
ATOM      7  C6  BZF d   1       2.951  -0.318   0.828  0.00  0.00     0.022 A 
ATOM      8  C7  BZF d   1       1.907  -1.059   0.384  0.00  0.00     0.029 A 
ATOM      9  C7A BZF d   1       0.739  -0.391   0.105  0.00  0.00     0.058 A 
ENDROOT
TORSDOF 0
ENDMDL
