MODEL 1
REMARK minimizedAffinity 1.02139676
REMARK minimizedRMSD -1
REMARK  0 active torsions:
REMARK  status: ('A' for Active; 'I' for Inactive)
ROOT
ATOM      1  O1  BZF d   1       0.712  -2.858   0.794  0.00  0.00    -0.204 OA
ATOM      2  C2  BZF d   1       1.988  -2.629   0.316  0.00  0.00     0.174 A 
ATOM      3  C3  BZF d   1       2.066  -1.423  -0.281  0.00  0.00    -0.012 A 
ATOM      4  C3A BZF d   1       0.782  -0.823  -0.088  0.00  0.00    -0.107 A 
ATOM      5  C4  BZF d   1       0.246   0.383  -0.439  0.00  0.00     0.055 A 
ATOM      6  C5  BZF d   1      -1.061   0.630  -0.164  0.00  0.00    -0.016 A 
ATOM      7  C6  BZF d   1      -1.863  -0.306   0.456  0.00  0.00     0.022 A 
ATOM      8  C7  BZF d   1      -1.375  -1.514   0.829  0.00  0.00     0.029 A 
ATOM      9  C7A BZF d   1      -0.045  -1.755   0.581  0.00  0.00     0.058 A 
ENDROOT
TORSDOF 0
ENDMDL
