MODEL 1
REMARK minimizedAffinity 6.45331526
REMARK minimizedRMSD -1
REMARK  1 active torsions:
REMARK  status: ('A' for Active; 'I' for Inactive)
REMARK    1  A    between atoms: C1_2  and  C2_3 
ROOT
ATOM      1  C2  UNL d   1      -2.101   0.623  -3.145  0.00  0.00    -0.081 A 
ATOM      2  C3  UNL d   1      -2.603   1.163  -4.335  0.00  0.00     0.006 A 
ATOM      3  C4  UNL d   1      -3.769   0.650  -4.909  0.00  0.00     0.002 A 
ATOM      4  C5  UNL d   1      -4.456  -0.405  -4.299  0.00  0.00    -0.080 A 
ATOM      5  C6  UNL d   1      -5.725  -0.944  -4.888  0.00  0.00     0.076 C 
ATOM      6  C7  UNL d   1      -3.945  -0.956  -3.119  0.00  0.00     0.002 A 
ATOM      7  C8  UNL d   1      -2.779  -0.444  -2.545  0.00  0.00     0.006 A 
ENDROOT
BRANCH   1   8
ATOM      8  C1  UNL d   1      -0.880   1.216  -2.489  0.00  0.00     0.054 C 
ATOM      9  C   UNL d   1      -0.763   0.776  -1.037  0.00  0.00     0.018 C 
ENDBRANCH   1   8
TORSDOF 1
ENDMDL
