MODEL 1
REMARK minimizedAffinity -0.26002565
REMARK minimizedRMSD -1
REMARK  1 active torsions:
REMARK  status: ('A' for Active; 'I' for Inactive)
REMARK    1  A    between atoms: C1_2  and  C2_3 
ROOT
ATOM      1  C2  UNL d   1       5.480   3.816  -0.288  0.00  0.00    -0.081 A 
ATOM      2  C3  UNL d   1       5.891   2.911   0.698  0.00  0.00     0.006 A 
ATOM      3  C4  UNL d   1       5.474   1.578   0.655  0.00  0.00     0.002 A 
ATOM      4  C5  UNL d   1       4.647   1.126  -0.380  0.00  0.00    -0.080 A 
ATOM      5  C6  UNL d   1       4.218  -0.309  -0.455  0.00  0.00     0.076 C 
ATOM      6  C7  UNL d   1       4.222   2.035  -1.355  0.00  0.00     0.002 A 
ATOM      7  C8  UNL d   1       4.638   3.367  -1.311  0.00  0.00     0.006 A 
ENDROOT
BRANCH   1   8
ATOM      8  C1  UNL d   1       5.979   5.238  -0.279  0.00  0.00     0.054 C 
ATOM      9  C   UNL d   1       5.998   5.826  -1.683  0.00  0.00     0.018 C 
ENDBRANCH   1   8
TORSDOF 1
ENDMDL
