MODEL 1
REMARK minimizedAffinity 8.96386814
REMARK minimizedRMSD -1
REMARK  1 active torsions:
REMARK  status: ('A' for Active; 'I' for Inactive)
REMARK    1  A    between atoms: C1_2  and  C2_3 
ROOT
ATOM      1  C2  UNL d   1       3.111  -1.702  -1.655  0.00  0.00    -0.081 A 
ATOM      2  C3  UNL d   1       4.205  -1.111  -2.299  0.00  0.00     0.006 A 
ATOM      3  C4  UNL d   1       4.796   0.042  -1.777  0.00  0.00     0.002 A 
ATOM      4  C5  UNL d   1       4.307   0.619  -0.600  0.00  0.00    -0.080 A 
ATOM      5  C6  UNL d   1       4.951   1.840  -0.013  0.00  0.00     0.076 C 
ATOM      6  C7  UNL d   1       3.203   0.040   0.034  0.00  0.00     0.002 A 
ATOM      7  C8  UNL d   1       2.612  -1.113  -0.488  0.00  0.00     0.006 A 
ENDROOT
BRANCH   1   8
ATOM      8  C1  UNL d   1       2.513  -2.982  -2.179  0.00  0.00     0.054 C 
ATOM      9  C   UNL d   1       1.570  -3.610  -1.162  0.00  0.00     0.018 C 
ENDBRANCH   1   8
TORSDOF 1
ENDMDL
