MODEL 1
REMARK minimizedAffinity 10.5488634
REMARK minimizedRMSD -1
REMARK  1 active torsions:
REMARK  status: ('A' for Active; 'I' for Inactive)
REMARK    1  A    between atoms: C1_2  and  C2_3 
ROOT
ATOM      1  C2  UNL d   1       2.225  -0.069  -0.113  0.00  0.00    -0.081 A 
ATOM      2  C3  UNL d   1       1.234   0.218  -1.060  0.00  0.00     0.006 A 
ATOM      3  C4  UNL d   1      -0.000   0.734  -0.660  0.00  0.00     0.002 A 
ATOM      4  C5  UNL d   1      -0.263   0.978   0.692  0.00  0.00    -0.080 A 
ATOM      5  C6  UNL d   1      -1.573   1.560   1.132  0.00  0.00     0.076 C 
ATOM      6  C7  UNL d   1       0.720   0.675   1.640  0.00  0.00     0.002 A 
ATOM      7  C8  UNL d   1       1.954   0.158   1.241  0.00  0.00     0.006 A 
ENDROOT
BRANCH   1   8
ATOM      8  C1  UNL d   1       3.580  -0.565  -0.547  0.00  0.00     0.054 C 
ATOM      9  C   UNL d   1       4.571   0.582  -0.683  0.00  0.00     0.018 C 
ENDBRANCH   1   8
TORSDOF 1
ENDMDL
