MODEL 1
REMARK minimizedAffinity 9.57579517
REMARK minimizedRMSD -1
REMARK  1 active torsions:
REMARK  status: ('A' for Active; 'I' for Inactive)
REMARK    1  A    between atoms: C1_2  and  C2_3 
ROOT
ATOM      1  C2  UNL d   1       4.556   1.354  -0.653  0.00  0.00    -0.081 A 
ATOM      2  C3  UNL d   1       3.448   0.616  -1.086  0.00  0.00     0.006 A 
ATOM      3  C4  UNL d   1       2.495   0.165  -0.169  0.00  0.00     0.002 A 
ATOM      4  C5  UNL d   1       2.630   0.451   1.194  0.00  0.00    -0.080 A 
ATOM      5  C6  UNL d   1       1.599  -0.001   2.184  0.00  0.00     0.076 C 
ATOM      6  C7  UNL d   1       3.746   1.174   1.629  0.00  0.00     0.002 A 
ATOM      7  C8  UNL d   1       4.700   1.624   0.713  0.00  0.00     0.006 A 
ENDROOT
BRANCH   1   8
ATOM      8  C1  UNL d   1       5.551   1.897  -1.646  0.00  0.00     0.054 C 
ATOM      9  C   UNL d   1       5.636   3.415  -1.571  0.00  0.00     0.018 C 
ENDBRANCH   1   8
TORSDOF 1
ENDMDL
