MODEL 1
REMARK minimizedAffinity 5.50352049
REMARK minimizedRMSD -1
REMARK  1 active torsions:
REMARK  status: ('A' for Active; 'I' for Inactive)
REMARK    1  A    between atoms: C1_2  and  C2_3 
ROOT
ATOM      1  C2  UNL d   1       3.396  -1.186  -1.420  0.00  0.00    -0.081 A 
ATOM      2  C3  UNL d   1       4.515  -0.710  -2.116  0.00  0.00     0.006 A 
ATOM      3  C4  UNL d   1       5.087   0.519  -1.781  0.00  0.00     0.002 A 
ATOM      4  C5  UNL d   1       4.556   1.289  -0.741  0.00  0.00    -0.080 A 
ATOM      5  C6  UNL d   1       5.179   2.597  -0.352  0.00  0.00     0.076 C 
ATOM      6  C7  UNL d   1       3.428   0.823  -0.058  0.00  0.00     0.002 A 
ATOM      7  C8  UNL d   1       2.855  -0.406  -0.392  0.00  0.00     0.006 A 
ENDROOT
BRANCH   1   8
ATOM      8  C1  UNL d   1       2.817  -2.541  -1.736  0.00  0.00     0.054 C 
ATOM      9  C   UNL d   1       3.306  -3.052  -3.084  0.00  0.00     0.018 C 
ENDBRANCH   1   8
TORSDOF 1
ENDMDL
