MODEL 1
REMARK minimizedAffinity 9.53910828
REMARK minimizedRMSD -1
REMARK  0 active torsions:
REMARK  status: ('A' for Active; 'I' for Inactive)
ROOT
ATOM      1  C2' OXE d   1       2.906  -4.480  -0.186  0.00  0.00     0.078 C 
ATOM      2  C1' OXE d   1       1.251  -4.221  -2.438  0.00  0.00     0.078 C 
ATOM      3  C1  OXE d   1       1.728  -2.958  -1.767  0.00  0.00    -0.078 A 
ATOM      4  C2  OXE d   1       2.499  -3.094  -0.637  0.00  0.00    -0.078 A 
ATOM      5  C3  OXE d   1       3.010  -1.962  -0.010  0.00  0.00     0.003 A 
ATOM      6  C4  OXE d   1       2.621  -0.683  -0.429  0.00  0.00    -0.002 A 
ATOM      7  C5  OXE d   1       1.804  -0.522  -1.553  0.00  0.00    -0.002 A 
ATOM      8  C6  OXE d   1       1.385  -1.646  -2.257  0.00  0.00     0.003 A 
ENDROOT
TORSDOF 0
ENDMDL
