MODEL 1
REMARK minimizedAffinity 4.36492634
REMARK minimizedRMSD -1
REMARK  0 active torsions:
REMARK  status: ('A' for Active; 'I' for Inactive)
ROOT
ATOM      1  C2' OXE d   1      -3.659  -0.755   1.845  0.00  0.00     0.078 C 
ATOM      2  C1' OXE d   1      -3.686   1.357   3.694  0.00  0.00     0.078 C 
ATOM      3  C1  OXE d   1      -2.382   1.042   3.005  0.00  0.00    -0.078 A 
ATOM      4  C2  OXE d   1      -2.367  -0.023   2.136  0.00  0.00    -0.078 A 
ATOM      5  C3  OXE d   1      -1.204  -0.322   1.433  0.00  0.00     0.003 A 
ATOM      6  C4  OXE d   1      -0.011   0.354   1.716  0.00  0.00    -0.002 A 
ATOM      7  C5  OXE d   1       0.005   1.416   2.626  0.00  0.00    -0.002 A 
ATOM      8  C6  OXE d   1      -1.179   1.800   3.246  0.00  0.00     0.003 A 
ENDROOT
TORSDOF 0
ENDMDL
