MODEL 1
REMARK minimizedAffinity 7.86994028
REMARK minimizedRMSD -1
REMARK  0 active torsions:
REMARK  status: ('A' for Active; 'I' for Inactive)
ROOT
ATOM      1  C2' OXE d   1       2.431  -3.806  -0.301  0.00  0.00     0.078 C 
ATOM      2  C1' OXE d   1       0.947  -3.377  -2.645  0.00  0.00     0.078 C 
ATOM      3  C1  OXE d   1       1.558  -2.175  -1.969  0.00  0.00    -0.078 A 
ATOM      4  C2  OXE d   1       2.242  -2.389  -0.797  0.00  0.00    -0.078 A 
ATOM      5  C3  OXE d   1       2.871  -1.322  -0.162  0.00  0.00     0.003 A 
ATOM      6  C4  OXE d   1       2.684  -0.013  -0.621  0.00  0.00    -0.002 A 
ATOM      7  C5  OXE d   1       1.957   0.232  -1.791  0.00  0.00    -0.002 A 
ATOM      8  C6  OXE d   1       1.424  -0.840  -2.499  0.00  0.00     0.003 A 
ENDROOT
TORSDOF 0
ENDMDL
