MODEL 1
REMARK minimizedAffinity 13.2710228
REMARK minimizedRMSD -1
REMARK  0 active torsions:
REMARK  status: ('A' for Active; 'I' for Inactive)
ROOT
ATOM      1  C2' OXE d   1      -4.525   3.718   6.000  0.00  0.00     0.078 C 
ATOM      2  C1' OXE d   1      -5.696   3.174   3.507  0.00  0.00     0.078 C 
ATOM      3  C1  OXE d   1      -4.392   2.492   3.836  0.00  0.00    -0.078 A 
ATOM      4  C2  OXE d   1      -3.802   2.800   5.038  0.00  0.00    -0.078 A 
ATOM      5  C3  OXE d   1      -2.626   2.157   5.414  0.00  0.00     0.003 A 
ATOM      6  C4  OXE d   1      -1.959   1.317   4.515  0.00  0.00    -0.002 A 
ATOM      7  C5  OXE d   1      -2.522   1.020   3.269  0.00  0.00    -0.002 A 
ATOM      8  C6  OXE d   1      -3.756   1.565   2.932  0.00  0.00     0.003 A 
ENDROOT
TORSDOF 0
ENDMDL
