MODEL 1
REMARK minimizedAffinity 8.92991734
REMARK minimizedRMSD -1
REMARK  0 active torsions:
REMARK  status: ('A' for Active; 'I' for Inactive)
ROOT
ATOM      1  C2' OXE d   1       1.085   1.443   2.220  0.00  0.00     0.078 C 
ATOM      2  C1' OXE d   1       1.557   0.152  -0.227  0.00  0.00     0.078 C 
ATOM      3  C1  OXE d   1       2.594   1.132   0.263  0.00  0.00    -0.078 A 
ATOM      4  C2  OXE d   1       2.333   1.794   1.438  0.00  0.00    -0.078 A 
ATOM      5  C3  OXE d   1       3.281   2.667   1.963  0.00  0.00     0.003 A 
ATOM      6  C4  OXE d   1       4.427   2.993   1.229  0.00  0.00    -0.002 A 
ATOM      7  C5  OXE d   1       4.694   2.360   0.010  0.00  0.00    -0.002 A 
ATOM      8  C6  OXE d   1       3.810   1.398  -0.465  0.00  0.00     0.003 A 
ENDROOT
TORSDOF 0
ENDMDL
