MODEL 1
REMARK minimizedAffinity 7.8353343
REMARK minimizedRMSD -1
REMARK  0 active torsions:
REMARK  status: ('A' for Active; 'I' for Inactive)
ROOT
ATOM      1  C2' OXE d   1       3.339  -5.546  -0.903  0.00  0.00     0.078 C 
ATOM      2  C1' OXE d   1       1.499  -4.777  -2.878  0.00  0.00     0.078 C 
ATOM      3  C1  OXE d   1       1.972  -3.723  -1.909  0.00  0.00    -0.078 A 
ATOM      4  C2  OXE d   1       2.836  -4.118  -0.917  0.00  0.00    -0.078 A 
ATOM      5  C3  OXE d   1       3.346  -3.175  -0.030  0.00  0.00     0.003 A 
ATOM      6  C4  OXE d   1       2.868  -1.859  -0.043  0.00  0.00    -0.002 A 
ATOM      7  C5  OXE d   1       1.957  -1.444  -1.020  0.00  0.00    -0.002 A 
ATOM      8  C6  OXE d   1       1.532  -2.351  -1.984  0.00  0.00     0.003 A 
ENDROOT
TORSDOF 0
ENDMDL
