MODEL 1
REMARK minimizedAffinity 10.3712063
REMARK minimizedRMSD -1
REMARK  0 active torsions:
REMARK  status: ('A' for Active; 'I' for Inactive)
ROOT
ATOM      1  C2' OXE d   1       2.837  -4.261  -0.332  0.00  0.00     0.078 C 
ATOM      2  C1' OXE d   1       1.159  -3.813  -2.537  0.00  0.00     0.078 C 
ATOM      3  C1  OXE d   1       1.647  -2.611  -1.769  0.00  0.00    -0.078 A 
ATOM      4  C2  OXE d   1       2.430  -2.842  -0.663  0.00  0.00    -0.078 A 
ATOM      5  C3  OXE d   1       2.951  -1.766   0.049  0.00  0.00     0.003 A 
ATOM      6  C4  OXE d   1       2.562  -0.456  -0.258  0.00  0.00    -0.002 A 
ATOM      7  C5  OXE d   1       1.733  -0.201  -1.356  0.00  0.00    -0.002 A 
ATOM      8  C6  OXE d   1       1.303  -1.262  -2.146  0.00  0.00     0.003 A 
ENDROOT
TORSDOF 0
ENDMDL
