MODEL 1
REMARK minimizedAffinity 15.5490208
REMARK minimizedRMSD -1
REMARK  0 active torsions:
REMARK  status: ('A' for Active; 'I' for Inactive)
ROOT
ATOM      1  C2' OXE d   1      -4.493   2.629   6.000  0.00  0.00     0.078 C 
ATOM      2  C1' OXE d   1      -5.997   2.056   3.700  0.00  0.00     0.078 C 
ATOM      3  C1  OXE d   1      -4.559   1.602   3.731  0.00  0.00    -0.078 A 
ATOM      4  C2  OXE d   1      -3.817   1.928   4.841  0.00  0.00    -0.078 A 
ATOM      5  C3  OXE d   1      -2.501   1.486   4.944  0.00  0.00     0.003 A 
ATOM      6  C4  OXE d   1      -1.881   0.847   3.864  0.00  0.00    -0.002 A 
ATOM      7  C5  OXE d   1      -2.607   0.541   2.708  0.00  0.00    -0.002 A 
ATOM      8  C6  OXE d   1      -3.956   0.873   2.643  0.00  0.00     0.003 A 
ENDROOT
TORSDOF 0
ENDMDL
