MODEL 1
REMARK minimizedAffinity 20.8973808
REMARK minimizedRMSD -1
REMARK  0 active torsions:
REMARK  status: ('A' for Active; 'I' for Inactive)
ROOT
ATOM      1  C2' OXE d   1       4.956  -2.812   0.511  0.00  0.00     0.078 C 
ATOM      2  C1' OXE d   1       2.319  -3.125  -0.398  0.00  0.00     0.078 C 
ATOM      3  C1  OXE d   1       2.828  -1.721  -0.185  0.00  0.00    -0.078 A 
ATOM      4  C2  OXE d   1       4.104  -1.579   0.304  0.00  0.00    -0.078 A 
ATOM      5  C3  OXE d   1       4.641  -0.305   0.467  0.00  0.00     0.003 A 
ATOM      6  C4  OXE d   1       3.843   0.830   0.284  0.00  0.00    -0.002 A 
ATOM      7  C5  OXE d   1       2.528   0.706  -0.176  0.00  0.00    -0.002 A 
ATOM      8  C6  OXE d   1       2.020  -0.558  -0.455  0.00  0.00     0.003 A 
ENDROOT
TORSDOF 0
ENDMDL
