MODEL 1
REMARK minimizedAffinity 17.3888321
REMARK minimizedRMSD -1
REMARK  0 active torsions:
REMARK  status: ('A' for Active; 'I' for Inactive)
ROOT
ATOM      1  C2' OXE d   1       4.181  -5.644   0.441  0.00  0.00     0.078 C 
ATOM      2  C1' OXE d   1       5.991  -3.555  -0.046  0.00  0.00     0.078 C 
ATOM      3  C1  OXE d   1       4.520  -3.223  -0.034  0.00  0.00    -0.078 A 
ATOM      4  C2  OXE d   1       3.639  -4.259   0.159  0.00  0.00    -0.078 A 
ATOM      5  C3  OXE d   1       2.274  -3.999   0.235  0.00  0.00     0.003 A 
ATOM      6  C4  OXE d   1       1.781  -2.717  -0.037  0.00  0.00    -0.002 A 
ATOM      7  C5  OXE d   1       2.659  -1.654  -0.275  0.00  0.00    -0.002 A 
ATOM      8  C6  OXE d   1       4.030  -1.881  -0.235  0.00  0.00     0.003 A 
ENDROOT
TORSDOF 0
ENDMDL
