MODEL 1
REMARK minimizedAffinity 11.1305714
REMARK minimizedRMSD -1
REMARK  0 active torsions:
REMARK  status: ('A' for Active; 'I' for Inactive)
ROOT
ATOM      1  C2' OXE d   1       3.123  -3.545   0.225  0.00  0.00     0.078 C 
ATOM      2  C1' OXE d   1       5.560  -2.481   1.126  0.00  0.00     0.078 C 
ATOM      3  C1  OXE d   1       4.358  -1.569   1.105  0.00  0.00    -0.078 A 
ATOM      4  C2  OXE d   1       3.181  -2.085   0.619  0.00  0.00    -0.078 A 
ATOM      5  C3  OXE d   1       2.030  -1.304   0.629  0.00  0.00     0.003 A 
ATOM      6  C4  OXE d   1       2.094   0.049   0.985  0.00  0.00    -0.002 A 
ATOM      7  C5  OXE d   1       3.292   0.605   1.446  0.00  0.00    -0.002 A 
ATOM      8  C6  OXE d   1       4.421  -0.199   1.552  0.00  0.00     0.003 A 
ENDROOT
TORSDOF 0
ENDMDL
