MODEL 1
REMARK minimizedAffinity 13.5822659
REMARK minimizedRMSD -1
REMARK  0 active torsions:
REMARK  status: ('A' for Active; 'I' for Inactive)
ROOT
ATOM      1  C2' OXE d   1       1.230  -2.125  -2.272  0.00  0.00     0.078 C 
ATOM      2  C1' OXE d   1       0.467  -4.333  -3.828  0.00  0.00     0.078 C 
ATOM      3  C1  OXE d   1       1.466  -4.563  -2.722  0.00  0.00    -0.078 A 
ATOM      4  C2  OXE d   1       1.869  -3.468  -1.996  0.00  0.00    -0.078 A 
ATOM      5  C3  OXE d   1       2.748  -3.634  -0.930  0.00  0.00     0.003 A 
ATOM      6  C4  OXE d   1       3.343  -4.879  -0.688  0.00  0.00    -0.002 A 
ATOM      7  C5  OXE d   1       2.976  -5.999  -1.441  0.00  0.00    -0.002 A 
ATOM      8  C6  OXE d   1       2.010  -5.867  -2.432  0.00  0.00     0.003 A 
ENDROOT
TORSDOF 0
ENDMDL
