MODEL 1
REMARK minimizedAffinity 15.8269157
REMARK minimizedRMSD -1
REMARK  0 active torsions:
REMARK  status: ('A' for Active; 'I' for Inactive)
ROOT
ATOM      1  C2' OXE d   1      -2.129  -5.244  -1.716  0.00  0.00     0.078 C 
ATOM      2  C1' OXE d   1       0.062  -5.342  -3.467  0.00  0.00     0.078 C 
ATOM      3  C1  OXE d   1      -1.219  -4.733  -3.978  0.00  0.00    -0.078 A 
ATOM      4  C2  OXE d   1      -2.301  -4.731  -3.130  0.00  0.00    -0.078 A 
ATOM      5  C3  OXE d   1      -3.491  -4.132  -3.532  0.00  0.00     0.003 A 
ATOM      6  C4  OXE d   1      -3.644  -3.670  -4.844  0.00  0.00    -0.002 A 
ATOM      7  C5  OXE d   1      -2.567  -3.698  -5.737  0.00  0.00    -0.002 A 
ATOM      8  C6  OXE d   1      -1.338  -4.186  -5.307  0.00  0.00     0.003 A 
ENDROOT
TORSDOF 0
ENDMDL
