MODEL 1
REMARK minimizedAffinity 12.1988268
REMARK minimizedRMSD -1
REMARK  0 active torsions:
REMARK  status: ('A' for Active; 'I' for Inactive)
ROOT
ATOM      1  C2' OXE d   1      -5.724   3.014   3.254  0.00  0.00     0.078 C 
ATOM      2  C1' OXE d   1      -5.223   3.317   6.000  0.00  0.00     0.078 C 
ATOM      3  C1  OXE d   1      -4.505   2.208   5.272  0.00  0.00    -0.078 A 
ATOM      4  C2  OXE d   1      -4.791   2.038   3.939  0.00  0.00    -0.078 A 
ATOM      5  C3  OXE d   1      -4.116   1.065   3.207  0.00  0.00     0.003 A 
ATOM      6  C4  OXE d   1      -3.263   0.160   3.850  0.00  0.00    -0.002 A 
ATOM      7  C5  OXE d   1      -2.987   0.291   5.215  0.00  0.00    -0.002 A 
ATOM      8  C6  OXE d   1      -3.566   1.334   5.930  0.00  0.00     0.003 A 
ENDROOT
TORSDOF 0
ENDMDL
