MODEL 1
REMARK minimizedAffinity 18.5985832
REMARK minimizedRMSD -1
REMARK  0 active torsions:
REMARK  status: ('A' for Active; 'I' for Inactive)
ROOT
ATOM      1  C2' OXE d   1       0.789  -3.933  -2.411  0.00  0.00     0.078 C 
ATOM      2  C1' OXE d   1       1.964  -4.009   0.137  0.00  0.00     0.078 C 
ATOM      3  C1  OXE d   1       1.936  -2.686  -0.585  0.00  0.00    -0.078 A 
ATOM      4  C2  OXE d   1       1.401  -2.667  -1.851  0.00  0.00    -0.078 A 
ATOM      5  C3  OXE d   1       1.302  -1.462  -2.540  0.00  0.00     0.003 A 
ATOM      6  C4  OXE d   1       1.880  -0.298  -2.019  0.00  0.00    -0.002 A 
ATOM      7  C5  OXE d   1       2.465  -0.303  -0.748  0.00  0.00    -0.002 A 
ATOM      8  C6  OXE d   1       2.464  -1.477  -0.002  0.00  0.00     0.003 A 
ENDROOT
TORSDOF 0
ENDMDL
