MODEL 1
REMARK minimizedAffinity 18.1155338
REMARK minimizedRMSD -1
REMARK  0 active torsions:
REMARK  status: ('A' for Active; 'I' for Inactive)
ROOT
ATOM      1  C2' OXE d   1       0.380  -0.003   2.080  0.00  0.00     0.078 C 
ATOM      2  C1' OXE d   1      -2.078   1.076   2.899  0.00  0.00     0.078 C 
ATOM      3  C1  OXE d   1      -0.915   1.172   3.854  0.00  0.00    -0.078 A 
ATOM      4  C2  OXE d   1       0.272   0.600   3.463  0.00  0.00    -0.078 A 
ATOM      5  C3  OXE d   1       1.392   0.709   4.283  0.00  0.00     0.003 A 
ATOM      6  C4  OXE d   1       1.281   1.260   5.565  0.00  0.00    -0.002 A 
ATOM      7  C5  OXE d   1       0.072   1.813   5.998  0.00  0.00    -0.002 A 
ATOM      8  C6  OXE d   1      -1.022   1.815   5.140  0.00  0.00     0.003 A 
ENDROOT
TORSDOF 0
ENDMDL
