MODEL 1
REMARK minimizedAffinity 2.9314568
REMARK minimizedRMSD -1
REMARK  0 active torsions:
REMARK  status: ('A' for Active; 'I' for Inactive)
ROOT
ATOM      1  C2' OXE d   1       0.579  -3.732  -3.003  0.00  0.00     0.078 C 
ATOM      2  C1' OXE d   1       2.255  -1.827  -1.803  0.00  0.00     0.078 C 
ATOM      3  C1  OXE d   1       2.564  -3.284  -1.567  0.00  0.00    -0.078 A 
ATOM      4  C2  OXE d   1       1.711  -4.209  -2.120  0.00  0.00    -0.078 A 
ATOM      5  C3  OXE d   1       1.982  -5.567  -1.979  0.00  0.00     0.003 A 
ATOM      6  C4  OXE d   1       3.026  -6.000  -1.152  0.00  0.00    -0.002 A 
ATOM      7  C5  OXE d   1       3.883  -5.074  -0.547  0.00  0.00    -0.002 A 
ATOM      8  C6  OXE d   1       3.692  -3.716  -0.778  0.00  0.00     0.003 A 
ENDROOT
TORSDOF 0
ENDMDL
