MODEL 1
REMARK minimizedAffinity 20.2517967
REMARK minimizedRMSD -1
REMARK  0 active torsions:
REMARK  status: ('A' for Active; 'I' for Inactive)
ROOT
ATOM      1  C2' OXE d   1       1.328   1.092   3.174  0.00  0.00     0.078 C 
ATOM      2  C1' OXE d   1       0.658  -0.599   1.036  0.00  0.00     0.078 C 
ATOM      3  C1  OXE d   1      -0.467   0.084   1.772  0.00  0.00    -0.078 A 
ATOM      4  C2  OXE d   1      -0.133   0.872   2.846  0.00  0.00    -0.078 A 
ATOM      5  C3  OXE d   1      -1.128   1.569   3.526  0.00  0.00     0.003 A 
ATOM      6  C4  OXE d   1      -2.478   1.352   3.223  0.00  0.00    -0.002 A 
ATOM      7  C5  OXE d   1      -2.842   0.522   2.158  0.00  0.00    -0.002 A 
ATOM      8  C6  OXE d   1      -1.850  -0.085   1.397  0.00  0.00     0.003 A 
ENDROOT
TORSDOF 0
ENDMDL
