MODEL 1
REMARK minimizedAffinity -1.20213711
REMARK minimizedRMSD -1
REMARK  2 active torsions:
REMARK  status: ('A' for Active; 'I' for Inactive)
REMARK    1  A    between atoms: C1_2  and  C2_3 
REMARK    2  A    between atoms: C2_3  and  C3_4 
ROOT
ATOM      1  C3  UNL d   1       5.974  -3.144   4.690  0.00  0.00    -0.075 A 
ATOM      2  C4  UNL d   1       5.981  -3.849   3.477  0.00  0.00     0.002 A 
ATOM      3  C5  UNL d   1       5.983  -5.244   3.469  0.00  0.00     0.002 A 
ATOM      4  C6  UNL d   1       5.989  -5.951   4.669  0.00  0.00    -0.004 A 
ATOM      5  C7  UNL d   1       5.999  -5.262   5.880  0.00  0.00     0.002 A 
ATOM      6  C8  UNL d   1       5.993  -3.866   5.891  0.00  0.00     0.002 A 
ENDROOT
BRANCH   1   7
ATOM      7  C2  UNL d   1       5.942  -1.635   4.707  0.00  0.00     0.056 C 
BRANCH   7   8
ATOM      8  C1  UNL d   1       4.943  -1.021   3.720  0.00  0.00     0.007 C 
ATOM      9  C   UNL d   1       5.610  -0.232   2.602  0.00  0.00     0.009 C 
ENDBRANCH   7   8
ENDBRANCH   1   7
TORSDOF 2
ENDMDL
