MODEL 1
REMARK minimizedAffinity -3.70926261
REMARK minimizedRMSD -1
REMARK  2 active torsions:
REMARK  status: ('A' for Active; 'I' for Inactive)
REMARK    1  A    between atoms: C1_2  and  C2_3 
REMARK    2  A    between atoms: C2_3  and  C3_4 
ROOT
ATOM      1  C3  UNL d   1       3.475  -5.618   2.219  0.00  0.00    -0.075 A 
ATOM      2  C4  UNL d   1       4.393  -4.887   1.450  0.00  0.00     0.002 A 
ATOM      3  C5  UNL d   1       5.649  -4.565   1.964  0.00  0.00     0.002 A 
ATOM      4  C6  UNL d   1       6.000  -4.959   3.253  0.00  0.00    -0.004 A 
ATOM      5  C7  UNL d   1       5.090  -5.672   4.032  0.00  0.00     0.002 A 
ATOM      6  C8  UNL d   1       3.834  -5.999   3.518  0.00  0.00     0.002 A 
ENDROOT
BRANCH   1   7
ATOM      7  C2  UNL d   1       2.125  -5.995   1.657  0.00  0.00     0.056 C 
BRANCH   7   8
ATOM      8  C1  UNL d   1       0.963  -5.173   2.224  0.00  0.00     0.007 C 
ATOM      9  C   UNL d   1      -0.003  -5.998   3.065  0.00  0.00     0.009 C 
ENDBRANCH   7   8
ENDBRANCH   1   7
TORSDOF 2
ENDMDL
