MODEL 1
REMARK minimizedAffinity -2.76853251
REMARK minimizedRMSD -1
REMARK  2 active torsions:
REMARK  status: ('A' for Active; 'I' for Inactive)
REMARK    1  A    between atoms: C1_2  and  C2_3 
REMARK    2  A    between atoms: C2_3  and  C3_4 
ROOT
ATOM      1  C3  UNL d   1       5.030  -5.476   3.188  0.00  0.00    -0.075 A 
ATOM      2  C4  UNL d   1       3.732  -5.999   3.093  0.00  0.00     0.002 A 
ATOM      3  C5  UNL d   1       2.853  -5.538   2.113  0.00  0.00     0.002 A 
ATOM      4  C6  UNL d   1       3.255  -4.544   1.224  0.00  0.00    -0.004 A 
ATOM      5  C7  UNL d   1       4.537  -4.006   1.319  0.00  0.00     0.002 A 
ATOM      6  C8  UNL d   1       5.420  -4.468   2.296  0.00  0.00     0.002 A 
ENDROOT
BRANCH   1   7
ATOM      7  C2  UNL d   1       5.997  -5.991   4.228  0.00  0.00     0.056 C 
BRANCH   7   8
ATOM      8  C1  UNL d   1       5.592  -5.668   5.670  0.00  0.00     0.007 C 
ATOM      9  C   UNL d   1       5.682  -4.184   6.000  0.00  0.00     0.009 C 
ENDBRANCH   7   8
ENDBRANCH   1   7
TORSDOF 2
ENDMDL
