MODEL 1
REMARK minimizedAffinity 2.9830966
REMARK minimizedRMSD -1
REMARK  2 active torsions:
REMARK  status: ('A' for Active; 'I' for Inactive)
REMARK    1  A    between atoms: C1_2  and  C2_3 
REMARK    2  A    between atoms: C2_3  and  C3_4 
ROOT
ATOM      1  C3  UNL d   1       2.700  -5.931   2.753  0.00  0.00    -0.075 A 
ATOM      2  C4  UNL d   1       3.574  -5.845   1.660  0.00  0.00     0.002 A 
ATOM      3  C5  UNL d   1       4.955  -5.850   1.856  0.00  0.00     0.002 A 
ATOM      4  C6  UNL d   1       5.479  -5.930   3.144  0.00  0.00    -0.004 A 
ATOM      5  C7  UNL d   1       4.620  -5.999   4.239  0.00  0.00     0.002 A 
ATOM      6  C8  UNL d   1       3.237  -5.998   4.046  0.00  0.00     0.002 A 
ENDROOT
BRANCH   1   7
ATOM      7  C2  UNL d   1       1.204  -5.955   2.546  0.00  0.00     0.056 C 
BRANCH   7   8
ATOM      8  C1  UNL d   1       0.587  -4.576   2.292  0.00  0.00     0.007 C 
ATOM      9  C   UNL d   1       0.482  -4.228   0.813  0.00  0.00     0.009 C 
ENDBRANCH   7   8
ENDBRANCH   1   7
TORSDOF 2
ENDMDL
