MODEL 1
REMARK minimizedAffinity -0.861843646
REMARK minimizedRMSD -1
REMARK  2 active torsions:
REMARK  status: ('A' for Active; 'I' for Inactive)
REMARK    1  A    between atoms: C1_2  and  C2_3 
REMARK    2  A    between atoms: C2_3  and  C3_4 
ROOT
ATOM      1  C3  UNL d   1      -5.139   4.520   3.226  0.00  0.00    -0.075 A 
ATOM      2  C4  UNL d   1      -3.845   4.771   2.749  0.00  0.00     0.002 A 
ATOM      3  C5  UNL d   1      -3.078   3.740   2.205  0.00  0.00     0.002 A 
ATOM      4  C6  UNL d   1      -3.590   2.446   2.141  0.00  0.00    -0.004 A 
ATOM      5  C7  UNL d   1      -4.869   2.182   2.627  0.00  0.00     0.002 A 
ATOM      6  C8  UNL d   1      -5.640   3.212   3.168  0.00  0.00     0.002 A 
ENDROOT
BRANCH   1   7
ATOM      7  C2  UNL d   1      -5.985   5.637   3.790  0.00  0.00     0.056 C 
BRANCH   7   8
ATOM      8  C1  UNL d   1      -6.000   5.697   5.321  0.00  0.00     0.007 C 
ATOM      9  C   UNL d   1      -4.633   5.994   5.923  0.00  0.00     0.009 C 
ENDBRANCH   7   8
ENDBRANCH   1   7
TORSDOF 2
ENDMDL
