MODEL 1
REMARK minimizedAffinity -3.21586871
REMARK minimizedRMSD -1
REMARK  2 active torsions:
REMARK  status: ('A' for Active; 'I' for Inactive)
REMARK    1  A    between atoms: C1_2  and  C2_3 
REMARK    2  A    between atoms: C2_3  and  C3_4 
ROOT
ATOM      1  C3  UNL d   1       0.409  -5.486   2.232  0.00  0.00    -0.075 A 
ATOM      2  C4  UNL d   1      -0.592  -5.998   3.070  0.00  0.00     0.002 A 
ATOM      3  C5  UNL d   1      -1.935  -5.917   2.700  0.00  0.00     0.002 A 
ATOM      4  C6  UNL d   1      -2.294  -5.315   1.496  0.00  0.00    -0.004 A 
ATOM      5  C7  UNL d   1      -1.309  -4.789   0.664  0.00  0.00     0.002 A 
ATOM      6  C8  UNL d   1       0.036  -4.873   1.029  0.00  0.00     0.002 A 
ENDROOT
BRANCH   1   7
ATOM      7  C2  UNL d   1       1.866  -5.597   2.613  0.00  0.00     0.056 C 
BRANCH   7   8
ATOM      8  C1  UNL d   1       2.826  -5.588   1.418  0.00  0.00     0.007 C 
ATOM      9  C   UNL d   1       4.226  -5.109   1.776  0.00  0.00     0.009 C 
ENDBRANCH   7   8
ENDBRANCH   1   7
TORSDOF 2
ENDMDL
