MODEL 1
REMARK minimizedAffinity 7.92521238
REMARK minimizedRMSD -1
REMARK  2 active torsions:
REMARK  status: ('A' for Active; 'I' for Inactive)
REMARK    1  A    between atoms: C1_2  and  C2_3 
REMARK    2  A    between atoms: C2_3  and  C3_4 
ROOT
ATOM      1  C3  UNL d   1      -3.688   1.146   1.713  0.00  0.00    -0.075 A 
ATOM      2  C4  UNL d   1      -2.437   1.687   2.046  0.00  0.00     0.002 A 
ATOM      3  C5  UNL d   1      -1.265   1.125   1.540  0.00  0.00     0.002 A 
ATOM      4  C6  UNL d   1      -1.326   0.011   0.706  0.00  0.00    -0.004 A 
ATOM      5  C7  UNL d   1      -2.562  -0.545   0.383  0.00  0.00     0.002 A 
ATOM      6  C8  UNL d   1      -3.737   0.018   0.883  0.00  0.00     0.002 A 
ENDROOT
BRANCH   1   7
ATOM      7  C2  UNL d   1      -4.962   1.767   2.233  0.00  0.00     0.056 C 
BRANCH   7   8
ATOM      8  C1  UNL d   1      -5.855   0.798   3.014  0.00  0.00     0.007 C 
ATOM      9  C   UNL d   1      -5.995   1.162   4.486  0.00  0.00     0.009 C 
ENDBRANCH   7   8
ENDBRANCH   1   7
TORSDOF 2
ENDMDL
