MODEL 1
REMARK minimizedAffinity 3.30342937
REMARK minimizedRMSD -1
REMARK  2 active torsions:
REMARK  status: ('A' for Active; 'I' for Inactive)
REMARK    1  A    between atoms: C1_2  and  C2_3 
REMARK    2  A    between atoms: C2_3  and  C3_4 
ROOT
ATOM      1  C3  UNL d   1      -1.380   0.408   1.096  0.00  0.00    -0.075 A 
ATOM      2  C4  UNL d   1      -0.358   1.320   0.795  0.00  0.00     0.002 A 
ATOM      3  C5  UNL d   1       0.928   1.138   1.306  0.00  0.00     0.002 A 
ATOM      4  C6  UNL d   1       1.205   0.050   2.131  0.00  0.00    -0.004 A 
ATOM      5  C7  UNL d   1       0.193  -0.853   2.451  0.00  0.00     0.002 A 
ATOM      6  C8  UNL d   1      -1.093  -0.676   1.937  0.00  0.00     0.002 A 
ENDROOT
BRANCH   1   7
ATOM      7  C2  UNL d   1      -2.765   0.583   0.522  0.00  0.00     0.056 C 
BRANCH   7   8
ATOM      8  C1  UNL d   1      -3.651  -0.662   0.641  0.00  0.00     0.007 C 
ATOM      9  C   UNL d   1      -3.293  -1.751  -0.362  0.00  0.00     0.009 C 
ENDBRANCH   7   8
ENDBRANCH   1   7
TORSDOF 2
ENDMDL
