MODEL 1
REMARK minimizedAffinity 6.75366449
REMARK minimizedRMSD -1
REMARK  2 active torsions:
REMARK  status: ('A' for Active; 'I' for Inactive)
REMARK    1  A    between atoms: C1_2  and  C2_3 
REMARK    2  A    between atoms: C2_3  and  C3_4 
ROOT
ATOM      1  C3  UNL d   1      -5.694   1.108   3.406  0.00  0.00    -0.075 A 
ATOM      2  C4  UNL d   1      -5.675  -0.279   3.612  0.00  0.00     0.002 A 
ATOM      3  C5  UNL d   1      -5.828  -0.807   4.894  0.00  0.00     0.002 A 
ATOM      4  C6  UNL d   1      -5.991   0.043   5.986  0.00  0.00    -0.004 A 
ATOM      5  C7  UNL d   1      -5.995   1.423   5.796  0.00  0.00     0.002 A 
ATOM      6  C8  UNL d   1      -5.846   1.954   4.513  0.00  0.00     0.002 A 
ENDROOT
BRANCH   1   7
ATOM      7  C2  UNL d   1      -5.558   1.685   2.018  0.00  0.00     0.056 C 
BRANCH   7   8
ATOM      8  C1  UNL d   1      -4.140   2.150   1.671  0.00  0.00     0.007 C 
ATOM      9  C   UNL d   1      -3.237   1.020   1.194  0.00  0.00     0.009 C 
ENDBRANCH   7   8
ENDBRANCH   1   7
TORSDOF 2
ENDMDL
