MODEL 1
REMARK minimizedAffinity 4.04368544
REMARK minimizedRMSD -1
REMARK  2 active torsions:
REMARK  status: ('A' for Active; 'I' for Inactive)
REMARK    1  A    between atoms: C1_2  and  C2_3 
REMARK    2  A    between atoms: C2_3  and  C3_4 
ROOT
ATOM      1  C3  UNL d   1      -1.841  -3.510   0.485  0.00  0.00    -0.075 A 
ATOM      2  C4  UNL d   1      -0.505  -3.599   0.904  0.00  0.00     0.002 A 
ATOM      3  C5  UNL d   1       0.062  -4.838   1.203  0.00  0.00     0.002 A 
ATOM      4  C6  UNL d   1      -0.699  -6.000   1.099  0.00  0.00    -0.004 A 
ATOM      5  C7  UNL d   1      -2.032  -5.922   0.700  0.00  0.00     0.002 A 
ATOM      6  C8  UNL d   1      -2.601  -4.684   0.396  0.00  0.00     0.002 A 
ENDROOT
BRANCH   1   7
ATOM      7  C2  UNL d   1      -2.453  -2.176   0.131  0.00  0.00     0.056 C 
BRANCH   7   8
ATOM      8  C1  UNL d   1      -1.702  -0.972   0.710  0.00  0.00     0.007 C 
ATOM      9  C   UNL d   1      -1.652   0.217  -0.239  0.00  0.00     0.009 C 
ENDBRANCH   7   8
ENDBRANCH   1   7
TORSDOF 2
ENDMDL
