MODEL 1
REMARK minimizedAffinity -4.0988307
REMARK minimizedRMSD -1
REMARK  0 active torsions:
REMARK  status: ('A' for Active; 'I' for Inactive)
ROOT
ATOM      1  C2' OXE d   1       1.813  -0.230   1.520  0.00  0.00     0.078 C 
ATOM      2  C1' OXE d   1       0.505  -0.749  -0.909  0.00  0.00     0.078 C 
ATOM      3  C1  OXE d   1      -0.074   0.316  -0.011  0.00  0.00    -0.078 A 
ATOM      4  C2  OXE d   1       0.546   0.530   1.196  0.00  0.00    -0.078 A 
ATOM      5  C3  OXE d   1       0.085   1.539   2.038  0.00  0.00     0.003 A 
ATOM      6  C4  OXE d   1      -1.094   2.231   1.735  0.00  0.00    -0.002 A 
ATOM      7  C5  OXE d   1      -1.763   2.000   0.529  0.00  0.00    -0.002 A 
ATOM      8  C6  OXE d   1      -1.244   1.078  -0.373  0.00  0.00     0.003 A 
ENDROOT
TORSDOF 0
ENDMDL
