MODEL 1
REMARK minimizedAffinity -4.36136436
REMARK minimizedRMSD -1
REMARK  0 active torsions:
REMARK  status: ('A' for Active; 'I' for Inactive)
ROOT
ATOM      1  C2' OXE d   1      -0.332  -0.656  -0.862  0.00  0.00     0.078 C 
ATOM      2  C1' OXE d   1       0.446  -0.719   1.834  0.00  0.00     0.078 C 
ATOM      3  C1  OXE d   1      -0.117   0.572   1.295  0.00  0.00    -0.078 A 
ATOM      4  C2  OXE d   1      -0.451   0.608  -0.038  0.00  0.00    -0.078 A 
ATOM      5  C3  OXE d   1      -1.026   1.757  -0.573  0.00  0.00     0.003 A 
ATOM      6  C4  OXE d   1      -1.124   2.924   0.193  0.00  0.00    -0.002 A 
ATOM      7  C5  OXE d   1      -0.752   2.921   1.542  0.00  0.00    -0.002 A 
ATOM      8  C6  OXE d   1      -0.287   1.744   2.118  0.00  0.00     0.003 A 
ENDROOT
TORSDOF 0
ENDMDL
