MODEL 1
REMARK minimizedAffinity -5.73316002
REMARK minimizedRMSD -1
REMARK  0 active torsions:
REMARK  status: ('A' for Active; 'I' for Inactive)
ROOT
ATOM      1  C2' OXE d   1       0.349  -0.253   1.944  0.00  0.00     0.078 C 
ATOM      2  C1' OXE d   1       0.450  -0.424  -0.856  0.00  0.00     0.078 C 
ATOM      3  C1  OXE d   1      -0.146   0.821  -0.248  0.00  0.00    -0.078 A 
ATOM      4  C2  OXE d   1      -0.234   0.876   1.122  0.00  0.00    -0.078 A 
ATOM      5  C3  OXE d   1      -0.724   2.025   1.736  0.00  0.00     0.003 A 
ATOM      6  C4  OXE d   1      -1.270   3.061   0.968  0.00  0.00    -0.002 A 
ATOM      7  C5  OXE d   1      -1.227   3.007  -0.429  0.00  0.00    -0.002 A 
ATOM      8  C6  OXE d   1      -0.631   1.916  -1.051  0.00  0.00     0.003 A 
ENDROOT
TORSDOF 0
ENDMDL
