MODEL 1
REMARK minimizedAffinity -5.70928526
REMARK minimizedRMSD -1
REMARK  0 active torsions:
REMARK  status: ('A' for Active; 'I' for Inactive)
ROOT
ATOM      1  C2' OXE d   1       0.319  -0.574  -0.955  0.00  0.00     0.078 C 
ATOM      2  C1' OXE d   1       0.188  -0.477   1.848  0.00  0.00     0.078 C 
ATOM      3  C1  OXE d   1      -0.160   0.776   1.084  0.00  0.00    -0.078 A 
ATOM      4  C2  OXE d   1      -0.048   0.733  -0.285  0.00  0.00    -0.078 A 
ATOM      5  C3  OXE d   1      -0.410   1.845  -1.041  0.00  0.00     0.003 A 
ATOM      6  C4  OXE d   1      -0.738   3.052  -0.413  0.00  0.00    -0.002 A 
ATOM      7  C5  OXE d   1      -0.819   3.129   0.981  0.00  0.00    -0.002 A 
ATOM      8  C6  OXE d   1      -0.575   1.990   1.741  0.00  0.00     0.003 A 
ENDROOT
TORSDOF 0
ENDMDL
