MODEL 1
REMARK minimizedAffinity -4.00498915
REMARK minimizedRMSD -1
REMARK  0 active torsions:
REMARK  status: ('A' for Active; 'I' for Inactive)
ROOT
ATOM      1  C2' OXE d   1      -1.286   3.280  -1.232  0.00  0.00     0.078 C 
ATOM      2  C1' OXE d   1      -1.191   2.738   1.521  0.00  0.00     0.078 C 
ATOM      3  C1  OXE d   1      -0.662   1.686   0.578  0.00  0.00    -0.078 A 
ATOM      4  C2  OXE d   1      -0.755   1.940  -0.769  0.00  0.00    -0.078 A 
ATOM      5  C3  OXE d   1      -0.232   1.027  -1.681  0.00  0.00     0.003 A 
ATOM      6  C4  OXE d   1       0.248  -0.214  -1.245  0.00  0.00    -0.002 A 
ATOM      7  C5  OXE d   1       0.315  -0.509   0.121  0.00  0.00    -0.002 A 
ATOM      8  C6  OXE d   1      -0.095   0.445   1.045  0.00  0.00     0.003 A 
ENDROOT
TORSDOF 0
ENDMDL
