MODEL 1
REMARK minimizedAffinity -6.17508507
REMARK minimizedRMSD -1
REMARK  0 active torsions:
REMARK  status: ('A' for Active; 'I' for Inactive)
ROOT
ATOM      1  C2' OXE d   1       0.721  -0.095  -0.990  0.00  0.00     0.078 C 
ATOM      2  C1' OXE d   1       0.577   0.012   1.812  0.00  0.00     0.078 C 
ATOM      3  C1  OXE d   1       0.133   1.228   1.037  0.00  0.00    -0.078 A 
ATOM      4  C2  OXE d   1       0.251   1.184  -0.331  0.00  0.00    -0.078 A 
ATOM      5  C3  OXE d   1      -0.195   2.257  -1.097  0.00  0.00     0.003 A 
ATOM      6  C4  OXE d   1      -0.619   3.440  -0.479  0.00  0.00    -0.002 A 
ATOM      7  C5  OXE d   1      -0.709   3.521   0.914  0.00  0.00    -0.002 A 
ATOM      8  C6  OXE d   1      -0.378   2.411   1.684  0.00  0.00     0.003 A 
ENDROOT
TORSDOF 0
ENDMDL
