MODEL 1
REMARK minimizedAffinity -4.78954792
REMARK minimizedRMSD -1
REMARK  0 active torsions:
REMARK  status: ('A' for Active; 'I' for Inactive)
ROOT
ATOM      1  C2' OXE d   1       0.205  -0.133   1.765  0.00  0.00     0.078 C 
ATOM      2  C1' OXE d   1       0.109  -0.293  -1.036  0.00  0.00     0.078 C 
ATOM      3  C1  OXE d   1      -0.277   1.015  -0.392  0.00  0.00    -0.078 A 
ATOM      4  C2  OXE d   1      -0.272   1.070   0.981  0.00  0.00    -0.078 A 
ATOM      5  C3  OXE d   1      -0.566   2.269   1.624  0.00  0.00     0.003 A 
ATOM      6  C4  OXE d   1      -1.016   3.374   0.892  0.00  0.00    -0.002 A 
ATOM      7  C5  OXE d   1      -1.067   3.327  -0.505  0.00  0.00    -0.002 A 
ATOM      8  C6  OXE d   1      -0.661   2.172  -1.163  0.00  0.00     0.003 A 
ENDROOT
TORSDOF 0
ENDMDL
