MODEL 1
REMARK minimizedAffinity -6.34837198
REMARK minimizedRMSD -1
REMARK  0 active torsions:
REMARK  status: ('A' for Active; 'I' for Inactive)
ROOT
ATOM      1  C2' OXE d   1       0.058  -0.683  -0.539  0.00  0.00     0.078 C 
ATOM      2  C1' OXE d   1       0.199   1.380  -2.438  0.00  0.00     0.078 C 
ATOM      3  C1  OXE d   1      -0.233   1.740  -1.039  0.00  0.00    -0.078 A 
ATOM      4  C2  OXE d   1      -0.344   0.717  -0.128  0.00  0.00    -0.078 A 
ATOM      5  C3  OXE d   1      -0.686   1.002   1.191  0.00  0.00     0.003 A 
ATOM      6  C4  OXE d   1      -1.066   2.298   1.560  0.00  0.00    -0.002 A 
ATOM      7  C5  OXE d   1      -0.998   3.348   0.638  0.00  0.00    -0.002 A 
ATOM      8  C6  OXE d   1      -0.544   3.094  -0.651  0.00  0.00     0.003 A 
ENDROOT
TORSDOF 0
ENDMDL
