MODEL 1
REMARK minimizedAffinity 18.37356
REMARK minimizedRMSD -1
REMARK  0 active torsions:
REMARK  status: ('A' for Active; 'I' for Inactive)
ROOT
ATOM      1  C1  DEN d   1      -0.393  -1.974  -5.698  0.00  0.00     0.130 A 
ATOM      2  C2  DEN d   1      -1.837  -1.983  -5.483  0.00  0.00    -0.031 A 
ATOM      3  C3  DEN d   1      -2.302  -0.581  -5.447  0.00  0.00     0.027 A 
ATOM      4  C4  DEN d   1      -0.933   1.589  -5.707  0.00  0.00     0.027 A 
ATOM      5  C5  DEN d   1       0.331   2.104  -5.897  0.00  0.00    -0.003 A 
ATOM      6  C6  DEN d   1       1.437   1.303  -5.999  0.00  0.00     0.001 A 
ATOM      7  C7  DEN d   1       1.296  -0.059  -5.956  0.00  0.00     0.017 A 
ATOM      8  C8  DEN d   1       0.026  -0.585  -5.758  0.00  0.00    -0.094 A 
ATOM      9  C9  DEN d   1      -1.082   0.241  -5.670  0.00  0.00    -0.072 A 
ENDROOT
TORSDOF 0
ENDMDL
