MODEL 1
REMARK minimizedAffinity 8.91222191
REMARK minimizedRMSD -1
REMARK  0 active torsions:
REMARK  status: ('A' for Active; 'I' for Inactive)
ROOT
ATOM      1  C1  DEN d   1      -2.268   3.478  -1.315  0.00  0.00     0.130 A 
ATOM      2  C2  DEN d   1      -1.850   4.196  -2.516  0.00  0.00    -0.031 A 
ATOM      3  C3  DEN d   1      -0.980   5.314  -2.101  0.00  0.00     0.027 A 
ATOM      4  C4  DEN d   1      -0.238   5.997   0.274  0.00  0.00     0.027 A 
ATOM      5  C5  DEN d   1      -0.347   5.697   1.613  0.00  0.00    -0.003 A 
ATOM      6  C6  DEN d   1      -1.124   4.665   2.070  0.00  0.00     0.001 A 
ATOM      7  C7  DEN d   1      -1.787   3.868   1.175  0.00  0.00     0.017 A 
ATOM      8  C8  DEN d   1      -1.689   4.169  -0.177  0.00  0.00    -0.094 A 
ATOM      9  C9  DEN d   1      -0.889   5.209  -0.619  0.00  0.00    -0.072 A 
ENDROOT
TORSDOF 0
ENDMDL
