MODEL 1
REMARK minimizedAffinity -2.8646698
REMARK minimizedRMSD -1
REMARK  0 active torsions:
REMARK  status: ('A' for Active; 'I' for Inactive)
ROOT
ATOM      1  C1  DEN d   1       2.683  -1.218  -2.888  0.00  0.00     0.130 A 
ATOM      2  C2  DEN d   1       2.857  -2.069  -1.714  0.00  0.00    -0.031 A 
ATOM      3  C3  DEN d   1       1.518  -2.381  -1.174  0.00  0.00     0.027 A 
ATOM      4  C4  DEN d   1      -0.795  -1.638  -2.041  0.00  0.00     0.027 A 
ATOM      5  C5  DEN d   1      -1.449  -0.899  -3.002  0.00  0.00    -0.003 A 
ATOM      6  C6  DEN d   1      -0.777  -0.194  -3.964  0.00  0.00     0.001 A 
ATOM      7  C7  DEN d   1       0.591  -0.248  -4.014  0.00  0.00     0.017 A 
ATOM      8  C8  DEN d   1       1.258  -0.984  -3.044  0.00  0.00    -0.094 A 
ATOM      9  C9  DEN d   1       0.560  -1.701  -2.087  0.00  0.00    -0.072 A 
ENDROOT
TORSDOF 0
ENDMDL
