MODEL 1
REMARK minimizedAffinity -1.80660474
REMARK minimizedRMSD -1
REMARK  0 active torsions:
REMARK  status: ('A' for Active; 'I' for Inactive)
ROOT
ATOM      1  C1  DEN d   1       0.170  -3.786  -2.944  0.00  0.00     0.130 A 
ATOM      2  C2  DEN d   1       1.273  -3.391  -2.073  0.00  0.00    -0.031 A 
ATOM      3  C3  DEN d   1       1.522  -1.950  -2.277  0.00  0.00     0.027 A 
ATOM      4  C4  DEN d   1       0.310  -0.300  -3.845  0.00  0.00     0.027 A 
ATOM      5  C5  DEN d   1      -0.685  -0.173  -4.789  0.00  0.00    -0.003 A 
ATOM      6  C6  DEN d   1      -1.436  -1.240  -5.205  0.00  0.00     0.001 A 
ATOM      7  C7  DEN d   1      -1.234  -2.473  -4.643  0.00  0.00     0.017 A 
ATOM      8  C8  DEN d   1      -0.228  -2.610  -3.696  0.00  0.00    -0.094 A 
ATOM      9  C9  DEN d   1       0.513  -1.517  -3.280  0.00  0.00    -0.072 A 
ENDROOT
TORSDOF 0
ENDMDL
