MODEL 1
REMARK minimizedAffinity 8.34049988
REMARK minimizedRMSD -1
REMARK  0 active torsions:
REMARK  status: ('A' for Active; 'I' for Inactive)
ROOT
ATOM      1  C1  DEN d   1       1.180  -1.708  -5.660  0.00  0.00     0.130 A 
ATOM      2  C2  DEN d   1       2.391  -0.894  -5.708  0.00  0.00    -0.031 A 
ATOM      3  C3  DEN d   1       3.158  -1.143  -4.471  0.00  0.00     0.027 A 
ATOM      4  C4  DEN d   1       2.592  -2.704  -2.498  0.00  0.00     0.027 A 
ATOM      5  C5  DEN d   1       1.664  -3.591  -1.999  0.00  0.00    -0.003 A 
ATOM      6  C6  DEN d   1       0.503  -3.884  -2.664  0.00  0.00     0.001 A 
ATOM      7  C7  DEN d   1       0.260  -3.319  -3.888  0.00  0.00     0.017 A 
ATOM      8  C8  DEN d   1       1.188  -2.418  -4.394  0.00  0.00    -0.094 A 
ATOM      9  C9  DEN d   1       2.361  -2.144  -3.712  0.00  0.00    -0.072 A 
ENDROOT
TORSDOF 0
ENDMDL
