MODEL 1
REMARK minimizedAffinity 2.37389183
REMARK minimizedRMSD -1
REMARK  0 active torsions:
REMARK  status: ('A' for Active; 'I' for Inactive)
ROOT
ATOM      1  C1  DEN d   1       0.552   1.218   0.710  0.00  0.00     0.130 A 
ATOM      2  C2  DEN d   1       1.991   1.375   0.515  0.00  0.00    -0.031 A 
ATOM      3  C3  DEN d   1       2.677   0.373   1.356  0.00  0.00     0.027 A 
ATOM      4  C4  DEN d   1       1.656  -1.400   2.926  0.00  0.00     0.027 A 
ATOM      5  C5  DEN d   1       0.479  -1.909   3.430  0.00  0.00    -0.003 A 
ATOM      6  C6  DEN d   1      -0.744  -1.394   3.091  0.00  0.00     0.001 A 
ATOM      7  C7  DEN d   1      -0.821  -0.366   2.189  0.00  0.00     0.017 A 
ATOM      8  C8  DEN d   1       0.361   0.158   1.682  0.00  0.00    -0.094 A 
ATOM      9  C9  DEN d   1       1.587  -0.385   2.028  0.00  0.00    -0.072 A 
ENDROOT
TORSDOF 0
ENDMDL
