MODEL 1
REMARK minimizedAffinity -4.3735218
REMARK minimizedRMSD -1
REMARK  0 active torsions:
REMARK  status: ('A' for Active; 'I' for Inactive)
ROOT
ATOM      1  C   UNL d   1      -0.456   0.759  -0.409  0.00  0.00     0.172 C 
ATOM      2  N   UNL d   1       0.684  -0.030  -0.006  0.00  0.00    -0.070 N 
ATOM      3  C1  UNL d   1       1.997   0.309  -0.197  0.00  0.00    -0.004 A 
ATOM      4  C2  UNL d   1       2.774  -0.702   0.326  0.00  0.00    -0.047 A 
ATOM      5  C3  UNL d   1       1.898  -1.683   0.849  0.00  0.00    -0.047 A 
ATOM      6  C4  UNL d   1       0.610  -1.241   0.629  0.00  0.00    -0.004 A 
ENDROOT
TORSDOF 0
ENDMDL
