MODEL 1
REMARK minimizedAffinity -1.028175
REMARK minimizedRMSD -1
REMARK  0 active torsions:
REMARK  status: ('A' for Active; 'I' for Inactive)
ROOT
ATOM      1  C   UNL d   1      -2.717  -4.541   2.888  0.00  0.00     0.172 C 
ATOM      2  N   UNL d   1      -3.097  -4.997   1.571  0.00  0.00    -0.070 N 
ATOM      3  C1  UNL d   1      -2.266  -5.085   0.487  0.00  0.00    -0.004 A 
ATOM      4  C2  UNL d   1      -3.005  -5.563  -0.574  0.00  0.00    -0.047 A 
ATOM      5  C3  UNL d   1      -4.327  -5.769  -0.110  0.00  0.00    -0.047 A 
ATOM      6  C4  UNL d   1      -4.355  -5.410   1.221  0.00  0.00    -0.004 A 
ENDROOT
TORSDOF 0
ENDMDL
