MODEL 1
REMARK minimizedAffinity -4.02687931
REMARK minimizedRMSD -1
REMARK  0 active torsions:
REMARK  status: ('A' for Active; 'I' for Inactive)
ROOT
ATOM      1  C   UNL d   1      -0.573   0.601  -0.233  0.00  0.00     0.172 C 
ATOM      2  N   UNL d   1       0.185  -0.542   0.220  0.00  0.00    -0.070 N 
ATOM      3  C1  UNL d   1       1.304  -1.049  -0.386  0.00  0.00    -0.004 A 
ATOM      4  C2  UNL d   1       1.728  -2.134   0.349  0.00  0.00    -0.047 A 
ATOM      5  C3  UNL d   1       0.832  -2.286   1.434  0.00  0.00    -0.047 A 
ATOM      6  C4  UNL d   1      -0.113  -1.287   1.330  0.00  0.00    -0.004 A 
ENDROOT
TORSDOF 0
ENDMDL
