MODEL 1
REMARK minimizedAffinity -3.45974755
REMARK minimizedRMSD -1
REMARK  0 active torsions:
REMARK  status: ('A' for Active; 'I' for Inactive)
ROOT
ATOM      1  C   UNL d   1      -0.944   0.748  -0.021  0.00  0.00     0.172 C 
ATOM      2  N   UNL d   1      -0.130  -0.383   0.359  0.00  0.00    -0.070 N 
ATOM      3  C1  UNL d   1       1.178  -0.579   0.005  0.00  0.00    -0.004 A 
ATOM      4  C2  UNL d   1       1.592  -1.769   0.564  0.00  0.00    -0.047 A 
ATOM      5  C3  UNL d   1       0.495  -2.306   1.278  0.00  0.00    -0.047 A 
ATOM      6  C4  UNL d   1      -0.558  -1.428   1.134  0.00  0.00    -0.004 A 
ENDROOT
TORSDOF 0
ENDMDL
