MODEL 1
REMARK minimizedAffinity -2.70423102
REMARK minimizedRMSD -1
REMARK  0 active torsions:
REMARK  status: ('A' for Active; 'I' for Inactive)
ROOT
ATOM      1  C   UNL d   1      -0.577   0.590  -0.268  0.00  0.00     0.172 C 
ATOM      2  N   UNL d   1       0.306  -0.456   0.193  0.00  0.00    -0.070 N 
ATOM      3  C1  UNL d   1       1.675  -0.417   0.158  0.00  0.00    -0.004 A 
ATOM      4  C2  UNL d   1       2.143  -1.601   0.687  0.00  0.00    -0.047 A 
ATOM      5  C3  UNL d   1       1.018  -2.378   1.050  0.00  0.00    -0.047 A 
ATOM      6  C4  UNL d   1      -0.106  -1.645   0.733  0.00  0.00    -0.004 A 
ENDROOT
TORSDOF 0
ENDMDL
