MODEL 1
REMARK minimizedAffinity -2.627527
REMARK minimizedRMSD -1
REMARK  0 active torsions:
REMARK  status: ('A' for Active; 'I' for Inactive)
ROOT
ATOM      1  C   UNL d   1      -1.900  -0.616   2.286  0.00  0.00     0.172 C 
ATOM      2  N   UNL d   1      -0.801  -0.603   1.349  0.00  0.00    -0.070 N 
ATOM      3  C1  UNL d   1       0.335  -1.363   1.439  0.00  0.00    -0.004 A 
ATOM      4  C2  UNL d   1       1.133  -1.061   0.358  0.00  0.00    -0.047 A 
ATOM      5  C3  UNL d   1       0.454  -0.084  -0.409  0.00  0.00    -0.047 A 
ATOM      6  C4  UNL d   1      -0.740   0.181   0.227  0.00  0.00    -0.004 A 
ENDROOT
TORSDOF 0
ENDMDL
