MODEL 1
REMARK minimizedAffinity -3.49760914
REMARK minimizedRMSD -1
REMARK  0 active torsions:
REMARK  status: ('A' for Active; 'I' for Inactive)
ROOT
ATOM      1  C   UNL d   1      -0.488   0.714  -0.172  0.00  0.00     0.172 C 
ATOM      2  N   UNL d   1       0.115  -0.400   0.521  0.00  0.00    -0.070 N 
ATOM      3  C1  UNL d   1      -0.460  -1.114   1.538  0.00  0.00    -0.004 A 
ATOM      4  C2  UNL d   1       0.432  -2.090   1.926  0.00  0.00    -0.047 A 
ATOM      5  C3  UNL d   1       1.583  -1.958   1.115  0.00  0.00    -0.047 A 
ATOM      6  C4  UNL d   1       1.361  -0.904   0.253  0.00  0.00    -0.004 A 
ENDROOT
TORSDOF 0
ENDMDL
