MODEL 1
REMARK minimizedAffinity -2.80378532
REMARK minimizedRMSD -1
REMARK  0 active torsions:
REMARK  status: ('A' for Active; 'I' for Inactive)
ROOT
ATOM      1  C   UNL d   1       0.892  -3.069   0.763  0.00  0.00     0.172 C 
ATOM      2  N   UNL d   1       0.767  -1.678   0.396  0.00  0.00    -0.070 N 
ATOM      3  C1  UNL d   1      -0.380  -0.934   0.468  0.00  0.00    -0.004 A 
ATOM      4  C2  UNL d   1      -0.085   0.340   0.031  0.00  0.00    -0.047 A 
ATOM      5  C3  UNL d   1       1.286   0.361  -0.316  0.00  0.00    -0.047 A 
ATOM      6  C4  UNL d   1       1.789  -0.901  -0.080  0.00  0.00    -0.004 A 
ENDROOT
TORSDOF 0
ENDMDL
