MODEL 1
REMARK minimizedAffinity -0.630365014
REMARK minimizedRMSD -1
REMARK  0 active torsions:
REMARK  status: ('A' for Active; 'I' for Inactive)
ROOT
ATOM      1  C   UNL d   1      -1.490   2.138  -1.870  0.00  0.00     0.172 C 
ATOM      2  N   UNL d   1      -0.680   1.215  -1.110  0.00  0.00    -0.070 N 
ATOM      3  C1  UNL d   1      -0.811   0.952   0.228  0.00  0.00    -0.004 A 
ATOM      4  C2  UNL d   1       0.144   0.019   0.570  0.00  0.00    -0.047 A 
ATOM      5  C3  UNL d   1       0.876  -0.287  -0.601  0.00  0.00    -0.047 A 
ATOM      6  C4  UNL d   1       0.345   0.467  -1.626  0.00  0.00    -0.004 A 
ENDROOT
TORSDOF 0
ENDMDL
