MODEL 1
REMARK minimizedAffinity -3.27617979
REMARK minimizedRMSD -1
REMARK  0 active torsions:
REMARK  status: ('A' for Active; 'I' for Inactive)
ROOT
ATOM      1  C   UNL d   1       1.847  -1.910   0.968  0.00  0.00     0.172 C 
ATOM      2  N   UNL d   1       0.951  -0.924   0.413  0.00  0.00    -0.070 N 
ATOM      3  C1  UNL d   1      -0.409  -0.903   0.570  0.00  0.00    -0.004 A 
ATOM      4  C2  UNL d   1      -0.896   0.192  -0.110  0.00  0.00    -0.047 A 
ATOM      5  C3  UNL d   1       0.209   0.852  -0.697  0.00  0.00    -0.047 A 
ATOM      6  C4  UNL d   1       1.340   0.140  -0.357  0.00  0.00    -0.004 A 
ENDROOT
TORSDOF 0
ENDMDL
