MODEL 1
REMARK minimizedAffinity -3.59414268
REMARK minimizedRMSD -1
REMARK  0 active torsions:
REMARK  status: ('A' for Active; 'I' for Inactive)
ROOT
ATOM      1  C   UNL d   1      -0.459   0.778  -0.290  0.00  0.00     0.172 C 
ATOM      2  N   UNL d   1       0.448  -0.247   0.168  0.00  0.00    -0.070 N 
ATOM      3  C1  UNL d   1       1.815  -0.182   0.124  0.00  0.00    -0.004 A 
ATOM      4  C2  UNL d   1       2.311  -1.353   0.654  0.00  0.00    -0.047 A 
ATOM      5  C3  UNL d   1       1.204  -2.150   1.029  0.00  0.00    -0.047 A 
ATOM      6  C4  UNL d   1       0.063  -1.442   0.717  0.00  0.00    -0.004 A 
ENDROOT
TORSDOF 0
ENDMDL
