MODEL 1
REMARK minimizedAffinity -3.28518462
REMARK minimizedRMSD -1
REMARK  0 active torsions:
REMARK  status: ('A' for Active; 'I' for Inactive)
ROOT
ATOM      1  C   UNL d   1      -0.760   0.490  -0.139  0.00  0.00     0.172 C 
ATOM      2  N   UNL d   1      -0.176  -0.663   0.504  0.00  0.00    -0.070 N 
ATOM      3  C1  UNL d   1       1.044  -1.209   0.208  0.00  0.00    -0.004 A 
ATOM      4  C2  UNL d   1       1.235  -2.292   1.039  0.00  0.00    -0.047 A 
ATOM      5  C3  UNL d   1       0.089  -2.401   1.863  0.00  0.00    -0.047 A 
ATOM      6  C4  UNL d   1      -0.768  -1.380   1.510  0.00  0.00    -0.004 A 
ENDROOT
TORSDOF 0
ENDMDL
