MODEL 1
REMARK minimizedAffinity -3.5089128
REMARK minimizedRMSD -1
REMARK  0 active torsions:
REMARK  status: ('A' for Active; 'I' for Inactive)
ROOT
ATOM      1  C   UNL d   1      -0.093   0.179  -0.237  0.00  0.00     0.172 C 
ATOM      2  N   UNL d   1       0.593  -0.939   0.366  0.00  0.00    -0.070 N 
ATOM      3  C1  UNL d   1       0.130  -1.689   1.414  0.00  0.00    -0.004 A 
ATOM      4  C2  UNL d   1       1.073  -2.656   1.690  0.00  0.00    -0.047 A 
ATOM      5  C3  UNL d   1       2.140  -2.480   0.778  0.00  0.00    -0.047 A 
ATOM      6  C4  UNL d   1       1.817  -1.410  -0.031  0.00  0.00    -0.004 A 
ENDROOT
TORSDOF 0
ENDMDL
