MODEL 1
REMARK minimizedAffinity -2.74565697
REMARK minimizedRMSD -1
REMARK  0 active torsions:
REMARK  status: ('A' for Active; 'I' for Inactive)
ROOT
ATOM      1  C   UNL d   1      -1.524  -1.812   2.684  0.00  0.00     0.172 C 
ATOM      2  N   UNL d   1      -0.463  -1.715   1.709  0.00  0.00    -0.070 N 
ATOM      3  C1  UNL d   1      -0.456  -0.890   0.616  0.00  0.00    -0.004 A 
ATOM      4  C2  UNL d   1       0.728  -1.094  -0.059  0.00  0.00    -0.047 A 
ATOM      5  C3  UNL d   1       1.457  -2.076   0.653  0.00  0.00    -0.047 A 
ATOM      6  C4  UNL d   1       0.697  -2.443   1.743  0.00  0.00    -0.004 A 
ENDROOT
TORSDOF 0
ENDMDL
