MODEL 1
REMARK minimizedAffinity -2.18124223
REMARK minimizedRMSD -1
REMARK  1 active torsions:
REMARK  status: ('A' for Active; 'I' for Inactive)
REMARK    1  A    between atoms: C1_2  and  C2_3 
ROOT
ATOM      1  C2  UNL d   1      -0.468   0.375   0.543  0.00  0.00    -0.073 A 
ATOM      2  C3  UNL d   1       0.130   1.497   1.127  0.00  0.00    -0.002 A 
ATOM      3  C4  UNL d   1      -0.200   1.875   2.429  0.00  0.00     0.004 A 
ATOM      4  C5  UNL d   1      -1.125   1.132   3.162  0.00  0.00    -0.004 A 
ATOM      5  C6  UNL d   1      -1.725   0.000   2.600  0.00  0.00    -0.075 A 
ATOM      6  C7  UNL d   1      -2.723  -0.809   3.375  0.00  0.00     0.076 C 
ATOM      7  C8  UNL d   1      -1.390  -0.371   1.291  0.00  0.00     0.001 A 
ENDROOT
BRANCH   1   8
ATOM      8  C1  UNL d   1      -0.109  -0.040  -0.860  0.00  0.00     0.053 C 
ATOM      9  C   UNL d   1      -0.451  -1.498  -1.128  0.00  0.00     0.018 C 
ENDBRANCH   1   8
TORSDOF 1
ENDMDL
