MODEL 1
REMARK minimizedAffinity -4.40842819
REMARK minimizedRMSD -1
REMARK  1 active torsions:
REMARK  status: ('A' for Active; 'I' for Inactive)
REMARK    1  A    between atoms: C1_2  and  C2_3 
ROOT
ATOM      1  C2  UNL d   1      -1.958  -0.234  -0.278  0.00  0.00    -0.073 A 
ATOM      2  C3  UNL d   1      -0.738  -0.678  -0.802  0.00  0.00    -0.002 A 
ATOM      3  C4  UNL d   1       0.446  -0.487  -0.090  0.00  0.00     0.004 A 
ATOM      4  C5  UNL d   1       0.424   0.143   1.154  0.00  0.00    -0.004 A 
ATOM      5  C6  UNL d   1      -0.787   0.583   1.700  0.00  0.00    -0.075 A 
ATOM      6  C7  UNL d   1      -0.828   1.264   3.037  0.00  0.00     0.076 C 
ATOM      7  C8  UNL d   1      -1.972   0.390   0.978  0.00  0.00     0.001 A 
ENDROOT
BRANCH   1   8
ATOM      8  C1  UNL d   1      -3.241  -0.444  -1.040  0.00  0.00     0.053 C 
ATOM      9  C   UNL d   1      -3.624  -1.914  -1.118  0.00  0.00     0.018 C 
ENDBRANCH   1   8
TORSDOF 1
ENDMDL
