MODEL 1
REMARK minimizedAffinity -5.45200157
REMARK minimizedRMSD -1
REMARK  1 active torsions:
REMARK  status: ('A' for Active; 'I' for Inactive)
REMARK    1  A    between atoms: C1_2  and  C2_3 
ROOT
ATOM      1  C2  UNL d   1       0.172  -0.879  -0.591  0.00  0.00    -0.073 A 
ATOM      2  C3  UNL d   1       1.314  -1.527  -0.108  0.00  0.00    -0.002 A 
ATOM      3  C4  UNL d   1       1.797  -1.244   1.171  0.00  0.00     0.004 A 
ATOM      4  C5  UNL d   1       1.140  -0.318   1.980  0.00  0.00    -0.004 A 
ATOM      5  C6  UNL d   1      -0.010   0.331   1.519  0.00  0.00    -0.075 A 
ATOM      6  C7  UNL d   1      -0.727   1.332   2.377  0.00  0.00     0.076 C 
ATOM      7  C8  UNL d   1      -0.487   0.044   0.233  0.00  0.00     0.001 A 
ENDROOT
BRANCH   1   8
ATOM      8  C1  UNL d   1      -0.357  -1.186  -1.969  0.00  0.00     0.053 C 
ATOM      9  C   UNL d   1       0.403  -0.436  -3.051  0.00  0.00     0.018 C 
ENDBRANCH   1   8
TORSDOF 1
ENDMDL
