MODEL 1
REMARK minimizedAffinity 18.7023182
REMARK minimizedRMSD -1
REMARK  0 active torsions:
REMARK  status: ('A' for Active; 'I' for Inactive)
ROOT
ATOM      1  C   UNL d   1      -5.177  -0.257  -0.865  0.00  0.00    -0.002 A 
ATOM      2  C1  UNL d   1      -4.124   0.106  -0.037  0.00  0.00     0.010 A 
ATOM      3  C2  UNL d   1      -3.723   1.440   0.058  0.00  0.00     0.041 A 
ATOM      4  C3  UNL d   1      -4.405   2.413  -0.699  0.00  0.00    -0.075 A 
ATOM      5  S   UNL d   1      -4.090   4.107  -0.742  0.00  0.00     0.015 SA
ATOM      6  C4  UNL d   1      -5.345   4.388  -1.859  0.00  0.00     0.022 A 
ATOM      7  C5  UNL d   1      -5.999   3.229  -2.203  0.00  0.00     0.026 A 
ATOM      8  C6  UNL d   1      -5.469   2.071  -1.539  0.00  0.00    -0.082 A 
ATOM      9  C7  UNL d   1      -5.851   0.710  -1.614  0.00  0.00     0.045 A 
ENDROOT
TORSDOF 0
ENDMDL
