MODEL 1
REMARK minimizedAffinity 20.9832706
REMARK minimizedRMSD -1
REMARK  0 active torsions:
REMARK  status: ('A' for Active; 'I' for Inactive)
ROOT
ATOM      1  C   UNL d   1       2.284  -2.129  -0.200  0.00  0.00    -0.002 A 
ATOM      2  C1  UNL d   1       2.775  -1.995   1.091  0.00  0.00     0.010 A 
ATOM      3  C2  UNL d   1       3.342  -0.791   1.514  0.00  0.00     0.041 A 
ATOM      4  C3  UNL d   1       3.407   0.287   0.610  0.00  0.00    -0.075 A 
ATOM      5  S   UNL d   1       4.057   1.855   0.907  0.00  0.00     0.015 SA
ATOM      6  C4  UNL d   1       3.698   2.385  -0.673  0.00  0.00     0.022 A 
ATOM      7  C5  UNL d   1       3.097   1.402  -1.422  0.00  0.00     0.026 A 
ATOM      8  C6  UNL d   1       2.918   0.176  -0.695  0.00  0.00    -0.082 A 
ATOM      9  C7  UNL d   1       2.350  -1.057  -1.095  0.00  0.00     0.045 A 
ENDROOT
TORSDOF 0
ENDMDL
