MODEL 1
REMARK minimizedAffinity 12.5241671
REMARK minimizedRMSD -1
REMARK  0 active torsions:
REMARK  status: ('A' for Active; 'I' for Inactive)
ROOT
ATOM      1  C   UNL d   1      -5.275   0.405  -6.000  0.00  0.00    -0.002 A 
ATOM      2  C1  UNL d   1      -5.900   0.814  -4.830  0.00  0.00     0.010 A 
ATOM      3  C2  UNL d   1      -5.211   0.806  -3.616  0.00  0.00     0.041 A 
ATOM      4  C3  UNL d   1      -3.869   0.378  -3.598  0.00  0.00    -0.075 A 
ATOM      5  S   UNL d   1      -2.826   0.286  -2.228  0.00  0.00     0.015 SA
ATOM      6  C4  UNL d   1      -1.526  -0.298  -3.163  0.00  0.00     0.022 A 
ATOM      7  C5  UNL d   1      -1.862  -0.426  -4.490  0.00  0.00     0.026 A 
ATOM      8  C6  UNL d   1      -3.217  -0.037  -4.762  0.00  0.00    -0.082 A 
ATOM      9  C7  UNL d   1      -3.944  -0.019  -5.977  0.00  0.00     0.045 A 
ENDROOT
TORSDOF 0
ENDMDL
