MODEL 1
REMARK minimizedAffinity 27.048954
REMARK minimizedRMSD -1
REMARK  0 active torsions:
REMARK  status: ('A' for Active; 'I' for Inactive)
ROOT
ATOM      1  C   UNL d   1      -2.909  -0.629  -2.164  0.00  0.00    -0.002 A 
ATOM      2  C1  UNL d   1      -2.071   0.412  -2.535  0.00  0.00     0.010 A 
ATOM      3  C2  UNL d   1      -2.091   1.623  -1.840  0.00  0.00     0.041 A 
ATOM      4  C3  UNL d   1      -2.976   1.770  -0.753  0.00  0.00    -0.075 A 
ATOM      5  S   UNL d   1      -3.174   3.161   0.245  0.00  0.00     0.015 SA
ATOM      6  C4  UNL d   1      -4.375   2.405   1.189  0.00  0.00     0.022 A 
ATOM      7  C5  UNL d   1      -4.631   1.122   0.766  0.00  0.00     0.026 A 
ATOM      8  C6  UNL d   1      -3.829   0.734  -0.360  0.00  0.00    -0.082 A 
ATOM      9  C7  UNL d   1      -3.785  -0.480  -1.086  0.00  0.00     0.045 A 
ENDROOT
TORSDOF 0
ENDMDL
