MODEL 1
REMARK minimizedAffinity 19.9237595
REMARK minimizedRMSD -1
REMARK  0 active torsions:
REMARK  status: ('A' for Active; 'I' for Inactive)
ROOT
ATOM      1  C   UNL d   1       0.706   3.433   5.821  0.00  0.00    -0.002 A 
ATOM      2  C1  UNL d   1       0.518   4.805   5.735  0.00  0.00     0.010 A 
ATOM      3  C2  UNL d   1       1.263   5.569   4.835  0.00  0.00     0.041 A 
ATOM      4  C3  UNL d   1       2.208   4.924   4.012  0.00  0.00    -0.075 A 
ATOM      5  S   UNL d   1       3.233   5.656   2.835  0.00  0.00     0.015 SA
ATOM      6  C4  UNL d   1       3.944   4.164   2.417  0.00  0.00     0.022 A 
ATOM      7  C5  UNL d   1       3.424   3.123   3.149  0.00  0.00     0.026 A 
ATOM      8  C6  UNL d   1       2.414   3.543   4.080  0.00  0.00    -0.082 A 
ATOM      9  C7  UNL d   1       1.644   2.797   5.003  0.00  0.00     0.045 A 
ENDROOT
TORSDOF 0
ENDMDL
