MODEL 1
REMARK minimizedAffinity 7.32628536
REMARK minimizedRMSD -1
REMARK  0 active torsions:
REMARK  status: ('A' for Active; 'I' for Inactive)
ROOT
ATOM      1  C   UNL d   1      -1.936   0.023  -2.316  0.00  0.00    -0.002 A 
ATOM      2  C1  UNL d   1      -1.129   0.762  -1.463  0.00  0.00     0.010 A 
ATOM      3  C2  UNL d   1      -1.671   1.392  -0.341  0.00  0.00     0.041 A 
ATOM      4  C3  UNL d   1      -3.050   1.263  -0.087  0.00  0.00    -0.075 A 
ATOM      5  S   UNL d   1      -3.933   1.946   1.227  0.00  0.00     0.015 SA
ATOM      6  C4  UNL d   1      -5.403   1.272   0.688  0.00  0.00     0.022 A 
ATOM      7  C5  UNL d   1      -5.242   0.541  -0.466  0.00  0.00     0.026 A 
ATOM      8  C6  UNL d   1      -3.884   0.523  -0.931  0.00  0.00    -0.082 A 
ATOM      9  C7  UNL d   1      -3.304  -0.103  -2.061  0.00  0.00     0.045 A 
ENDROOT
TORSDOF 0
ENDMDL
