MODEL 1
REMARK minimizedAffinity 6.85349417
REMARK minimizedRMSD -1
REMARK  3 active torsions:
REMARK  status: ('A' for Active; 'I' for Inactive)
REMARK    1  A    between atoms: C3'_2  and  C2'_3 
REMARK    2  A    between atoms: C2'_3  and  C1'_4 
REMARK    3  A    between atoms: C1'_4  and  C1_5 
ROOT
ATOM      1  C1  N4B d   1      -0.063   1.885   1.738  0.00  0.00    -0.075 A 
ATOM      2  C2  N4B d   1      -1.291   1.541   2.345  0.00  0.00     0.002 A 
ATOM      3  C3  N4B d   1      -1.324   0.594   3.339  0.00  0.00     0.002 A 
ATOM      4  C4  N4B d   1      -0.150  -0.032   3.729  0.00  0.00    -0.004 A 
ATOM      5  C5  N4B d   1       1.036   0.325   3.156  0.00  0.00     0.002 A 
ATOM      6  C6  N4B d   1       1.084   1.278   2.158  0.00  0.00     0.002 A 
ENDROOT
BRANCH   1   7
ATOM      7  C1' N4B d   1       0.010   2.852   0.588  0.00  0.00     0.057 C 
BRANCH   7   8
ATOM      8  C2' N4B d   1      -0.717   2.257  -0.614  0.00  0.00     0.009 C 
BRANCH   8   9
ATOM      9  C3' N4B d   1       0.226   1.495  -1.529  0.00  0.00     0.004 C 
ATOM     10  C4' N4B d   1       0.070   1.875  -2.971  0.00  0.00     0.003 C 
ENDBRANCH   8   9
ENDBRANCH   7   8
ENDBRANCH   1   7
TORSDOF 3
ENDMDL
