MODEL 1
REMARK minimizedAffinity 3.94123101
REMARK minimizedRMSD -1
REMARK  3 active torsions:
REMARK  status: ('A' for Active; 'I' for Inactive)
REMARK    1  A    between atoms: C3'_2  and  C2'_3 
REMARK    2  A    between atoms: C2'_3  and  C1'_4 
REMARK    3  A    between atoms: C1'_4  and  C1_5 
ROOT
ATOM      1  C1  N4B d   1       0.941   0.891   2.290  0.00  0.00    -0.075 A 
ATOM      2  C2  N4B d   1       1.079   2.241   2.677  0.00  0.00     0.002 A 
ATOM      3  C3  N4B d   1       0.156   3.172   2.266  0.00  0.00     0.002 A 
ATOM      4  C4  N4B d   1      -0.898   2.779   1.454  0.00  0.00    -0.004 A 
ATOM      5  C5  N4B d   1      -1.038   1.468   1.105  0.00  0.00     0.002 A 
ATOM      6  C6  N4B d   1      -0.121   0.522   1.515  0.00  0.00     0.002 A 
ENDROOT
BRANCH   1   7
ATOM      7  C1' N4B d   1       1.971  -0.146   2.644  0.00  0.00     0.057 C 
BRANCH   7   8
ATOM      8  C2' N4B d   1       1.336  -1.193   3.555  0.00  0.00     0.009 C 
BRANCH   8   9
ATOM      9  C3' N4B d   1       2.238  -2.400   3.749  0.00  0.00     0.004 C 
ATOM     10  C4' N4B d   1       3.064  -2.313   4.998  0.00  0.00     0.003 C 
ENDBRANCH   8   9
ENDBRANCH   7   8
ENDBRANCH   1   7
TORSDOF 3
ENDMDL
