MODEL 1
REMARK minimizedAffinity 6.48674631
REMARK minimizedRMSD -1
REMARK  3 active torsions:
REMARK  status: ('A' for Active; 'I' for Inactive)
REMARK    1  A    between atoms: C3'_2  and  C2'_3 
REMARK    2  A    between atoms: C2'_3  and  C1'_4 
REMARK    3  A    between atoms: C1'_4  and  C1_5 
ROOT
ATOM      1  C1  N4B d   1      -0.077   2.222   0.667  0.00  0.00    -0.075 A 
ATOM      2  C2  N4B d   1       0.047   1.071  -0.142  0.00  0.00     0.002 A 
ATOM      3  C3  N4B d   1      -0.134   1.164  -1.500  0.00  0.00     0.002 A 
ATOM      4  C4  N4B d   1      -0.456   2.388  -2.067  0.00  0.00    -0.004 A 
ATOM      5  C5  N4B d   1      -0.548   3.500  -1.282  0.00  0.00     0.002 A 
ATOM      6  C6  N4B d   1      -0.366   3.422   0.084  0.00  0.00     0.002 A 
ENDROOT
BRANCH   1   7
ATOM      7  C1' N4B d   1       0.027   2.153   2.166  0.00  0.00     0.057 C 
BRANCH   7   8
ATOM      8  C2' N4B d   1      -0.963   1.116   2.690  0.00  0.00     0.009 C 
BRANCH   8   9
ATOM      9  C3' N4B d   1      -0.411   0.356   3.883  0.00  0.00     0.004 C 
ATOM     10  C4' N4B d   1       0.733  -0.544   3.520  0.00  0.00     0.003 C 
ENDBRANCH   8   9
ENDBRANCH   7   8
ENDBRANCH   1   7
TORSDOF 3
ENDMDL
