MODEL 1
REMARK minimizedAffinity 4.08643436
REMARK minimizedRMSD -1
REMARK  3 active torsions:
REMARK  status: ('A' for Active; 'I' for Inactive)
REMARK    1  A    between atoms: C3'_2  and  C2'_3 
REMARK    2  A    between atoms: C2'_3  and  C1'_4 
REMARK    3  A    between atoms: C1'_4  and  C1_5 
ROOT
ATOM      1  C1  N4B d   1       0.233   0.583   2.249  0.00  0.00    -0.075 A 
ATOM      2  C2  N4B d   1       1.231   0.006   1.433  0.00  0.00     0.002 A 
ATOM      3  C3  N4B d   1       1.900  -1.116   1.856  0.00  0.00     0.002 A 
ATOM      4  C4  N4B d   1       1.604  -1.665   3.095  0.00  0.00    -0.004 A 
ATOM      5  C5  N4B d   1       0.621  -1.117   3.866  0.00  0.00     0.002 A 
ATOM      6  C6  N4B d   1      -0.063   0.008   3.451  0.00  0.00     0.002 A 
ENDROOT
BRANCH   1   7
ATOM      7  C1' N4B d   1      -0.466   1.859   1.866  0.00  0.00     0.057 C 
BRANCH   7   8
ATOM      8  C2' N4B d   1      -1.298   1.617   0.611  0.00  0.00     0.009 C 
BRANCH   8   9
ATOM      9  C3' N4B d   1      -0.482   1.801  -0.657  0.00  0.00     0.004 C 
ATOM     10  C4' N4B d   1      -1.238   1.423  -1.895  0.00  0.00     0.003 C 
ENDBRANCH   8   9
ENDBRANCH   7   8
ENDBRANCH   1   7
TORSDOF 3
ENDMDL
