MODEL 1
REMARK minimizedAffinity 3.238976
REMARK minimizedRMSD -1
REMARK  3 active torsions:
REMARK  status: ('A' for Active; 'I' for Inactive)
REMARK    1  A    between atoms: C3'_2  and  C2'_3 
REMARK    2  A    between atoms: C2'_3  and  C1'_4 
REMARK    3  A    between atoms: C1'_4  and  C1_5 
ROOT
ATOM      1  C1  N4B d   1       0.873   3.142   0.573  0.00  0.00    -0.075 A 
ATOM      2  C2  N4B d   1       0.654   1.992  -0.216  0.00  0.00     0.002 A 
ATOM      3  C3  N4B d   1       0.494   0.767   0.385  0.00  0.00     0.002 A 
ATOM      4  C4  N4B d   1       0.567   0.666   1.767  0.00  0.00    -0.004 A 
ATOM      5  C5  N4B d   1       0.753   1.786   2.523  0.00  0.00     0.002 A 
ATOM      6  C6  N4B d   1       0.912   3.024   1.932  0.00  0.00     0.002 A 
ENDROOT
BRANCH   1   7
ATOM      7  C1' N4B d   1       1.139   4.489  -0.043  0.00  0.00     0.057 C 
BRANCH   7   8
ATOM      8  C2' N4B d   1       0.774   4.443  -1.523  0.00  0.00     0.009 C 
BRANCH   8   9
ATOM      9  C3' N4B d   1       0.372   5.809  -2.052  0.00  0.00     0.004 C 
ATOM     10  C4' N4B d   1       0.725   6.000  -3.497  0.00  0.00     0.003 C 
ENDBRANCH   8   9
ENDBRANCH   7   8
ENDBRANCH   1   7
TORSDOF 3
ENDMDL
