MODEL 1
REMARK minimizedAffinity 13.0478516
REMARK minimizedRMSD -1
REMARK  0 active torsions:
REMARK  status: ('A' for Active; 'I' for Inactive)
ROOT
ATOM      1  C   UNL d   1       3.746   2.266   1.508  0.00  0.00    -0.002 A 
ATOM      2  C1  UNL d   1       4.040   3.375   2.289  0.00  0.00     0.010 A 
ATOM      3  C2  UNL d   1       4.735   3.234   3.491  0.00  0.00     0.041 A 
ATOM      4  C3  UNL d   1       5.136   1.947   3.900  0.00  0.00    -0.075 A 
ATOM      5  S   UNL d   1       5.998   1.533   5.334  0.00  0.00     0.015 SA
ATOM      6  C4  UNL d   1       5.998  -0.126   4.944  0.00  0.00     0.022 A 
ATOM      7  C5  UNL d   1       5.360  -0.376   3.753  0.00  0.00     0.026 A 
ATOM      8  C6  UNL d   1       4.853   0.815   3.131  0.00  0.00    -0.082 A 
ATOM      9  C7  UNL d   1       4.146   0.991   1.917  0.00  0.00     0.045 A 
ENDROOT
TORSDOF 0
ENDMDL
