MODEL 1
REMARK minimizedAffinity 8.99610901
REMARK minimizedRMSD -1
REMARK  0 active torsions:
REMARK  status: ('A' for Active; 'I' for Inactive)
ROOT
ATOM      1  C   UNL d   1       0.485   1.960  -1.241  0.00  0.00    -0.002 A 
ATOM      2  C1  UNL d   1       0.831   3.192  -0.704  0.00  0.00     0.010 A 
ATOM      3  C2  UNL d   1      -0.154   4.070  -0.247  0.00  0.00     0.041 A 
ATOM      4  C3  UNL d   1      -1.506   3.684  -0.339  0.00  0.00    -0.075 A 
ATOM      5  S   UNL d   1      -2.883   4.595   0.158  0.00  0.00     0.015 SA
ATOM      6  C4  UNL d   1      -3.963   3.370  -0.331  0.00  0.00     0.022 A 
ATOM      7  C5  UNL d   1      -3.306   2.285  -0.862  0.00  0.00     0.026 A 
ATOM      8  C6  UNL d   1      -1.879   2.448  -0.875  0.00  0.00    -0.082 A 
ATOM      9  C7  UNL d   1      -0.857   1.581  -1.330  0.00  0.00     0.045 A 
ENDROOT
TORSDOF 0
ENDMDL
