MODEL 1
REMARK minimizedAffinity 7.08078289
REMARK minimizedRMSD -1
REMARK  0 active torsions:
REMARK  status: ('A' for Active; 'I' for Inactive)
ROOT
ATOM      1  C   UNL d   1      -5.035  -1.147   0.107  0.00  0.00    -0.002 A 
ATOM      2  C1  UNL d   1      -3.737  -1.189  -0.383  0.00  0.00     0.010 A 
ATOM      3  C2  UNL d   1      -2.647  -1.105   0.486  0.00  0.00     0.041 A 
ATOM      4  C3  UNL d   1      -2.885  -0.979   1.869  0.00  0.00    -0.075 A 
ATOM      5  S   UNL d   1      -1.706  -0.860   3.120  0.00  0.00     0.015 SA
ATOM      6  C4  UNL d   1      -2.897  -0.752   4.335  0.00  0.00     0.022 A 
ATOM      7  C5  UNL d   1      -4.169  -0.803   3.816  0.00  0.00     0.026 A 
ATOM      8  C6  UNL d   1      -4.183  -0.935   2.386  0.00  0.00    -0.082 A 
ATOM      9  C7  UNL d   1      -5.267  -1.022   1.479  0.00  0.00     0.045 A 
ENDROOT
TORSDOF 0
ENDMDL
