MODEL 1
REMARK minimizedAffinity 7.3305645
REMARK minimizedRMSD -1
REMARK  0 active torsions:
REMARK  status: ('A' for Active; 'I' for Inactive)
ROOT
ATOM      1  C   UNL d   1       5.079   4.219   2.657  0.00  0.00    -0.002 A 
ATOM      2  C1  UNL d   1       5.682   4.625   3.840  0.00  0.00     0.010 A 
ATOM      3  C2  UNL d   1       6.000   3.695   4.831  0.00  0.00     0.041 A 
ATOM      4  C3  UNL d   1       5.700   2.336   4.611  0.00  0.00    -0.075 A 
ATOM      5  S   UNL d   1       5.999   1.019   5.683  0.00  0.00     0.015 SA
ATOM      6  C4  UNL d   1       5.335  -0.114   4.597  0.00  0.00     0.022 A 
ATOM      7  C5  UNL d   1       4.890   0.481   3.440  0.00  0.00     0.026 A 
ATOM      8  C6  UNL d   1       5.094   1.902   3.429  0.00  0.00    -0.082 A 
ATOM      9  C7  UNL d   1       4.784   2.870   2.443  0.00  0.00     0.045 A 
ENDROOT
TORSDOF 0
ENDMDL
