MODEL 1
REMARK minimizedAffinity 9.49790955
REMARK minimizedRMSD -1
REMARK  0 active torsions:
REMARK  status: ('A' for Active; 'I' for Inactive)
ROOT
ATOM      1  C   UNL d   1       5.436  -0.019   4.612  0.00  0.00    -0.002 A 
ATOM      2  C1  UNL d   1       5.978   1.036   5.332  0.00  0.00     0.010 A 
ATOM      3  C2  UNL d   1       5.802   2.353   4.903  0.00  0.00     0.041 A 
ATOM      4  C3  UNL d   1       5.063   2.594   3.729  0.00  0.00    -0.075 A 
ATOM      5  S   UNL d   1       4.718   4.125   3.014  0.00  0.00     0.015 SA
ATOM      6  C4  UNL d   1       3.842   3.415   1.736  0.00  0.00     0.022 A 
ATOM      7  C5  UNL d   1       3.804   2.044   1.837  0.00  0.00     0.026 A 
ATOM      8  C6  UNL d   1       4.507   1.549   2.987  0.00  0.00    -0.082 A 
ATOM      9  C7  UNL d   1       4.703   0.224   3.447  0.00  0.00     0.045 A 
ENDROOT
TORSDOF 0
ENDMDL
