MODEL 1
REMARK minimizedAffinity 7.16736269
REMARK minimizedRMSD -1
REMARK  0 active torsions:
REMARK  status: ('A' for Active; 'I' for Inactive)
ROOT
ATOM      1  C   UNL d   1       0.724   1.321  -2.604  0.00  0.00    -0.002 A 
ATOM      2  C1  UNL d   1       1.115   0.008  -2.827  0.00  0.00     0.010 A 
ATOM      3  C2  UNL d   1       0.473  -1.045  -2.173  0.00  0.00     0.041 A 
ATOM      4  C3  UNL d   1      -0.580  -0.754  -1.283  0.00  0.00    -0.075 A 
ATOM      5  S   UNL d   1      -1.512  -1.882  -0.371  0.00  0.00     0.015 SA
ATOM      6  C4  UNL d   1      -2.451  -0.648   0.336  0.00  0.00     0.022 A 
ATOM      7  C5  UNL d   1      -2.076   0.600  -0.101  0.00  0.00     0.026 A 
ATOM      8  C6  UNL d   1      -0.992   0.560  -1.042  0.00  0.00    -0.082 A 
ATOM      9  C7  UNL d   1      -0.320   1.606  -1.720  0.00  0.00     0.045 A 
ENDROOT
TORSDOF 0
ENDMDL
