MODEL 1
REMARK minimizedAffinity 11.7134256
REMARK minimizedRMSD -1
REMARK  0 active torsions:
REMARK  status: ('A' for Active; 'I' for Inactive)
ROOT
ATOM      1  C   UNL d   1      -2.328   4.362   0.211  0.00  0.00    -0.002 A 
ATOM      2  C1  UNL d   1      -3.550   4.530  -0.425  0.00  0.00     0.010 A 
ATOM      3  C2  UNL d   1      -4.320   3.423  -0.788  0.00  0.00     0.041 A 
ATOM      4  C3  UNL d   1      -3.837   2.132  -0.497  0.00  0.00    -0.075 A 
ATOM      5  S   UNL d   1      -4.608   0.630  -0.847  0.00  0.00     0.015 SA
ATOM      6  C4  UNL d   1      -3.334  -0.269  -0.159  0.00  0.00     0.022 A 
ATOM      7  C5  UNL d   1      -2.336   0.540   0.330  0.00  0.00     0.026 A 
ATOM      8  C6  UNL d   1      -2.610   1.938   0.144  0.00  0.00    -0.082 A 
ATOM      9  C7  UNL d   1      -1.853   3.080   0.499  0.00  0.00     0.045 A 
ENDROOT
TORSDOF 0
ENDMDL
