MODEL 1
REMARK minimizedAffinity 4.38001585
REMARK minimizedRMSD -1
REMARK  0 active torsions:
REMARK  status: ('A' for Active; 'I' for Inactive)
ROOT
ATOM      1  C   UNL d   1       5.637   0.169   3.947  0.00  0.00    -0.002 A 
ATOM      2  C1  UNL d   1       5.864   0.473   5.282  0.00  0.00     0.010 A 
ATOM      3  C2  UNL d   1       5.989   1.801   5.696  0.00  0.00     0.041 A 
ATOM      4  C3  UNL d   1       5.880   2.827   4.737  0.00  0.00    -0.075 A 
ATOM      5  S   UNL d   1       5.999   4.525   5.013  0.00  0.00     0.015 SA
ATOM      6  C4  UNL d   1       5.751   4.886   3.366  0.00  0.00     0.022 A 
ATOM      7  C5  UNL d   1       5.580   3.751   2.610  0.00  0.00     0.026 A 
ATOM      8  C6  UNL d   1       5.651   2.545   3.387  0.00  0.00    -0.082 A 
ATOM      9  C7  UNL d   1       5.529   1.190   2.999  0.00  0.00     0.045 A 
ENDROOT
TORSDOF 0
ENDMDL
