MODEL 1
REMARK minimizedAffinity 14.2906885
REMARK minimizedRMSD -1
REMARK  0 active torsions:
REMARK  status: ('A' for Active; 'I' for Inactive)
ROOT
ATOM      1  C   UNL d   1       4.264   3.748   2.238  0.00  0.00    -0.002 A 
ATOM      2  C1  UNL d   1       3.736   2.699   1.499  0.00  0.00     0.010 A 
ATOM      3  C2  UNL d   1       3.956   1.376   1.885  0.00  0.00     0.041 A 
ATOM      4  C3  UNL d   1       4.721   1.121   3.040  0.00  0.00    -0.075 A 
ATOM      5  S   UNL d   1       5.120  -0.419   3.705  0.00  0.00     0.015 SA
ATOM      6  C4  UNL d   1       6.000   0.279   4.987  0.00  0.00     0.022 A 
ATOM      7  C5  UNL d   1       6.000   1.652   4.925  0.00  0.00     0.026 A 
ATOM      8  C6  UNL d   1       5.263   2.160   3.802  0.00  0.00    -0.082 A 
ATOM      9  C7  UNL d   1       5.023   3.491   3.384  0.00  0.00     0.045 A 
ENDROOT
TORSDOF 0
ENDMDL
