MODEL 1
REMARK minimizedAffinity 8.03399086
REMARK minimizedRMSD -1
REMARK  0 active torsions:
REMARK  status: ('A' for Active; 'I' for Inactive)
ROOT
ATOM      1  C   UNL d   1      -3.938  -1.677   3.350  0.00  0.00    -0.002 A 
ATOM      2  C1  UNL d   1      -3.134  -0.778   4.037  0.00  0.00     0.010 A 
ATOM      3  C2  UNL d   1      -2.498   0.265   3.361  0.00  0.00     0.041 A 
ATOM      4  C3  UNL d   1      -2.688   0.393   1.971  0.00  0.00    -0.075 A 
ATOM      5  S   UNL d   1      -2.011   1.594   0.936  0.00  0.00     0.015 SA
ATOM      6  C4  UNL d   1      -2.775   0.943  -0.442  0.00  0.00     0.022 A 
ATOM      7  C5  UNL d   1      -3.532  -0.163  -0.138  0.00  0.00     0.026 A 
ATOM      8  C6  UNL d   1      -3.495  -0.498   1.258  0.00  0.00    -0.082 A 
ATOM      9  C7  UNL d   1      -4.125  -1.546   1.972  0.00  0.00     0.045 A 
ENDROOT
TORSDOF 0
ENDMDL
