MODEL 1
REMARK minimizedAffinity 1.13862205
REMARK minimizedRMSD -1
REMARK  0 active torsions:
REMARK  status: ('A' for Active; 'I' for Inactive)
ROOT
ATOM      1  C   UNL d   1       1.967   0.446  -2.650  0.00  0.00    -0.002 A 
ATOM      2  C1  UNL d   1       1.643   1.637  -3.284  0.00  0.00     0.010 A 
ATOM      3  C2  UNL d   1       2.497   2.187  -4.242  0.00  0.00     0.041 A 
ATOM      4  C3  UNL d   1       3.693   1.513  -4.556  0.00  0.00    -0.075 A 
ATOM      5  S   UNL d   1       4.891   1.998  -5.697  0.00  0.00     0.015 SA
ATOM      6  C4  UNL d   1       5.861   0.635  -5.370  0.00  0.00     0.022 A 
ATOM      7  C5  UNL d   1       5.300  -0.181  -4.416  0.00  0.00     0.026 A 
ATOM      8  C6  UNL d   1       4.041   0.311  -3.932  0.00  0.00    -0.082 A 
ATOM      9  C7  UNL d   1       3.154  -0.220  -2.965  0.00  0.00     0.045 A 
ENDROOT
TORSDOF 0
ENDMDL
