MODEL 1
REMARK minimizedAffinity -5.98960304
REMARK minimizedRMSD -1
REMARK  0 active torsions:
REMARK  status: ('A' for Active; 'I' for Inactive)
ROOT
ATOM      1  C   UNL d   1      -3.359  -0.529   1.141  0.00  0.00    -0.002 A 
ATOM      2  C1  UNL d   1      -3.921  -0.943   2.341  0.00  0.00     0.010 A 
ATOM      3  C2  UNL d   1      -4.145  -0.030   3.373  0.00  0.00     0.041 A 
ATOM      4  C3  UNL d   1      -3.793   1.320   3.177  0.00  0.00    -0.075 A 
ATOM      5  S   UNL d   1      -3.976   2.615   4.299  0.00  0.00     0.015 SA
ATOM      6  C4  UNL d   1      -3.314   3.749   3.213  0.00  0.00     0.022 A 
ATOM      7  C5  UNL d   1      -2.956   3.171   2.019  0.00  0.00     0.026 A 
ATOM      8  C6  UNL d   1      -3.227   1.761   1.978  0.00  0.00    -0.082 A 
ATOM      9  C7  UNL d   1      -3.011   0.811   0.951  0.00  0.00     0.045 A 
ENDROOT
TORSDOF 0
ENDMDL
