MODEL 1
REMARK minimizedAffinity 8.24235821
REMARK minimizedRMSD -1
REMARK  0 active torsions:
REMARK  status: ('A' for Active; 'I' for Inactive)
ROOT
ATOM      1  C   UNL d   1       4.865  -0.433   2.943  0.00  0.00    -0.002 A 
ATOM      2  C1  UNL d   1       5.605  -0.448   4.117  0.00  0.00     0.010 A 
ATOM      3  C2  UNL d   1       5.999   0.746   4.724  0.00  0.00     0.041 A 
ATOM      4  C3  UNL d   1       5.631   1.967   4.127  0.00  0.00    -0.075 A 
ATOM      5  S   UNL d   1       6.000   3.554   4.693  0.00  0.00     0.015 SA
ATOM      6  C4  UNL d   1       5.183   4.289   3.390  0.00  0.00     0.022 A 
ATOM      7  C5  UNL d   1       4.637   3.362   2.535  0.00  0.00     0.026 A 
ATOM      8  C6  UNL d   1       4.885   2.009   2.945  0.00  0.00    -0.082 A 
ATOM      9  C7  UNL d   1       4.502   0.781   2.354  0.00  0.00     0.045 A 
ENDROOT
TORSDOF 0
ENDMDL
