MODEL 1
REMARK minimizedAffinity 7.69708729
REMARK minimizedRMSD -1
REMARK  0 active torsions:
REMARK  status: ('A' for Active; 'I' for Inactive)
ROOT
ATOM      1  C   UNL d   1      -3.069  -1.031   2.397  0.00  0.00    -0.002 A 
ATOM      2  C1  UNL d   1      -2.478  -0.204   3.342  0.00  0.00     0.010 A 
ATOM      3  C2  UNL d   1      -2.203   1.132   3.044  0.00  0.00     0.041 A 
ATOM      4  C3  UNL d   1      -2.537   1.629   1.768  0.00  0.00    -0.075 A 
ATOM      5  S   UNL d   1      -2.295   3.231   1.180  0.00  0.00     0.015 SA
ATOM      6  C4  UNL d   1      -2.971   2.856  -0.339  0.00  0.00     0.022 A 
ATOM      7  C5  UNL d   1      -3.377   1.545  -0.413  0.00  0.00     0.026 A 
ATOM      8  C6  UNL d   1      -3.134   0.816   0.800  0.00  0.00    -0.082 A 
ATOM      9  C7  UNL d   1      -3.399  -0.535   1.133  0.00  0.00     0.045 A 
ENDROOT
TORSDOF 0
ENDMDL
