MODEL 1
REMARK minimizedAffinity 7.34515429
REMARK minimizedRMSD -1
REMARK  0 active torsions:
REMARK  status: ('A' for Active; 'I' for Inactive)
ROOT
ATOM      1  C   UNL d   1      -2.985  -0.091   0.913  0.00  0.00    -0.002 A 
ATOM      2  C1  UNL d   1      -2.899   0.426   2.198  0.00  0.00     0.010 A 
ATOM      3  C2  UNL d   1      -2.901   1.806   2.410  0.00  0.00     0.041 A 
ATOM      4  C3  UNL d   1      -2.994   2.666   1.299  0.00  0.00    -0.075 A 
ATOM      5  S   UNL d   1      -3.016   4.390   1.317  0.00  0.00     0.015 SA
ATOM      6  C4  UNL d   1      -3.141   4.481  -0.380  0.00  0.00     0.022 A 
ATOM      7  C5  UNL d   1      -3.167   3.236  -0.963  0.00  0.00     0.026 A 
ATOM      8  C6  UNL d   1      -3.083   2.170  -0.005  0.00  0.00    -0.082 A 
ATOM      9  C7  UNL d   1      -3.077   0.766  -0.187  0.00  0.00     0.045 A 
ENDROOT
TORSDOF 0
ENDMDL
