MODEL 1
REMARK minimizedAffinity 9.39178371
REMARK minimizedRMSD -1
REMARK  0 active torsions:
REMARK  status: ('A' for Active; 'I' for Inactive)
ROOT
ATOM      1  C   UNL d   1       5.111   1.095  -5.687  0.00  0.00    -0.002 A 
ATOM      2  C1  UNL d   1       6.000   1.886  -4.974  0.00  0.00     0.010 A 
ATOM      3  C2  UNL d   1       5.636   3.169  -4.560  0.00  0.00     0.041 A 
ATOM      4  C3  UNL d   1       4.349   3.647  -4.877  0.00  0.00    -0.075 A 
ATOM      5  S   UNL d   1       3.684   5.186  -4.474  0.00  0.00     0.015 SA
ATOM      6  C4  UNL d   1       2.203   4.829  -5.238  0.00  0.00     0.022 A 
ATOM      7  C5  UNL d   1       2.199   3.571  -5.793  0.00  0.00     0.026 A 
ATOM      8  C6  UNL d   1       3.436   2.869  -5.594  0.00  0.00    -0.082 A 
ATOM      9  C7  UNL d   1       3.835   1.573  -6.000  0.00  0.00     0.045 A 
ENDROOT
TORSDOF 0
ENDMDL
