MODEL 1
REMARK minimizedAffinity -1.28004134
REMARK minimizedRMSD -1
REMARK  0 active torsions:
REMARK  status: ('A' for Active; 'I' for Inactive)
ROOT
ATOM      1  C4' PXY d   1       1.884   2.101   0.500  0.00  0.00     0.077 C 
ATOM      2  C1' PXY d   1      -0.480  -3.069  -0.549  0.00  0.00     0.077 C 
ATOM      3  C1  PXY d   1       0.150  -1.719  -0.268  0.00  0.00    -0.082 A 
ATOM      4  C2  PXY d   1      -0.614  -0.640  -0.210  0.00  0.00     0.003 A 
ATOM      5  C3  PXY d   1      -0.057   0.593   0.011  0.00  0.00     0.003 A 
ATOM      6  C4  PXY d   1       1.290   0.716   0.228  0.00  0.00    -0.082 A 
ATOM      7  C5  PXY d   1       2.074  -0.382   0.181  0.00  0.00     0.003 A 
ATOM      8  C6  PXY d   1       1.495  -1.619  -0.086  0.00  0.00     0.003 A 
ENDROOT
TORSDOF 0
ENDMDL
