MODEL 1
REMARK minimizedAffinity -2.89571095
REMARK minimizedRMSD -1
REMARK  0 active torsions:
REMARK  status: ('A' for Active; 'I' for Inactive)
ROOT
ATOM      1  C4' PXY d   1      -3.011   1.010  -0.076  0.00  0.00     0.077 C 
ATOM      2  C1' PXY d   1       2.063  -1.755  -0.240  0.00  0.00     0.077 C 
ATOM      3  C1  PXY d   1       0.737  -1.023  -0.187  0.00  0.00    -0.082 A 
ATOM      4  C2  PXY d   1      -0.355  -1.612  -0.648  0.00  0.00     0.003 A 
ATOM      5  C3  PXY d   1      -1.557  -0.952  -0.638  0.00  0.00     0.003 A 
ATOM      6  C4  PXY d   1      -1.652   0.304  -0.101  0.00  0.00    -0.082 A 
ATOM      7  C5  PXY d   1      -0.545   0.908   0.381  0.00  0.00     0.003 A 
ATOM      8  C6  PXY d   1       0.673   0.237   0.323  0.00  0.00     0.003 A 
ENDROOT
TORSDOF 0
ENDMDL
