MODEL 1
REMARK minimizedAffinity -4.488585
REMARK minimizedRMSD -1
REMARK  0 active torsions:
REMARK  status: ('A' for Active; 'I' for Inactive)
ROOT
ATOM      1  C4' PXY d   1      -2.518   0.566  -0.606  0.00  0.00     0.077 C 
ATOM      2  C1' PXY d   1       3.101  -0.584   0.113  0.00  0.00     0.077 C 
ATOM      3  C1  PXY d   1       1.629  -0.272  -0.067  0.00  0.00    -0.082 A 
ATOM      4  C2  PXY d   1       0.803  -1.225  -0.469  0.00  0.00     0.003 A 
ATOM      5  C3  PXY d   1      -0.526  -0.952  -0.668  0.00  0.00     0.003 A 
ATOM      6  C4  PXY d   1      -1.025   0.295  -0.402  0.00  0.00    -0.082 A 
ATOM      7  C5  PXY d   1      -0.191   1.269   0.019  0.00  0.00     0.003 A 
ATOM      8  C6  PXY d   1       1.162   0.983   0.175  0.00  0.00     0.003 A 
ENDROOT
TORSDOF 0
ENDMDL
