MODEL 1
REMARK minimizedAffinity -4.02357149
REMARK minimizedRMSD -1
REMARK  0 active torsions:
REMARK  status: ('A' for Active; 'I' for Inactive)
ROOT
ATOM      1  C4' PXY d   1       2.837   1.890   0.344  0.00  0.00     0.077 C 
ATOM      2  C1' PXY d   1      -0.008  -2.844  -1.361  0.00  0.00     0.077 C 
ATOM      3  C1  PXY d   1       0.730  -1.595  -0.920  0.00  0.00    -0.082 A 
ATOM      4  C2  PXY d   1       2.013  -1.670  -0.605  0.00  0.00     0.003 A 
ATOM      5  C3  PXY d   1       2.687  -0.557  -0.174  0.00  0.00     0.003 A 
ATOM      6  C4  PXY d   1       2.055   0.657  -0.115  0.00  0.00    -0.082 A 
ATOM      7  C5  PXY d   1       0.749   0.743  -0.445  0.00  0.00     0.003 A 
ATOM      8  C6  PXY d   1       0.072  -0.407  -0.841  0.00  0.00     0.003 A 
ENDROOT
TORSDOF 0
ENDMDL
