MODEL 1
REMARK minimizedAffinity 0.476426363
REMARK minimizedRMSD -1
REMARK  0 active torsions:
REMARK  status: ('A' for Active; 'I' for Inactive)
ROOT
ATOM      1  C4' PXY d   1       0.182  -1.175  -0.683  0.00  0.00     0.077 C 
ATOM      2  C1' PXY d   1      -3.537   2.718   1.422  0.00  0.00     0.077 C 
ATOM      3  C1  PXY d   1      -2.560   1.705   0.860  0.00  0.00    -0.082 A 
ATOM      4  C2  PXY d   1      -2.649   0.436   1.226  0.00  0.00     0.003 A 
ATOM      5  C3  PXY d   1      -1.754  -0.487   0.752  0.00  0.00     0.003 A 
ATOM      6  C4  PXY d   1      -0.789  -0.119  -0.148  0.00  0.00    -0.082 A 
ATOM      7  C5  PXY d   1      -0.698   1.171  -0.535  0.00  0.00     0.003 A 
ATOM      8  C6  PXY d   1      -1.591   2.101  -0.010  0.00  0.00     0.003 A 
ENDROOT
TORSDOF 0
ENDMDL
