MODEL 1
REMARK minimizedAffinity -2.85276031
REMARK minimizedRMSD -1
REMARK  0 active torsions:
REMARK  status: ('A' for Active; 'I' for Inactive)
ROOT
ATOM      1  C4' PXY d   1      -3.467   1.115   0.826  0.00  0.00     0.077 C 
ATOM      2  C1' PXY d   1       1.350  -1.791  -0.501  0.00  0.00     0.077 C 
ATOM      3  C1  PXY d   1       0.094  -1.018  -0.153  0.00  0.00    -0.082 A 
ATOM      4  C2  PXY d   1      -0.913  -1.639   0.440  0.00  0.00     0.003 A 
ATOM      5  C3  PXY d   1      -2.069  -0.962   0.733  0.00  0.00     0.003 A 
ATOM      6  C4  PXY d   1      -2.176   0.376   0.465  0.00  0.00    -0.082 A 
ATOM      7  C5  PXY d   1      -1.149   1.019  -0.130  0.00  0.00     0.003 A 
ATOM      8  C6  PXY d   1       0.001   0.305  -0.456  0.00  0.00     0.003 A 
ENDROOT
TORSDOF 0
ENDMDL
