MODEL 1
REMARK minimizedAffinity -2.56141996
REMARK minimizedRMSD -1
REMARK  0 active torsions:
REMARK  status: ('A' for Active; 'I' for Inactive)
ROOT
ATOM      1  C4' PXY d   1       1.349  -1.365  -0.483  0.00  0.00     0.077 C 
ATOM      2  C1' PXY d   1      -3.334   1.171   1.766  0.00  0.00     0.077 C 
ATOM      3  C1  PXY d   1      -2.108   0.512   1.165  0.00  0.00    -0.082 A 
ATOM      4  C2  PXY d   1      -1.689  -0.649   1.641  0.00  0.00     0.003 A 
ATOM      5  C3  PXY d   1      -0.563  -1.243   1.131  0.00  0.00     0.003 A 
ATOM      6  C4  PXY d   1       0.110  -0.669   0.087  0.00  0.00    -0.082 A 
ATOM      7  C5  PXY d   1      -0.317   0.511  -0.412  0.00  0.00     0.003 A 
ATOM      8  C6  PXY d   1      -1.438   1.118   0.147  0.00  0.00     0.003 A 
ENDROOT
TORSDOF 0
ENDMDL
