MODEL 1
REMARK minimizedAffinity -2.64512134
REMARK minimizedRMSD -1
REMARK  0 active torsions:
REMARK  status: ('A' for Active; 'I' for Inactive)
ROOT
ATOM      1  C4' PXY d   1      -2.745   0.785  -0.337  0.00  0.00     0.077 C 
ATOM      2  C1' PXY d   1       2.386  -1.866  -0.567  0.00  0.00     0.077 C 
ATOM      3  C1  PXY d   1       1.046  -1.162  -0.498  0.00  0.00    -0.082 A 
ATOM      4  C2  PXY d   1      -0.064  -1.844  -0.729  0.00  0.00     0.003 A 
ATOM      5  C3  PXY d   1      -1.283  -1.216  -0.703  0.00  0.00     0.003 A 
ATOM      6  C4  PXY d   1      -1.370   0.113  -0.385  0.00  0.00    -0.082 A 
ATOM      7  C5  PXY d   1      -0.243   0.814  -0.138  0.00  0.00     0.003 A 
ATOM      8  C6  PXY d   1       0.987   0.167  -0.210  0.00  0.00     0.003 A 
ENDROOT
TORSDOF 0
ENDMDL
