MODEL 1
REMARK minimizedAffinity -3.9137466
REMARK minimizedRMSD -1
REMARK  0 active torsions:
REMARK  status: ('A' for Active; 'I' for Inactive)
ROOT
ATOM      1  C4' PXY d   1       2.647  -1.928  -0.017  0.00  0.00     0.077 C 
ATOM      2  C1' PXY d   1      -2.016   1.360  -0.945  0.00  0.00     0.077 C 
ATOM      3  C1  PXY d   1      -0.800   0.487  -0.706  0.00  0.00    -0.082 A 
ATOM      4  C2  PXY d   1       0.128   0.879   0.153  0.00  0.00     0.003 A 
ATOM      5  C3  PXY d   1       1.250   0.118   0.357  0.00  0.00     0.003 A 
ATOM      6  C4  PXY d   1       1.398  -1.083  -0.283  0.00  0.00    -0.082 A 
ATOM      7  C5  PXY d   1       0.451  -1.495  -1.152  0.00  0.00     0.003 A 
ATOM      8  C6  PXY d   1      -0.660  -0.688  -1.377  0.00  0.00     0.003 A 
ENDROOT
TORSDOF 0
ENDMDL
