MODEL 1
REMARK minimizedAffinity 3.07023215
REMARK minimizedRMSD -1
REMARK  0 active torsions:
REMARK  status: ('A' for Active; 'I' for Inactive)
ROOT
ATOM      1  C4' PXY d   1      -4.202   1.058   0.749  0.00  0.00     0.077 C 
ATOM      2  C1' PXY d   1       1.097  -1.000  -0.301  0.00  0.00     0.077 C 
ATOM      3  C1  PXY d   1      -0.295  -0.469  -0.016  0.00  0.00    -0.082 A 
ATOM      4  C2  PXY d   1      -0.951   0.184  -0.961  0.00  0.00     0.003 A 
ATOM      5  C3  PXY d   1      -2.197   0.699  -0.710  0.00  0.00     0.003 A 
ATOM      6  C4  PXY d   1      -2.799   0.496   0.503  0.00  0.00    -0.082 A 
ATOM      7  C5  PXY d   1      -2.140  -0.179   1.469  0.00  0.00     0.003 A 
ATOM      8  C6  PXY d   1      -0.859  -0.657   1.208  0.00  0.00     0.003 A 
ENDROOT
TORSDOF 0
ENDMDL
