MODEL 1
REMARK minimizedAffinity -5.13920164
REMARK minimizedRMSD -1
REMARK  0 active torsions:
REMARK  status: ('A' for Active; 'I' for Inactive)
ROOT
ATOM      1  O1  BZF d   1       0.621  -0.637  -0.065  0.00  0.00    -0.204 OA
ATOM      2  C2  BZF d   1      -0.457  -1.249   0.544  0.00  0.00     0.174 A 
ATOM      3  C3  BZF d   1      -1.346  -0.331   0.978  0.00  0.00    -0.012 A 
ATOM      4  C3A BZF d   1      -0.832   0.929   0.535  0.00  0.00    -0.107 A 
ATOM      5  C4  BZF d   1      -1.276   2.215   0.647  0.00  0.00     0.055 A 
ATOM      6  C5  BZF d   1      -0.502   3.225   0.169  0.00  0.00    -0.016 A 
ATOM      7  C6  BZF d   1       0.722   2.985  -0.420  0.00  0.00     0.022 A 
ATOM      8  C7  BZF d   1       1.202   1.725  -0.558  0.00  0.00     0.029 A 
ATOM      9  C7A BZF d   1       0.408   0.700  -0.106  0.00  0.00     0.058 A 
ENDROOT
TORSDOF 0
ENDMDL
