MODEL 1
REMARK minimizedAffinity -2.49680185
REMARK minimizedRMSD -1
REMARK  0 active torsions:
REMARK  status: ('A' for Active; 'I' for Inactive)
ROOT
ATOM      1  O1  BZF d   1      -0.720   2.870   0.022  0.00  0.00    -0.204 OA
ATOM      2  C2  BZF d   1       0.312   3.086  -0.872  0.00  0.00     0.174 A 
ATOM      3  C3  BZF d   1       0.954   1.932  -1.149  0.00  0.00    -0.012 A 
ATOM      4  C3A BZF d   1       0.224   0.919  -0.451  0.00  0.00    -0.107 A 
ATOM      5  C4  BZF d   1       0.364  -0.436  -0.348  0.00  0.00     0.055 A 
ATOM      6  C5  BZF d   1      -0.472  -1.125   0.472  0.00  0.00    -0.016 A 
ATOM      7  C6  BZF d   1      -1.454  -0.493   1.207  0.00  0.00     0.022 A 
ATOM      8  C7  BZF d   1      -1.634   0.848   1.133  0.00  0.00     0.029 A 
ATOM      9  C7A BZF d   1      -0.812   1.544   0.280  0.00  0.00     0.058 A 
ENDROOT
TORSDOF 0
ENDMDL
