MODEL 1
REMARK minimizedAffinity -0.597499788
REMARK minimizedRMSD -1
REMARK  0 active torsions:
REMARK  status: ('A' for Active; 'I' for Inactive)
ROOT
ATOM      1  O1  BZF d   1       0.718  -0.261  -0.528  0.00  0.00    -0.204 OA
ATOM      2  C2  BZF d   1      -0.368  -0.902   0.035  0.00  0.00     0.174 A 
ATOM      3  C3  BZF d   1      -1.146  -0.028   0.704  0.00  0.00    -0.012 A 
ATOM      4  C3A BZF d   1      -0.556   1.255   0.472  0.00  0.00    -0.107 A 
ATOM      5  C4  BZF d   1      -0.882   2.523   0.862  0.00  0.00     0.055 A 
ATOM      6  C5  BZF d   1      -0.057   3.549   0.527  0.00  0.00    -0.016 A 
ATOM      7  C6  BZF d   1       1.103   3.344  -0.191  0.00  0.00     0.022 A 
ATOM      8  C7  BZF d   1       1.465   2.105  -0.604  0.00  0.00     0.029 A 
ATOM      9  C7A BZF d   1       0.617   1.070  -0.295  0.00  0.00     0.058 A 
ENDROOT
TORSDOF 0
ENDMDL
