MODEL 1
REMARK minimizedAffinity -3.20184374
REMARK minimizedRMSD -1
REMARK  0 active torsions:
REMARK  status: ('A' for Active; 'I' for Inactive)
ROOT
ATOM      1  O1  BZF d   1      -0.997  -0.909   0.966  0.00  0.00    -0.204 OA
ATOM      2  C2  BZF d   1      -0.119  -1.750   0.310  0.00  0.00     0.174 A 
ATOM      3  C3  BZF d   1       0.644  -1.059  -0.562  0.00  0.00    -0.012 A 
ATOM      4  C3A BZF d   1       0.278   0.312  -0.378  0.00  0.00    -0.107 A 
ATOM      5  C4  BZF d   1       0.699   1.481  -0.946  0.00  0.00     0.055 A 
ATOM      6  C5  BZF d   1       0.088   2.643  -0.596  0.00  0.00    -0.016 A 
ATOM      7  C6  BZF d   1      -0.949   2.673   0.313  0.00  0.00     0.022 A 
ATOM      8  C7  BZF d   1      -1.398   1.540   0.907  0.00  0.00     0.029 A 
ATOM      9  C7A BZF d   1      -0.760   0.368   0.580  0.00  0.00     0.058 A 
ENDROOT
TORSDOF 0
ENDMDL
