MODEL 1
REMARK minimizedAffinity -4.39521503
REMARK minimizedRMSD -1
REMARK  0 active torsions:
REMARK  status: ('A' for Active; 'I' for Inactive)
ROOT
ATOM      1  O1  BZF d   1       0.391  -0.660  -1.514  0.00  0.00    -0.204 OA
ATOM      2  C2  BZF d   1       0.006  -1.763  -0.777  0.00  0.00     0.174 A 
ATOM      3  C3  BZF d   1      -0.472  -1.391   0.428  0.00  0.00    -0.012 A 
ATOM      4  C3A BZF d   1      -0.466   0.040   0.409  0.00  0.00    -0.107 A 
ATOM      5  C4  BZF d   1      -0.842   0.992   1.313  0.00  0.00     0.055 A 
ATOM      6  C5  BZF d   1      -0.639   2.302   1.014  0.00  0.00    -0.016 A 
ATOM      7  C6  BZF d   1      -0.060   2.695  -0.175  0.00  0.00     0.022 A 
ATOM      8  C7  BZF d   1       0.325   1.787  -1.104  0.00  0.00     0.029 A 
ATOM      9  C7A BZF d   1       0.091   0.464  -0.820  0.00  0.00     0.058 A 
ENDROOT
TORSDOF 0
ENDMDL
