MODEL 1
REMARK minimizedAffinity -2.93403411
REMARK minimizedRMSD -1
REMARK  0 active torsions:
REMARK  status: ('A' for Active; 'I' for Inactive)
ROOT
ATOM      1  O1  BZF d   1      -1.287   2.621   1.216  0.00  0.00    -0.204 OA
ATOM      2  C2  BZF d   1      -1.763   1.381   1.596  0.00  0.00     0.174 A 
ATOM      3  C3  BZF d   1      -0.922   0.404   1.202  0.00  0.00    -0.012 A 
ATOM      4  C3A BZF d   1       0.193   1.081   0.615  0.00  0.00    -0.107 A 
ATOM      5  C4  BZF d   1       1.363   0.653   0.054  0.00  0.00     0.055 A 
ATOM      6  C5  BZF d   1       2.206   1.568  -0.493  0.00  0.00    -0.016 A 
ATOM      7  C6  BZF d   1       1.910   2.915  -0.500  0.00  0.00     0.022 A 
ATOM      8  C7  BZF d   1       0.765   3.388   0.049  0.00  0.00     0.029 A 
ATOM      9  C7A BZF d   1      -0.074   2.470   0.631  0.00  0.00     0.058 A 
ENDROOT
TORSDOF 0
ENDMDL
