MODEL 1
REMARK minimizedAffinity -1.88571525
REMARK minimizedRMSD -1
REMARK  0 active torsions:
REMARK  status: ('A' for Active; 'I' for Inactive)
ROOT
ATOM      1  O1  BZF d   1      -0.371  -1.011   0.894  0.00  0.00    -0.204 OA
ATOM      2  C2  BZF d   1       0.707  -1.293   0.078  0.00  0.00     0.174 A 
ATOM      3  C3  BZF d   1       1.157  -0.173  -0.524  0.00  0.00    -0.012 A 
ATOM      4  C3A BZF d   1       0.366   0.889   0.017  0.00  0.00    -0.107 A 
ATOM      5  C4  BZF d   1       0.349   2.241  -0.177  0.00  0.00     0.055 A 
ATOM      6  C5  BZF d   1      -0.598   2.987   0.450  0.00  0.00    -0.016 A 
ATOM      7  C6  BZF d   1      -1.545   2.414   1.274  0.00  0.00     0.022 A 
ATOM      8  C7  BZF d   1      -1.565   1.079   1.502  0.00  0.00     0.029 A 
ATOM      9  C7A BZF d   1      -0.589   0.326   0.895  0.00  0.00     0.058 A 
ENDROOT
TORSDOF 0
ENDMDL
