MODEL 1
REMARK minimizedAffinity -3.69088125
REMARK minimizedRMSD -1
REMARK  0 active torsions:
REMARK  status: ('A' for Active; 'I' for Inactive)
ROOT
ATOM      1  O1  BZF d   1       2.460   0.605   1.107  0.00  0.00    -0.204 OA
ATOM      2  C2  BZF d   1       2.997   1.863   1.298  0.00  0.00     0.174 A 
ATOM      3  C3  BZF d   1       2.078   2.819   1.054  0.00  0.00    -0.012 A 
ATOM      4  C3A BZF d   1       0.865   2.112   0.777  0.00  0.00    -0.107 A 
ATOM      5  C4  BZF d   1      -0.406   2.510   0.476  0.00  0.00     0.055 A 
ATOM      6  C5  BZF d   1      -1.343   1.568   0.189  0.00  0.00    -0.016 A 
ATOM      7  C6  BZF d   1      -1.042   0.222   0.189  0.00  0.00     0.022 A 
ATOM      8  C7  BZF d   1       0.203  -0.222   0.487  0.00  0.00     0.029 A 
ATOM      9  C7A BZF d   1       1.144   0.726   0.809  0.00  0.00     0.058 A 
ENDROOT
TORSDOF 0
ENDMDL
