MODEL 1
REMARK minimizedAffinity -0.0576738566
REMARK minimizedRMSD -1
REMARK  0 active torsions:
REMARK  status: ('A' for Active; 'I' for Inactive)
ROOT
ATOM      1  O1  BZF d   1      -0.855   2.501   1.147  0.00  0.00    -0.204 OA
ATOM      2  C2  BZF d   1      -1.821   1.613   0.714  0.00  0.00     0.174 A 
ATOM      3  C3  BZF d   1      -1.262   0.447   0.331  0.00  0.00    -0.012 A 
ATOM      4  C3A BZF d   1       0.131   0.583   0.624  0.00  0.00    -0.107 A 
ATOM      5  C4  BZF d   1       1.206  -0.247   0.482  0.00  0.00     0.055 A 
ATOM      6  C5  BZF d   1       2.445   0.216   0.796  0.00  0.00    -0.016 A 
ATOM      7  C6  BZF d   1       2.645   1.504   1.248  0.00  0.00     0.022 A 
ATOM      8  C7  BZF d   1       1.609   2.363   1.410  0.00  0.00     0.029 A 
ATOM      9  C7A BZF d   1       0.353   1.887   1.125  0.00  0.00     0.058 A 
ENDROOT
TORSDOF 0
ENDMDL
