MODEL 1
REMARK minimizedAffinity -3.52589178
REMARK minimizedRMSD -1
REMARK  0 active torsions:
REMARK  status: ('A' for Active; 'I' for Inactive)
ROOT
ATOM      1  O1  BZF d   1      -0.089  -0.956  -1.229  0.00  0.00    -0.204 OA
ATOM      2  C2  BZF d   1      -0.215  -1.619  -0.023  0.00  0.00     0.174 A 
ATOM      3  C3  BZF d   1      -0.182  -0.750   1.007  0.00  0.00    -0.012 A 
ATOM      4  C3A BZF d   1      -0.118   0.546   0.404  0.00  0.00    -0.107 A 
ATOM      5  C4  BZF d   1      -0.077   1.815   0.907  0.00  0.00     0.055 A 
ATOM      6  C5  BZF d   1       0.056   2.862   0.051  0.00  0.00    -0.016 A 
ATOM      7  C6  BZF d   1       0.157   2.676  -1.313  0.00  0.00     0.022 A 
ATOM      8  C7  BZF d   1       0.117   1.436  -1.859  0.00  0.00     0.029 A 
ATOM      9  C7A BZF d   1      -0.051   0.379  -0.999  0.00  0.00     0.058 A 
ENDROOT
TORSDOF 0
ENDMDL
