MODEL 1
REMARK minimizedAffinity -3.95456839
REMARK minimizedRMSD -1
REMARK  0 active torsions:
REMARK  status: ('A' for Active; 'I' for Inactive)
ROOT
ATOM      1  O1  BZF d   1      -0.417  -0.328   1.497  0.00  0.00    -0.204 OA
ATOM      2  C2  BZF d   1       0.152  -1.300   0.696  0.00  0.00     0.174 A 
ATOM      3  C3  BZF d   1       0.471  -0.797  -0.513  0.00  0.00    -0.012 A 
ATOM      4  C3A BZF d   1       0.162   0.598  -0.434  0.00  0.00    -0.107 A 
ATOM      5  C4  BZF d   1       0.274   1.636  -1.315  0.00  0.00     0.055 A 
ATOM      6  C5  BZF d   1      -0.186   2.862  -0.952  0.00  0.00    -0.016 A 
ATOM      7  C6  BZF d   1      -0.768   3.085   0.279  0.00  0.00     0.022 A 
ATOM      8  C7  BZF d   1      -0.896   2.087   1.187  0.00  0.00     0.029 A 
ATOM      9  C7A BZF d   1      -0.403   0.855   0.836  0.00  0.00     0.058 A 
ENDROOT
TORSDOF 0
ENDMDL
