MODEL 1
REMARK minimizedAffinity -4.22610569
REMARK minimizedRMSD -1
REMARK  0 active torsions:
REMARK  status: ('A' for Active; 'I' for Inactive)
ROOT
ATOM      1  O1  BZF d   1       1.648  -1.124   1.004  0.00  0.00    -0.204 OA
ATOM      2  C2  BZF d   1       2.952  -0.740   0.758  0.00  0.00     0.174 A 
ATOM      3  C3  BZF d   1       2.994   0.503   0.236  0.00  0.00    -0.012 A 
ATOM      4  C3A BZF d   1       1.637   0.957   0.236  0.00  0.00    -0.107 A 
ATOM      5  C4  BZF d   1       1.038   2.122  -0.149  0.00  0.00     0.055 A 
ATOM      6  C5  BZF d   1      -0.316   2.219  -0.087  0.00  0.00    -0.016 A 
ATOM      7  C6  BZF d   1      -1.101   1.171   0.347  0.00  0.00     0.022 A 
ATOM      8  C7  BZF d   1      -0.551  -0.002   0.744  0.00  0.00     0.029 A 
ATOM      9  C7A BZF d   1       0.819  -0.092   0.714  0.00  0.00     0.058 A 
ENDROOT
TORSDOF 0
ENDMDL
