MODEL 1
REMARK minimizedAffinity -5.2580328
REMARK minimizedRMSD -1
REMARK  0 active torsions:
REMARK  status: ('A' for Active; 'I' for Inactive)
ROOT
ATOM      1  O1  BZF d   1       1.193   2.974  -0.260  0.00  0.00    -0.204 OA
ATOM      2  C2  BZF d   1       0.093   3.754   0.043  0.00  0.00     0.174 A 
ATOM      3  C3  BZF d   1      -0.953   2.985   0.406  0.00  0.00    -0.012 A 
ATOM      4  C3A BZF d   1      -0.451   1.646   0.414  0.00  0.00    -0.107 A 
ATOM      5  C4  BZF d   1      -1.010   0.435   0.708  0.00  0.00     0.055 A 
ATOM      6  C5  BZF d   1      -0.269  -0.692   0.546  0.00  0.00    -0.016 A 
ATOM      7  C6  BZF d   1       1.031  -0.646   0.087  0.00  0.00     0.022 A 
ATOM      8  C7  BZF d   1       1.631   0.532  -0.214  0.00  0.00     0.029 A 
ATOM      9  C7A BZF d   1       0.895   1.675  -0.019  0.00  0.00     0.058 A 
ENDROOT
TORSDOF 0
ENDMDL
