MODEL 1
REMARK minimizedAffinity -5.09764719
REMARK minimizedRMSD -1
REMARK  0 active torsions:
REMARK  status: ('A' for Active; 'I' for Inactive)
ROOT
ATOM      1  O1  BZF d   1       0.890  -0.115  -1.464  0.00  0.00    -0.204 OA
ATOM      2  C2  BZF d   1       0.352  -1.297  -0.992  0.00  0.00     0.174 A 
ATOM      3  C3  BZF d   1      -0.451  -1.068   0.066  0.00  0.00    -0.012 A 
ATOM      4  C3A BZF d   1      -0.486   0.355   0.212  0.00  0.00    -0.107 A 
ATOM      5  C4  BZF d   1      -1.126   1.194   1.078  0.00  0.00     0.055 A 
ATOM      6  C5  BZF d   1      -0.891   2.530   0.997  0.00  0.00    -0.016 A 
ATOM      7  C6  BZF d   1      -0.020   3.060   0.068  0.00  0.00     0.022 A 
ATOM      8  C7  BZF d   1       0.635   2.267  -0.815  0.00  0.00     0.029 A 
ATOM      9  C7A BZF d   1       0.374   0.920  -0.758  0.00  0.00     0.058 A 
ENDROOT
TORSDOF 0
ENDMDL
