MODEL 1
REMARK minimizedAffinity -5.1926322
REMARK minimizedRMSD -1
REMARK  0 active torsions:
REMARK  status: ('A' for Active; 'I' for Inactive)
ROOT
ATOM      1  O1  BZF d   1       1.371  -0.346  -1.435  0.00  0.00    -0.204 OA
ATOM      2  C2  BZF d   1       0.684  -1.529  -1.245  0.00  0.00     0.174 A 
ATOM      3  C3  BZF d   1      -0.395  -1.335  -0.459  0.00  0.00    -0.012 A 
ATOM      4  C3A BZF d   1      -0.433   0.074  -0.214  0.00  0.00    -0.107 A 
ATOM      5  C4  BZF d   1      -1.281   0.883   0.487  0.00  0.00     0.055 A 
ATOM      6  C5  BZF d   1      -0.996   2.207   0.591  0.00  0.00    -0.016 A 
ATOM      7  C6  BZF d   1       0.129   2.756   0.012  0.00  0.00     0.022 A 
ATOM      8  C7  BZF d   1       0.998   1.995  -0.698  0.00  0.00     0.029 A 
ATOM      9  C7A BZF d   1       0.695   0.662  -0.833  0.00  0.00     0.058 A 
ENDROOT
TORSDOF 0
ENDMDL
