MODEL 1
REMARK minimizedAffinity 2.37203574
REMARK minimizedRMSD -1
REMARK  2 active torsions:
REMARK  status: ('A' for Active; 'I' for Inactive)
REMARK    1  A    between atoms: C1_2  and  C2_3 
REMARK    2  A    between atoms: C2_3  and  C3_4 
ROOT
ATOM      1  C3  UNL d   1      -4.767   0.138  -3.518  0.00  0.00    -0.075 A 
ATOM      2  C4  UNL d   1      -4.029   0.019  -2.331  0.00  0.00     0.002 A 
ATOM      3  C5  UNL d   1      -3.836  -1.229  -1.739  0.00  0.00     0.002 A 
ATOM      4  C6  UNL d   1      -4.387  -2.371  -2.318  0.00  0.00    -0.004 A 
ATOM      5  C7  UNL d   1      -5.136  -2.262  -3.488  0.00  0.00     0.002 A 
ATOM      6  C8  UNL d   1      -5.326  -1.015  -4.085  0.00  0.00     0.002 A 
ENDROOT
BRANCH   1   7
ATOM      7  C2  UNL d   1      -4.954   1.483  -4.180  0.00  0.00     0.056 C 
BRANCH   7   8
ATOM      8  C1  UNL d   1      -4.369   2.655  -3.386  0.00  0.00     0.007 C 
ATOM      9  C   UNL d   1      -4.528   3.996  -4.091  0.00  0.00     0.009 C 
ENDBRANCH   7   8
ENDBRANCH   1   7
TORSDOF 2
ENDMDL
