MODEL 1
REMARK minimizedAffinity 5.65249586
REMARK minimizedRMSD -1
REMARK  2 active torsions:
REMARK  status: ('A' for Active; 'I' for Inactive)
REMARK    1  A    between atoms: C1_2  and  C2_3 
REMARK    2  A    between atoms: C2_3  and  C3_4 
ROOT
ATOM      1  C3  UNL d   1       1.231   3.629   4.509  0.00  0.00    -0.075 A 
ATOM      2  C4  UNL d   1       0.182   4.559   4.531  0.00  0.00     0.002 A 
ATOM      3  C5  UNL d   1       0.297   5.740   5.265  0.00  0.00     0.002 A 
ATOM      4  C6  UNL d   1       1.455   6.000   5.994  0.00  0.00    -0.004 A 
ATOM      5  C7  UNL d   1       2.497   5.075   5.993  0.00  0.00     0.002 A 
ATOM      6  C8  UNL d   1       2.387   3.895   5.255  0.00  0.00     0.002 A 
ENDROOT
BRANCH   1   7
ATOM      7  C2  UNL d   1       1.125   2.363   3.692  0.00  0.00     0.056 C 
BRANCH   7   8
ATOM      8  C1  UNL d   1       2.345   2.088   2.807  0.00  0.00     0.007 C 
ATOM      9  C   UNL d   1       1.989   1.887   1.340  0.00  0.00     0.009 C 
ENDBRANCH   7   8
ENDBRANCH   1   7
TORSDOF 2
ENDMDL
