MODEL 1
REMARK minimizedAffinity 8.8391819
REMARK minimizedRMSD -1
REMARK  2 active torsions:
REMARK  status: ('A' for Active; 'I' for Inactive)
REMARK    1  A    between atoms: C1_2  and  C2_3 
REMARK    2  A    between atoms: C2_3  and  C3_4 
ROOT
ATOM      1  C3  UNL d   1       4.038  -3.895   2.179  0.00  0.00    -0.075 A 
ATOM      2  C4  UNL d   1       2.995  -4.003   1.247  0.00  0.00     0.002 A 
ATOM      3  C5  UNL d   1       3.271  -4.128  -0.114  0.00  0.00     0.002 A 
ATOM      4  C6  UNL d   1       4.590  -4.137  -0.563  0.00  0.00    -0.004 A 
ATOM      5  C7  UNL d   1       5.634  -4.015   0.352  0.00  0.00     0.002 A 
ATOM      6  C8  UNL d   1       5.361  -3.894   1.715  0.00  0.00     0.002 A 
ENDROOT
BRANCH   1   7
ATOM      7  C2  UNL d   1       3.747  -3.789   3.656  0.00  0.00     0.056 C 
BRANCH   7   8
ATOM      8  C1  UNL d   1       4.907  -3.223   4.482  0.00  0.00     0.007 C 
ATOM      9  C   UNL d   1       4.552  -3.003   5.946  0.00  0.00     0.009 C 
ENDBRANCH   7   8
ENDBRANCH   1   7
TORSDOF 2
ENDMDL
