MODEL 1
REMARK minimizedAffinity 12.2584791
REMARK minimizedRMSD -1
REMARK  2 active torsions:
REMARK  status: ('A' for Active; 'I' for Inactive)
REMARK    1  A    between atoms: C1_2  and  C2_3 
REMARK    2  A    between atoms: C2_3  and  C3_4 
ROOT
ATOM      1  C3  UNL d   1      -3.638  -1.144  -2.086  0.00  0.00    -0.075 A 
ATOM      2  C4  UNL d   1      -3.926  -0.864  -3.429  0.00  0.00     0.002 A 
ATOM      3  C5  UNL d   1      -4.819  -1.663  -4.143  0.00  0.00     0.002 A 
ATOM      4  C6  UNL d   1      -5.427  -2.755  -3.528  0.00  0.00    -0.004 A 
ATOM      5  C7  UNL d   1      -5.135  -3.052  -2.198  0.00  0.00     0.002 A 
ATOM      6  C8  UNL d   1      -4.245  -2.252  -1.480  0.00  0.00     0.002 A 
ENDROOT
BRANCH   1   7
ATOM      7  C2  UNL d   1      -2.694  -0.266  -1.299  0.00  0.00     0.056 C 
BRANCH   7   8
ATOM      8  C1  UNL d   1      -1.256  -0.790  -1.242  0.00  0.00     0.007 C 
ATOM      9  C   UNL d   1      -0.211   0.315  -1.325  0.00  0.00     0.009 C 
ENDBRANCH   7   8
ENDBRANCH   1   7
TORSDOF 2
ENDMDL
