MODEL 1
REMARK minimizedAffinity 1.93657482
REMARK minimizedRMSD -1
REMARK  2 active torsions:
REMARK  status: ('A' for Active; 'I' for Inactive)
REMARK    1  A    between atoms: C1_2  and  C2_3 
REMARK    2  A    between atoms: C2_3  and  C3_4 
ROOT
ATOM      1  C3  UNL d   1       2.858  -3.534   3.624  0.00  0.00    -0.075 A 
ATOM      2  C4  UNL d   1       2.254  -2.268   3.634  0.00  0.00     0.002 A 
ATOM      3  C5  UNL d   1       1.408  -1.878   2.595  0.00  0.00     0.002 A 
ATOM      4  C6  UNL d   1       1.165  -2.743   1.530  0.00  0.00    -0.004 A 
ATOM      5  C7  UNL d   1       1.772  -3.996   1.501  0.00  0.00     0.002 A 
ATOM      6  C8  UNL d   1       2.615  -4.390   2.542  0.00  0.00     0.002 A 
ENDROOT
BRANCH   1   7
ATOM      7  C2  UNL d   1       3.750  -3.973   4.760  0.00  0.00     0.056 C 
BRANCH   7   8
ATOM      8  C1  UNL d   1       4.021  -2.880   5.799  0.00  0.00     0.007 C 
ATOM      9  C   UNL d   1       5.503  -2.595   6.000  0.00  0.00     0.009 C 
ENDBRANCH   7   8
ENDBRANCH   1   7
TORSDOF 2
ENDMDL
