MODEL 1
REMARK minimizedAffinity -2.41377354
REMARK minimizedRMSD -1
REMARK  1 active torsions:
REMARK  status: ('A' for Active; 'I' for Inactive)
REMARK    1  A    between atoms: C3_4  and  O_7 
ROOT
ATOM      1  C   UNL d   1       4.012   4.122  -5.570  0.00  0.00    -0.033 A 
ATOM      2  C1  UNL d   1       3.343   2.974  -5.999  0.00  0.00     0.039 A 
ATOM      3  C2  UNL d   1       3.997   1.741  -5.999  0.00  0.00    -0.080 A 
ATOM      4  C3  UNL d   1       5.318   1.668  -5.566  0.00  0.00     0.150 A 
ATOM      5  C4  UNL d   1       5.990   2.807  -5.133  0.00  0.00    -0.007 A 
ATOM      6  C5  UNL d   1       5.335   4.038  -5.135  0.00  0.00     0.039 A 
ENDROOT
BRANCH   4   7
ATOM      7  O   UNL d   1       6.000   0.488  -5.552  0.00  0.00    -0.526 OA
ATOM      8  H5  UNL d   1       5.419  -0.207  -5.905  0.00  0.00     0.418 HD
ENDBRANCH   4   7
TORSDOF 1
ENDMDL
