MODEL 1
REMARK minimizedAffinity -4.31583071
REMARK minimizedRMSD -1
REMARK  1 active torsions:
REMARK  status: ('A' for Active; 'I' for Inactive)
REMARK    1  A    between atoms: C3_4  and  O_7 
ROOT
ATOM      1  C   UNL d   1       5.206   3.086  -4.047  0.00  0.00    -0.033 A 
ATOM      2  C1  UNL d   1       4.860   2.659  -5.330  0.00  0.00     0.039 A 
ATOM      3  C2  UNL d   1       5.083   1.335  -5.712  0.00  0.00    -0.080 A 
ATOM      4  C3  UNL d   1       5.652   0.449  -4.802  0.00  0.00     0.150 A 
ATOM      5  C4  UNL d   1       5.996   0.866  -3.520  0.00  0.00    -0.007 A 
ATOM      6  C5  UNL d   1       5.773   2.189  -3.141  0.00  0.00     0.039 A 
ENDROOT
BRANCH   4   7
ATOM      7  O   UNL d   1       5.894  -0.852  -5.130  0.00  0.00    -0.526 OA
ATOM      8  H5  UNL d   1       5.632  -0.990  -6.056  0.00  0.00     0.418 HD
ENDBRANCH   4   7
TORSDOF 1
ENDMDL
