MODEL 1
REMARK minimizedAffinity 1.72836709
REMARK minimizedRMSD -1
REMARK  1 active torsions:
REMARK  status: ('A' for Active; 'I' for Inactive)
REMARK    1  A    between atoms: C3_4  and  O_7 
ROOT
ATOM      1  C   UNL d   1       0.402   3.225   1.176  0.00  0.00    -0.033 A 
ATOM      2  C1  UNL d   1      -0.147   4.117   0.253  0.00  0.00     0.039 A 
ATOM      3  C2  UNL d   1      -1.516   4.090  -0.018  0.00  0.00    -0.080 A 
ATOM      4  C3  UNL d   1      -2.325   3.169   0.641  0.00  0.00     0.150 A 
ATOM      5  C4  UNL d   1      -1.786   2.280   1.565  0.00  0.00    -0.007 A 
ATOM      6  C5  UNL d   1      -0.418   2.307   1.833  0.00  0.00     0.039 A 
ENDROOT
BRANCH   4   7
ATOM      7  O   UNL d   1      -3.666   3.102   0.407  0.00  0.00    -0.526 OA
ATOM      8  H5  UNL d   1      -3.892   3.756  -0.276  0.00  0.00     0.418 HD
ENDBRANCH   4   7
TORSDOF 1
ENDMDL
