MODEL 1
REMARK minimizedAffinity -0.0535389856
REMARK minimizedRMSD -1
REMARK  1 active torsions:
REMARK  status: ('A' for Active; 'I' for Inactive)
REMARK    1  A    between atoms: C3_4  and  O_7 
ROOT
ATOM      1  C   UNL d   1       4.143   4.304  -5.619  0.00  0.00    -0.033 A 
ATOM      2  C1  UNL d   1       3.343   3.223  -5.244  0.00  0.00     0.039 A 
ATOM      3  C2  UNL d   1       3.867   1.929  -5.248  0.00  0.00    -0.080 A 
ATOM      4  C3  UNL d   1       5.192   1.730  -5.628  0.00  0.00     0.150 A 
ATOM      5  C4  UNL d   1       5.996   2.802  -6.000  0.00  0.00    -0.007 A 
ATOM      6  C5  UNL d   1       5.470   4.094  -5.996  0.00  0.00     0.039 A 
ENDROOT
BRANCH   4   7
ATOM      7  O   UNL d   1       5.746   0.485  -5.653  0.00  0.00    -0.526 OA
ATOM      8  H5  UNL d   1       5.065  -0.160  -5.400  0.00  0.00     0.418 HD
ENDBRANCH   4   7
TORSDOF 1
ENDMDL
