MODEL 1
REMARK minimizedAffinity 10.2385988
REMARK minimizedRMSD -1
REMARK  1 active torsions:
REMARK  status: ('A' for Active; 'I' for Inactive)
REMARK    1  A    between atoms: C3_4  and  O_7 
ROOT
ATOM      1  C   UNL d   1       5.974   3.729  -5.927  0.00  0.00    -0.033 A 
ATOM      2  C1  UNL d   1       5.986   2.334  -5.998  0.00  0.00     0.039 A 
ATOM      3  C2  UNL d   1       4.784   1.623  -5.998  0.00  0.00    -0.080 A 
ATOM      4  C3  UNL d   1       3.579   2.318  -5.927  0.00  0.00     0.150 A 
ATOM      5  C4  UNL d   1       3.560   3.707  -5.859  0.00  0.00    -0.007 A 
ATOM      6  C5  UNL d   1       4.761   4.415  -5.858  0.00  0.00     0.039 A 
ENDROOT
BRANCH   4   7
ATOM      7  O   UNL d   1       2.381   1.667  -5.919  0.00  0.00    -0.526 OA
ATOM      8  H5  UNL d   1       2.550   0.710  -5.942  0.00  0.00     0.418 HD
ENDBRANCH   4   7
TORSDOF 1
ENDMDL
