MODEL 1
REMARK minimizedAffinity 5.55436563
REMARK minimizedRMSD -1
REMARK  1 active torsions:
REMARK  status: ('A' for Active; 'I' for Inactive)
REMARK    1  A    between atoms: C3_4  and  O_7 
ROOT
ATOM      1  C   UNL d   1      -1.115  -1.795   1.416  0.00  0.00    -0.033 A 
ATOM      2  C1  UNL d   1      -1.801  -2.814   0.752  0.00  0.00     0.039 A 
ATOM      3  C2  UNL d   1      -1.484  -3.126  -0.571  0.00  0.00    -0.080 A 
ATOM      4  C3  UNL d   1      -0.478  -2.413  -1.218  0.00  0.00     0.150 A 
ATOM      5  C4  UNL d   1       0.212  -1.399  -0.563  0.00  0.00    -0.007 A 
ATOM      6  C5  UNL d   1      -0.107  -1.089   0.759  0.00  0.00     0.039 A 
ENDROOT
BRANCH   4   7
ATOM      7  O   UNL d   1      -0.136  -2.678  -2.511  0.00  0.00    -0.526 OA
ATOM      8  H5  UNL d   1      -0.716  -3.382  -2.845  0.00  0.00     0.418 HD
ENDBRANCH   4   7
TORSDOF 1
ENDMDL
