MODEL 1
REMARK minimizedAffinity 1.6048249
REMARK minimizedRMSD -1
REMARK  1 active torsions:
REMARK  status: ('A' for Active; 'I' for Inactive)
REMARK    1  A    between atoms: C3_4  and  O_7 
ROOT
ATOM      1  C   UNL d   1      -0.268   2.976   0.385  0.00  0.00    -0.033 A 
ATOM      2  C1  UNL d   1      -1.501   3.485   0.797  0.00  0.00     0.039 A 
ATOM      3  C2  UNL d   1      -2.086   3.028   1.980  0.00  0.00    -0.080 A 
ATOM      4  C3  UNL d   1      -1.429   2.064   2.739  0.00  0.00     0.150 A 
ATOM      5  C4  UNL d   1      -0.198   1.555   2.336  0.00  0.00    -0.007 A 
ATOM      6  C5  UNL d   1       0.384   2.012   1.155  0.00  0.00     0.039 A 
ENDROOT
BRANCH   4   7
ATOM      7  O   UNL d   1      -1.963   1.584   3.898  0.00  0.00    -0.526 OA
ATOM      8  H5  UNL d   1      -2.828   2.005   4.036  0.00  0.00     0.418 HD
ENDBRANCH   4   7
TORSDOF 1
ENDMDL
