MODEL 1
REMARK minimizedAffinity 7.20597553
REMARK minimizedRMSD -1
REMARK  1 active torsions:
REMARK  status: ('A' for Active; 'I' for Inactive)
REMARK    1  A    between atoms: C3_4  and  O_7 
ROOT
ATOM      1  C   UNL d   1       3.434  -5.577  -6.000  0.00  0.00    -0.033 A 
ATOM      2  C1  UNL d   1       2.104  -6.000  -6.000  0.00  0.00     0.039 A 
ATOM      3  C2  UNL d   1       1.212  -5.506  -5.045  0.00  0.00    -0.080 A 
ATOM      4  C3  UNL d   1       1.663  -4.591  -4.098  0.00  0.00     0.150 A 
ATOM      5  C4  UNL d   1       2.986  -4.163  -4.094  0.00  0.00    -0.007 A 
ATOM      6  C5  UNL d   1       3.875  -4.657  -5.048  0.00  0.00     0.039 A 
ENDROOT
BRANCH   4   7
ATOM      7  O   UNL d   1       0.831  -4.085  -3.144  0.00  0.00    -0.526 OA
ATOM      8  H5  UNL d   1      -0.044  -4.492  -3.252  0.00  0.00     0.418 HD
ENDBRANCH   4   7
TORSDOF 1
ENDMDL
