MODEL 1
REMARK minimizedAffinity 7.29939222
REMARK minimizedRMSD -1
REMARK  1 active torsions:
REMARK  status: ('A' for Active; 'I' for Inactive)
REMARK    1  A    between atoms: C3_4  and  O_7 
ROOT
ATOM      1  C   UNL d   1      -3.005  -6.000   3.580  0.00  0.00    -0.033 A 
ATOM      2  C1  UNL d   1      -2.233  -5.372   4.560  0.00  0.00     0.039 A 
ATOM      3  C2  UNL d   1      -1.821  -4.050   4.385  0.00  0.00    -0.080 A 
ATOM      4  C3  UNL d   1      -2.187  -3.367   3.228  0.00  0.00     0.150 A 
ATOM      5  C4  UNL d   1      -2.958  -3.985   2.250  0.00  0.00    -0.007 A 
ATOM      6  C5  UNL d   1      -3.369  -5.306   2.426  0.00  0.00     0.039 A 
ENDROOT
BRANCH   4   7
ATOM      7  O   UNL d   1      -1.804  -2.077   3.011  0.00  0.00    -0.526 OA
ATOM      8  H5  UNL d   1      -1.252  -1.790   3.757  0.00  0.00     0.418 HD
ENDBRANCH   4   7
TORSDOF 1
ENDMDL
