MODEL 1
REMARK minimizedAffinity 1.28580594
REMARK minimizedRMSD -1
REMARK  1 active torsions:
REMARK  status: ('A' for Active; 'I' for Inactive)
REMARK    1  A    between atoms: C3_4  and  O_7 
ROOT
ATOM      1  C   UNL d   1       3.872  -5.144  -4.875  0.00  0.00    -0.033 A 
ATOM      2  C1  UNL d   1       3.110  -4.867  -3.738  0.00  0.00     0.039 A 
ATOM      3  C2  UNL d   1       1.743  -5.150  -3.725  0.00  0.00    -0.080 A 
ATOM      4  C3  UNL d   1       1.151  -5.710  -4.854  0.00  0.00     0.150 A 
ATOM      5  C4  UNL d   1       1.904  -5.992  -5.988  0.00  0.00    -0.007 A 
ATOM      6  C5  UNL d   1       3.269  -5.708  -6.000  0.00  0.00     0.039 A 
ENDROOT
BRANCH   4   7
ATOM      7  O   UNL d   1      -0.181  -5.999  -4.890  0.00  0.00    -0.526 OA
ATOM      8  H5  UNL d   1      -0.579  -5.724  -4.047  0.00  0.00     0.418 HD
ENDBRANCH   4   7
TORSDOF 1
ENDMDL
