MODEL 1
REMARK minimizedAffinity -0.416009635
REMARK minimizedRMSD -1
REMARK  1 active torsions:
REMARK  status: ('A' for Active; 'I' for Inactive)
REMARK    1  A    between atoms: C3_4  and  O_7 
ROOT
ATOM      1  C   UNL d   1      -4.051   4.831  -6.000  0.00  0.00    -0.033 A 
ATOM      2  C1  UNL d   1      -5.433   4.849  -5.801  0.00  0.00     0.039 A 
ATOM      3  C2  UNL d   1      -6.000   4.112  -4.759  0.00  0.00    -0.080 A 
ATOM      4  C3  UNL d   1      -5.175   3.364  -3.924  0.00  0.00     0.150 A 
ATOM      5  C4  UNL d   1      -3.797   3.345  -4.114  0.00  0.00    -0.007 A 
ATOM      6  C5  UNL d   1      -3.233   4.080  -5.155  0.00  0.00     0.039 A 
ENDROOT
BRANCH   4   7
ATOM      7  O   UNL d   1      -5.683   2.625  -2.897  0.00  0.00    -0.526 OA
ATOM      8  H5  UNL d   1      -6.651   2.712  -2.905  0.00  0.00     0.418 HD
ENDBRANCH   4   7
TORSDOF 1
ENDMDL
