MODEL 1
REMARK minimizedAffinity 4.17043352
REMARK minimizedRMSD -1
REMARK  1 active torsions:
REMARK  status: ('A' for Active; 'I' for Inactive)
REMARK    1  A    between atoms: C3_4  and  O_7 
ROOT
ATOM      1  C   UNL d   1      -1.622   3.022   1.268  0.00  0.00    -0.033 A 
ATOM      2  C1  UNL d   1      -1.343   2.173   2.341  0.00  0.00     0.039 A 
ATOM      3  C2  UNL d   1      -0.028   1.786   2.604  0.00  0.00    -0.080 A 
ATOM      4  C3  UNL d   1       0.998   2.254   1.788  0.00  0.00     0.150 A 
ATOM      5  C4  UNL d   1       0.728   3.103   0.720  0.00  0.00    -0.007 A 
ATOM      6  C5  UNL d   1      -0.586   3.488   0.458  0.00  0.00     0.039 A 
ENDROOT
BRANCH   4   7
ATOM      7  O   UNL d   1       2.297   1.900   2.002  0.00  0.00    -0.526 OA
ATOM      8  H5  UNL d   1       2.329   1.287   2.756  0.00  0.00     0.418 HD
ENDBRANCH   4   7
TORSDOF 1
ENDMDL
