MODEL 1
REMARK minimizedAffinity 1.43785
REMARK minimizedRMSD -1
REMARK  1 active torsions:
REMARK  status: ('A' for Active; 'I' for Inactive)
REMARK    1  A    between atoms: C3_4  and  O_7 
ROOT
ATOM      1  C   UNL d   1      -3.258   5.677  -5.960  0.00  0.00    -0.033 A 
ATOM      2  C1  UNL d   1      -3.797   4.390  -6.000  0.00  0.00     0.039 A 
ATOM      3  C2  UNL d   1      -3.358   3.419  -5.097  0.00  0.00    -0.080 A 
ATOM      4  C3  UNL d   1      -2.382   3.748  -4.160  0.00  0.00     0.150 A 
ATOM      5  C4  UNL d   1      -1.844   5.030  -4.112  0.00  0.00    -0.007 A 
ATOM      6  C5  UNL d   1      -2.283   5.998  -5.015  0.00  0.00     0.039 A 
ENDROOT
BRANCH   4   7
ATOM      7  O   UNL d   1      -1.919   2.833  -3.262  0.00  0.00    -0.526 OA
ATOM      8  H5  UNL d   1      -2.360   1.984  -3.432  0.00  0.00     0.418 HD
ENDBRANCH   4   7
TORSDOF 1
ENDMDL
