MODEL 1
REMARK minimizedAffinity -3.0614419
REMARK minimizedRMSD -1
REMARK  1 active torsions:
REMARK  status: ('A' for Active; 'I' for Inactive)
REMARK    1  A    between atoms: C3_4  and  O_7 
ROOT
ATOM      1  C   UNL d   1       5.066   1.686  -5.860  0.00  0.00    -0.033 A 
ATOM      2  C1  UNL d   1       5.998   2.724  -5.797  0.00  0.00     0.039 A 
ATOM      3  C2  UNL d   1       5.570   4.052  -5.839  0.00  0.00    -0.080 A 
ATOM      4  C3  UNL d   1       4.210   4.329  -5.941  0.00  0.00     0.150 A 
ATOM      5  C4  UNL d   1       3.276   3.300  -6.000  0.00  0.00    -0.007 A 
ATOM      6  C5  UNL d   1       3.705   1.974  -5.960  0.00  0.00     0.039 A 
ENDROOT
BRANCH   4   7
ATOM      7  O   UNL d   1       3.745   5.610  -5.990  0.00  0.00    -0.526 OA
ATOM      8  H5  UNL d   1       4.506   6.214  -5.969  0.00  0.00     0.418 HD
ENDBRANCH   4   7
TORSDOF 1
ENDMDL
