MODEL 1
REMARK minimizedAffinity 0.219073281
REMARK minimizedRMSD -1
REMARK  1 active torsions:
REMARK  status: ('A' for Active; 'I' for Inactive)
REMARK    1  A    between atoms: C3_4  and  O_7 
ROOT
ATOM      1  C   UNL d   1       3.890   4.447  -5.797  0.00  0.00    -0.033 A 
ATOM      2  C1  UNL d   1       5.275   4.474  -5.966  0.00  0.00     0.039 A 
ATOM      3  C2  UNL d   1       6.000   3.281  -5.999  0.00  0.00    -0.080 A 
ATOM      4  C3  UNL d   1       5.328   2.070  -5.864  0.00  0.00     0.150 A 
ATOM      5  C4  UNL d   1       3.947   2.035  -5.699  0.00  0.00    -0.007 A 
ATOM      6  C5  UNL d   1       3.225   3.227  -5.665  0.00  0.00     0.039 A 
ENDROOT
BRANCH   4   7
ATOM      7  O   UNL d   1       5.993   0.880  -5.886  0.00  0.00    -0.526 OA
ATOM      8  H5  UNL d   1       6.943   1.060  -5.977  0.00  0.00     0.418 HD
ENDBRANCH   4   7
TORSDOF 1
ENDMDL
