MODEL 1
REMARK minimizedAffinity -2.11973548
REMARK minimizedRMSD -1
REMARK  1 active torsions:
REMARK  status: ('A' for Active; 'I' for Inactive)
REMARK    1  A    between atoms: C3_4  and  O_7 
ROOT
ATOM      1  C   UNL d   1       4.514   1.000  -5.629  0.00  0.00    -0.033 A 
ATOM      2  C1  UNL d   1       5.764   1.494  -5.249  0.00  0.00     0.039 A 
ATOM      3  C2  UNL d   1       6.000   2.870  -5.242  0.00  0.00    -0.080 A 
ATOM      4  C3  UNL d   1       4.980   3.740  -5.616  0.00  0.00     0.150 A 
ATOM      5  C4  UNL d   1       3.732   3.255  -5.993  0.00  0.00    -0.007 A 
ATOM      6  C5  UNL d   1       3.498   1.881  -6.000  0.00  0.00     0.039 A 
ENDROOT
BRANCH   4   7
ATOM      7  O   UNL d   1       5.165   5.091  -5.630  0.00  0.00    -0.526 OA
ATOM      8  H5  UNL d   1       6.083   5.278  -5.374  0.00  0.00     0.418 HD
ENDBRANCH   4   7
TORSDOF 1
ENDMDL
