MODEL 1
REMARK minimizedAffinity 7.67546272
REMARK minimizedRMSD -1
REMARK  1 active torsions:
REMARK  status: ('A' for Active; 'I' for Inactive)
REMARK    1  A    between atoms: C3_4  and  O_7 
ROOT
ATOM      1  C   UNL d   1       0.788   1.700   0.728  0.00  0.00    -0.033 A 
ATOM      2  C1  UNL d   1       0.815   0.313   0.570  0.00  0.00     0.039 A 
ATOM      3  C2  UNL d   1       0.011  -0.498   1.372  0.00  0.00    -0.080 A 
ATOM      4  C3  UNL d   1      -0.814   0.088   2.328  0.00  0.00     0.150 A 
ATOM      5  C4  UNL d   1      -0.848   1.469   2.489  0.00  0.00    -0.007 A 
ATOM      6  C5  UNL d   1      -0.044   2.278   1.687  0.00  0.00     0.039 A 
ENDROOT
BRANCH   4   7
ATOM      7  O   UNL d   1      -1.612  -0.663   3.138  0.00  0.00    -0.526 OA
ATOM      8  H5  UNL d   1      -1.463  -1.601   2.933  0.00  0.00     0.418 HD
ENDBRANCH   4   7
TORSDOF 1
ENDMDL
